MODEL 1
REMARK VINA RESULT:     -11.8      0.000      0.000
REMARK SMILES Cc1ccnc(C(=O)c2[nH]c3ccc(C(C)(C)C)cc3c2CC(=O)OCCOCCOC(=O)c2ccc(-c3c4nc(c(-c5cccc(S(=O)(=O)[O-])c5F)c5ccc([nH]5)c(-c5cccc(S(=O)(=O)[O-])c5F)c5nc(c(-c6cccc(S(=O)(=O)[O-])c6F)c6ccc3[nH]6)C=C5)C=C4)cc2)c1
REMARK SMILES IDX 28 1 27 2 26 3 25 4 23 5 24 6 22 7 21 8 9 9 10 10 11 11
REMARK SMILES IDX 20 13 12 14 19 15 13 16 14 17 7 18 8 19 6 20 1 21 2 22 3 23
REMARK SMILES IDX 97 24 4 25 5 26 15 27 16 28 17 29 18 30 29 31 30 32 31 33
REMARK SMILES IDX 32 34 33 35 34 36 35 37 96 38 36 39 95 40 37 41 38 42 39 43
REMARK SMILES IDX 89 44 40 45 94 46 88 47 90 48 41 49 93 50 87 51 86 52 42 54
REMARK SMILES IDX 74 55 54 56 73 57 55 58 58 59 72 60 91 61 56 62 57 63 71 65
REMARK SMILES IDX 92 66 59 67 43 68 44 69 52 70 45 71 47 72 53 73 46 74 48 75
REMARK SMILES IDX 49 76 50 77 51 78 75 79 76 80 84 81 77 82 79 83 85 84 78 85
REMARK SMILES IDX 80 86 81 87 82 88 83 89 60 90 61 91 69 92 62 93 64 94 70 95
REMARK SMILES IDX 63 96 65 97 66 98 67 99 68 100
REMARK H PARENT 10 12 90 53 58 64
REMARK Flexibility Score: inf
ROOT
ATOM      1  O   UNL A   1      34.473  31.279  27.713  1.00  0.00    -0.374 OA
ENDROOT
BRANCH   1   2
ATOM      2  C   UNL A   1      35.123  30.051  27.385  1.00  0.00     0.202 C 
BRANCH   2   3
ATOM      3  C   UNL A   1      34.252  28.830  27.060  1.00  0.00     0.261 C 
BRANCH   3   4
ATOM      4  O   UNL A   1      34.095  28.600  25.643  1.00  0.00    -0.463 OA
BRANCH   4   5
ATOM      5  C   UNL A   1      32.811  28.465  25.215  1.00  0.00     0.310 C 
ATOM      6  O   UNL A   1      32.136  29.391  24.763  1.00  0.00    -0.252 OA
BRANCH   5   7
ATOM      7  C   UNL A   1      32.205  27.093  25.397  1.00  0.00     0.161 C 
BRANCH   7   8
ATOM      8  C   UNL A   1      31.988  26.217  24.190  1.00  0.00     0.000 A 
ATOM      9  C   UNL A   1      30.836  26.104  23.404  1.00  0.00     0.093 A 
ATOM     10  N   UNL A   1      31.134  25.193  22.408  1.00  0.00    -0.352 N 
ATOM     11  C   UNL A   1      32.276  24.494  22.722  1.00  0.00     0.046 A 
ATOM     12  H   UNL A   1      30.602  25.063  21.589  1.00  0.00     0.167 HD
ATOM     13  C   UNL A   1      32.843  25.134  23.815  1.00  0.00     0.004 A 
ATOM     14  C   UNL A   1      32.845  23.352  22.149  1.00  0.00     0.027 A 
ATOM     15  C   UNL A   1      34.015  24.593  24.377  1.00  0.00     0.015 A 
ATOM     16  C   UNL A   1      33.975  22.798  22.777  1.00  0.00     0.006 A 
ATOM     17  C   UNL A   1      34.560  23.380  23.912  1.00  0.00    -0.042 A 
BRANCH   9  18
ATOM     18  C   UNL A   1      29.575  26.810  23.594  1.00  0.00     0.227 C 
ATOM     19  O   UNL A   1      28.629  26.297  24.192  1.00  0.00    -0.285 OA
BRANCH  18  20
ATOM     20  C   UNL A   1      29.334  28.161  22.999  1.00  0.00     0.113 A 
ATOM     21  C   UNL A   1      27.383  31.338  23.652  1.00  0.00     0.044 C 
ATOM     22  C   UNL A   1      28.342  30.343  23.073  1.00  0.00    -0.047 A 
ATOM     23  C   UNL A   1      29.299  30.758  22.141  1.00  0.00     0.023 A 
ATOM     24  C   UNL A   1      28.366  29.017  23.517  1.00  0.00     0.036 A 
ATOM     25  C   UNL A   1      30.209  29.831  21.664  1.00  0.00     0.112 A 
ATOM     26  N   UNL A   1      30.239  28.545  22.061  1.00  0.00    -0.253 NA
ENDBRANCH  18  20
ENDBRANCH   9  18
BRANCH  17  27
ATOM     27  C   UNL A   1      35.711  22.734  24.706  1.00  0.00    -0.013 C 
ATOM     28  C   UNL A   1      37.041  22.896  23.942  1.00  0.00     0.016 C 
ATOM     29  C   UNL A   1      35.827  23.441  26.080  1.00  0.00     0.016 C 
ATOM     30  C   UNL A   1      35.515  21.231  24.992  1.00  0.00     0.016 C 
ENDBRANCH  17  27
ENDBRANCH   7   8
ENDBRANCH   5   7
ENDBRANCH   4   5
ENDBRANCH   3   4
ENDBRANCH   2   3
ENDBRANCH   1   2
BRANCH   1  31
ATOM     31  C   UNL A   1      33.111  31.410  27.315  1.00  0.00     0.202 C 
BRANCH  31  32
ATOM     32  C   UNL A   1      32.395  32.722  27.665  1.00  0.00     0.261 C 
BRANCH  32  33
ATOM     33  O   UNL A   1      33.222  33.885  27.518  1.00  0.00    -0.460 OA
BRANCH  33  34
ATOM     34  C   UNL A   1      33.307  34.657  28.627  1.00  0.00     0.338 C 
ATOM     35  O   UNL A   1      32.518  35.514  29.002  1.00  0.00    -0.246 OA
BRANCH  34  36
ATOM     36  C   UNL A   1      34.435  34.205  29.453  1.00  0.00     0.060 A 
ATOM     37  C   UNL A   1      35.728  34.453  28.974  1.00  0.00     0.016 A 
ATOM     38  C   UNL A   1      34.235  33.524  30.656  1.00  0.00     0.016 A 
ATOM     39  C   UNL A   1      36.832  34.001  29.690  1.00  0.00     0.010 A 
ATOM     40  C   UNL A   1      35.344  33.059  31.364  1.00  0.00     0.010 A 
ATOM     41  C   UNL A   1      36.644  33.278  30.875  1.00  0.00    -0.014 A 
BRANCH  41  42
ATOM     42  C   UNL A   1      37.810  32.676  31.558  1.00  0.00     0.031 A 
ATOM     43  C   UNL A   1      38.516  31.516  30.916  1.00  0.00     0.074 A 
ATOM     44  C   UNL A   1      38.217  33.160  32.745  1.00  0.00     0.049 A 
ATOM     45  N   UNL A   1      39.530  30.821  31.356  1.00  0.00    -0.248 NA
ATOM     46  C   UNL A   1      38.011  31.081  29.602  1.00  0.00     0.031 C 
ATOM     47  C   UNL A   1      37.603  34.285  33.451  1.00  0.00     0.029 A 
ATOM     48  N   UNL A   1      39.226  32.749  33.578  1.00  0.00    -0.354 N 
ATOM     49  C   UNL A   1      39.765  29.846  30.395  1.00  0.00     0.074 A 
ATOM     50  C   UNL A   1      38.787  30.037  29.346  1.00  0.00     0.031 C 
ATOM     51  C   UNL A   1      38.231  34.457  34.627  1.00  0.00     0.029 A 
ATOM     52  C   UNL A   1      39.267  33.438  34.769  1.00  0.00     0.049 A 
ATOM     53  H   UNL A   1      39.859  32.031  33.348  1.00  0.00     0.167 HD
ATOM     54  C   UNL A   1      40.715  28.881  30.389  1.00  0.00     0.034 A 
ATOM     55  C   UNL A   1      40.036  33.243  35.858  1.00  0.00     0.034 A 
ATOM     56  C   UNL A   1      41.690  28.711  31.433  1.00  0.00     0.049 A 
ATOM     57  C   UNL A   1      41.061  32.140  35.835  1.00  0.00     0.074 A 
ATOM     58  C   UNL A   1      42.735  27.809  31.493  1.00  0.00     0.029 A 
ATOM     59  N   UNL A   1      41.721  29.443  32.610  1.00  0.00    -0.354 N 
ATOM     60  N   UNL A   1      41.363  31.312  34.863  1.00  0.00    -0.248 NA
ATOM     61  C   UNL A   1      41.870  31.958  37.048  1.00  0.00     0.031 C 
ATOM     62  C   UNL A   1      43.374  27.966  32.728  1.00  0.00     0.029 A 
ATOM     63  C   UNL A   1      42.751  28.993  33.420  1.00  0.00     0.049 A 
ATOM     64  H   UNL A   1      41.105  30.176  32.837  1.00  0.00     0.167 HD
ATOM     65  C   UNL A   1      42.412  30.533  35.335  1.00  0.00     0.074 A 
ATOM     66  C   UNL A   1      42.713  31.007  36.671  1.00  0.00     0.031 C 
ATOM     67  C   UNL A   1      43.059  29.505  34.730  1.00  0.00     0.034 A 
BRANCH  54  68
ATOM     68  C   UNL A   1      40.755  27.935  29.219  1.00  0.00     0.023 A 
ATOM     69  C   UNL A   1      39.868  26.842  29.165  1.00  0.00     0.012 A 
ATOM     70  C   UNL A   1      41.624  28.175  28.135  1.00  0.00     0.148 A 
ATOM     71  C   UNL A   1      39.861  25.989  28.062  1.00  0.00     0.002 A 
ATOM     72  C   UNL A   1      41.581  27.346  27.021  1.00  0.00     0.091 A 
ATOM     73  F   UNL A   1      42.475  29.208  28.216  1.00  0.00    -0.205 F 
ATOM     74  C   UNL A   1      40.707  26.247  26.987  1.00  0.00     0.022 A 
BRANCH  72  75
ATOM     75  S   UNL A   1      42.575  27.638  25.554  1.00  0.00     0.127 S 
ATOM     76  O   UNL A   1      42.003  28.888  25.054  1.00  0.00    -0.237 OA
ATOM     77  O   UNL A   1      43.919  27.766  26.116  1.00  0.00    -0.237 OA
ATOM     78  O   UNL A   1      42.379  26.479  24.695  1.00  0.00    -0.744 OA
ENDBRANCH  72  75
ENDBRANCH  54  68
BRANCH  55  79
ATOM     79  C   UNL A   1      39.878  34.116  37.056  1.00  0.00     0.023 A 
ATOM     80  C   UNL A   1      40.347  35.444  37.016  1.00  0.00     0.012 A 
ATOM     81  C   UNL A   1      39.265  33.642  38.232  1.00  0.00     0.148 A 
ATOM     82  C   UNL A   1      40.240  36.271  38.135  1.00  0.00     0.002 A 
ATOM     83  C   UNL A   1      39.109  34.488  39.324  1.00  0.00     0.091 A 
ATOM     84  F   UNL A   1      38.839  32.371  38.259  1.00  0.00    -0.205 F 
ATOM     85  C   UNL A   1      39.613  35.797  39.284  1.00  0.00     0.022 A 
BRANCH  83  86
ATOM     86  S   UNL A   1      38.206  34.003  40.799  1.00  0.00     0.127 S 
ATOM     87  O   UNL A   1      39.124  33.048  41.412  1.00  0.00    -0.237 OA
ATOM     88  O   UNL A   1      38.077  35.276  41.507  1.00  0.00    -0.237 OA
ATOM     89  O   UNL A   1      36.944  33.451  40.324  1.00  0.00    -0.744 OA
ENDBRANCH  83  86
ENDBRANCH  55  79
BRANCH  67  90
ATOM     90  C   UNL A   1      44.171  28.836  35.494  1.00  0.00     0.023 A 
ATOM     91  C   UNL A   1      45.482  29.345  35.411  1.00  0.00     0.012 A 
ATOM     92  C   UNL A   1      43.903  27.751  36.353  1.00  0.00     0.148 A 
ATOM     93  C   UNL A   1      46.515  28.764  36.142  1.00  0.00     0.002 A 
ATOM     94  C   UNL A   1      44.928  27.212  37.120  1.00  0.00     0.091 A 
ATOM     95  F   UNL A   1      42.652  27.274  36.407  1.00  0.00    -0.205 F 
ATOM     96  C   UNL A   1      46.237  27.707  37.006  1.00  0.00     0.022 A 
BRANCH  94  97
ATOM     97  S   UNL A   1      44.648  25.915  38.331  1.00  0.00     0.127 S 
ATOM     98  O   UNL A   1      46.015  25.550  38.698  1.00  0.00    -0.237 OA
ATOM     99  O   UNL A   1      43.905  26.624  39.374  1.00  0.00    -0.237 OA
ATOM    100  O   UNL A   1      43.889  24.878  37.645  1.00  0.00    -0.744 OA
ENDBRANCH  94  97
ENDBRANCH  67  90
ENDBRANCH  41  42
ENDBRANCH  34  36
ENDBRANCH  33  34
ENDBRANCH  32  33
ENDBRANCH  31  32
ENDBRANCH   1  31
TORSDOF 21
ENDMDL
MODEL 2
REMARK VINA RESULT:     -11.4      1.910      4.265
REMARK SMILES Cc1ccnc(C(=O)c2[nH]c3ccc(C(C)(C)C)cc3c2CC(=O)OCCOCCOC(=O)c2ccc(-c3c4nc(c(-c5cccc(S(=O)(=O)[O-])c5F)c5ccc([nH]5)c(-c5cccc(S(=O)(=O)[O-])c5F)c5nc(c(-c6cccc(S(=O)(=O)[O-])c6F)c6ccc3[nH]6)C=C5)C=C4)cc2)c1
REMARK SMILES IDX 28 1 27 2 26 3 25 4 23 5 24 6 22 7 21 8 9 9 10 10 11 11
REMARK SMILES IDX 20 13 12 14 19 15 13 16 14 17 7 18 8 19 6 20 1 21 2 22 3 23
REMARK SMILES IDX 97 24 4 25 5 26 15 27 16 28 17 29 18 30 29 31 30 32 31 33
REMARK SMILES IDX 32 34 33 35 34 36 35 37 96 38 36 39 95 40 37 41 38 42 39 43
REMARK SMILES IDX 89 44 40 45 94 46 88 47 90 48 41 49 93 50 87 51 86 52 42 54
REMARK SMILES IDX 74 55 54 56 73 57 55 58 58 59 72 60 91 61 56 62 57 63 71 65
REMARK SMILES IDX 92 66 59 67 43 68 44 69 52 70 45 71 47 72 53 73 46 74 48 75
REMARK SMILES IDX 49 76 50 77 51 78 75 79 76 80 84 81 77 82 79 83 85 84 78 85
REMARK SMILES IDX 80 86 81 87 82 88 83 89 60 90 61 91 69 92 62 93 64 94 70 95
REMARK SMILES IDX 63 96 65 97 66 98 67 99 68 100
REMARK H PARENT 10 12 90 53 58 64
REMARK Flexibility Score: inf
ROOT
ATOM      1  O   UNL A   1      33.783  30.695  27.123  1.00  0.00    -0.374 OA
ENDROOT
BRANCH   1   2
ATOM      2  C   UNL A   1      34.152  29.342  26.853  1.00  0.00     0.202 C 
BRANCH   2   3
ATOM      3  C   UNL A   1      33.205  28.484  26.004  1.00  0.00     0.261 C 
BRANCH   3   4
ATOM      4  O   UNL A   1      33.888  27.487  25.214  1.00  0.00    -0.463 OA
BRANCH   4   5
ATOM      5  C   UNL A   1      33.849  27.685  23.868  1.00  0.00     0.310 C 
ATOM      6  O   UNL A   1      34.141  28.749  23.321  1.00  0.00    -0.252 OA
BRANCH   5   7
ATOM      7  C   UNL A   1      33.340  26.518  23.054  1.00  0.00     0.161 C 
BRANCH   7   8
ATOM      8  C   UNL A   1      31.985  25.938  23.367  1.00  0.00     0.000 A 
ATOM      9  C   UNL A   1      31.585  24.600  23.300  1.00  0.00     0.093 A 
ATOM     10  N   UNL A   1      30.262  24.569  23.699  1.00  0.00    -0.352 N 
ATOM     11  C   UNL A   1      29.728  25.837  23.688  1.00  0.00     0.046 A 
ATOM     12  H   UNL A   1      29.770  23.754  23.954  1.00  0.00     0.167 HD
ATOM     13  C   UNL A   1      30.790  26.712  23.513  1.00  0.00     0.004 A 
ATOM     14  C   UNL A   1      28.407  26.282  23.804  1.00  0.00     0.027 A 
ATOM     15  C   UNL A   1      30.519  28.090  23.420  1.00  0.00     0.015 A 
ATOM     16  C   UNL A   1      28.163  27.657  23.638  1.00  0.00     0.006 A 
ATOM     17  C   UNL A   1      29.197  28.579  23.411  1.00  0.00    -0.042 A 
BRANCH   9  18
ATOM     18  C   UNL A   1      32.402  23.461  22.897  1.00  0.00     0.227 C 
ATOM     19  O   UNL A   1      33.147  23.513  21.919  1.00  0.00    -0.285 OA
BRANCH  18  20
ATOM     20  C   UNL A   1      32.315  22.144  23.600  1.00  0.00     0.113 A 
ATOM     21  C   UNL A   1      32.396  18.430  22.872  1.00  0.00     0.044 C 
ATOM     22  C   UNL A   1      32.386  19.747  23.588  1.00  0.00    -0.047 A 
ATOM     23  C   UNL A   1      32.628  19.794  24.964  1.00  0.00     0.023 A 
ATOM     24  C   UNL A   1      32.234  20.949  22.889  1.00  0.00     0.036 A 
ATOM     25  C   UNL A   1      32.670  21.027  25.591  1.00  0.00     0.112 A 
ATOM     26  N   UNL A   1      32.506  22.197  24.945  1.00  0.00    -0.253 NA
ENDBRANCH  18  20
ENDBRANCH   9  18
BRANCH  17  27
ATOM     27  C   UNL A   1      28.961  30.067  23.091  1.00  0.00    -0.013 C 
ATOM     28  C   UNL A   1      29.779  30.953  24.052  1.00  0.00     0.016 C 
ATOM     29  C   UNL A   1      29.416  30.342  21.636  1.00  0.00     0.016 C 
ATOM     30  C   UNL A   1      27.486  30.507  23.189  1.00  0.00     0.016 C 
ENDBRANCH  17  27
ENDBRANCH   7   8
ENDBRANCH   5   7
ENDBRANCH   4   5
ENDBRANCH   3   4
ENDBRANCH   2   3
ENDBRANCH   1   2
BRANCH   1  31
ATOM     31  C   UNL A   1      32.418  31.043  26.905  1.00  0.00     0.202 C 
BRANCH  31  32
ATOM     32  C   UNL A   1      32.042  32.528  27.006  1.00  0.00     0.261 C 
BRANCH  32  33
ATOM     33  O   UNL A   1      33.176  33.406  27.037  1.00  0.00    -0.460 OA
BRANCH  33  34
ATOM     34  C   UNL A   1      33.298  34.124  28.178  1.00  0.00     0.338 C 
ATOM     35  O   UNL A   1      32.542  34.988  28.601  1.00  0.00    -0.246 OA
BRANCH  34  36
ATOM     36  C   UNL A   1      34.421  33.599  28.969  1.00  0.00     0.060 A 
ATOM     37  C   UNL A   1      35.703  34.079  28.669  1.00  0.00     0.016 A 
ATOM     38  C   UNL A   1      34.230  32.635  29.960  1.00  0.00     0.016 A 
ATOM     39  C   UNL A   1      36.807  33.578  29.352  1.00  0.00     0.010 A 
ATOM     40  C   UNL A   1      35.341  32.125  30.632  1.00  0.00     0.010 A 
ATOM     41  C   UNL A   1      36.634  32.579  30.317  1.00  0.00    -0.014 A 
BRANCH  41  42
ATOM     42  C   UNL A   1      37.819  31.947  30.938  1.00  0.00     0.031 A 
ATOM     43  C   UNL A   1      38.572  30.896  30.174  1.00  0.00     0.074 A 
ATOM     44  C   UNL A   1      38.201  32.306  32.176  1.00  0.00     0.049 A 
ATOM     45  N   UNL A   1      39.610  30.194  30.541  1.00  0.00    -0.248 NA
ATOM     46  C   UNL A   1      38.090  30.595  28.814  1.00  0.00     0.031 C 
ATOM     47  C   UNL A   1      37.541  33.319  33.001  1.00  0.00     0.029 A 
ATOM     48  N   UNL A   1      39.221  31.841  32.966  1.00  0.00    -0.354 N 
ATOM     49  C   UNL A   1      39.887  29.345  29.476  1.00  0.00     0.074 A 
ATOM     50  C   UNL A   1      38.908  29.618  28.448  1.00  0.00     0.031 C 
ATOM     51  C   UNL A   1      38.156  33.379  34.194  1.00  0.00     0.029 A 
ATOM     52  C   UNL A   1      39.230  32.390  34.227  1.00  0.00     0.049 A 
ATOM     53  H   UNL A   1      39.883  31.179  32.661  1.00  0.00     0.167 HD
ATOM     54  C   UNL A   1      40.874  28.423  29.369  1.00  0.00     0.034 A 
ATOM     55  C   UNL A   1      40.001  32.101  35.295  1.00  0.00     0.034 A 
ATOM     56  C   UNL A   1      41.849  28.172  30.395  1.00  0.00     0.049 A 
ATOM     57  C   UNL A   1      41.068  31.047  35.154  1.00  0.00     0.074 A 
ATOM     58  C   UNL A   1      42.929  27.309  30.362  1.00  0.00     0.029 A 
ATOM     59  N   UNL A   1      41.847  28.765  31.649  1.00  0.00    -0.354 N 
ATOM     60  N   UNL A   1      41.406  30.348  34.097  1.00  0.00    -0.248 NA
ATOM     61  C   UNL A   1      41.877  30.759  36.347  1.00  0.00     0.031 C 
ATOM     62  C   UNL A   1      43.555  27.347  31.612  1.00  0.00     0.029 A 
ATOM     63  C   UNL A   1      42.889  28.264  32.411  1.00  0.00     0.049 A 
ATOM     64  H   UNL A   1      41.201  29.443  31.952  1.00  0.00     0.167 HD
ATOM     65  C   UNL A   1      42.482  29.560  34.487  1.00  0.00     0.074 A 
ATOM     66  C   UNL A   1      42.758  29.889  35.871  1.00  0.00     0.031 C 
ATOM     67  C   UNL A   1      43.171  28.634  33.774  1.00  0.00     0.034 A 
BRANCH  54  68
ATOM     68  C   UNL A   1      40.956  27.621  28.098  1.00  0.00     0.023 A 
ATOM     69  C   UNL A   1      41.617  28.150  26.972  1.00  0.00     0.012 A 
ATOM     70  C   UNL A   1      40.442  26.310  28.047  1.00  0.00     0.148 A 
ATOM     71  C   UNL A   1      41.743  27.396  25.805  1.00  0.00     0.002 A 
ATOM     72  C   UNL A   1      40.610  25.549  26.896  1.00  0.00     0.091 A 
ATOM     73  F   UNL A   1      39.798  25.833  29.122  1.00  0.00    -0.205 F 
ATOM     74  C   UNL A   1      41.251  26.094  25.772  1.00  0.00     0.022 A 
BRANCH  72  75
ATOM     75  S   UNL A   1      40.081  23.837  26.778  1.00  0.00     0.127 S 
ATOM     76  O   UNL A   1      40.140  23.413  28.177  1.00  0.00    -0.237 OA
ATOM     77  O   UNL A   1      38.728  23.971  26.239  1.00  0.00    -0.237 OA
ATOM     78  O   UNL A   1      41.030  23.180  25.890  1.00  0.00    -0.744 OA
ENDBRANCH  72  75
ENDBRANCH  54  68
BRANCH  55  79
ATOM     79  C   UNL A   1      39.803  32.825  36.583  1.00  0.00     0.023 A 
ATOM     80  C   UNL A   1      40.574  33.970  36.863  1.00  0.00     0.012 A 
ATOM     81  C   UNL A   1      38.857  32.388  37.530  1.00  0.00     0.148 A 
ATOM     82  C   UNL A   1      40.431  34.646  38.075  1.00  0.00     0.002 A 
ATOM     83  C   UNL A   1      38.678  33.098  38.712  1.00  0.00     0.091 A 
ATOM     84  F   UNL A   1      38.144  31.286  37.256  1.00  0.00    -0.205 F 
ATOM     85  C   UNL A   1      39.477  34.217  38.995  1.00  0.00     0.022 A 
BRANCH  83  86
ATOM     86  S   UNL A   1      37.391  32.690  39.897  1.00  0.00     0.127 S 
ATOM     87  O   UNL A   1      37.878  31.428  40.445  1.00  0.00    -0.237 OA
ATOM     88  O   UNL A   1      37.455  33.827  40.816  1.00  0.00    -0.237 OA
ATOM     89  O   UNL A   1      36.157  32.612  39.126  1.00  0.00    -0.744 OA
ENDBRANCH  83  86
ENDBRANCH  55  79
BRANCH  67  90
ATOM     90  C   UNL A   1      44.304  27.924  34.466  1.00  0.00     0.023 A 
ATOM     91  C   UNL A   1      45.595  28.488  34.453  1.00  0.00     0.012 A 
ATOM     92  C   UNL A   1      44.075  26.740  35.195  1.00  0.00     0.148 A 
ATOM     93  C   UNL A   1      46.647  27.867  35.122  1.00  0.00     0.002 A 
ATOM     94  C   UNL A   1      45.115  26.155  35.905  1.00  0.00     0.091 A 
ATOM     95  F   UNL A   1      42.842  26.213  35.184  1.00  0.00    -0.205 F 
ATOM     96  C   UNL A   1      46.405  26.708  35.858  1.00  0.00     0.022 A 
BRANCH  94  97
ATOM     97  S   UNL A   1      44.880  24.720  36.958  1.00  0.00     0.127 S 
ATOM     98  O   UNL A   1      46.158  24.657  37.666  1.00  0.00    -0.237 OA
ATOM     99  O   UNL A   1      43.744  25.129  37.786  1.00  0.00    -0.237 OA
ATOM    100  O   UNL A   1      44.607  23.602  36.065  1.00  0.00    -0.744 OA
ENDBRANCH  94  97
ENDBRANCH  67  90
ENDBRANCH  41  42
ENDBRANCH  34  36
ENDBRANCH  33  34
ENDBRANCH  32  33
ENDBRANCH  31  32
ENDBRANCH   1  31
TORSDOF 21
ENDMDL
MODEL 3
REMARK VINA RESULT:     -11.4      5.488      8.721
REMARK SMILES Cc1ccnc(C(=O)c2[nH]c3ccc(C(C)(C)C)cc3c2CC(=O)OCCOCCOC(=O)c2ccc(-c3c4nc(c(-c5cccc(S(=O)(=O)[O-])c5F)c5ccc([nH]5)c(-c5cccc(S(=O)(=O)[O-])c5F)c5nc(c(-c6cccc(S(=O)(=O)[O-])c6F)c6ccc3[nH]6)C=C5)C=C4)cc2)c1
REMARK SMILES IDX 28 1 27 2 26 3 25 4 23 5 24 6 22 7 21 8 9 9 10 10 11 11
REMARK SMILES IDX 20 13 12 14 19 15 13 16 14 17 7 18 8 19 6 20 1 21 2 22 3 23
REMARK SMILES IDX 97 24 4 25 5 26 15 27 16 28 17 29 18 30 29 31 30 32 31 33
REMARK SMILES IDX 32 34 33 35 34 36 35 37 96 38 36 39 95 40 37 41 38 42 39 43
REMARK SMILES IDX 89 44 40 45 94 46 88 47 90 48 41 49 93 50 87 51 86 52 42 54
REMARK SMILES IDX 74 55 54 56 73 57 55 58 58 59 72 60 91 61 56 62 57 63 71 65
REMARK SMILES IDX 92 66 59 67 43 68 44 69 52 70 45 71 47 72 53 73 46 74 48 75
REMARK SMILES IDX 49 76 50 77 51 78 75 79 76 80 84 81 77 82 79 83 85 84 78 85
REMARK SMILES IDX 80 86 81 87 82 88 83 89 60 90 61 91 69 92 62 93 64 94 70 95
REMARK SMILES IDX 63 96 65 97 66 98 67 99 68 100
REMARK H PARENT 10 12 90 53 58 64
REMARK Flexibility Score: inf
ROOT
ATOM      1  O   UNL A   1      36.765  20.701  25.424  1.00  0.00    -0.374 OA
ENDROOT
BRANCH   1   2
ATOM      2  C   UNL A   1      36.899  22.112  25.598  1.00  0.00     0.202 C 
BRANCH   2   3
ATOM      3  C   UNL A   1      35.682  23.001  25.312  1.00  0.00     0.261 C 
BRANCH   3   4
ATOM      4  O   UNL A   1      35.051  23.511  26.506  1.00  0.00    -0.463 OA
BRANCH   4   5
ATOM      5  C   UNL A   1      34.097  22.707  27.048  1.00  0.00     0.310 C 
ATOM      6  O   UNL A   1      34.342  21.703  27.716  1.00  0.00    -0.252 OA
BRANCH   5   7
ATOM      7  C   UNL A   1      32.670  23.077  26.715  1.00  0.00     0.161 C 
BRANCH   7   8
ATOM      8  C   UNL A   1      32.217  23.045  25.278  1.00  0.00     0.000 A 
ATOM      9  C   UNL A   1      31.357  23.935  24.626  1.00  0.00     0.093 A 
ATOM     10  N   UNL A   1      31.265  23.499  23.318  1.00  0.00    -0.352 N 
ATOM     11  C   UNL A   1      31.748  22.216  23.205  1.00  0.00     0.046 A 
ATOM     12  H   UNL A   1      30.905  24.032  22.572  1.00  0.00     0.167 HD
ATOM     13  C   UNL A   1      32.374  21.921  24.407  1.00  0.00     0.004 A 
ATOM     14  C   UNL A   1      31.674  21.293  22.156  1.00  0.00     0.027 A 
ATOM     15  C   UNL A   1      32.925  20.638  24.582  1.00  0.00     0.015 A 
ATOM     16  C   UNL A   1      32.173  19.998  22.389  1.00  0.00     0.006 A 
ATOM     17  C   UNL A   1      32.773  19.634  23.604  1.00  0.00    -0.042 A 
BRANCH   9  18
ATOM     18  C   UNL A   1      30.693  25.095  25.209  1.00  0.00     0.227 C 
ATOM     19  O   UNL A   1      30.007  25.005  26.227  1.00  0.00    -0.285 OA
BRANCH  18  20
ATOM     20  C   UNL A   1      30.742  26.439  24.554  1.00  0.00     0.113 A 
ATOM     21  C   UNL A   1      28.492  28.907  22.773  1.00  0.00     0.044 C 
ATOM     22  C   UNL A   1      29.669  28.283  23.458  1.00  0.00    -0.047 A 
ATOM     23  C   UNL A   1      30.773  29.069  23.803  1.00  0.00     0.023 A 
ATOM     24  C   UNL A   1      29.650  26.940  23.849  1.00  0.00     0.036 A 
ATOM     25  C   UNL A   1      31.823  28.480  24.485  1.00  0.00     0.112 A 
ATOM     26  N   UNL A   1      31.837  27.185  24.855  1.00  0.00    -0.253 NA
ENDBRANCH  18  20
ENDBRANCH   9  18
BRANCH  17  27
ATOM     27  C   UNL A   1      33.209  18.197  23.947  1.00  0.00    -0.013 C 
ATOM     28  C   UNL A   1      34.652  18.194  24.490  1.00  0.00     0.016 C 
ATOM     29  C   UNL A   1      32.257  17.632  25.031  1.00  0.00     0.016 C 
ATOM     30  C   UNL A   1      33.156  17.221  22.753  1.00  0.00     0.016 C 
ENDBRANCH  17  27
ENDBRANCH   7   8
ENDBRANCH   5   7
ENDBRANCH   4   5
ENDBRANCH   3   4
ENDBRANCH   2   3
ENDBRANCH   1   2
BRANCH   1  31
ATOM     31  C   UNL A   1      37.805  20.042  24.705  1.00  0.00     0.202 C 
BRANCH  31  32
ATOM     32  C   UNL A   1      39.091  19.704  25.472  1.00  0.00     0.261 C 
BRANCH  32  33
ATOM     33  O   UNL A   1      39.294  20.515  26.638  1.00  0.00    -0.460 OA
BRANCH  33  34
ATOM     34  C   UNL A   1      40.587  20.628  27.024  1.00  0.00     0.338 C 
ATOM     35  O   UNL A   1      41.458  19.771  26.976  1.00  0.00    -0.246 OA
BRANCH  34  36
ATOM     36  C   UNL A   1      40.872  22.027  27.375  1.00  0.00     0.060 A 
ATOM     37  C   UNL A   1      40.281  23.025  26.589  1.00  0.00     0.016 A 
ATOM     38  C   UNL A   1      41.723  22.357  28.431  1.00  0.00     0.016 A 
ATOM     39  C   UNL A   1      40.557  24.364  26.845  1.00  0.00     0.010 A 
ATOM     40  C   UNL A   1      42.010  23.701  28.676  1.00  0.00     0.010 A 
ATOM     41  C   UNL A   1      41.444  24.707  27.872  1.00  0.00    -0.014 A 
BRANCH  41  42
ATOM     42  C   UNL A   1      41.848  26.119  28.050  1.00  0.00     0.031 A 
ATOM     43  C   UNL A   1      43.199  26.560  27.566  1.00  0.00     0.074 A 
ATOM     44  C   UNL A   1      41.014  26.986  28.651  1.00  0.00     0.049 A 
ATOM     45  N   UNL A   1      43.764  27.735  27.652  1.00  0.00    -0.248 NA
ATOM     46  C   UNL A   1      44.026  25.542  26.894  1.00  0.00     0.031 C 
ATOM     47  C   UNL A   1      39.679  26.659  29.153  1.00  0.00     0.029 A 
ATOM     48  N   UNL A   1      41.177  28.311  28.964  1.00  0.00    -0.354 N 
ATOM     49  C   UNL A   1      45.022  27.592  27.080  1.00  0.00     0.074 A 
ATOM     50  C   UNL A   1      45.140  26.217  26.649  1.00  0.00     0.031 C 
ATOM     51  C   UNL A   1      39.154  27.749  29.739  1.00  0.00     0.029 A 
ATOM     52  C   UNL A   1      40.126  28.838  29.680  1.00  0.00     0.049 A 
ATOM     53  H   UNL A   1      41.968  28.835  28.703  1.00  0.00     0.167 HD
ATOM     54  C   UNL A   1      45.988  28.529  26.926  1.00  0.00     0.034 A 
ATOM     55  C   UNL A   1      39.983  30.052  30.247  1.00  0.00     0.034 A 
ATOM     56  C   UNL A   1      45.851  29.897  27.347  1.00  0.00     0.049 A 
ATOM     57  C   UNL A   1      41.090  31.061  30.087  1.00  0.00     0.074 A 
ATOM     58  C   UNL A   1      46.742  30.941  27.179  1.00  0.00     0.029 A 
ATOM     59  N   UNL A   1      44.763  30.404  28.042  1.00  0.00    -0.354 N 
ATOM     60  N   UNL A   1      42.218  30.954  29.425  1.00  0.00    -0.248 NA
ATOM     61  C   UNL A   1      40.895  32.368  30.730  1.00  0.00     0.031 C 
ATOM     62  C   UNL A   1      46.212  32.070  27.812  1.00  0.00     0.029 A 
ATOM     63  C   UNL A   1      44.973  31.740  28.340  1.00  0.00     0.049 A 
ATOM     64  H   UNL A   1      43.961  29.890  28.288  1.00  0.00     0.167 HD
ATOM     65  C   UNL A   1      42.852  32.184  29.548  1.00  0.00     0.074 A 
ATOM     66  C   UNL A   1      41.969  33.031  30.324  1.00  0.00     0.031 C 
ATOM     67  C   UNL A   1      44.063  32.577  29.079  1.00  0.00     0.034 A 
BRANCH  54  68
ATOM     68  C   UNL A   1      47.278  28.113  26.271  1.00  0.00     0.023 A 
ATOM     69  C   UNL A   1      48.347  27.640  27.057  1.00  0.00     0.012 A 
ATOM     70  C   UNL A   1      47.401  28.120  24.867  1.00  0.00     0.148 A 
ATOM     71  C   UNL A   1      49.529  27.204  26.458  1.00  0.00     0.002 A 
ATOM     72  C   UNL A   1      48.565  27.643  24.275  1.00  0.00     0.091 A 
ATOM     73  F   UNL A   1      46.380  28.594  24.139  1.00  0.00    -0.205 F 
ATOM     74  C   UNL A   1      49.633  27.195  25.069  1.00  0.00     0.022 A 
BRANCH  72  75
ATOM     75  S   UNL A   1      48.768  27.519  22.495  1.00  0.00     0.127 S 
ATOM     76  O   UNL A   1      50.094  28.109  22.309  1.00  0.00    -0.237 OA
ATOM     77  O   UNL A   1      48.710  26.073  22.281  1.00  0.00    -0.237 OA
ATOM     78  O   UNL A   1      47.668  28.269  21.908  1.00  0.00    -0.744 OA
ENDBRANCH  72  75
ENDBRANCH  54  68
BRANCH  55  79
ATOM     79  C   UNL A   1      38.745  30.387  31.005  1.00  0.00     0.023 A 
ATOM     80  C   UNL A   1      38.605  29.948  32.336  1.00  0.00     0.012 A 
ATOM     81  C   UNL A   1      37.707  31.137  30.419  1.00  0.00     0.148 A 
ATOM     82  C   UNL A   1      37.441  30.222  33.057  1.00  0.00     0.002 A 
ATOM     83  C   UNL A   1      36.576  31.456  31.161  1.00  0.00     0.091 A 
ATOM     84  F   UNL A   1      37.849  31.532  29.145  1.00  0.00    -0.205 F 
ATOM     85  C   UNL A   1      36.432  30.983  32.474  1.00  0.00     0.022 A 
BRANCH  83  86
ATOM     86  S   UNL A   1      35.282  32.533  30.532  1.00  0.00     0.127 S 
ATOM     87  O   UNL A   1      34.348  32.565  31.654  1.00  0.00    -0.237 OA
ATOM     88  O   UNL A   1      36.012  33.779  30.301  1.00  0.00    -0.237 OA
ATOM     89  O   UNL A   1      34.792  31.891  29.319  1.00  0.00    -0.744 OA
ENDBRANCH  83  86
ENDBRANCH  55  79
BRANCH  67  90
ATOM     90  C   UNL A   1      44.499  33.988  29.370  1.00  0.00     0.023 A 
ATOM     91  C   UNL A   1      45.135  34.286  30.592  1.00  0.00     0.012 A 
ATOM     92  C   UNL A   1      44.348  35.003  28.404  1.00  0.00     0.148 A 
ATOM     93  C   UNL A   1      45.583  35.578  30.862  1.00  0.00     0.002 A 
ATOM     94  C   UNL A   1      44.845  36.275  28.658  1.00  0.00     0.091 A 
ATOM     95  F   UNL A   1      43.729  34.702  27.254  1.00  0.00    -0.205 F 
ATOM     96  C   UNL A   1      45.449  36.568  29.891  1.00  0.00     0.022 A 
BRANCH  94  97
ATOM     97  S   UNL A   1      44.807  37.589  27.434  1.00  0.00     0.127 S 
ATOM     98  O   UNL A   1      45.812  37.131  26.475  1.00  0.00    -0.237 OA
ATOM     99  O   UNL A   1      43.428  37.519  26.951  1.00  0.00    -0.237 OA
ATOM    100  O   UNL A   1      45.140  38.815  28.146  1.00  0.00    -0.744 OA
ENDBRANCH  94  97
ENDBRANCH  67  90
ENDBRANCH  41  42
ENDBRANCH  34  36
ENDBRANCH  33  34
ENDBRANCH  32  33
ENDBRANCH  31  32
ENDBRANCH   1  31
TORSDOF 21
ENDMDL
