MODEL 1
REMARK VINA RESULT:     -11.2      0.000      0.000
REMARK SMILES Cc1sc(NC(=O)C[C@@H]2CCCCO2)c(C(=O)OCCOCCOC(=O)c2ccc(-c3c4nc(c(-c5cccc(S(=O)(=O)[O-])c5F)c5ccc([nH]5)c(-c5cccc(S(=O)(=O)[O-])c5F)c5nc(c(-c6cccc(S(=O)(=O)[O-])c6F)c6ccc3[nH]6)C=C5)C=C4)cc2)c1C
REMARK SMILES IDX 21 1 20 2 19 3 18 4 16 5 17 6 15 7 1 8 2 9 3 10 90 11 4 12
REMARK SMILES IDX 91 13 5 14 6 15 7 17 8 18 9 19 10 20 14 21 11 22 13 23 12 24
REMARK SMILES IDX 22 25 23 26 24 27 25 28 26 29 27 30 28 31 89 32 29 33 88 34
REMARK SMILES IDX 30 35 31 36 32 37 82 38 33 39 87 40 81 41 83 42 34 43 86 44
REMARK SMILES IDX 80 45 79 46 35 48 67 49 47 50 66 51 48 52 51 53 65 54 84 55
REMARK SMILES IDX 49 56 50 57 64 59 85 60 52 61 36 62 37 63 45 64 38 65 40 66
REMARK SMILES IDX 46 67 39 68 41 69 42 70 43 71 44 72 68 73 69 74 77 75 70 76
REMARK SMILES IDX 72 77 78 78 71 79 73 80 74 81 75 82 76 83 53 84 54 85 62 86
REMARK SMILES IDX 55 87 57 88 63 89 56 90 58 91 59 92 60 93 61 94
REMARK H PARENT 5 16 83 47 51 58
REMARK Flexibility Score: inf
ROOT
ATOM      1  O   UNL A   1      32.908  29.686  24.936  1.00  0.00    -0.374 OA
ENDROOT
BRANCH   1   2
ATOM      2  C   UNL A   1      33.779  28.555  25.043  1.00  0.00     0.202 C 
BRANCH   2   3
ATOM      3  C   UNL A   1      33.477  27.712  26.284  1.00  0.00     0.261 C 
BRANCH   3   4
ATOM      4  O   UNL A   1      33.764  26.330  26.008  1.00  0.00    -0.460 OA
BRANCH   4   5
ATOM      5  C   UNL A   1      32.706  25.487  26.137  1.00  0.00     0.341 C 
ATOM      6  O   UNL A   1      31.753  25.679  26.882  1.00  0.00    -0.246 OA
BRANCH   5   7
ATOM      7  C   UNL A   1      32.756  24.389  25.183  1.00  0.00     0.098 A 
ATOM      8  C   UNL A   1      32.201  20.709  24.332  1.00  0.00     0.057 C 
ATOM      9  C   UNL A   1      32.570  22.150  24.470  1.00  0.00     0.007 A 
ATOM     10  S   UNL A   1      33.528  22.874  23.265  1.00  0.00    -0.122 S 
ATOM     11  C   UNL A   1      32.275  23.041  25.489  1.00  0.00    -0.021 A 
ATOM     12  C   UNL A   1      33.264  24.438  23.900  1.00  0.00     0.110 A 
ATOM     13  C   UNL A   1      31.528  22.692  26.739  1.00  0.00     0.046 C 
BRANCH  12  14
ATOM     14  N   UNL A   1      33.655  25.367  22.967  1.00  0.00    -0.317 N 
ATOM     15  C   UNL A   1      32.911  25.936  21.975  1.00  0.00     0.227 C 
ATOM     16  H   UNL A   1      34.594  25.661  23.020  1.00  0.00     0.170 HD
ATOM     17  O   UNL A   1      33.514  26.208  20.931  1.00  0.00    -0.275 OA
BRANCH  15  18
ATOM     18  C   UNL A   1      31.451  26.263  22.101  1.00  0.00     0.132 C 
BRANCH  18  19
ATOM     19  C   UNL A   1      30.962  27.138  23.262  1.00  0.00     0.127 C 
ATOM     20  C   UNL A   1      29.839  26.673  24.186  1.00  0.00     0.033 C 
ATOM     21  O   UNL A   1      30.755  28.503  22.884  1.00  0.00    -0.378 OA
ATOM     22  C   UNL A   1      28.454  26.954  23.629  1.00  0.00     0.005 C 
ATOM     23  C   UNL A   1      29.488  28.796  22.304  1.00  0.00     0.160 C 
ATOM     24  C   UNL A   1      28.353  28.421  23.245  1.00  0.00     0.029 C 
ENDBRANCH  18  19
ENDBRANCH  15  18
ENDBRANCH  12  14
ENDBRANCH   5   7
ENDBRANCH   4   5
ENDBRANCH   3   4
ENDBRANCH   2   3
ENDBRANCH   1   2
BRANCH   1  25
ATOM     25  C   UNL A   1      31.909  29.783  25.953  1.00  0.00     0.202 C 
BRANCH  25  26
ATOM     26  C   UNL A   1      32.046  31.031  26.832  1.00  0.00     0.261 C 
BRANCH  26  27
ATOM     27  O   UNL A   1      33.314  31.686  26.643  1.00  0.00    -0.460 OA
BRANCH  27  28
ATOM     28  C   UNL A   1      33.819  32.323  27.728  1.00  0.00     0.338 C 
ATOM     29  O   UNL A   1      33.236  33.147  28.416  1.00  0.00    -0.246 OA
BRANCH  28  30
ATOM     30  C   UNL A   1      35.160  31.796  28.077  1.00  0.00     0.060 A 
ATOM     31  C   UNL A   1      35.255  30.440  28.409  1.00  0.00     0.016 A 
ATOM     32  C   UNL A   1      36.299  32.603  28.136  1.00  0.00     0.016 A 
ATOM     33  C   UNL A   1      36.468  29.906  28.850  1.00  0.00     0.010 A 
ATOM     34  C   UNL A   1      37.524  32.059  28.552  1.00  0.00     0.010 A 
ATOM     35  C   UNL A   1      37.607  30.716  28.960  1.00  0.00    -0.014 A 
BRANCH  35  36
ATOM     36  C   UNL A   1      38.824  30.181  29.630  1.00  0.00     0.031 A 
ATOM     37  C   UNL A   1      39.166  30.641  31.025  1.00  0.00     0.074 A 
ATOM     38  C   UNL A   1      39.602  29.258  29.033  1.00  0.00     0.049 A 
ATOM     39  N   UNL A   1      40.114  30.223  31.825  1.00  0.00    -0.248 NA
ATOM     40  C   UNL A   1      38.335  31.714  31.593  1.00  0.00     0.031 C 
ATOM     41  C   UNL A   1      39.418  28.746  27.676  1.00  0.00     0.029 A 
ATOM     42  N   UNL A   1      40.710  28.590  29.497  1.00  0.00    -0.354 N 
ATOM     43  C   UNL A   1      40.005  30.990  32.979  1.00  0.00     0.074 A 
ATOM     44  C   UNL A   1      38.920  31.923  32.764  1.00  0.00     0.031 C 
ATOM     45  C   UNL A   1      40.382  27.846  27.415  1.00  0.00     0.029 A 
ATOM     46  C   UNL A   1      41.255  27.720  28.582  1.00  0.00     0.049 A 
ATOM     47  H   UNL A   1      41.080  28.723  30.399  1.00  0.00     0.167 HD
ATOM     48  C   UNL A   1      40.716  30.911  34.129  1.00  0.00     0.034 A 
ATOM     49  C   UNL A   1      42.331  26.910  28.673  1.00  0.00     0.034 A 
ATOM     50  C   UNL A   1      41.771  29.966  34.372  1.00  0.00     0.049 A 
ATOM     51  C   UNL A   1      43.101  26.832  29.967  1.00  0.00     0.074 A 
ATOM     52  C   UNL A   1      42.494  29.764  35.535  1.00  0.00     0.029 A 
ATOM     53  N   UNL A   1      42.262  29.070  33.437  1.00  0.00    -0.354 N 
ATOM     54  N   UNL A   1      42.875  27.444  31.103  1.00  0.00    -0.248 NA
ATOM     55  C   UNL A   1      44.255  25.918  30.001  1.00  0.00     0.031 C 
ATOM     56  C   UNL A   1      43.436  28.757  35.297  1.00  0.00     0.029 A 
ATOM     57  C   UNL A   1      43.288  28.321  33.990  1.00  0.00     0.049 A 
ATOM     58  H   UNL A   1      41.931  28.979  32.514  1.00  0.00     0.167 HD
ATOM     59  C   UNL A   1      43.832  26.967  31.994  1.00  0.00     0.074 A 
ATOM     60  C   UNL A   1      44.628  25.997  31.272  1.00  0.00     0.031 C 
ATOM     61  C   UNL A   1      44.041  27.314  33.288  1.00  0.00     0.034 A 
BRANCH  48  62
ATOM     62  C   UNL A   1      40.332  31.847  35.245  1.00  0.00     0.023 A 
ATOM     63  C   UNL A   1      41.010  33.075  35.378  1.00  0.00     0.012 A 
ATOM     64  C   UNL A   1      39.281  31.536  36.127  1.00  0.00     0.148 A 
ATOM     65  C   UNL A   1      40.671  33.967  36.394  1.00  0.00     0.002 A 
ATOM     66  C   UNL A   1      38.921  32.448  37.113  1.00  0.00     0.091 A 
ATOM     67  F   UNL A   1      38.665  30.353  36.001  1.00  0.00    -0.205 F 
ATOM     68  C   UNL A   1      39.621  33.657  37.255  1.00  0.00     0.022 A 
BRANCH  66  69
ATOM     69  S   UNL A   1      37.535  32.167  38.221  1.00  0.00     0.127 S 
ATOM     70  O   UNL A   1      38.075  32.634  39.496  1.00  0.00    -0.237 OA
ATOM     71  O   UNL A   1      36.497  33.025  37.647  1.00  0.00    -0.237 OA
ATOM     72  O   UNL A   1      37.248  30.741  38.141  1.00  0.00    -0.744 OA
ENDBRANCH  66  69
ENDBRANCH  48  62
BRANCH  49  73
ATOM     73  C   UNL A   1      42.707  26.046  27.517  1.00  0.00     0.023 A 
ATOM     74  C   UNL A   1      43.532  26.570  26.501  1.00  0.00     0.012 A 
ATOM     75  C   UNL A   1      42.266  24.712  27.426  1.00  0.00     0.148 A 
ATOM     76  C   UNL A   1      43.891  25.788  25.403  1.00  0.00     0.002 A 
ATOM     77  C   UNL A   1      42.670  23.923  26.354  1.00  0.00     0.091 A 
ATOM     78  F   UNL A   1      41.468  24.241  28.393  1.00  0.00    -0.205 F 
ATOM     79  C   UNL A   1      43.469  24.463  25.334  1.00  0.00     0.022 A 
BRANCH  77  80
ATOM     80  S   UNL A   1      42.271  22.176  26.235  1.00  0.00     0.127 S 
ATOM     81  O   UNL A   1      40.828  22.213  26.012  1.00  0.00    -0.237 OA
ATOM     82  O   UNL A   1      43.063  21.766  25.075  1.00  0.00    -0.237 OA
ATOM     83  O   UNL A   1      42.700  21.586  27.495  1.00  0.00    -0.744 OA
ENDBRANCH  77  80
ENDBRANCH  49  73
BRANCH  61  84
ATOM     84  C   UNL A   1      45.160  26.634  34.035  1.00  0.00     0.023 A 
ATOM     85  C   UNL A   1      46.454  27.192  34.009  1.00  0.00     0.012 A 
ATOM     86  C   UNL A   1      44.915  25.497  34.833  1.00  0.00     0.148 A 
ATOM     87  C   UNL A   1      47.491  26.616  34.744  1.00  0.00     0.002 A 
ATOM     88  C   UNL A   1      45.944  24.955  35.597  1.00  0.00     0.091 A 
ATOM     89  F   UNL A   1      43.684  24.967  34.830  1.00  0.00    -0.205 F 
ATOM     90  C   UNL A   1      47.233  25.508  35.546  1.00  0.00     0.022 A 
BRANCH  88  91
ATOM     91  S   UNL A   1      45.679  23.584  36.729  1.00  0.00     0.127 S 
ATOM     92  O   UNL A   1      44.990  22.619  35.874  1.00  0.00    -0.237 OA
ATOM     93  O   UNL A   1      47.047  23.208  37.091  1.00  0.00    -0.237 OA
ATOM     94  O   UNL A   1      44.893  24.122  37.830  1.00  0.00    -0.744 OA
ENDBRANCH  88  91
ENDBRANCH  61  84
ENDBRANCH  35  36
ENDBRANCH  28  30
ENDBRANCH  27  28
ENDBRANCH  26  27
ENDBRANCH  25  26
ENDBRANCH   1  25
TORSDOF 20
ENDMDL
MODEL 2
REMARK VINA RESULT:     -10.9      1.131      7.493
REMARK SMILES Cc1sc(NC(=O)C[C@@H]2CCCCO2)c(C(=O)OCCOCCOC(=O)c2ccc(-c3c4nc(c(-c5cccc(S(=O)(=O)[O-])c5F)c5ccc([nH]5)c(-c5cccc(S(=O)(=O)[O-])c5F)c5nc(c(-c6cccc(S(=O)(=O)[O-])c6F)c6ccc3[nH]6)C=C5)C=C4)cc2)c1C
REMARK SMILES IDX 21 1 20 2 19 3 18 4 16 5 17 6 15 7 1 8 2 9 3 10 90 11 4 12
REMARK SMILES IDX 91 13 5 14 6 15 7 17 8 18 9 19 10 20 14 21 11 22 13 23 12 24
REMARK SMILES IDX 22 25 23 26 24 27 25 28 26 29 27 30 28 31 89 32 29 33 88 34
REMARK SMILES IDX 30 35 31 36 32 37 82 38 33 39 87 40 81 41 83 42 34 43 86 44
REMARK SMILES IDX 80 45 79 46 35 48 67 49 47 50 66 51 48 52 51 53 65 54 84 55
REMARK SMILES IDX 49 56 50 57 64 59 85 60 52 61 36 62 37 63 45 64 38 65 40 66
REMARK SMILES IDX 46 67 39 68 41 69 42 70 43 71 44 72 68 73 69 74 77 75 70 76
REMARK SMILES IDX 72 77 78 78 71 79 73 80 74 81 75 82 76 83 53 84 54 85 62 86
REMARK SMILES IDX 55 87 57 88 63 89 56 90 58 91 59 92 60 93 61 94
REMARK H PARENT 5 16 83 47 51 58
REMARK Flexibility Score: inf
ROOT
ATOM      1  O   UNL A   1      31.706  29.577  26.225  1.00  0.00    -0.374 OA
ENDROOT
BRANCH   1   2
ATOM      2  C   UNL A   1      33.052  29.222  25.890  1.00  0.00     0.202 C 
BRANCH   2   3
ATOM      3  C   UNL A   1      33.526  27.983  26.651  1.00  0.00     0.261 C 
BRANCH   3   4
ATOM      4  O   UNL A   1      33.493  26.840  25.777  1.00  0.00    -0.460 OA
BRANCH   4   5
ATOM      5  C   UNL A   1      32.517  25.936  26.053  1.00  0.00     0.341 C 
ATOM      6  O   UNL A   1      31.593  26.128  26.833  1.00  0.00    -0.246 OA
BRANCH   5   7
ATOM      7  C   UNL A   1      32.607  24.753  25.210  1.00  0.00     0.098 A 
ATOM      8  C   UNL A   1      32.152  20.996  24.710  1.00  0.00     0.057 C 
ATOM      9  C   UNL A   1      32.485  22.451  24.713  1.00  0.00     0.007 A 
ATOM     10  S   UNL A   1      33.444  23.080  23.457  1.00  0.00    -0.122 S 
ATOM     11  C   UNL A   1      32.154  23.429  25.638  1.00  0.00    -0.021 A 
ATOM     12  C   UNL A   1      33.134  24.691  23.935  1.00  0.00     0.110 A 
ATOM     13  C   UNL A   1      31.396  23.183  26.906  1.00  0.00     0.046 C 
BRANCH  12  14
ATOM     14  N   UNL A   1      33.517  25.536  22.922  1.00  0.00    -0.317 N 
ATOM     15  C   UNL A   1      32.746  26.085  21.939  1.00  0.00     0.227 C 
ATOM     16  H   UNL A   1      34.473  25.776  22.902  1.00  0.00     0.170 HD
ATOM     17  O   UNL A   1      33.298  26.256  20.847  1.00  0.00    -0.275 OA
BRANCH  15  18
ATOM     18  C   UNL A   1      31.316  26.505  22.129  1.00  0.00     0.132 C 
BRANCH  18  19
ATOM     19  C   UNL A   1      30.964  27.556  23.188  1.00  0.00     0.127 C 
ATOM     20  C   UNL A   1      29.619  27.532  23.910  1.00  0.00     0.033 C 
ATOM     21  O   UNL A   1      31.277  28.891  22.776  1.00  0.00    -0.378 OA
ATOM     22  C   UNL A   1      28.509  28.212  23.127  1.00  0.00     0.005 C 
ATOM     23  C   UNL A   1      30.286  29.542  21.990  1.00  0.00     0.160 C 
ATOM     24  C   UNL A   1      28.956  29.608  22.726  1.00  0.00     0.029 C 
ENDBRANCH  18  19
ENDBRANCH  15  18
ENDBRANCH  12  14
ENDBRANCH   5   7
ENDBRANCH   4   5
ENDBRANCH   3   4
ENDBRANCH   2   3
ENDBRANCH   1   2
BRANCH   1  25
ATOM     25  C   UNL A   1      31.265  30.837  25.718  1.00  0.00     0.202 C 
BRANCH  25  26
ATOM     26  C   UNL A   1      31.406  31.987  26.724  1.00  0.00     0.261 C 
BRANCH  26  27
ATOM     27  O   UNL A   1      32.628  32.722  26.534  1.00  0.00    -0.460 OA
BRANCH  27  28
ATOM     28  C   UNL A   1      33.090  33.392  27.617  1.00  0.00     0.338 C 
ATOM     29  O   UNL A   1      32.531  34.316  28.187  1.00  0.00    -0.246 OA
BRANCH  28  30
ATOM     30  C   UNL A   1      34.336  32.774  28.132  1.00  0.00     0.060 A 
ATOM     31  C   UNL A   1      34.294  31.415  28.464  1.00  0.00     0.016 A 
ATOM     32  C   UNL A   1      35.511  33.499  28.342  1.00  0.00     0.016 A 
ATOM     33  C   UNL A   1      35.400  30.798  29.053  1.00  0.00     0.010 A 
ATOM     34  C   UNL A   1      36.632  32.872  28.908  1.00  0.00     0.010 A 
ATOM     35  C   UNL A   1      36.569  31.528  29.314  1.00  0.00    -0.014 A 
BRANCH  35  36
ATOM     36  C   UNL A   1      37.650  30.911  30.131  1.00  0.00     0.031 A 
ATOM     37  C   UNL A   1      38.593  29.923  29.491  1.00  0.00     0.074 A 
ATOM     38  C   UNL A   1      37.833  31.253  31.420  1.00  0.00     0.049 A 
ATOM     39  N   UNL A   1      39.660  29.354  29.990  1.00  0.00    -0.248 NA
ATOM     40  C   UNL A   1      38.293  29.519  28.107  1.00  0.00     0.031 C 
ATOM     41  C   UNL A   1      36.981  32.164  32.183  1.00  0.00     0.029 A 
ATOM     42  N   UNL A   1      38.798  30.864  32.319  1.00  0.00    -0.354 N 
ATOM     43  C   UNL A   1      40.147  28.516  28.995  1.00  0.00     0.074 A 
ATOM     44  C   UNL A   1      39.241  28.624  27.873  1.00  0.00     0.031 C 
ATOM     45  C   UNL A   1      37.460  32.263  33.435  1.00  0.00     0.029 A 
ATOM     46  C   UNL A   1      38.648  31.420  33.567  1.00  0.00     0.049 A 
ATOM     47  H   UNL A   1      39.528  30.246  32.089  1.00  0.00     0.167 HD
ATOM     48  C   UNL A   1      41.263  27.748  28.993  1.00  0.00     0.034 A 
ATOM     49  C   UNL A   1      39.384  31.271  34.689  1.00  0.00     0.034 A 
ATOM     50  C   UNL A   1      42.194  27.659  30.085  1.00  0.00     0.049 A 
ATOM     51  C   UNL A   1      40.628  30.419  34.661  1.00  0.00     0.074 A 
ATOM     52  C   UNL A   1      43.389  26.966  30.142  1.00  0.00     0.029 A 
ATOM     53  N   UNL A   1      42.030  28.273  31.316  1.00  0.00    -0.354 N 
ATOM     54  N   UNL A   1      41.163  29.770  33.656  1.00  0.00    -0.248 NA
ATOM     55  C   UNL A   1      41.391  30.312  35.914  1.00  0.00     0.031 C 
ATOM     56  C   UNL A   1      43.942  27.146  31.414  1.00  0.00     0.029 A 
ATOM     57  C   UNL A   1      43.096  27.965  32.145  1.00  0.00     0.049 A 
ATOM     58  H   UNL A   1      41.267  28.845  31.565  1.00  0.00     0.167 HD
ATOM     59  C   UNL A   1      42.339  29.207  34.144  1.00  0.00     0.074 A 
ATOM     60  C   UNL A   1      42.450  29.610  35.531  1.00  0.00     0.031 C 
ATOM     61  C   UNL A   1      43.236  28.416  33.506  1.00  0.00     0.034 A 
BRANCH  48  62
ATOM     62  C   UNL A   1      41.572  26.980  27.735  1.00  0.00     0.023 A 
ATOM     63  C   UNL A   1      42.034  27.675  26.599  1.00  0.00     0.012 A 
ATOM     64  C   UNL A   1      41.452  25.579  27.689  1.00  0.00     0.148 A 
ATOM     65  C   UNL A   1      42.338  26.992  25.424  1.00  0.00     0.002 A 
ATOM     66  C   UNL A   1      41.795  24.899  26.525  1.00  0.00     0.091 A 
ATOM     67  F   UNL A   1      40.987  24.938  28.770  1.00  0.00    -0.205 F 
ATOM     68  C   UNL A   1      42.228  25.604  25.390  1.00  0.00     0.022 A 
BRANCH  66  69
ATOM     69  S   UNL A   1      41.754  23.107  26.413  1.00  0.00     0.127 S 
ATOM     70  O   UNL A   1      42.515  22.718  27.597  1.00  0.00    -0.237 OA
ATOM     71  O   UNL A   1      40.320  22.822  26.489  1.00  0.00    -0.237 OA
ATOM     72  O   UNL A   1      42.364  22.777  25.132  1.00  0.00    -0.744 OA
ENDBRANCH  66  69
ENDBRANCH  48  62
BRANCH  49  73
ATOM     73  C   UNL A   1      39.001  32.007  35.929  1.00  0.00     0.023 A 
ATOM     74  C   UNL A   1      39.456  33.326  36.119  1.00  0.00     0.012 A 
ATOM     75  C   UNL A   1      38.181  31.413  36.908  1.00  0.00     0.148 A 
ATOM     76  C   UNL A   1      39.122  34.034  37.274  1.00  0.00     0.002 A 
ATOM     77  C   UNL A   1      37.811  32.143  38.032  1.00  0.00     0.091 A 
ATOM     78  F   UNL A   1      37.776  30.151  36.715  1.00  0.00    -0.205 F 
ATOM     79  C   UNL A   1      38.292  33.447  38.225  1.00  0.00     0.022 A 
BRANCH  77  80
ATOM     80  S   UNL A   1      36.656  31.513  39.255  1.00  0.00     0.127 S 
ATOM     81  O   UNL A   1      36.510  30.120  38.841  1.00  0.00    -0.237 OA
ATOM     82  O   UNL A   1      37.400  31.711  40.500  1.00  0.00    -0.237 OA
ATOM     83  O   UNL A   1      35.461  32.336  39.132  1.00  0.00    -0.744 OA
ENDBRANCH  77  80
ENDBRANCH  49  73
BRANCH  61  84
ATOM     84  C   UNL A   1      44.439  27.938  34.279  1.00  0.00     0.023 A 
ATOM     85  C   UNL A   1      45.601  28.733  34.318  1.00  0.00     0.012 A 
ATOM     86  C   UNL A   1      44.389  26.751  35.038  1.00  0.00     0.148 A 
ATOM     87  C   UNL A   1      46.704  28.343  35.079  1.00  0.00     0.002 A 
ATOM     88  C   UNL A   1      45.477  26.390  35.828  1.00  0.00     0.091 A 
ATOM     89  F   UNL A   1      43.283  25.996  34.974  1.00  0.00    -0.205 F 
ATOM     90  C   UNL A   1      46.636  27.180  35.842  1.00  0.00     0.022 A 
BRANCH  88  91
ATOM     91  S   UNL A   1      45.441  24.958  36.914  1.00  0.00     0.127 S 
ATOM     92  O   UNL A   1      45.307  23.861  35.957  1.00  0.00    -0.237 OA
ATOM     93  O   UNL A   1      46.746  25.034  37.575  1.00  0.00    -0.237 OA
ATOM     94  O   UNL A   1      44.306  25.160  37.803  1.00  0.00    -0.744 OA
ENDBRANCH  88  91
ENDBRANCH  61  84
ENDBRANCH  35  36
ENDBRANCH  28  30
ENDBRANCH  27  28
ENDBRANCH  26  27
ENDBRANCH  25  26
ENDBRANCH   1  25
TORSDOF 20
ENDMDL
MODEL 3
REMARK VINA RESULT:     -10.9      5.005     10.299
REMARK SMILES Cc1sc(NC(=O)C[C@@H]2CCCCO2)c(C(=O)OCCOCCOC(=O)c2ccc(-c3c4nc(c(-c5cccc(S(=O)(=O)[O-])c5F)c5ccc([nH]5)c(-c5cccc(S(=O)(=O)[O-])c5F)c5nc(c(-c6cccc(S(=O)(=O)[O-])c6F)c6ccc3[nH]6)C=C5)C=C4)cc2)c1C
REMARK SMILES IDX 21 1 20 2 19 3 18 4 16 5 17 6 15 7 1 8 2 9 3 10 90 11 4 12
REMARK SMILES IDX 91 13 5 14 6 15 7 17 8 18 9 19 10 20 14 21 11 22 13 23 12 24
REMARK SMILES IDX 22 25 23 26 24 27 25 28 26 29 27 30 28 31 89 32 29 33 88 34
REMARK SMILES IDX 30 35 31 36 32 37 82 38 33 39 87 40 81 41 83 42 34 43 86 44
REMARK SMILES IDX 80 45 79 46 35 48 67 49 47 50 66 51 48 52 51 53 65 54 84 55
REMARK SMILES IDX 49 56 50 57 64 59 85 60 52 61 36 62 37 63 45 64 38 65 40 66
REMARK SMILES IDX 46 67 39 68 41 69 42 70 43 71 44 72 68 73 69 74 77 75 70 76
REMARK SMILES IDX 72 77 78 78 71 79 73 80 74 81 75 82 76 83 53 84 54 85 62 86
REMARK SMILES IDX 55 87 57 88 63 89 56 90 58 91 59 92 60 93 61 94
REMARK H PARENT 5 16 83 47 51 58
REMARK Flexibility Score: inf
ROOT
ATOM      1  O   UNL A   1      36.564  22.766  25.720  1.00  0.00    -0.374 OA
ENDROOT
BRANCH   1   2
ATOM      2  C   UNL A   1      35.263  23.337  25.899  1.00  0.00     0.202 C 
BRANCH   2   3
ATOM      3  C   UNL A   1      35.155  24.728  25.273  1.00  0.00     0.261 C 
BRANCH   3   4
ATOM      4  O   UNL A   1      34.109  24.730  24.284  1.00  0.00    -0.460 OA
BRANCH   4   5
ATOM      5  C   UNL A   1      33.464  25.916  24.135  1.00  0.00     0.341 C 
ATOM      6  O   UNL A   1      33.967  26.925  23.656  1.00  0.00    -0.246 OA
BRANCH   5   7
ATOM      7  C   UNL A   1      32.052  25.823  24.477  1.00  0.00     0.098 A 
ATOM      8  C   UNL A   1      28.406  26.710  23.777  1.00  0.00     0.057 C 
ATOM      9  C   UNL A   1      29.755  26.313  24.280  1.00  0.00     0.007 A 
ATOM     10  S   UNL A   1      29.893  25.673  25.850  1.00  0.00    -0.122 S 
ATOM     11  C   UNL A   1      30.991  26.416  23.662  1.00  0.00    -0.021 A 
ATOM     12  C   UNL A   1      31.516  25.206  25.589  1.00  0.00     0.110 A 
ATOM     13  C   UNL A   1      31.224  27.023  22.313  1.00  0.00     0.046 C 
BRANCH  12  14
ATOM     14  N   UNL A   1      31.892  24.338  26.586  1.00  0.00    -0.317 N 
ATOM     15  C   UNL A   1      31.585  23.016  26.718  1.00  0.00     0.227 C 
ATOM     16  H   UNL A   1      32.458  24.721  27.297  1.00  0.00     0.170 HD
ATOM     17  O   UNL A   1      31.455  22.602  27.875  1.00  0.00    -0.275 OA
BRANCH  15  18
ATOM     18  C   UNL A   1      31.435  22.068  25.563  1.00  0.00     0.132 C 
BRANCH  18  19
ATOM     19  C   UNL A   1      32.682  21.499  24.875  1.00  0.00     0.127 C 
ATOM     20  C   UNL A   1      32.779  21.417  23.354  1.00  0.00     0.033 C 
ATOM     21  O   UNL A   1      33.134  20.274  25.463  1.00  0.00    -0.378 OA
ATOM     22  C   UNL A   1      32.118  20.177  22.779  1.00  0.00     0.005 C 
ATOM     23  C   UNL A   1      32.496  19.092  24.992  1.00  0.00     0.160 C 
ATOM     24  C   UNL A   1      32.656  18.945  23.486  1.00  0.00     0.029 C 
ENDBRANCH  18  19
ENDBRANCH  15  18
ENDBRANCH  12  14
ENDBRANCH   5   7
ENDBRANCH   4   5
ENDBRANCH   3   4
ENDBRANCH   2   3
ENDBRANCH   1   2
BRANCH   1  25
ATOM     25  C   UNL A   1      36.599  21.560  24.955  1.00  0.00     0.202 C 
BRANCH  25  26
ATOM     26  C   UNL A   1      37.810  20.672  25.265  1.00  0.00     0.261 C 
BRANCH  26  27
ATOM     27  O   UNL A   1      39.041  21.417  25.256  1.00  0.00    -0.460 OA
BRANCH  27  28
ATOM     28  C   UNL A   1      39.872  21.200  26.305  1.00  0.00     0.338 C 
ATOM     29  O   UNL A   1      40.365  20.129  26.625  1.00  0.00    -0.246 OA
BRANCH  28  30
ATOM     30  C   UNL A   1      40.233  22.476  26.969  1.00  0.00     0.060 A 
ATOM     31  C   UNL A   1      39.587  23.637  26.532  1.00  0.00     0.016 A 
ATOM     32  C   UNL A   1      41.214  22.562  27.960  1.00  0.00     0.016 A 
ATOM     33  C   UNL A   1      39.957  24.884  27.041  1.00  0.00     0.010 A 
ATOM     34  C   UNL A   1      41.565  23.812  28.492  1.00  0.00     0.010 A 
ATOM     35  C   UNL A   1      40.974  24.989  28.001  1.00  0.00    -0.014 A 
BRANCH  35  36
ATOM     36  C   UNL A   1      41.497  26.334  28.370  1.00  0.00     0.031 A 
ATOM     37  C   UNL A   1      42.906  26.713  27.990  1.00  0.00     0.074 A 
ATOM     38  C   UNL A   1      40.719  27.238  28.994  1.00  0.00     0.049 A 
ATOM     39  N   UNL A   1      43.518  27.862  28.120  1.00  0.00    -0.248 NA
ATOM     40  C   UNL A   1      43.739  25.657  27.390  1.00  0.00     0.031 C 
ATOM     41  C   UNL A   1      39.351  27.005  29.455  1.00  0.00     0.029 A 
ATOM     42  N   UNL A   1      40.976  28.540  29.354  1.00  0.00    -0.354 N 
ATOM     43  C   UNL A   1      44.806  27.666  27.636  1.00  0.00     0.074 A 
ATOM     44  C   UNL A   1      44.900  26.278  27.240  1.00  0.00     0.031 C 
ATOM     45  C   UNL A   1      38.890  28.124  30.039  1.00  0.00     0.029 A 
ATOM     46  C   UNL A   1      39.928  29.153  30.000  1.00  0.00     0.049 A 
ATOM     47  H   UNL A   1      41.831  28.991  29.168  1.00  0.00     0.167 HD
ATOM     48  C   UNL A   1      45.814  28.560  27.498  1.00  0.00     0.034 A 
ATOM     49  C   UNL A   1      39.814  30.403  30.499  1.00  0.00     0.034 A 
ATOM     50  C   UNL A   1      45.724  29.951  27.851  1.00  0.00     0.049 A 
ATOM     51  C   UNL A   1      40.946  31.384  30.326  1.00  0.00     0.074 A 
ATOM     52  C   UNL A   1      46.670  30.945  27.676  1.00  0.00     0.029 A 
ATOM     53  N   UNL A   1      44.630  30.544  28.460  1.00  0.00    -0.354 N 
ATOM     54  N   UNL A   1      42.093  31.224  29.712  1.00  0.00    -0.248 NA
ATOM     55  C   UNL A   1      40.750  32.733  30.881  1.00  0.00     0.031 C 
ATOM     56  C   UNL A   1      46.154  32.138  28.195  1.00  0.00     0.029 A 
ATOM     57  C   UNL A   1      44.880  31.888  28.679  1.00  0.00     0.049 A 
ATOM     58  H   UNL A   1      43.796  30.078  28.701  1.00  0.00     0.167 HD
ATOM     59  C   UNL A   1      42.739  32.456  29.777  1.00  0.00     0.074 A 
ATOM     60  C   UNL A   1      41.845  33.359  30.472  1.00  0.00     0.031 C 
ATOM     61  C   UNL A   1      43.966  32.801  29.317  1.00  0.00     0.034 A 
BRANCH  48  62
ATOM     62  C   UNL A   1      47.096  28.068  26.882  1.00  0.00     0.023 A 
ATOM     63  C   UNL A   1      48.169  27.703  27.722  1.00  0.00     0.012 A 
ATOM     64  C   UNL A   1      47.227  27.922  25.489  1.00  0.00     0.148 A 
ATOM     65  C   UNL A   1      49.365  27.234  27.182  1.00  0.00     0.002 A 
ATOM     66  C   UNL A   1      48.409  27.415  24.960  1.00  0.00     0.091 A 
ATOM     67  F   UNL A   1      46.206  28.297  24.706  1.00  0.00    -0.205 F 
ATOM     68  C   UNL A   1      49.481  27.081  25.803  1.00  0.00     0.022 A 
BRANCH  66  69
ATOM     69  S   UNL A   1      48.623  27.116  23.202  1.00  0.00     0.127 S 
ATOM     70  O   UNL A   1      50.062  27.311  23.041  1.00  0.00    -0.237 OA
ATOM     71  O   UNL A   1      48.176  25.729  23.063  1.00  0.00    -0.237 OA
ATOM     72  O   UNL A   1      47.775  28.091  22.529  1.00  0.00    -0.744 OA
ENDBRANCH  66  69
ENDBRANCH  48  62
BRANCH  49  73
ATOM     73  C   UNL A   1      38.543  30.824  31.156  1.00  0.00     0.023 A 
ATOM     74  C   UNL A   1      38.358  30.573  32.529  1.00  0.00     0.012 A 
ATOM     75  C   UNL A   1      37.529  31.482  30.433  1.00  0.00     0.148 A 
ATOM     76  C   UNL A   1      37.175  30.947  33.167  1.00  0.00     0.002 A 
ATOM     77  C   UNL A   1      36.374  31.897  31.086  1.00  0.00     0.091 A 
ATOM     78  F   UNL A   1      37.720  31.694  29.124  1.00  0.00    -0.205 F 
ATOM     79  C   UNL A   1      36.188  31.617  32.449  1.00  0.00     0.022 A 
BRANCH  77  80
ATOM     80  S   UNL A   1      35.098  32.865  30.273  1.00  0.00     0.127 S 
ATOM     81  O   UNL A   1      35.865  33.991  29.749  1.00  0.00    -0.237 OA
ATOM     82  O   UNL A   1      34.610  31.927  29.261  1.00  0.00    -0.237 OA
ATOM     83  O   UNL A   1      34.128  33.190  31.309  1.00  0.00    -0.744 OA
ENDBRANCH  77  80
ENDBRANCH  49  73
BRANCH  61  84
ATOM     84  C   UNL A   1      44.429  34.221  29.522  1.00  0.00     0.023 A 
ATOM     85  C   UNL A   1      45.051  34.584  30.733  1.00  0.00     0.012 A 
ATOM     86  C   UNL A   1      44.331  35.172  28.485  1.00  0.00     0.148 A 
ATOM     87  C   UNL A   1      45.544  35.875  30.920  1.00  0.00     0.002 A 
ATOM     88  C   UNL A   1      44.864  36.445  28.663  1.00  0.00     0.091 A 
ATOM     89  F   UNL A   1      43.719  34.817  27.346  1.00  0.00    -0.205 F 
ATOM     90  C   UNL A   1      45.462  36.800  29.882  1.00  0.00     0.022 A 
BRANCH  88  91
ATOM     91  S   UNL A   1      44.885  37.670  27.347  1.00  0.00     0.127 S 
ATOM     92  O   UNL A   1      43.477  37.716  26.959  1.00  0.00    -0.237 OA
ATOM     93  O   UNL A   1      45.365  38.867  28.041  1.00  0.00    -0.237 OA
ATOM     94  O   UNL A   1      45.799  37.155  26.337  1.00  0.00    -0.744 OA
ENDBRANCH  88  91
ENDBRANCH  61  84
ENDBRANCH  35  36
ENDBRANCH  28  30
ENDBRANCH  27  28
ENDBRANCH  26  27
ENDBRANCH  25  26
ENDBRANCH   1  25
TORSDOF 20
ENDMDL
