MODEL 1
REMARK VINA RESULT:     -11.2      0.000      0.000
REMARK SMILES Cc1cc(-c2cncc(C(=O)OCCOCCOC(=O)c3ccc(-c4c5nc(c(-c6cccc(S(=O)(=O)[O-])c6F)c6ccc([nH]6)c(-c6cccc(S(=O)(=O)[O-])c6F)c6nc(c(-c7cccc(S(=O)(=O)[O-])c7F)c7ccc4[nH]7)C=C6)C=C5)cc3)c2)ccc1F
REMARK SMILES IDX 16 1 15 2 14 3 13 4 12 5 10 6 11 7 9 8 5 9 6 10 84 11 7 12
REMARK SMILES IDX 8 13 4 14 1 15 2 16 3 17 87 18 86 19 88 20 85 21 17 22 18 23
REMARK SMILES IDX 19 24 20 25 21 26 22 27 83 28 23 29 82 30 24 31 25 32 26 33
REMARK SMILES IDX 76 34 27 35 81 36 75 37 77 38 28 39 80 40 74 41 73 42 29 44
REMARK SMILES IDX 61 45 41 46 60 47 42 48 45 49 59 50 78 51 43 52 44 53 58 55
REMARK SMILES IDX 79 56 46 57 30 58 31 59 39 60 32 61 34 62 40 63 33 64 35 65
REMARK SMILES IDX 36 66 37 67 38 68 62 69 63 70 71 71 64 72 66 73 72 74 65 75
REMARK SMILES IDX 67 76 68 77 69 78 70 79 47 80 48 81 56 82 49 83 51 84 57 85
REMARK SMILES IDX 50 86 52 87 53 88 54 89 55 90
REMARK H PARENT 77 43 45 54
REMARK Flexibility Score: inf
ROOT
ATOM      1  C   UNL A   1      39.639  20.915  26.309  1.00  0.00     0.202 C 
ENDROOT
BRANCH   1   2
ATOM      2  O   UNL A   1      38.651  21.257  25.337  1.00  0.00    -0.374 OA
BRANCH   2   3
ATOM      3  C   UNL A   1      37.397  21.808  25.691  1.00  0.00     0.202 C 
BRANCH   3   4
ATOM      4  C   UNL A   1      36.992  23.194  25.181  1.00  0.00     0.261 C 
BRANCH   4   5
ATOM      5  O   UNL A   1      35.580  23.391  25.053  1.00  0.00    -0.460 OA
BRANCH   5   6
ATOM      6  C   UNL A   1      35.180  23.688  23.795  1.00  0.00     0.339 C 
ATOM      7  O   UNL A   1      35.477  23.105  22.767  1.00  0.00    -0.246 OA
BRANCH   6   8
ATOM      8  C   UNL A   1      34.210  24.789  23.819  1.00  0.00     0.079 A 
ATOM      9  C   UNL A   1      33.325  26.876  24.667  1.00  0.00     0.001 A 
ATOM     10  C   UNL A   1      32.429  26.830  23.592  1.00  0.00     0.119 A 
ATOM     11  C   UNL A   1      34.209  25.793  24.788  1.00  0.00     0.027 A 
ATOM     12  N   UNL A   1      32.381  25.850  22.657  1.00  0.00    -0.263 NA
ATOM     13  C   UNL A   1      33.288  24.857  22.785  1.00  0.00     0.126 A 
BRANCH   9  14
ATOM     14  C   UNL A   1      33.403  28.054  25.548  1.00  0.00    -0.016 A 
ATOM     15  C   UNL A   1      31.408  31.260  26.180  1.00  0.00     0.047 C 
ATOM     16  C   UNL A   1      32.437  30.180  26.309  1.00  0.00    -0.015 A 
ATOM     17  C   UNL A   1      32.450  29.087  25.433  1.00  0.00     0.015 A 
ATOM     18  C   UNL A   1      33.395  30.236  27.319  1.00  0.00     0.126 A 
ATOM     19  C   UNL A   1      34.358  29.242  27.452  1.00  0.00     0.040 A 
ATOM     20  F   UNL A   1      33.389  31.256  28.189  1.00  0.00    -0.207 F 
ATOM     21  C   UNL A   1      34.365  28.159  26.568  1.00  0.00     0.012 A 
ENDBRANCH   9  14
ENDBRANCH   6   8
ENDBRANCH   5   6
ENDBRANCH   4   5
ENDBRANCH   3   4
ENDBRANCH   2   3
ENDBRANCH   1   2
BRANCH   1  22
ATOM     22  C   UNL A   1      41.044  21.508  26.286  1.00  0.00     0.261 C 
BRANCH  22  23
ATOM     23  O   UNL A   1      41.170  22.648  27.137  1.00  0.00    -0.460 OA
BRANCH  23  24
ATOM     24  C   UNL A   1      41.448  23.768  26.438  1.00  0.00     0.338 C 
ATOM     25  O   UNL A   1      42.501  24.063  25.896  1.00  0.00    -0.246 OA
BRANCH  24  26
ATOM     26  C   UNL A   1      40.360  24.749  26.538  1.00  0.00     0.060 A 
ATOM     27  C   UNL A   1      40.732  25.986  25.985  1.00  0.00     0.016 A 
ATOM     28  C   UNL A   1      39.604  24.645  27.707  1.00  0.00     0.016 A 
ATOM     29  C   UNL A   1      40.745  27.076  26.823  1.00  0.00     0.010 A 
ATOM     30  C   UNL A   1      39.611  25.734  28.536  1.00  0.00     0.010 A 
ATOM     31  C   UNL A   1      40.274  26.893  28.121  1.00  0.00    -0.014 A 
BRANCH  31  32
ATOM     32  C   UNL A   1      40.362  27.932  29.111  1.00  0.00     0.031 A 
ATOM     33  C   UNL A   1      39.413  29.034  28.967  1.00  0.00     0.074 A 
ATOM     34  C   UNL A   1      41.265  27.852  30.106  1.00  0.00     0.049 A 
ATOM     35  N   UNL A   1      39.651  30.249  29.304  1.00  0.00    -0.248 NA
ATOM     36  C   UNL A   1      38.126  28.856  28.292  1.00  0.00     0.031 C 
ATOM     37  C   UNL A   1      41.297  28.633  31.330  1.00  0.00     0.029 A 
ATOM     38  N   UNL A   1      42.456  27.144  30.119  1.00  0.00    -0.354 N 
ATOM     39  C   UNL A   1      38.440  30.895  29.268  1.00  0.00     0.074 A 
ATOM     40  C   UNL A   1      37.580  30.061  28.461  1.00  0.00     0.031 C 
ATOM     41  C   UNL A   1      42.519  28.527  31.882  1.00  0.00     0.029 A 
ATOM     42  C   UNL A   1      43.372  27.820  30.939  1.00  0.00     0.049 A 
ATOM     43  H   UNL A   1      42.632  26.305  29.635  1.00  0.00     0.167 HD
ATOM     44  C   UNL A   1      38.227  31.943  30.108  1.00  0.00     0.034 A 
ATOM     45  C   UNL A   1      44.524  28.328  30.402  1.00  0.00     0.034 A 
ATOM     46  C   UNL A   1      39.408  32.198  30.929  1.00  0.00     0.049 A 
ATOM     47  C   UNL A   1      44.550  29.844  30.347  1.00  0.00     0.074 A 
ATOM     48  C   UNL A   1      39.753  31.843  32.224  1.00  0.00     0.029 A 
ATOM     49  N   UNL A   1      40.589  32.575  30.316  1.00  0.00    -0.354 N 
ATOM     50  N   UNL A   1      43.539  30.602  30.669  1.00  0.00    -0.248 NA
ATOM     51  C   UNL A   1      45.678  30.619  29.833  1.00  0.00     0.031 C 
ATOM     52  C   UNL A   1      41.153  32.040  32.387  1.00  0.00     0.029 A 
ATOM     53  C   UNL A   1      41.654  32.524  31.196  1.00  0.00     0.049 A 
ATOM     54  H   UNL A   1      40.663  32.847  29.373  1.00  0.00     0.167 HD
ATOM     55  C   UNL A   1      43.848  31.915  30.443  1.00  0.00     0.074 A 
ATOM     56  C   UNL A   1      45.186  31.871  29.879  1.00  0.00     0.031 C 
ATOM     57  C   UNL A   1      42.969  32.924  30.718  1.00  0.00     0.034 A 
BRANCH  44  58
ATOM     58  C   UNL A   1      36.849  32.487  30.397  1.00  0.00     0.023 A 
ATOM     59  C   UNL A   1      36.195  32.294  31.635  1.00  0.00     0.012 A 
ATOM     60  C   UNL A   1      36.152  33.252  29.440  1.00  0.00     0.148 A 
ATOM     61  C   UNL A   1      34.995  32.943  31.958  1.00  0.00     0.002 A 
ATOM     62  C   UNL A   1      34.937  33.862  29.746  1.00  0.00     0.091 A 
ATOM     63  F   UNL A   1      36.651  33.409  28.208  1.00  0.00    -0.205 F 
ATOM     64  C   UNL A   1      34.367  33.738  31.013  1.00  0.00     0.022 A 
BRANCH  62  65
ATOM     65  S   UNL A   1      34.105  34.811  28.473  1.00  0.00     0.127 S 
ATOM     66  O   UNL A   1      34.167  33.927  27.315  1.00  0.00    -0.237 OA
ATOM     67  O   UNL A   1      32.787  35.052  29.052  1.00  0.00    -0.237 OA
ATOM     68  O   UNL A   1      34.935  36.012  28.357  1.00  0.00    -0.744 OA
ENDBRANCH  62  65
ENDBRANCH  44  58
BRANCH  45  69
ATOM     69  C   UNL A   1      45.112  27.423  29.369  1.00  0.00     0.023 A 
ATOM     70  C   UNL A   1      46.224  26.625  29.693  1.00  0.00     0.012 A 
ATOM     71  C   UNL A   1      44.876  27.758  28.018  1.00  0.00     0.148 A 
ATOM     72  C   UNL A   1      47.152  26.288  28.702  1.00  0.00     0.002 A 
ATOM     73  C   UNL A   1      45.834  27.466  27.051  1.00  0.00     0.091 A 
ATOM     74  F   UNL A   1      43.794  28.492  27.714  1.00  0.00    -0.205 F 
ATOM     75  C   UNL A   1      46.976  26.736  27.390  1.00  0.00     0.022 A 
BRANCH  73  76
ATOM     76  S   UNL A   1      45.720  28.284  25.455  1.00  0.00     0.127 S 
ATOM     77  O   UNL A   1      45.933  29.690  25.782  1.00  0.00    -0.237 OA
ATOM     78  O   UNL A   1      46.771  27.623  24.683  1.00  0.00    -0.237 OA
ATOM     79  O   UNL A   1      44.369  27.972  24.990  1.00  0.00    -0.744 OA
ENDBRANCH  73  76
ENDBRANCH  45  69
BRANCH  57  80
ATOM     80  C   UNL A   1      43.234  34.392  30.493  1.00  0.00     0.023 A 
ATOM     81  C   UNL A   1      43.494  35.229  31.609  1.00  0.00     0.012 A 
ATOM     82  C   UNL A   1      43.299  34.993  29.233  1.00  0.00     0.148 A 
ATOM     83  C   UNL A   1      43.698  36.603  31.487  1.00  0.00     0.002 A 
ATOM     84  C   UNL A   1      43.428  36.376  29.115  1.00  0.00     0.091 A 
ATOM     85  F   UNL A   1      43.289  34.234  28.128  1.00  0.00    -0.205 F 
ATOM     86  C   UNL A   1      43.628  37.188  30.236  1.00  0.00     0.022 A 
BRANCH  84  87
ATOM     87  S   UNL A   1      43.196  37.116  27.501  1.00  0.00     0.127 S 
ATOM     88  O   UNL A   1      43.046  38.535  27.799  1.00  0.00    -0.237 OA
ATOM     89  O   UNL A   1      44.416  36.722  26.799  1.00  0.00    -0.237 OA
ATOM     90  O   UNL A   1      41.982  36.469  27.002  1.00  0.00    -0.744 OA
ENDBRANCH  84  87
ENDBRANCH  57  80
ENDBRANCH  31  32
ENDBRANCH  24  26
ENDBRANCH  23  24
ENDBRANCH  22  23
ENDBRANCH   1  22
TORSDOF 18
ENDMDL
MODEL 2
REMARK VINA RESULT:     -10.8      1.980      2.513
REMARK SMILES Cc1cc(-c2cncc(C(=O)OCCOCCOC(=O)c3ccc(-c4c5nc(c(-c6cccc(S(=O)(=O)[O-])c6F)c6ccc([nH]6)c(-c6cccc(S(=O)(=O)[O-])c6F)c6nc(c(-c7cccc(S(=O)(=O)[O-])c7F)c7ccc4[nH]7)C=C6)C=C5)cc3)c2)ccc1F
REMARK SMILES IDX 16 1 15 2 14 3 13 4 12 5 10 6 11 7 9 8 5 9 6 10 84 11 7 12
REMARK SMILES IDX 8 13 4 14 1 15 2 16 3 17 87 18 86 19 88 20 85 21 17 22 18 23
REMARK SMILES IDX 19 24 20 25 21 26 22 27 83 28 23 29 82 30 24 31 25 32 26 33
REMARK SMILES IDX 76 34 27 35 81 36 75 37 77 38 28 39 80 40 74 41 73 42 29 44
REMARK SMILES IDX 61 45 41 46 60 47 42 48 45 49 59 50 78 51 43 52 44 53 58 55
REMARK SMILES IDX 79 56 46 57 30 58 31 59 39 60 32 61 34 62 40 63 33 64 35 65
REMARK SMILES IDX 36 66 37 67 38 68 62 69 63 70 71 71 64 72 66 73 72 74 65 75
REMARK SMILES IDX 67 76 68 77 69 78 70 79 47 80 48 81 56 82 49 83 51 84 57 85
REMARK SMILES IDX 50 86 52 87 53 88 54 89 55 90
REMARK H PARENT 77 43 45 54
REMARK Flexibility Score: inf
ROOT
ATOM      1  C   UNL A   1      39.811  21.269  25.934  1.00  0.00     0.202 C 
ENDROOT
BRANCH   1   2
ATOM      2  O   UNL A   1      38.538  21.881  26.133  1.00  0.00    -0.374 OA
BRANCH   2   3
ATOM      3  C   UNL A   1      37.537  21.896  25.132  1.00  0.00     0.202 C 
BRANCH   3   4
ATOM      4  C   UNL A   1      36.096  21.509  25.476  1.00  0.00     0.261 C 
BRANCH   4   5
ATOM      5  O   UNL A   1      35.281  22.595  25.928  1.00  0.00    -0.460 OA
BRANCH   5   6
ATOM      6  C   UNL A   1      34.221  22.211  26.677  1.00  0.00     0.339 C 
ATOM      7  O   UNL A   1      34.209  21.383  27.572  1.00  0.00    -0.246 OA
BRANCH   6   8
ATOM      8  C   UNL A   1      33.045  23.023  26.344  1.00  0.00     0.079 A 
ATOM      9  C   UNL A   1      31.889  25.121  26.002  1.00  0.00     0.001 A 
ATOM     10  C   UNL A   1      30.822  24.353  25.519  1.00  0.00     0.119 A 
ATOM     11  C   UNL A   1      33.011  24.413  26.459  1.00  0.00     0.027 A 
ATOM     12  N   UNL A   1      30.812  23.001  25.429  1.00  0.00    -0.263 NA
ATOM     13  C   UNL A   1      31.935  22.367  25.831  1.00  0.00     0.126 A 
BRANCH   9  14
ATOM     14  C   UNL A   1      31.870  26.592  25.924  1.00  0.00    -0.016 A 
ATOM     15  C   UNL A   1      33.880  29.533  27.329  1.00  0.00     0.047 C 
ATOM     16  C   UNL A   1      32.874  28.745  26.548  1.00  0.00    -0.015 A 
ATOM     17  C   UNL A   1      32.802  27.351  26.663  1.00  0.00     0.015 A 
ATOM     18  C   UNL A   1      31.999  29.388  25.676  1.00  0.00     0.126 A 
ATOM     19  C   UNL A   1      31.058  28.672  24.943  1.00  0.00     0.040 A 
ATOM     20  F   UNL A   1      32.065  30.719  25.525  1.00  0.00    -0.207 F 
ATOM     21  C   UNL A   1      30.991  27.282  25.071  1.00  0.00     0.012 A 
ENDBRANCH   9  14
ENDBRANCH   6   8
ENDBRANCH   5   6
ENDBRANCH   4   5
ENDBRANCH   3   4
ENDBRANCH   2   3
ENDBRANCH   1   2
BRANCH   1  22
ATOM     22  C   UNL A   1      41.027  21.624  26.784  1.00  0.00     0.261 C 
BRANCH  22  23
ATOM     23  O   UNL A   1      40.888  22.886  27.437  1.00  0.00    -0.460 OA
BRANCH  23  24
ATOM     24  C   UNL A   1      41.295  23.905  26.651  1.00  0.00     0.338 C 
ATOM     25  O   UNL A   1      42.396  24.059  26.146  1.00  0.00    -0.246 OA
BRANCH  24  26
ATOM     26  C   UNL A   1      40.290  24.973  26.592  1.00  0.00     0.060 A 
ATOM     27  C   UNL A   1      40.779  26.100  25.910  1.00  0.00     0.016 A 
ATOM     28  C   UNL A   1      39.495  25.073  27.735  1.00  0.00     0.016 A 
ATOM     29  C   UNL A   1      40.859  27.280  26.611  1.00  0.00     0.010 A 
ATOM     30  C   UNL A   1      39.569  26.252  28.428  1.00  0.00     0.010 A 
ATOM     31  C   UNL A   1      40.338  27.295  27.902  1.00  0.00    -0.014 A 
BRANCH  31  32
ATOM     32  C   UNL A   1      40.484  28.437  28.764  1.00  0.00     0.031 A 
ATOM     33  C   UNL A   1      39.374  29.387  28.760  1.00  0.00     0.074 A 
ATOM     34  C   UNL A   1      41.584  28.579  29.527  1.00  0.00     0.049 A 
ATOM     35  N   UNL A   1      39.497  30.652  28.940  1.00  0.00    -0.248 NA
ATOM     36  C   UNL A   1      38.012  28.975  28.414  1.00  0.00     0.031 C 
ATOM     37  C   UNL A   1      41.765  29.486  30.649  1.00  0.00     0.029 A 
ATOM     38  N   UNL A   1      42.841  28.035  29.320  1.00  0.00    -0.354 N 
ATOM     39  C   UNL A   1      38.225  31.131  29.134  1.00  0.00     0.074 A 
ATOM     40  C   UNL A   1      37.344  30.112  28.612  1.00  0.00     0.031 C 
ATOM     41  C   UNL A   1      43.079  29.596  30.910  1.00  0.00     0.029 A 
ATOM     42  C   UNL A   1      43.802  28.906  29.853  1.00  0.00     0.049 A 
ATOM     43  H   UNL A   1      43.029  27.178  28.873  1.00  0.00     0.167 HD
ATOM     44  C   UNL A   1      38.047  32.227  29.919  1.00  0.00     0.034 A 
ATOM     45  C   UNL A   1      44.722  29.496  29.028  1.00  0.00     0.034 A 
ATOM     46  C   UNL A   1      39.327  32.717  30.424  1.00  0.00     0.049 A 
ATOM     47  C   UNL A   1      44.510  30.988  28.854  1.00  0.00     0.074 A 
ATOM     48  C   UNL A   1      39.994  32.550  31.628  1.00  0.00     0.029 A 
ATOM     49  N   UNL A   1      40.278  33.173  29.529  1.00  0.00    -0.354 N 
ATOM     50  N   UNL A   1      43.492  31.641  29.342  1.00  0.00    -0.248 NA
ATOM     51  C   UNL A   1      45.372  31.841  28.037  1.00  0.00     0.031 C 
ATOM     52  C   UNL A   1      41.351  32.940  31.448  1.00  0.00     0.029 A 
ATOM     53  C   UNL A   1      41.504  33.353  30.140  1.00  0.00     0.049 A 
ATOM     54  H   UNL A   1      40.103  33.349  28.576  1.00  0.00     0.167 HD
ATOM     55  C   UNL A   1      43.547  32.951  28.951  1.00  0.00     0.074 A 
ATOM     56  C   UNL A   1      44.722  33.017  28.099  1.00  0.00     0.031 C 
ATOM     57  C   UNL A   1      42.609  33.863  29.343  1.00  0.00     0.034 A 
BRANCH  44  58
ATOM     58  C   UNL A   1      36.700  32.619  30.475  1.00  0.00     0.023 A 
ATOM     59  C   UNL A   1      36.292  32.296  31.788  1.00  0.00     0.012 A 
ATOM     60  C   UNL A   1      35.783  33.365  29.707  1.00  0.00     0.148 A 
ATOM     61  C   UNL A   1      35.116  32.807  32.356  1.00  0.00     0.002 A 
ATOM     62  C   UNL A   1      34.593  33.838  30.257  1.00  0.00     0.091 A 
ATOM     63  F   UNL A   1      36.043  33.638  28.422  1.00  0.00    -0.205 F 
ATOM     64  C   UNL A   1      34.267  33.590  31.590  1.00  0.00     0.022 A 
BRANCH  62  65
ATOM     65  S   UNL A   1      33.473  34.772  29.214  1.00  0.00     0.127 S 
ATOM     66  O   UNL A   1      34.313  35.861  28.730  1.00  0.00    -0.237 OA
ATOM     67  O   UNL A   1      33.039  33.783  28.232  1.00  0.00    -0.237 OA
ATOM     68  O   UNL A   1      32.423  35.191  30.145  1.00  0.00    -0.744 OA
ENDBRANCH  62  65
ENDBRANCH  44  58
BRANCH  45  69
ATOM     69  C   UNL A   1      45.199  28.567  27.960  1.00  0.00     0.023 A 
ATOM     70  C   UNL A   1      44.524  28.519  26.726  1.00  0.00     0.012 A 
ATOM     71  C   UNL A   1      45.951  27.447  28.376  1.00  0.00     0.148 A 
ATOM     72  C   UNL A   1      44.494  27.328  25.994  1.00  0.00     0.002 A 
ATOM     73  C   UNL A   1      45.867  26.251  27.670  1.00  0.00     0.091 A 
ATOM     74  F   UNL A   1      46.619  27.513  29.538  1.00  0.00    -0.205 F 
ATOM     75  C   UNL A   1      45.136  26.185  26.481  1.00  0.00     0.022 A 
BRANCH  73  76
ATOM     76  S   UNL A   1      46.461  24.747  28.453  1.00  0.00     0.127 S 
ATOM     77  O   UNL A   1      45.520  24.546  29.550  1.00  0.00    -0.237 OA
ATOM     78  O   UNL A   1      46.412  23.778  27.361  1.00  0.00    -0.237 OA
ATOM     79  O   UNL A   1      47.821  25.080  28.879  1.00  0.00    -0.744 OA
ENDBRANCH  73  76
ENDBRANCH  45  69
BRANCH  57  80
ATOM     80  C   UNL A   1      42.598  35.320  28.953  1.00  0.00     0.023 A 
ATOM     81  C   UNL A   1      41.895  35.722  27.788  1.00  0.00     0.012 A 
ATOM     82  C   UNL A   1      43.196  36.337  29.703  1.00  0.00     0.148 A 
ATOM     83  C   UNL A   1      41.880  37.041  27.335  1.00  0.00     0.002 A 
ATOM     84  C   UNL A   1      43.246  37.641  29.213  1.00  0.00     0.091 A 
ATOM     85  F   UNL A   1      43.681  36.072  30.924  1.00  0.00    -0.205 F 
ATOM     86  C   UNL A   1      42.591  38.001  28.031  1.00  0.00     0.022 A 
BRANCH  84  87
ATOM     87  S   UNL A   1      44.284  38.828  30.060  1.00  0.00     0.127 S 
ATOM     88  O   UNL A   1      45.602  38.206  30.032  1.00  0.00    -0.237 OA
ATOM     89  O   UNL A   1      44.112  40.030  29.246  1.00  0.00    -0.237 OA
ATOM     90  O   UNL A   1      43.682  38.916  31.392  1.00  0.00    -0.744 OA
ENDBRANCH  84  87
ENDBRANCH  57  80
ENDBRANCH  31  32
ENDBRANCH  24  26
ENDBRANCH  23  24
ENDBRANCH  22  23
ENDBRANCH   1  22
TORSDOF 18
ENDMDL
MODEL 3
REMARK VINA RESULT:     -10.8      4.146      9.709
REMARK SMILES Cc1cc(-c2cncc(C(=O)OCCOCCOC(=O)c3ccc(-c4c5nc(c(-c6cccc(S(=O)(=O)[O-])c6F)c6ccc([nH]6)c(-c6cccc(S(=O)(=O)[O-])c6F)c6nc(c(-c7cccc(S(=O)(=O)[O-])c7F)c7ccc4[nH]7)C=C6)C=C5)cc3)c2)ccc1F
REMARK SMILES IDX 16 1 15 2 14 3 13 4 12 5 10 6 11 7 9 8 5 9 6 10 84 11 7 12
REMARK SMILES IDX 8 13 4 14 1 15 2 16 3 17 87 18 86 19 88 20 85 21 17 22 18 23
REMARK SMILES IDX 19 24 20 25 21 26 22 27 83 28 23 29 82 30 24 31 25 32 26 33
REMARK SMILES IDX 76 34 27 35 81 36 75 37 77 38 28 39 80 40 74 41 73 42 29 44
REMARK SMILES IDX 61 45 41 46 60 47 42 48 45 49 59 50 78 51 43 52 44 53 58 55
REMARK SMILES IDX 79 56 46 57 30 58 31 59 39 60 32 61 34 62 40 63 33 64 35 65
REMARK SMILES IDX 36 66 37 67 38 68 62 69 63 70 71 71 64 72 66 73 72 74 65 75
REMARK SMILES IDX 67 76 68 77 69 78 70 79 47 80 48 81 56 82 49 83 51 84 57 85
REMARK SMILES IDX 50 86 52 87 53 88 54 89 55 90
REMARK H PARENT 77 43 45 54
REMARK Flexibility Score: inf
ROOT
ATOM      1  C   UNL A   1      34.085  33.993  28.782  1.00  0.00     0.202 C 
ENDROOT
BRANCH   1   2
ATOM      2  O   UNL A   1      33.839  33.121  27.679  1.00  0.00    -0.374 OA
BRANCH   2   3
ATOM      3  C   UNL A   1      33.424  31.779  27.851  1.00  0.00     0.202 C 
BRANCH   3   4
ATOM      4  C   UNL A   1      32.639  31.067  26.746  1.00  0.00     0.261 C 
BRANCH   4   5
ATOM      5  O   UNL A   1      33.309  29.940  26.173  1.00  0.00    -0.460 OA
BRANCH   5   6
ATOM      6  C   UNL A   1      32.721  28.752  26.454  1.00  0.00     0.339 C 
ATOM      7  O   UNL A   1      31.932  28.511  27.350  1.00  0.00    -0.246 OA
BRANCH   6   8
ATOM      8  C   UNL A   1      33.081  27.757  25.436  1.00  0.00     0.079 A 
ATOM      9  C   UNL A   1      34.009  25.644  24.708  1.00  0.00     0.001 A 
ATOM     10  C   UNL A   1      33.501  25.959  23.441  1.00  0.00     0.119 A 
ATOM     11  C   UNL A   1      33.815  26.604  25.714  1.00  0.00     0.027 A 
ATOM     12  N   UNL A   1      32.816  27.088  23.134  1.00  0.00    -0.263 NA
ATOM     13  C   UNL A   1      32.608  27.956  24.147  1.00  0.00     0.126 A 
BRANCH   9  14
ATOM     14  C   UNL A   1      34.609  24.328  24.986  1.00  0.00    -0.016 A 
ATOM     15  C   UNL A   1      34.001  21.376  27.347  1.00  0.00     0.047 C 
ATOM     16  C   UNL A   1      34.575  22.226  26.256  1.00  0.00    -0.015 A 
ATOM     17  C   UNL A   1      34.090  23.518  26.018  1.00  0.00     0.015 A 
ATOM     18  C   UNL A   1      35.595  21.737  25.443  1.00  0.00     0.126 A 
ATOM     19  C   UNL A   1      36.139  22.513  24.427  1.00  0.00     0.040 A 
ATOM     20  F   UNL A   1      36.059  20.492  25.631  1.00  0.00    -0.207 F 
ATOM     21  C   UNL A   1      35.653  23.804  24.203  1.00  0.00     0.012 A 
ENDBRANCH   9  14
ENDBRANCH   6   8
ENDBRANCH   5   6
ENDBRANCH   4   5
ENDBRANCH   3   4
ENDBRANCH   2   3
ENDBRANCH   1   2
BRANCH   1  22
ATOM     22  C   UNL A   1      35.361  33.913  29.614  1.00  0.00     0.261 C 
BRANCH  22  23
ATOM     23  O   UNL A   1      36.155  32.771  29.289  1.00  0.00    -0.460 OA
BRANCH  23  24
ATOM     24  C   UNL A   1      35.972  31.765  30.170  1.00  0.00     0.338 C 
ATOM     25  O   UNL A   1      35.723  31.859  31.362  1.00  0.00    -0.246 OA
BRANCH  24  26
ATOM     26  C   UNL A   1      36.290  30.462  29.574  1.00  0.00     0.060 A 
ATOM     27  C   UNL A   1      36.696  29.537  30.550  1.00  0.00     0.016 A 
ATOM     28  C   UNL A   1      36.894  30.542  28.317  1.00  0.00     0.016 A 
ATOM     29  C   UNL A   1      37.966  29.021  30.446  1.00  0.00     0.010 A 
ATOM     30  C   UNL A   1      38.156  30.021  28.212  1.00  0.00     0.010 A 
ATOM     31  C   UNL A   1      38.707  29.364  29.317  1.00  0.00    -0.014 A 
BRANCH  31  32
ATOM     32  C   UNL A   1      40.086  28.983  29.172  1.00  0.00     0.031 A 
ATOM     33  C   UNL A   1      40.331  27.579  28.850  1.00  0.00     0.074 A 
ATOM     34  C   UNL A   1      41.064  29.896  29.315  1.00  0.00     0.049 A 
ATOM     35  N   UNL A   1      41.360  26.913  29.231  1.00  0.00    -0.248 NA
ATOM     36  C   UNL A   1      39.332  26.765  28.155  1.00  0.00     0.031 C 
ATOM     37  C   UNL A   1      42.456  29.763  28.920  1.00  0.00     0.029 A 
ATOM     38  N   UNL A   1      41.020  31.089  30.019  1.00  0.00    -0.354 N 
ATOM     39  C   UNL A   1      41.345  25.748  28.505  1.00  0.00     0.074 A 
ATOM     40  C   UNL A   1      39.994  25.616  28.011  1.00  0.00     0.031 C 
ATOM     41  C   UNL A   1      43.178  30.712  29.544  1.00  0.00     0.029 A 
ATOM     42  C   UNL A   1      42.306  31.375  30.501  1.00  0.00     0.049 A 
ATOM     43  H   UNL A   1      40.219  31.645  30.158  1.00  0.00     0.167 HD
ATOM     44  C   UNL A   1      42.526  25.142  28.209  1.00  0.00     0.034 A 
ATOM     45  C   UNL A   1      42.533  31.431  31.850  1.00  0.00     0.034 A 
ATOM     46  C   UNL A   1      43.648  25.892  28.768  1.00  0.00     0.049 A 
ATOM     47  C   UNL A   1      43.374  30.281  32.371  1.00  0.00     0.074 A 
ATOM     48  C   UNL A   1      44.531  26.813  28.226  1.00  0.00     0.029 A 
ATOM     49  N   UNL A   1      43.751  26.035  30.140  1.00  0.00    -0.354 N 
ATOM     50  N   UNL A   1      43.756  29.269  31.641  1.00  0.00    -0.248 NA
ATOM     51  C   UNL A   1      43.766  30.129  33.771  1.00  0.00     0.031 C 
ATOM     52  C   UNL A   1      45.184  27.491  29.293  1.00  0.00     0.029 A 
ATOM     53  C   UNL A   1      44.706  26.973  30.480  1.00  0.00     0.049 A 
ATOM     54  H   UNL A   1      43.212  25.531  30.792  1.00  0.00     0.167 HD
ATOM     55  C   UNL A   1      44.434  28.366  32.413  1.00  0.00     0.074 A 
ATOM     56  C   UNL A   1      44.378  28.931  33.750  1.00  0.00     0.031 C 
ATOM     57  C   UNL A   1      44.965  27.220  31.890  1.00  0.00     0.034 A 
BRANCH  44  58
ATOM     58  C   UNL A   1      42.650  24.078  27.145  1.00  0.00     0.023 A 
ATOM     59  C   UNL A   1      43.370  24.279  25.946  1.00  0.00     0.012 A 
ATOM     60  C   UNL A   1      42.069  22.805  27.315  1.00  0.00     0.148 A 
ATOM     61  C   UNL A   1      43.626  23.238  25.043  1.00  0.00     0.002 A 
ATOM     62  C   UNL A   1      42.288  21.782  26.395  1.00  0.00     0.091 A 
ATOM     63  F   UNL A   1      41.292  22.554  28.375  1.00  0.00    -0.205 F 
ATOM     64  C   UNL A   1      43.091  21.980  25.272  1.00  0.00     0.022 A 
BRANCH  62  65
ATOM     65  S   UNL A   1      41.507  20.192  26.675  1.00  0.00     0.127 S 
ATOM     66  O   UNL A   1      41.803  19.464  25.447  1.00  0.00    -0.237 OA
ATOM     67  O   UNL A   1      42.152  19.721  27.896  1.00  0.00    -0.237 OA
ATOM     68  O   UNL A   1      40.095  20.540  26.841  1.00  0.00    -0.744 OA
ENDBRANCH  62  65
ENDBRANCH  44  58
BRANCH  45  69
ATOM     69  C   UNL A   1      41.400  32.066  32.587  1.00  0.00     0.023 A 
ATOM     70  C   UNL A   1      41.498  33.409  32.993  1.00  0.00     0.012 A 
ATOM     71  C   UNL A   1      40.523  31.201  33.278  1.00  0.00     0.148 A 
ATOM     72  C   UNL A   1      40.836  33.838  34.148  1.00  0.00     0.002 A 
ATOM     73  C   UNL A   1      39.915  31.622  34.457  1.00  0.00     0.091 A 
ATOM     74  F   UNL A   1      40.410  29.929  32.863  1.00  0.00    -0.205 F 
ATOM     75  C   UNL A   1      40.073  32.938  34.899  1.00  0.00     0.022 A 
BRANCH  73  76
ATOM     76  S   UNL A   1      39.180  30.386  35.534  1.00  0.00     0.127 S 
ATOM     77  O   UNL A   1      38.174  29.757  34.684  1.00  0.00    -0.237 OA
ATOM     78  O   UNL A   1      40.330  29.565  35.908  1.00  0.00    -0.237 OA
ATOM     79  O   UNL A   1      38.630  31.163  36.645  1.00  0.00    -0.744 OA
ENDBRANCH  73  76
ENDBRANCH  45  69
BRANCH  57  80
ATOM     80  C   UNL A   1      45.720  26.177  32.674  1.00  0.00     0.023 A 
ATOM     81  C   UNL A   1      47.137  26.152  32.612  1.00  0.00     0.012 A 
ATOM     82  C   UNL A   1      45.116  25.245  33.523  1.00  0.00     0.148 A 
ATOM     83  C   UNL A   1      47.903  25.188  33.268  1.00  0.00     0.002 A 
ATOM     84  C   UNL A   1      45.872  24.236  34.118  1.00  0.00     0.091 A 
ATOM     85  F   UNL A   1      43.811  25.347  33.811  1.00  0.00    -0.205 F 
ATOM     86  C   UNL A   1      47.265  24.201  33.996  1.00  0.00     0.022 A 
BRANCH  84  87
ATOM     87  S   UNL A   1      45.010  22.898  34.938  1.00  0.00     0.127 S 
ATOM     88  O   UNL A   1      46.057  21.907  35.160  1.00  0.00    -0.237 OA
ATOM     89  O   UNL A   1      44.472  23.556  36.127  1.00  0.00    -0.237 OA
ATOM     90  O   UNL A   1      43.995  22.501  33.962  1.00  0.00    -0.744 OA
ENDBRANCH  84  87
ENDBRANCH  57  80
ENDBRANCH  31  32
ENDBRANCH  24  26
ENDBRANCH  23  24
ENDBRANCH  22  23
ENDBRANCH   1  22
TORSDOF 18
ENDMDL
