MODEL 1
REMARK VINA RESULT:     -12.0      0.000      0.000
REMARK SMILES CC[C@@H](C)c1ccccc1NC(=O)[C@@H]1[C@@H](C(=O)OCCOCCOC(=O)c2ccc(-c3c4nc(c(-c5cccc(S(=O)(=O)[O-])c5F)c5ccc([nH]5)c(-c5cccc(S(=O)(=O)[O-])c5F)c5nc(c(-c6cccc(S(=O)(=O)[O-])c6F)c6ccc3[nH]6)C=C5)C=C4)cc2)[C@@H]2C=C[C@H]1C2
REMARK SMILES IDX 20 1 19 2 18 3 16 4 17 5 15 6 14 7 93 8 90 9 92 10 94 11
REMARK SMILES IDX 91 12 12 13 11 14 13 16 10 17 5 18 6 19 7 20 9 21 8 22 3 23
REMARK SMILES IDX 4 24 2 25 1 26 21 27 22 28 23 29 24 30 25 31 26 32 27 33
REMARK SMILES IDX 28 34 89 35 29 36 88 37 30 38 31 39 32 40 82 41 33 42 87 43
REMARK SMILES IDX 81 44 83 45 34 46 86 47 80 48 79 49 35 51 67 52 47 53 66 54
REMARK SMILES IDX 48 55 51 56 65 57 84 58 49 59 50 60 64 62 85 63 52 64 36 65
REMARK SMILES IDX 37 66 45 67 38 68 40 69 46 70 39 71 41 72 42 73 43 74 44 75
REMARK SMILES IDX 68 76 69 77 77 78 70 79 72 80 78 81 71 82 73 83 74 84 75 85
REMARK SMILES IDX 76 86 53 87 54 88 62 89 55 90 57 91 63 92 56 93 58 94 59 95
REMARK SMILES IDX 60 96 61 97
REMARK H PARENT 11 15 83 50 51 61
REMARK Flexibility Score: inf
ROOT
ATOM      1  C   UNL A   1      34.154  19.284  24.650  1.00  0.00     0.202 C 
ENDROOT
BRANCH   1   2
ATOM      2  C   UNL A   1      33.301  20.270  25.453  1.00  0.00     0.261 C 
BRANCH   2   3
ATOM      3  O   UNL A   1      32.218  20.760  24.655  1.00  0.00    -0.463 OA
BRANCH   3   4
ATOM      4  C   UNL A   1      32.442  21.894  23.925  1.00  0.00     0.310 C 
ATOM      5  O   UNL A   1      32.265  22.020  22.726  1.00  0.00    -0.252 OA
BRANCH   4   6
ATOM      6  C   UNL A   1      32.904  22.975  24.889  1.00  0.00     0.119 C 
ATOM      7  C   UNL A   1      32.192  24.336  24.817  1.00  0.00     0.100 C 
ATOM      8  C   UNL A   1      33.314  25.290  24.316  1.00  0.00     0.025 C 
ATOM      9  C   UNL A   1      34.379  23.341  24.597  1.00  0.00     0.027 C 
ATOM     10  C   UNL A   1      34.297  25.502  25.432  1.00  0.00    -0.027 C 
ATOM     11  C   UNL A   1      34.182  24.354  23.458  1.00  0.00     0.017 C 
ATOM     12  C   UNL A   1      34.929  24.332  25.611  1.00  0.00    -0.027 C 
BRANCH   7  13
ATOM     13  C   UNL A   1      31.420  24.887  26.043  1.00  0.00     0.228 C 
ATOM     14  N   UNL A   1      31.091  26.143  26.466  1.00  0.00    -0.326 N 
ATOM     15  H   UNL A   1      30.411  26.062  27.173  1.00  0.00     0.169 HD
ATOM     16  O   UNL A   1      30.909  24.002  26.764  1.00  0.00    -0.274 OA
BRANCH  14  17
ATOM     17  C   UNL A   1      31.365  27.527  26.263  1.00  0.00     0.044 A 
ATOM     18  C   UNL A   1      31.044  28.221  25.056  1.00  0.00    -0.022 A 
ATOM     19  C   UNL A   1      31.390  29.616  24.995  1.00  0.00     0.006 A 
ATOM     20  C   UNL A   1      31.871  30.351  26.069  1.00  0.00     0.000 A 
ATOM     21  C   UNL A   1      31.915  28.312  27.282  1.00  0.00     0.026 A 
ATOM     22  C   UNL A   1      32.127  29.689  27.231  1.00  0.00     0.002 A 
BRANCH  18  23
ATOM     23  C   UNL A   1      30.442  27.706  23.715  1.00  0.00     0.018 C 
ATOM     24  C   UNL A   1      31.540  27.577  22.619  1.00  0.00     0.013 C 
BRANCH  23  25
ATOM     25  C   UNL A   1      29.221  28.422  23.095  1.00  0.00     0.005 C 
ATOM     26  C   UNL A   1      27.866  27.795  23.435  1.00  0.00     0.004 C 
ENDBRANCH  23  25
ENDBRANCH  18  23
ENDBRANCH  14  17
ENDBRANCH   7  13
ENDBRANCH   4   6
ENDBRANCH   3   4
ENDBRANCH   2   3
ENDBRANCH   1   2
BRANCH   1  27
ATOM     27  O   UNL A   1      35.561  19.395  24.879  1.00  0.00    -0.374 OA
BRANCH  27  28
ATOM     28  C   UNL A   1      36.107  20.710  24.745  1.00  0.00     0.202 C 
BRANCH  28  29
ATOM     29  C   UNL A   1      37.135  21.101  25.807  1.00  0.00     0.261 C 
BRANCH  29  30
ATOM     30  O   UNL A   1      38.458  21.132  25.244  1.00  0.00    -0.460 OA
BRANCH  30  31
ATOM     31  C   UNL A   1      39.456  20.966  26.140  1.00  0.00     0.338 C 
ATOM     32  O   UNL A   1      40.082  19.938  26.365  1.00  0.00    -0.246 OA
BRANCH  31  33
ATOM     33  C   UNL A   1      39.838  22.270  26.707  1.00  0.00     0.060 A 
ATOM     34  C   UNL A   1      39.215  23.408  26.181  1.00  0.00     0.016 A 
ATOM     35  C   UNL A   1      40.822  22.389  27.691  1.00  0.00     0.016 A 
ATOM     36  C   UNL A   1      39.616  24.675  26.590  1.00  0.00     0.010 A 
ATOM     37  C   UNL A   1      41.227  23.664  28.098  1.00  0.00     0.010 A 
ATOM     38  C   UNL A   1      40.655  24.812  27.517  1.00  0.00    -0.014 A 
BRANCH  38  39
ATOM     39  C   UNL A   1      41.237  26.152  27.770  1.00  0.00     0.031 A 
ATOM     40  C   UNL A   1      42.622  26.453  27.266  1.00  0.00     0.074 A 
ATOM     41  C   UNL A   1      40.536  27.089  28.436  1.00  0.00     0.049 A 
ATOM     42  N   UNL A   1      43.331  27.542  27.401  1.00  0.00    -0.248 NA
ATOM     43  C   UNL A   1      43.302  25.385  26.511  1.00  0.00     0.031 C 
ATOM     44  C   UNL A   1      39.185  26.915  28.967  1.00  0.00     0.029 A 
ATOM     45  N   UNL A   1      40.880  28.367  28.802  1.00  0.00    -0.354 N 
ATOM     46  C   UNL A   1      44.554  27.277  26.795  1.00  0.00     0.074 A 
ATOM     47  C   UNL A   1      44.490  25.926  26.282  1.00  0.00     0.031 C 
ATOM     48  C   UNL A   1      38.827  28.033  29.622  1.00  0.00     0.029 A 
ATOM     49  C   UNL A   1      39.933  28.987  29.582  1.00  0.00     0.049 A 
ATOM     50  H   UNL A   1      41.723  28.797  28.532  1.00  0.00     0.167 HD
ATOM     51  C   UNL A   1      45.629  28.089  26.673  1.00  0.00     0.034 A 
ATOM     52  C   UNL A   1      39.970  30.174  30.219  1.00  0.00     0.034 A 
ATOM     53  C   UNL A   1      45.675  29.443  27.152  1.00  0.00     0.049 A 
ATOM     54  C   UNL A   1      41.189  31.050  30.070  1.00  0.00     0.074 A 
ATOM     55  C   UNL A   1      46.691  30.371  27.001  1.00  0.00     0.029 A 
ATOM     56  N   UNL A   1      44.678  30.056  27.892  1.00  0.00    -0.354 N 
ATOM     57  N   UNL A   1      42.278  30.839  29.370  1.00  0.00    -0.248 NA
ATOM     58  C   UNL A   1      41.170  32.343  30.769  1.00  0.00     0.031 C 
ATOM     59  C   UNL A   1      46.329  31.529  27.694  1.00  0.00     0.029 A 
ATOM     60  C   UNL A   1      45.066  31.341  28.230  1.00  0.00     0.049 A 
ATOM     61  H   UNL A   1      43.822  29.640  28.141  1.00  0.00     0.167 HD
ATOM     62  C   UNL A   1      43.050  31.988  29.512  1.00  0.00     0.074 A 
ATOM     63  C   UNL A   1      42.295  32.900  30.344  1.00  0.00     0.031 C 
ATOM     64  C   UNL A   1      44.279  32.261  29.008  1.00  0.00     0.034 A 
BRANCH  51  65
ATOM     65  C   UNL A   1      46.858  27.551  25.993  1.00  0.00     0.023 A 
ATOM     66  C   UNL A   1      47.694  26.636  26.663  1.00  0.00     0.012 A 
ATOM     67  C   UNL A   1      47.118  27.872  24.645  1.00  0.00     0.148 A 
ATOM     68  C   UNL A   1      48.779  26.057  26.003  1.00  0.00     0.002 A 
ATOM     69  C   UNL A   1      48.172  27.256  23.982  1.00  0.00     0.091 A 
ATOM     70  F   UNL A   1      46.321  28.761  24.037  1.00  0.00    -0.205 F 
ATOM     71  C   UNL A   1      49.009  26.355  24.662  1.00  0.00     0.022 A 
BRANCH  69  72
ATOM     72  S   UNL A   1      48.496  27.506  22.234  1.00  0.00     0.127 S 
ATOM     73  O   UNL A   1      47.213  28.032  21.769  1.00  0.00    -0.237 OA
ATOM     74  O   UNL A   1      49.583  28.486  22.262  1.00  0.00    -0.237 OA
ATOM     75  O   UNL A   1      48.861  26.203  21.699  1.00  0.00    -0.744 OA
ENDBRANCH  69  72
ENDBRANCH  51  65
BRANCH  52  76
ATOM     76  C   UNL A   1      38.822  30.618  31.061  1.00  0.00     0.023 A 
ATOM     77  C   UNL A   1      38.821  30.349  32.444  1.00  0.00     0.012 A 
ATOM     78  C   UNL A   1      37.715  31.276  30.490  1.00  0.00     0.148 A 
ATOM     79  C   UNL A   1      37.718  30.680  33.232  1.00  0.00     0.002 A 
ATOM     80  C   UNL A   1      36.647  31.660  31.292  1.00  0.00     0.091 A 
ATOM     81  F   UNL A   1      37.724  31.510  29.170  1.00  0.00    -0.205 F 
ATOM     82  C   UNL A   1      36.635  31.341  32.658  1.00  0.00     0.022 A 
BRANCH  80  83
ATOM     83  S   UNL A   1      35.276  32.632  30.659  1.00  0.00     0.127 S 
ATOM     84  O   UNL A   1      34.363  32.638  31.798  1.00  0.00    -0.237 OA
ATOM     85  O   UNL A   1      35.920  33.915  30.376  1.00  0.00    -0.237 OA
ATOM     86  O   UNL A   1      34.811  31.925  29.473  1.00  0.00    -0.744 OA
ENDBRANCH  80  83
ENDBRANCH  52  76
BRANCH  64  87
ATOM     87  C   UNL A   1      44.868  33.620  29.284  1.00  0.00     0.023 A 
ATOM     88  C   UNL A   1      45.597  33.850  30.467  1.00  0.00     0.012 A 
ATOM     89  C   UNL A   1      44.760  34.650  28.328  1.00  0.00     0.148 A 
ATOM     90  C   UNL A   1      46.176  35.095  30.712  1.00  0.00     0.002 A 
ATOM     91  C   UNL A   1      45.387  35.869  28.553  1.00  0.00     0.091 A 
ATOM     92  F   UNL A   1      44.050  34.417  27.215  1.00  0.00    -0.205 F 
ATOM     93  C   UNL A   1      46.081  36.099  29.751  1.00  0.00     0.022 A 
BRANCH  91  94
ATOM     94  S   UNL A   1      45.405  37.183  27.328  1.00  0.00     0.127 S 
ATOM     95  O   UNL A   1      46.082  36.533  26.206  1.00  0.00    -0.237 OA
ATOM     96  O   UNL A   1      43.978  37.430  27.118  1.00  0.00    -0.237 OA
ATOM     97  O   UNL A   1      46.129  38.291  27.935  1.00  0.00    -0.744 OA
ENDBRANCH  91  94
ENDBRANCH  64  87
ENDBRANCH  38  39
ENDBRANCH  31  33
ENDBRANCH  30  31
ENDBRANCH  29  30
ENDBRANCH  28  29
ENDBRANCH  27  28
ENDBRANCH   1  27
TORSDOF 21
ENDMDL
MODEL 2
REMARK VINA RESULT:     -11.4      1.670      2.330
REMARK SMILES CC[C@@H](C)c1ccccc1NC(=O)[C@@H]1[C@@H](C(=O)OCCOCCOC(=O)c2ccc(-c3c4nc(c(-c5cccc(S(=O)(=O)[O-])c5F)c5ccc([nH]5)c(-c5cccc(S(=O)(=O)[O-])c5F)c5nc(c(-c6cccc(S(=O)(=O)[O-])c6F)c6ccc3[nH]6)C=C5)C=C4)cc2)[C@@H]2C=C[C@H]1C2
REMARK SMILES IDX 20 1 19 2 18 3 16 4 17 5 15 6 14 7 93 8 90 9 92 10 94 11
REMARK SMILES IDX 91 12 12 13 11 14 13 16 10 17 5 18 6 19 7 20 9 21 8 22 3 23
REMARK SMILES IDX 4 24 2 25 1 26 21 27 22 28 23 29 24 30 25 31 26 32 27 33
REMARK SMILES IDX 28 34 89 35 29 36 88 37 30 38 31 39 32 40 82 41 33 42 87 43
REMARK SMILES IDX 81 44 83 45 34 46 86 47 80 48 79 49 35 51 67 52 47 53 66 54
REMARK SMILES IDX 48 55 51 56 65 57 84 58 49 59 50 60 64 62 85 63 52 64 36 65
REMARK SMILES IDX 37 66 45 67 38 68 40 69 46 70 39 71 41 72 42 73 43 74 44 75
REMARK SMILES IDX 68 76 69 77 77 78 70 79 72 80 78 81 71 82 73 83 74 84 75 85
REMARK SMILES IDX 76 86 53 87 54 88 62 89 55 90 57 91 63 92 56 93 58 94 59 95
REMARK SMILES IDX 60 96 61 97
REMARK H PARENT 11 15 83 50 51 61
REMARK Flexibility Score: inf
ROOT
ATOM      1  C   UNL A   1      37.570  22.575  25.228  1.00  0.00     0.202 C 
ENDROOT
BRANCH   1   2
ATOM      2  C   UNL A   1      36.680  22.892  26.432  1.00  0.00     0.261 C 
BRANCH   2   3
ATOM      3  O   UNL A   1      35.485  23.561  26.011  1.00  0.00    -0.463 OA
BRANCH   3   4
ATOM      4  C   UNL A   1      34.338  23.283  26.699  1.00  0.00     0.310 C 
ATOM      5  O   UNL A   1      34.270  22.728  27.782  1.00  0.00    -0.252 OA
BRANCH   4   6
ATOM      6  C   UNL A   1      33.174  23.834  25.891  1.00  0.00     0.119 C 
ATOM      7  C   UNL A   1      31.781  23.247  26.169  1.00  0.00     0.100 C 
ATOM      8  C   UNL A   1      31.440  22.514  24.840  1.00  0.00     0.025 C 
ATOM      9  C   UNL A   1      33.386  23.524  24.389  1.00  0.00     0.027 C 
ATOM     10  C   UNL A   1      31.149  23.543  23.786  1.00  0.00    -0.027 C 
ATOM     11  C   UNL A   1      32.829  22.093  24.332  1.00  0.00     0.017 C 
ATOM     12  C   UNL A   1      32.312  24.159  23.522  1.00  0.00    -0.027 C 
BRANCH   7  13
ATOM     13  C   UNL A   1      30.633  24.153  26.682  1.00  0.00     0.228 C 
ATOM     14  N   UNL A   1      30.368  25.489  26.584  1.00  0.00    -0.326 N 
ATOM     15  H   UNL A   1      29.434  25.640  26.854  1.00  0.00     0.169 HD
ATOM     16  O   UNL A   1      29.697  23.530  27.230  1.00  0.00    -0.274 OA
BRANCH  14  17
ATOM     17  C   UNL A   1      30.943  26.747  26.237  1.00  0.00     0.044 A 
ATOM     18  C   UNL A   1      30.809  27.339  24.943  1.00  0.00    -0.022 A 
ATOM     19  C   UNL A   1      31.452  28.609  24.739  1.00  0.00     0.006 A 
ATOM     20  C   UNL A   1      32.056  29.352  25.743  1.00  0.00     0.000 A 
ATOM     21  C   UNL A   1      31.626  27.517  27.185  1.00  0.00     0.026 A 
ATOM     22  C   UNL A   1      32.134  28.799  26.986  1.00  0.00     0.002 A 
BRANCH  18  23
ATOM     23  C   UNL A   1      30.142  26.802  23.643  1.00  0.00     0.018 C 
ATOM     24  C   UNL A   1      30.529  27.673  22.412  1.00  0.00     0.013 C 
BRANCH  23  25
ATOM     25  C   UNL A   1      28.616  26.560  23.604  1.00  0.00     0.005 C 
ATOM     26  C   UNL A   1      27.762  27.830  23.619  1.00  0.00     0.004 C 
ENDBRANCH  23  25
ENDBRANCH  18  23
ENDBRANCH  14  17
ENDBRANCH   7  13
ENDBRANCH   4   6
ENDBRANCH   3   4
ENDBRANCH   2   3
ENDBRANCH   1   2
BRANCH   1  27
ATOM     27  O   UNL A   1      38.605  21.624  25.489  1.00  0.00    -0.374 OA
BRANCH  27  28
ATOM     28  C   UNL A   1      38.302  20.271  25.141  1.00  0.00     0.202 C 
BRANCH  28  29
ATOM     29  C   UNL A   1      39.283  19.225  25.673  1.00  0.00     0.261 C 
BRANCH  29  30
ATOM     30  O   UNL A   1      40.180  19.813  26.630  1.00  0.00    -0.460 OA
BRANCH  30  31
ATOM     31  C   UNL A   1      41.484  19.783  26.274  1.00  0.00     0.338 C 
ATOM     32  O   UNL A   1      42.079  18.861  25.730  1.00  0.00    -0.246 OA
BRANCH  31  33
ATOM     33  C   UNL A   1      42.082  21.115  26.460  1.00  0.00     0.060 A 
ATOM     34  C   UNL A   1      42.449  21.479  27.761  1.00  0.00     0.016 A 
ATOM     35  C   UNL A   1      42.232  22.014  25.402  1.00  0.00     0.016 A 
ATOM     36  C   UNL A   1      42.909  22.765  28.022  1.00  0.00     0.010 A 
ATOM     37  C   UNL A   1      42.691  23.308  25.667  1.00  0.00     0.010 A 
ATOM     38  C   UNL A   1      42.990  23.701  26.985  1.00  0.00    -0.014 A 
BRANCH  38  39
ATOM     39  C   UNL A   1      43.251  25.125  27.305  1.00  0.00     0.031 A 
ATOM     40  C   UNL A   1      44.629  25.683  27.075  1.00  0.00     0.074 A 
ATOM     41  C   UNL A   1      42.270  25.911  27.788  1.00  0.00     0.049 A 
ATOM     42  N   UNL A   1      45.083  26.885  27.312  1.00  0.00    -0.248 NA
ATOM     43  C   UNL A   1      45.631  24.766  26.504  1.00  0.00     0.031 C 
ATOM     44  C   UNL A   1      40.896  25.483  28.048  1.00  0.00     0.029 A 
ATOM     45  N   UNL A   1      42.292  27.228  28.174  1.00  0.00    -0.354 N 
ATOM     46  C   UNL A   1      46.429  26.858  26.968  1.00  0.00     0.074 A 
ATOM     47  C   UNL A   1      46.721  25.522  26.496  1.00  0.00     0.031 C 
ATOM     48  C   UNL A   1      40.214  26.510  28.583  1.00  0.00     0.029 A 
ATOM     49  C   UNL A   1      41.110  27.655  28.732  1.00  0.00     0.049 A 
ATOM     50  H   UNL A   1      43.078  27.810  28.061  1.00  0.00     0.167 HD
ATOM     51  C   UNL A   1      47.338  27.857  27.033  1.00  0.00     0.034 A 
ATOM     52  C   UNL A   1      40.799  28.825  29.325  1.00  0.00     0.034 A 
ATOM     53  C   UNL A   1      47.037  29.194  27.468  1.00  0.00     0.049 A 
ATOM     54  C   UNL A   1      41.840  29.915  29.390  1.00  0.00     0.074 A 
ATOM     55  C   UNL A   1      47.872  30.297  27.491  1.00  0.00     0.029 A 
ATOM     56  N   UNL A   1      45.816  29.605  27.977  1.00  0.00    -0.354 N 
ATOM     57  N   UNL A   1      43.066  29.916  28.927  1.00  0.00    -0.248 NA
ATOM     58  C   UNL A   1      41.442  31.177  30.030  1.00  0.00     0.031 C 
ATOM     59  C   UNL A   1      47.172  31.363  28.061  1.00  0.00     0.029 A 
ATOM     60  C   UNL A   1      45.884  30.938  28.343  1.00  0.00     0.049 A 
ATOM     61  H   UNL A   1      45.019  29.034  28.065  1.00  0.00     0.167 HD
ATOM     62  C   UNL A   1      43.568  31.188  29.180  1.00  0.00     0.074 A 
ATOM     63  C   UNL A   1      42.506  31.938  29.818  1.00  0.00     0.031 C 
ATOM     64  C   UNL A   1      44.801  31.690  28.921  1.00  0.00     0.034 A 
BRANCH  51  65
ATOM     65  C   UNL A   1      48.757  27.563  26.627  1.00  0.00     0.023 A 
ATOM     66  C   UNL A   1      49.661  27.018  27.560  1.00  0.00     0.012 A 
ATOM     67  C   UNL A   1      49.156  27.726  25.285  1.00  0.00     0.148 A 
ATOM     68  C   UNL A   1      50.948  26.651  27.164  1.00  0.00     0.002 A 
ATOM     69  C   UNL A   1      50.422  27.314  24.889  1.00  0.00     0.091 A 
ATOM     70  F   UNL A   1      48.284  28.267  24.422  1.00  0.00    -0.205 F 
ATOM     71  C   UNL A   1      51.321  26.784  25.829  1.00  0.00     0.022 A 
BRANCH  69  72
ATOM     72  S   UNL A   1      50.965  27.364  23.179  1.00  0.00     0.127 S 
ATOM     73  O   UNL A   1      49.808  26.800  22.485  1.00  0.00    -0.237 OA
ATOM     74  O   UNL A   1      51.167  28.797  22.964  1.00  0.00    -0.237 OA
ATOM     75  O   UNL A   1      52.177  26.560  23.115  1.00  0.00    -0.744 OA
ENDBRANCH  69  72
ENDBRANCH  51  65
BRANCH  52  76
ATOM     76  C   UNL A   1      39.444  29.041  29.908  1.00  0.00     0.023 A 
ATOM     77  C   UNL A   1      39.130  28.500  31.171  1.00  0.00     0.012 A 
ATOM     78  C   UNL A   1      38.454  29.751  29.202  1.00  0.00     0.148 A 
ATOM     79  C   UNL A   1      37.842  28.618  31.695  1.00  0.00     0.002 A 
ATOM     80  C   UNL A   1      37.192  29.920  29.758  1.00  0.00     0.091 A 
ATOM     81  F   UNL A   1      38.763  30.245  27.995  1.00  0.00    -0.205 F 
ATOM     82  C   UNL A   1      36.876  29.333  30.993  1.00  0.00     0.022 A 
BRANCH  80  83
ATOM     83  S   UNL A   1      35.932  30.938  28.982  1.00  0.00     0.127 S 
ATOM     84  O   UNL A   1      35.150  31.378  30.134  1.00  0.00    -0.237 OA
ATOM     85  O   UNL A   1      36.737  31.983  28.347  1.00  0.00    -0.237 OA
ATOM     86  O   UNL A   1      35.246  30.062  28.042  1.00  0.00    -0.744 OA
ENDBRANCH  80  83
ENDBRANCH  52  76
BRANCH  64  87
ATOM     87  C   UNL A   1      45.062  33.133  29.264  1.00  0.00     0.023 A 
ATOM     88  C   UNL A   1      45.588  33.479  30.524  1.00  0.00     0.012 A 
ATOM     89  C   UNL A   1      44.852  34.142  28.301  1.00  0.00     0.148 A 
ATOM     90  C   UNL A   1      45.866  34.810  30.834  1.00  0.00     0.002 A 
ATOM     91  C   UNL A   1      45.184  35.458  28.598  1.00  0.00     0.091 A 
ATOM     92  F   UNL A   1      44.337  33.795  27.114  1.00  0.00    -0.205 F 
ATOM     93  C   UNL A   1      45.675  35.797  29.869  1.00  0.00     0.022 A 
BRANCH  91  94
ATOM     94  S   UNL A   1      45.070  36.777  27.384  1.00  0.00     0.127 S 
ATOM     95  O   UNL A   1      45.604  37.915  28.130  1.00  0.00    -0.237 OA
ATOM     96  O   UNL A   1      45.940  36.287  26.314  1.00  0.00    -0.237 OA
ATOM     97  O   UNL A   1      43.662  36.873  27.023  1.00  0.00    -0.744 OA
ENDBRANCH  91  94
ENDBRANCH  64  87
ENDBRANCH  38  39
ENDBRANCH  31  33
ENDBRANCH  30  31
ENDBRANCH  29  30
ENDBRANCH  28  29
ENDBRANCH  27  28
ENDBRANCH   1  27
TORSDOF 21
ENDMDL
MODEL 3
REMARK VINA RESULT:     -11.4      5.105     10.056
REMARK SMILES CC[C@@H](C)c1ccccc1NC(=O)[C@@H]1[C@@H](C(=O)OCCOCCOC(=O)c2ccc(-c3c4nc(c(-c5cccc(S(=O)(=O)[O-])c5F)c5ccc([nH]5)c(-c5cccc(S(=O)(=O)[O-])c5F)c5nc(c(-c6cccc(S(=O)(=O)[O-])c6F)c6ccc3[nH]6)C=C5)C=C4)cc2)[C@@H]2C=C[C@H]1C2
REMARK SMILES IDX 20 1 19 2 18 3 16 4 17 5 15 6 14 7 93 8 90 9 92 10 94 11
REMARK SMILES IDX 91 12 12 13 11 14 13 16 10 17 5 18 6 19 7 20 9 21 8 22 3 23
REMARK SMILES IDX 4 24 2 25 1 26 21 27 22 28 23 29 24 30 25 31 26 32 27 33
REMARK SMILES IDX 28 34 89 35 29 36 88 37 30 38 31 39 32 40 82 41 33 42 87 43
REMARK SMILES IDX 81 44 83 45 34 46 86 47 80 48 79 49 35 51 67 52 47 53 66 54
REMARK SMILES IDX 48 55 51 56 65 57 84 58 49 59 50 60 64 62 85 63 52 64 36 65
REMARK SMILES IDX 37 66 45 67 38 68 40 69 46 70 39 71 41 72 42 73 43 74 44 75
REMARK SMILES IDX 68 76 69 77 77 78 70 79 72 80 78 81 71 82 73 83 74 84 75 85
REMARK SMILES IDX 76 86 53 87 54 88 62 89 55 90 57 91 63 92 56 93 58 94 59 95
REMARK SMILES IDX 60 96 61 97
REMARK H PARENT 11 15 83 50 51 61
REMARK Flexibility Score: inf
ROOT
ATOM      1  C   UNL A   1      32.402  26.557  25.961  1.00  0.00     0.202 C 
ENDROOT
BRANCH   1   2
ATOM      2  C   UNL A   1      33.527  26.093  25.032  1.00  0.00     0.261 C 
BRANCH   2   3
ATOM      3  O   UNL A   1      33.295  24.749  24.596  1.00  0.00    -0.463 OA
BRANCH   3   4
ATOM      4  C   UNL A   1      34.099  24.267  23.601  1.00  0.00     0.310 C 
ATOM      5  O   UNL A   1      34.294  24.796  22.520  1.00  0.00    -0.252 OA
BRANCH   4   6
ATOM      6  C   UNL A   1      34.738  22.985  24.110  1.00  0.00     0.119 C 
ATOM      7  C   UNL A   1      34.669  22.713  25.621  1.00  0.00     0.100 C 
ATOM      8  C   UNL A   1      36.159  22.798  26.060  1.00  0.00     0.025 C 
ATOM      9  C   UNL A   1      36.261  23.014  23.833  1.00  0.00     0.027 C 
ATOM     10  C   UNL A   1      36.879  21.583  25.548  1.00  0.00    -0.027 C 
ATOM     11  C   UNL A   1      36.739  23.811  25.057  1.00  0.00     0.017 C 
ATOM     12  C   UNL A   1      36.931  21.703  24.213  1.00  0.00    -0.027 C 
BRANCH   7  13
ATOM     13  C   UNL A   1      33.941  21.457  26.163  1.00  0.00     0.228 C 
ATOM     14  N   UNL A   1      33.408  20.347  25.574  1.00  0.00    -0.326 N 
ATOM     15  H   UNL A   1      33.230  19.680  26.275  1.00  0.00     0.169 HD
ATOM     16  O   UNL A   1      33.901  21.388  27.411  1.00  0.00    -0.274 OA
BRANCH  14  17
ATOM     17  C   UNL A   1      33.013  19.794  24.320  1.00  0.00     0.044 A 
ATOM     18  C   UNL A   1      33.067  18.396  24.027  1.00  0.00    -0.022 A 
ATOM     19  C   UNL A   1      32.644  17.989  22.715  1.00  0.00     0.006 A 
ATOM     20  C   UNL A   1      32.057  18.833  21.784  1.00  0.00     0.000 A 
ATOM     21  C   UNL A   1      32.478  20.601  23.310  1.00  0.00     0.026 A 
ATOM     22  C   UNL A   1      31.966  20.157  22.092  1.00  0.00     0.002 A 
BRANCH  18  23
ATOM     23  C   UNL A   1      33.598  17.201  24.872  1.00  0.00     0.018 C 
ATOM     24  C   UNL A   1      34.448  16.231  24.000  1.00  0.00     0.013 C 
BRANCH  23  25
ATOM     25  C   UNL A   1      32.614  16.357  25.714  1.00  0.00     0.005 C 
ATOM     26  C   UNL A   1      32.727  14.844  25.512  1.00  0.00     0.004 C 
ENDBRANCH  23  25
ENDBRANCH  18  23
ENDBRANCH  14  17
ENDBRANCH   7  13
ENDBRANCH   4   6
ENDBRANCH   3   4
ENDBRANCH   2   3
ENDBRANCH   1   2
BRANCH   1  27
ATOM     27  O   UNL A   1      32.330  27.972  26.144  1.00  0.00    -0.374 OA
BRANCH  27  28
ATOM     28  C   UNL A   1      33.566  28.677  25.998  1.00  0.00     0.202 C 
BRANCH  28  29
ATOM     29  C   UNL A   1      33.521  30.158  26.376  1.00  0.00     0.261 C 
BRANCH  29  30
ATOM     30  O   UNL A   1      33.991  30.352  27.721  1.00  0.00    -0.460 OA
BRANCH  30  31
ATOM     31  C   UNL A   1      34.894  31.347  27.865  1.00  0.00     0.338 C 
ATOM     32  O   UNL A   1      34.754  32.523  27.554  1.00  0.00    -0.246 OA
BRANCH  31  33
ATOM     33  C   UNL A   1      36.049  30.863  28.640  1.00  0.00     0.060 A 
ATOM     34  C   UNL A   1      37.281  31.489  28.417  1.00  0.00     0.016 A 
ATOM     35  C   UNL A   1      35.948  29.787  29.525  1.00  0.00     0.016 A 
ATOM     36  C   UNL A   1      38.432  31.002  29.029  1.00  0.00     0.010 A 
ATOM     37  C   UNL A   1      37.107  29.297  30.137  1.00  0.00     0.010 A 
ATOM     38  C   UNL A   1      38.359  29.876  29.856  1.00  0.00    -0.014 A 
BRANCH  38  39
ATOM     39  C   UNL A   1      39.609  29.223  30.313  1.00  0.00     0.031 A 
ATOM     40  C   UNL A   1      40.285  29.732  31.557  1.00  0.00     0.074 A 
ATOM     41  C   UNL A   1      40.130  28.186  29.630  1.00  0.00     0.049 A 
ATOM     42  N   UNL A   1      41.396  29.330  32.115  1.00  0.00    -0.248 NA
ATOM     43  C   UNL A   1      39.625  30.842  32.266  1.00  0.00     0.031 C 
ATOM     44  C   UNL A   1      39.561  27.604  28.415  1.00  0.00     0.029 A 
ATOM     45  N   UNL A   1      41.273  27.459  29.849  1.00  0.00    -0.354 N 
ATOM     46  C   UNL A   1      41.595  30.165  33.208  1.00  0.00     0.074 A 
ATOM     47  C   UNL A   1      40.486  31.092  33.243  1.00  0.00     0.031 C 
ATOM     48  C   UNL A   1      40.377  26.630  27.976  1.00  0.00     0.029 A 
ATOM     49  C   UNL A   1      41.537  26.542  28.859  1.00  0.00     0.049 A 
ATOM     50  H   UNL A   1      41.847  27.582  30.639  1.00  0.00     0.167 HD
ATOM     51  C   UNL A   1      42.608  30.155  34.105  1.00  0.00     0.034 A 
ATOM     52  C   UNL A   1      42.610  25.748  28.671  1.00  0.00     0.034 A 
ATOM     53  C   UNL A   1      43.690  29.208  34.089  1.00  0.00     0.049 A 
ATOM     54  C   UNL A   1      43.727  25.769  29.685  1.00  0.00     0.074 A 
ATOM     55  C   UNL A   1      44.719  29.067  35.004  1.00  0.00     0.029 A 
ATOM     56  N   UNL A   1      43.898  28.260  33.101  1.00  0.00    -0.354 N 
ATOM     57  N   UNL A   1      43.826  26.466  30.792  1.00  0.00    -0.248 NA
ATOM     58  C   UNL A   1      44.864  24.870  29.442  1.00  0.00     0.031 C 
ATOM     59  C   UNL A   1      45.577  28.066  34.542  1.00  0.00     0.029 A 
ATOM     60  C   UNL A   1      45.054  27.548  33.369  1.00  0.00     0.049 A 
ATOM     61  H   UNL A   1      43.312  28.115  32.324  1.00  0.00     0.167 HD
ATOM     62  C   UNL A   1      45.011  26.056  31.395  1.00  0.00     0.074 A 
ATOM     63  C   UNL A   1      45.583  25.035  30.543  1.00  0.00     0.031 C 
ATOM     64  C   UNL A   1      45.582  26.492  32.544  1.00  0.00     0.034 A 
BRANCH  51  65
ATOM     65  C   UNL A   1      42.612  31.195  35.192  1.00  0.00     0.023 A 
ATOM     66  C   UNL A   1      42.058  30.902  36.453  1.00  0.00     0.012 A 
ATOM     67  C   UNL A   1      43.270  32.425  34.990  1.00  0.00     0.148 A 
ATOM     68  C   UNL A   1      42.148  31.825  37.496  1.00  0.00     0.002 A 
ATOM     69  C   UNL A   1      43.396  33.319  36.046  1.00  0.00     0.091 A 
ATOM     70  F   UNL A   1      43.769  32.689  33.775  1.00  0.00    -0.205 F 
ATOM     71  C   UNL A   1      42.828  33.024  37.297  1.00  0.00     0.022 A 
BRANCH  69  72
ATOM     72  S   UNL A   1      44.327  34.848  35.915  1.00  0.00     0.127 S 
ATOM     73  O   UNL A   1      44.187  35.396  37.264  1.00  0.00    -0.237 OA
ATOM     74  O   UNL A   1      45.669  34.361  35.590  1.00  0.00    -0.237 OA
ATOM     75  O   UNL A   1      43.687  35.623  34.862  1.00  0.00    -0.744 OA
ENDBRANCH  69  72
ENDBRANCH  51  65
BRANCH  52  76
ATOM     76  C   UNL A   1      42.694  24.859  27.477  1.00  0.00     0.023 A 
ATOM     77  C   UNL A   1      43.257  25.343  26.280  1.00  0.00     0.012 A 
ATOM     78  C   UNL A   1      42.186  23.545  27.513  1.00  0.00     0.148 A 
ATOM     79  C   UNL A   1      43.265  24.555  25.128  1.00  0.00     0.002 A 
ATOM     80  C   UNL A   1      42.256  22.744  26.380  1.00  0.00     0.091 A 
ATOM     81  F   UNL A   1      41.638  23.105  28.655  1.00  0.00    -0.205 F 
ATOM     82  C   UNL A   1      42.772  23.255  25.180  1.00  0.00     0.022 A 
BRANCH  80  83
ATOM     83  S   UNL A   1      41.766  21.016  26.398  1.00  0.00     0.127 S 
ATOM     84  O   UNL A   1      42.572  20.464  25.314  1.00  0.00    -0.237 OA
ATOM     85  O   UNL A   1      42.170  20.601  27.742  1.00  0.00    -0.237 OA
ATOM     86  O   UNL A   1      40.324  21.016  26.185  1.00  0.00    -0.744 OA
ENDBRANCH  80  83
ENDBRANCH  52  76
BRANCH  64  87
ATOM     87  C   UNL A   1      46.860  25.834  32.992  1.00  0.00     0.023 A 
ATOM     88  C   UNL A   1      48.106  26.388  32.637  1.00  0.00     0.012 A 
ATOM     89  C   UNL A   1      46.821  24.701  33.831  1.00  0.00     0.148 A 
ATOM     90  C   UNL A   1      49.293  25.803  33.078  1.00  0.00     0.002 A 
ATOM     91  C   UNL A   1      48.005  24.158  34.312  1.00  0.00     0.091 A 
ATOM     92  F   UNL A   1      45.627  24.180  34.145  1.00  0.00    -0.205 F 
ATOM     93  C   UNL A   1      49.242  24.697  33.924  1.00  0.00     0.022 A 
BRANCH  91  94
ATOM     94  S   UNL A   1      48.034  22.800  35.487  1.00  0.00     0.127 S 
ATOM     95  O   UNL A   1      47.275  23.358  36.605  1.00  0.00    -0.237 OA
ATOM     96  O   UNL A   1      47.343  21.740  34.751  1.00  0.00    -0.237 OA
ATOM     97  O   UNL A   1      49.439  22.531  35.760  1.00  0.00    -0.744 OA
ENDBRANCH  91  94
ENDBRANCH  64  87
ENDBRANCH  38  39
ENDBRANCH  31  33
ENDBRANCH  30  31
ENDBRANCH  29  30
ENDBRANCH  28  29
ENDBRANCH  27  28
ENDBRANCH   1  27
TORSDOF 21
ENDMDL
