MODEL 1
REMARK VINA RESULT:      -9.8      0.000      0.000
REMARK SMILES O=C(OCCOCCOC(=O)[C@@H]1CC(=O)N(CCO)C1)c1ccc(-c2c3nc(c(-c4cccc(S(=O)(=O)[O-])c4F)c4ccc([nH]4)c(-c4cccc(S(=O)(=O)[O-])c4F)c4nc(c(-c5cccc(S(=O)(=O)[O-])c5F)c5ccc2[nH]5)C=C4)C=C3)cc1
REMARK SMILES IDX 6 1 5 2 4 3 3 4 2 5 1 6 21 7 22 8 83 9 23 10 82 11 24 12
REMARK SMILES IDX 25 13 26 14 76 15 27 16 81 17 75 18 77 19 28 20 80 21 74 22
REMARK SMILES IDX 73 23 29 25 61 26 41 27 60 28 42 29 45 30 59 31 78 32 43 33
REMARK SMILES IDX 44 34 58 36 79 37 46 38 30 39 31 40 39 41 32 42 34 43 40 44
REMARK SMILES IDX 33 45 35 46 36 47 37 48 38 49 62 50 63 51 71 52 64 53 66 54
REMARK SMILES IDX 72 55 65 56 67 57 68 58 69 59 70 60 47 61 48 62 56 63 49 64
REMARK SMILES IDX 51 65 57 66 50 67 52 68 53 69 54 70 55 71 7 72 8 73 9 74
REMARK SMILES IDX 10 75 11 76 12 77 13 78 20 79 14 80 16 81 15 82 17 83 18 84
REMARK SMILES IDX 19 85
REMARK H PARENT 77 24 45 35 19 86
REMARK Flexibility Score: inf
ROOT
ATOM      1  O   UNL A   1      32.036  29.441  26.928  1.00  0.00    -0.374 OA
ENDROOT
BRANCH   1   2
ATOM      2  C   UNL A   1      32.447  30.738  26.506  1.00  0.00     0.202 C 
BRANCH   2   3
ATOM      3  C   UNL A   1      31.716  31.942  27.117  1.00  0.00     0.261 C 
BRANCH   3   4
ATOM      4  O   UNL A   1      32.544  33.117  27.044  1.00  0.00    -0.460 OA
BRANCH   4   5
ATOM      5  C   UNL A   1      33.282  33.668  28.040  1.00  0.00     0.338 C 
ATOM      6  O   UNL A   1      32.913  34.726  28.544  1.00  0.00    -0.246 OA
BRANCH   5   7
ATOM      7  C   UNL A   1      34.499  33.003  28.579  1.00  0.00     0.060 A 
ATOM      8  C   UNL A   1      34.479  31.763  29.204  1.00  0.00     0.016 A 
ATOM      9  C   UNL A   1      35.738  33.640  28.427  1.00  0.00     0.016 A 
ATOM     10  C   UNL A   1      35.588  31.206  29.778  1.00  0.00     0.010 A 
ATOM     11  C   UNL A   1      36.898  33.054  28.945  1.00  0.00     0.010 A 
ATOM     12  C   UNL A   1      36.806  31.846  29.648  1.00  0.00    -0.014 A 
BRANCH  12  13
ATOM     13  C   UNL A   1      37.887  31.248  30.429  1.00  0.00     0.031 A 
ATOM     14  C   UNL A   1      38.838  30.347  29.713  1.00  0.00     0.074 A 
ATOM     15  C   UNL A   1      38.127  31.729  31.663  1.00  0.00     0.049 A 
ATOM     16  N   UNL A   1      39.892  29.739  30.171  1.00  0.00    -0.248 NA
ATOM     17  C   UNL A   1      38.585  30.122  28.277  1.00  0.00     0.031 C 
ATOM     18  C   UNL A   1      37.329  32.765  32.335  1.00  0.00     0.029 A 
ATOM     19  N   UNL A   1      39.131  31.461  32.545  1.00  0.00    -0.354 N 
ATOM     20  C   UNL A   1      40.376  28.990  29.109  1.00  0.00     0.074 A 
ATOM     21  C   UNL A   1      39.532  29.251  27.968  1.00  0.00     0.031 C 
ATOM     22  C   UNL A   1      37.890  33.054  33.518  1.00  0.00     0.029 A 
ATOM     23  C   UNL A   1      39.022  32.163  33.722  1.00  0.00     0.049 A 
ATOM     24  H   UNL A   1      39.862  30.828  32.359  1.00  0.00     0.167 HD
ATOM     25  C   UNL A   1      41.425  28.140  29.112  1.00  0.00     0.034 A 
ATOM     26  C   UNL A   1      39.739  32.047  34.853  1.00  0.00     0.034 A 
ATOM     27  C   UNL A   1      42.242  27.931  30.272  1.00  0.00     0.049 A 
ATOM     28  C   UNL A   1      40.851  31.037  34.850  1.00  0.00     0.074 A 
ATOM     29  C   UNL A   1      43.303  27.064  30.439  1.00  0.00     0.029 A 
ATOM     30  N   UNL A   1      42.072  28.602  31.477  1.00  0.00    -0.354 N 
ATOM     31  N   UNL A   1      41.285  30.293  33.859  1.00  0.00    -0.248 NA
ATOM     32  C   UNL A   1      41.577  30.852  36.109  1.00  0.00     0.031 C 
ATOM     33  C   UNL A   1      43.745  27.180  31.761  1.00  0.00     0.029 A 
ATOM     34  C   UNL A   1      42.998  28.160  32.401  1.00  0.00     0.049 A 
ATOM     35  H   UNL A   1      41.390  29.292  31.648  1.00  0.00     0.167 HD
ATOM     36  C   UNL A   1      42.358  29.575  34.361  1.00  0.00     0.074 A 
ATOM     37  C   UNL A   1      42.518  29.992  35.743  1.00  0.00     0.031 C 
ATOM     38  C   UNL A   1      43.138  28.648  33.752  1.00  0.00     0.034 A 
BRANCH  25  39
ATOM     39  C   UNL A   1      41.653  27.328  27.869  1.00  0.00     0.023 A 
ATOM     40  C   UNL A   1      42.116  27.932  26.682  1.00  0.00     0.012 A 
ATOM     41  C   UNL A   1      41.359  25.951  27.874  1.00  0.00     0.148 A 
ATOM     42  C   UNL A   1      42.241  27.184  25.510  1.00  0.00     0.002 A 
ATOM     43  C   UNL A   1      41.533  25.203  26.718  1.00  0.00     0.091 A 
ATOM     44  F   UNL A   1      40.882  25.406  29.003  1.00  0.00    -0.205 F 
ATOM     45  C   UNL A   1      41.958  25.820  25.531  1.00  0.00     0.022 A 
BRANCH  43  46
ATOM     46  S   UNL A   1      41.257  23.431  26.665  1.00  0.00     0.127 S 
ATOM     47  O   UNL A   1      39.805  23.362  26.516  1.00  0.00    -0.237 OA
ATOM     48  O   UNL A   1      42.012  23.043  25.473  1.00  0.00    -0.237 OA
ATOM     49  O   UNL A   1      41.779  22.902  27.916  1.00  0.00    -0.744 OA
ENDBRANCH  43  46
ENDBRANCH  25  39
BRANCH  26  50
ATOM     50  C   UNL A   1      39.408  32.864  36.054  1.00  0.00     0.023 A 
ATOM     51  C   UNL A   1      39.903  34.176  36.170  1.00  0.00     0.012 A 
ATOM     52  C   UNL A   1      38.594  32.347  37.085  1.00  0.00     0.148 A 
ATOM     53  C   UNL A   1      39.626  34.944  37.304  1.00  0.00     0.002 A 
ATOM     54  C   UNL A   1      38.275  33.136  38.184  1.00  0.00     0.091 A 
ATOM     55  F   UNL A   1      38.140  31.092  36.967  1.00  0.00    -0.205 F 
ATOM     56  C   UNL A   1      38.807  34.428  38.305  1.00  0.00     0.022 A 
BRANCH  54  57
ATOM     57  S   UNL A   1      37.135  32.596  39.462  1.00  0.00     0.127 S 
ATOM     58  O   UNL A   1      37.323  33.622  40.484  1.00  0.00    -0.237 OA
ATOM     59  O   UNL A   1      35.850  32.650  38.762  1.00  0.00    -0.237 OA
ATOM     60  O   UNL A   1      37.561  31.252  39.830  1.00  0.00    -0.744 OA
ENDBRANCH  54  57
ENDBRANCH  26  50
BRANCH  38  61
ATOM     61  C   UNL A   1      44.269  28.080  34.559  1.00  0.00     0.023 A 
ATOM     62  C   UNL A   1      45.494  28.769  34.647  1.00  0.00     0.012 A 
ATOM     63  C   UNL A   1      44.078  26.893  35.290  1.00  0.00     0.148 A 
ATOM     64  C   UNL A   1      46.530  28.258  35.425  1.00  0.00     0.002 A 
ATOM     65  C   UNL A   1      45.092  26.427  36.112  1.00  0.00     0.091 A 
ATOM     66  F   UNL A   1      42.908  26.248  35.171  1.00  0.00    -0.205 F 
ATOM     67  C   UNL A   1      46.324  27.098  36.168  1.00  0.00     0.022 A 
BRANCH  65  68
ATOM     68  S   UNL A   1      44.865  25.012  37.192  1.00  0.00     0.127 S 
ATOM     69  O   UNL A   1      44.243  24.046  36.288  1.00  0.00    -0.237 OA
ATOM     70  O   UNL A   1      46.241  24.692  37.575  1.00  0.00    -0.237 OA
ATOM     71  O   UNL A   1      44.025  25.474  38.288  1.00  0.00    -0.744 OA
ENDBRANCH  65  68
ENDBRANCH  38  61
ENDBRANCH  12  13
ENDBRANCH   5   7
ENDBRANCH   4   5
ENDBRANCH   3   4
ENDBRANCH   2   3
ENDBRANCH   1   2
BRANCH   1  72
ATOM     72  C   UNL A   1      32.051  28.425  25.925  1.00  0.00     0.202 C 
BRANCH  72  73
ATOM     73  C   UNL A   1      32.018  27.050  26.583  1.00  0.00     0.261 C 
BRANCH  73  74
ATOM     74  O   UNL A   1      31.656  26.056  25.604  1.00  0.00    -0.463 OA
BRANCH  74  75
ATOM     75  C   UNL A   1      30.349  25.684  25.548  1.00  0.00     0.311 C 
ATOM     76  O   UNL A   1      29.628  25.460  26.511  1.00  0.00    -0.252 OA
BRANCH  75  77
ATOM     77  C   UNL A   1      29.834  25.624  24.121  1.00  0.00     0.128 C 
ATOM     78  C   UNL A   1      30.885  26.011  23.088  1.00  0.00     0.117 C 
ATOM     79  C   UNL A   1      28.695  26.596  23.856  1.00  0.00     0.135 C 
ATOM     80  C   UNL A   1      30.630  27.483  22.875  1.00  0.00     0.223 C 
ATOM     81  N   UNL A   1      29.353  27.775  23.335  1.00  0.00    -0.339 N 
ATOM     82  O   UNL A   1      31.403  28.258  22.331  1.00  0.00    -0.275 OA
BRANCH  81  83
ATOM     83  C   UNL A   1      28.774  29.121  23.286  1.00  0.00     0.147 C 
BRANCH  83  84
ATOM     84  C   UNL A   1      27.572  29.259  22.358  1.00  0.00     0.177 C 
BRANCH  84  85
ATOM     85  O   UNL A   1      26.401  28.698  22.948  1.00  0.00    -0.395 OA
ATOM     86  H   UNL A   1      26.266  29.087  23.827  1.00  0.00     0.210 HD
ENDBRANCH  84  85
ENDBRANCH  83  84
ENDBRANCH  81  83
ENDBRANCH  75  77
ENDBRANCH  74  75
ENDBRANCH  73  74
ENDBRANCH  72  73
ENDBRANCH   1  72
TORSDOF 20
ENDMDL
MODEL 2
REMARK VINA RESULT:      -9.7      2.653      3.505
REMARK SMILES O=C(OCCOCCOC(=O)[C@@H]1CC(=O)N(CCO)C1)c1ccc(-c2c3nc(c(-c4cccc(S(=O)(=O)[O-])c4F)c4ccc([nH]4)c(-c4cccc(S(=O)(=O)[O-])c4F)c4nc(c(-c5cccc(S(=O)(=O)[O-])c5F)c5ccc2[nH]5)C=C4)C=C3)cc1
REMARK SMILES IDX 6 1 5 2 4 3 3 4 2 5 1 6 21 7 22 8 83 9 23 10 82 11 24 12
REMARK SMILES IDX 25 13 26 14 76 15 27 16 81 17 75 18 77 19 28 20 80 21 74 22
REMARK SMILES IDX 73 23 29 25 61 26 41 27 60 28 42 29 45 30 59 31 78 32 43 33
REMARK SMILES IDX 44 34 58 36 79 37 46 38 30 39 31 40 39 41 32 42 34 43 40 44
REMARK SMILES IDX 33 45 35 46 36 47 37 48 38 49 62 50 63 51 71 52 64 53 66 54
REMARK SMILES IDX 72 55 65 56 67 57 68 58 69 59 70 60 47 61 48 62 56 63 49 64
REMARK SMILES IDX 51 65 57 66 50 67 52 68 53 69 54 70 55 71 7 72 8 73 9 74
REMARK SMILES IDX 10 75 11 76 12 77 13 78 20 79 14 80 16 81 15 82 17 83 18 84
REMARK SMILES IDX 19 85
REMARK H PARENT 77 24 45 35 19 86
REMARK Flexibility Score: inf
ROOT
ATOM      1  O   UNL A   1      32.192  27.705  26.134  1.00  0.00    -0.374 OA
ENDROOT
BRANCH   1   2
ATOM      2  C   UNL A   1      31.712  28.684  27.052  1.00  0.00     0.202 C 
BRANCH   2   3
ATOM      3  C   UNL A   1      31.516  30.110  26.520  1.00  0.00     0.261 C 
BRANCH   3   4
ATOM      4  O   UNL A   1      32.790  30.758  26.351  1.00  0.00    -0.460 OA
BRANCH   4   5
ATOM      5  C   UNL A   1      33.447  31.531  27.251  1.00  0.00     0.338 C 
ATOM      6  O   UNL A   1      32.942  32.592  27.613  1.00  0.00    -0.246 OA
BRANCH   5   7
ATOM      7  C   UNL A   1      34.738  31.109  27.857  1.00  0.00     0.060 A 
ATOM      8  C   UNL A   1      35.003  29.806  28.261  1.00  0.00     0.016 A 
ATOM      9  C   UNL A   1      35.756  32.061  28.005  1.00  0.00     0.016 A 
ATOM     10  C   UNL A   1      36.158  29.452  28.902  1.00  0.00     0.010 A 
ATOM     11  C   UNL A   1      36.973  31.702  28.595  1.00  0.00     0.010 A 
ATOM     12  C   UNL A   1      37.152  30.396  29.068  1.00  0.00    -0.014 A 
BRANCH  12  13
ATOM     13  C   UNL A   1      38.270  29.954  29.901  1.00  0.00     0.031 A 
ATOM     14  C   UNL A   1      39.311  29.097  29.258  1.00  0.00     0.074 A 
ATOM     15  C   UNL A   1      38.445  30.537  31.100  1.00  0.00     0.049 A 
ATOM     16  N   UNL A   1      40.407  28.620  29.768  1.00  0.00    -0.248 NA
ATOM     17  C   UNL A   1      39.102  28.753  27.838  1.00  0.00     0.031 C 
ATOM     18  C   UNL A   1      37.547  31.539  31.691  1.00  0.00     0.029 A 
ATOM     19  N   UNL A   1      39.456  30.423  32.009  1.00  0.00    -0.354 N 
ATOM     20  C   UNL A   1      40.974  27.847  28.765  1.00  0.00     0.074 A 
ATOM     21  C   UNL A   1      40.129  27.953  27.600  1.00  0.00     0.031 C 
ATOM     22  C   UNL A   1      38.060  31.958  32.857  1.00  0.00     0.029 A 
ATOM     23  C   UNL A   1      39.264  31.190  33.133  1.00  0.00     0.049 A 
ATOM     24  H   UNL A   1      40.243  29.848  31.874  1.00  0.00     0.167 HD
ATOM     25  C   UNL A   1      42.095  27.098  28.837  1.00  0.00     0.034 A 
ATOM     26  C   UNL A   1      39.970  31.217  34.277  1.00  0.00     0.034 A 
ATOM     27  C   UNL A   1      42.909  27.044  30.017  1.00  0.00     0.049 A 
ATOM     28  C   UNL A   1      41.169  30.315  34.355  1.00  0.00     0.074 A 
ATOM     29  C   UNL A   1      44.040  26.291  30.254  1.00  0.00     0.029 A 
ATOM     30  N   UNL A   1      42.659  27.778  31.171  1.00  0.00    -0.354 N 
ATOM     31  N   UNL A   1      41.684  29.548  33.422  1.00  0.00    -0.248 NA
ATOM     32  C   UNL A   1      41.888  30.283  35.631  1.00  0.00     0.031 C 
ATOM     33  C   UNL A   1      44.448  26.536  31.570  1.00  0.00     0.029 A 
ATOM     34  C   UNL A   1      43.606  27.486  32.133  1.00  0.00     0.049 A 
ATOM     35  H   UNL A   1      41.915  28.413  31.287  1.00  0.00     0.167 HD
ATOM     36  C   UNL A   1      42.809  28.966  33.983  1.00  0.00     0.074 A 
ATOM     37  C   UNL A   1      42.908  29.489  35.335  1.00  0.00     0.031 C 
ATOM     38  C   UNL A   1      43.679  28.075  33.448  1.00  0.00     0.034 A 
BRANCH  25  39
ATOM     39  C   UNL A   1      42.416  26.229  27.656  1.00  0.00     0.023 A 
ATOM     40  C   UNL A   1      43.095  26.748  26.534  1.00  0.00     0.012 A 
ATOM     41  C   UNL A   1      41.994  24.885  27.647  1.00  0.00     0.148 A 
ATOM     42  C   UNL A   1      43.310  25.953  25.408  1.00  0.00     0.002 A 
ATOM     43  C   UNL A   1      42.255  24.086  26.542  1.00  0.00     0.091 A 
ATOM     44  F   UNL A   1      41.314  24.424  28.707  1.00  0.00    -0.205 F 
ATOM     45  C   UNL A   1      42.898  24.622  25.415  1.00  0.00     0.022 A 
BRANCH  43  46
ATOM     46  S   UNL A   1      41.821  22.346  26.486  1.00  0.00     0.127 S 
ATOM     47  O   UNL A   1      42.193  21.904  27.828  1.00  0.00    -0.237 OA
ATOM     48  O   UNL A   1      40.380  22.401  26.238  1.00  0.00    -0.237 OA
ATOM     49  O   UNL A   1      42.604  21.768  25.403  1.00  0.00    -0.744 OA
ENDBRANCH  43  46
ENDBRANCH  25  39
BRANCH  26  50
ATOM     50  C   UNL A   1      39.547  32.080  35.416  1.00  0.00     0.023 A 
ATOM     51  C   UNL A   1      38.748  31.544  36.443  1.00  0.00     0.012 A 
ATOM     52  C   UNL A   1      39.939  33.433  35.490  1.00  0.00     0.148 A 
ATOM     53  C   UNL A   1      38.318  32.347  37.502  1.00  0.00     0.002 A 
ATOM     54  C   UNL A   1      39.555  34.212  36.575  1.00  0.00     0.091 A 
ATOM     55  F   UNL A   1      40.688  33.934  34.498  1.00  0.00    -0.205 F 
ATOM     56  C   UNL A   1      38.727  33.676  37.572  1.00  0.00     0.022 A 
BRANCH  54  57
ATOM     57  S   UNL A   1      40.131  35.898  36.806  1.00  0.00     0.127 S 
ATOM     58  O   UNL A   1      39.512  36.253  38.081  1.00  0.00    -0.237 OA
ATOM     59  O   UNL A   1      41.582  35.716  36.855  1.00  0.00    -0.237 OA
ATOM     60  O   UNL A   1      39.657  36.640  35.645  1.00  0.00    -0.744 OA
ENDBRANCH  54  57
ENDBRANCH  26  50
BRANCH  38  61
ATOM     61  C   UNL A   1      44.844  27.669  34.303  1.00  0.00     0.023 A 
ATOM     62  C   UNL A   1      46.030  28.427  34.294  1.00  0.00     0.012 A 
ATOM     63  C   UNL A   1      44.721  26.570  35.174  1.00  0.00     0.148 A 
ATOM     64  C   UNL A   1      47.096  28.069  35.116  1.00  0.00     0.002 A 
ATOM     65  C   UNL A   1      45.763  26.259  36.033  1.00  0.00     0.091 A 
ATOM     66  F   UNL A   1      43.587  25.853  35.145  1.00  0.00    -0.205 F 
ATOM     67  C   UNL A   1      46.957  26.997  35.994  1.00  0.00     0.022 A 
BRANCH  65  68
ATOM     68  S   UNL A   1      45.619  24.974  37.277  1.00  0.00     0.127 S 
ATOM     69  O   UNL A   1      46.923  25.048  37.932  1.00  0.00    -0.237 OA
ATOM     70  O   UNL A   1      44.499  25.454  38.088  1.00  0.00    -0.237 OA
ATOM     71  O   UNL A   1      45.353  23.740  36.550  1.00  0.00    -0.744 OA
ENDBRANCH  65  68
ENDBRANCH  38  61
ENDBRANCH  12  13
ENDBRANCH   5   7
ENDBRANCH   4   5
ENDBRANCH   3   4
ENDBRANCH   2   3
ENDBRANCH   1   2
BRANCH   1  72
ATOM     72  C   UNL A   1      32.326  26.381  26.650  1.00  0.00     0.202 C 
BRANCH  72  73
ATOM     73  C   UNL A   1      32.747  25.432  25.533  1.00  0.00     0.261 C 
BRANCH  73  74
ATOM     74  O   UNL A   1      31.790  24.359  25.426  1.00  0.00    -0.463 OA
BRANCH  74  75
ATOM     75  C   UNL A   1      31.598  23.817  24.194  1.00  0.00     0.311 C 
ATOM     76  O   UNL A   1      30.566  23.876  23.540  1.00  0.00    -0.252 OA
BRANCH  75  77
ATOM     77  C   UNL A   1      32.855  23.151  23.663  1.00  0.00     0.128 C 
ATOM     78  C   UNL A   1      32.696  22.612  22.247  1.00  0.00     0.117 C 
ATOM     79  C   UNL A   1      33.269  21.929  24.468  1.00  0.00     0.135 C 
ATOM     80  C   UNL A   1      32.304  21.172  22.470  1.00  0.00     0.223 C 
ATOM     81  N   UNL A   1      32.653  20.822  23.767  1.00  0.00    -0.339 N 
ATOM     82  O   UNL A   1      31.820  20.437  21.622  1.00  0.00    -0.275 OA
BRANCH  81  83
ATOM     83  C   UNL A   1      32.412  19.489  24.328  1.00  0.00     0.147 C 
BRANCH  83  84
ATOM     84  C   UNL A   1      32.804  19.339  25.794  1.00  0.00     0.177 C 
BRANCH  84  85
ATOM     85  O   UNL A   1      32.882  17.965  26.166  1.00  0.00    -0.395 OA
ATOM     86  H   UNL A   1      32.064  17.513  25.906  1.00  0.00     0.210 HD
ENDBRANCH  84  85
ENDBRANCH  83  84
ENDBRANCH  81  83
ENDBRANCH  75  77
ENDBRANCH  74  75
ENDBRANCH  73  74
ENDBRANCH  72  73
ENDBRANCH   1  72
TORSDOF 20
ENDMDL
MODEL 3
REMARK VINA RESULT:      -9.6      4.300     10.403
REMARK SMILES O=C(OCCOCCOC(=O)[C@@H]1CC(=O)N(CCO)C1)c1ccc(-c2c3nc(c(-c4cccc(S(=O)(=O)[O-])c4F)c4ccc([nH]4)c(-c4cccc(S(=O)(=O)[O-])c4F)c4nc(c(-c5cccc(S(=O)(=O)[O-])c5F)c5ccc2[nH]5)C=C4)C=C3)cc1
REMARK SMILES IDX 6 1 5 2 4 3 3 4 2 5 1 6 21 7 22 8 83 9 23 10 82 11 24 12
REMARK SMILES IDX 25 13 26 14 76 15 27 16 81 17 75 18 77 19 28 20 80 21 74 22
REMARK SMILES IDX 73 23 29 25 61 26 41 27 60 28 42 29 45 30 59 31 78 32 43 33
REMARK SMILES IDX 44 34 58 36 79 37 46 38 30 39 31 40 39 41 32 42 34 43 40 44
REMARK SMILES IDX 33 45 35 46 36 47 37 48 38 49 62 50 63 51 71 52 64 53 66 54
REMARK SMILES IDX 72 55 65 56 67 57 68 58 69 59 70 60 47 61 48 62 56 63 49 64
REMARK SMILES IDX 51 65 57 66 50 67 52 68 53 69 54 70 55 71 7 72 8 73 9 74
REMARK SMILES IDX 10 75 11 76 12 77 13 78 20 79 14 80 16 81 15 82 17 83 18 84
REMARK SMILES IDX 19 85
REMARK H PARENT 77 24 45 35 19 86
REMARK Flexibility Score: inf
ROOT
ATOM      1  O   UNL A   1      34.433  35.315  28.948  1.00  0.00    -0.374 OA
ENDROOT
BRANCH   1   2
ATOM      2  C   UNL A   1      34.633  34.238  28.038  1.00  0.00     0.202 C 
BRANCH   2   3
ATOM      3  C   UNL A   1      33.724  33.011  28.188  1.00  0.00     0.261 C 
BRANCH   3   4
ATOM      4  O   UNL A   1      34.433  31.942  28.842  1.00  0.00    -0.460 OA
BRANCH   4   5
ATOM      5  C   UNL A   1      34.748  30.727  28.328  1.00  0.00     0.338 C 
ATOM      6  O   UNL A   1      33.906  30.116  27.674  1.00  0.00    -0.246 OA
BRANCH   5   7
ATOM      7  C   UNL A   1      36.102  30.132  28.488  1.00  0.00     0.060 A 
ATOM      8  C   UNL A   1      36.506  29.444  29.626  1.00  0.00     0.016 A 
ATOM      9  C   UNL A   1      37.015  30.242  27.431  1.00  0.00     0.016 A 
ATOM     10  C   UNL A   1      37.781  28.985  29.798  1.00  0.00     0.010 A 
ATOM     11  C   UNL A   1      38.306  29.716  27.560  1.00  0.00     0.010 A 
ATOM     12  C   UNL A   1      38.688  29.113  28.764  1.00  0.00    -0.014 A 
BRANCH  12  13
ATOM     13  C   UNL A   1      40.057  28.734  29.112  1.00  0.00     0.031 A 
ATOM     14  C   UNL A   1      40.694  29.434  30.267  1.00  0.00     0.074 A 
ATOM     15  C   UNL A   1      40.571  27.619  28.562  1.00  0.00     0.049 A 
ATOM     16  N   UNL A   1      41.868  29.246  30.792  1.00  0.00    -0.248 NA
ATOM     17  C   UNL A   1      39.887  30.470  30.941  1.00  0.00     0.031 C 
ATOM     18  C   UNL A   1      39.895  26.782  27.561  1.00  0.00     0.029 A 
ATOM     19  N   UNL A   1      41.744  26.965  28.801  1.00  0.00    -0.354 N 
ATOM     20  C   UNL A   1      41.979  30.195  31.797  1.00  0.00     0.074 A 
ATOM     21  C   UNL A   1      40.738  30.931  31.843  1.00  0.00     0.031 C 
ATOM     22  C   UNL A   1      40.661  25.716  27.288  1.00  0.00     0.029 A 
ATOM     23  C   UNL A   1      41.912  25.847  28.019  1.00  0.00     0.049 A 
ATOM     24  H   UNL A   1      42.405  27.264  29.466  1.00  0.00     0.167 HD
ATOM     25  C   UNL A   1      43.046  30.435  32.588  1.00  0.00     0.034 A 
ATOM     26  C   UNL A   1      42.990  25.055  27.885  1.00  0.00     0.034 A 
ATOM     27  C   UNL A   1      44.250  29.659  32.511  1.00  0.00     0.049 A 
ATOM     28  C   UNL A   1      44.189  25.395  28.723  1.00  0.00     0.074 A 
ATOM     29  C   UNL A   1      45.429  29.820  33.211  1.00  0.00     0.029 A 
ATOM     30  N   UNL A   1      44.425  28.572  31.663  1.00  0.00    -0.354 N 
ATOM     31  N   UNL A   1      44.313  26.321  29.645  1.00  0.00    -0.248 NA
ATOM     32  C   UNL A   1      45.391  24.583  28.515  1.00  0.00     0.031 C 
ATOM     33  C   UNL A   1      46.332  28.855  32.751  1.00  0.00     0.029 A 
ATOM     34  C   UNL A   1      45.698  28.058  31.808  1.00  0.00     0.049 A 
ATOM     35  H   UNL A   1      43.741  28.220  31.048  1.00  0.00     0.167 HD
ATOM     36  C   UNL A   1      45.594  26.185  30.154  1.00  0.00     0.074 A 
ATOM     37  C   UNL A   1      46.199  25.069  29.447  1.00  0.00     0.031 C 
ATOM     38  C   UNL A   1      46.227  26.913  31.107  1.00  0.00     0.034 A 
BRANCH  25  39
ATOM     39  C   UNL A   1      42.969  31.626  33.500  1.00  0.00     0.023 A 
ATOM     40  C   UNL A   1      43.240  32.925  33.024  1.00  0.00     0.012 A 
ATOM     41  C   UNL A   1      42.664  31.439  34.863  1.00  0.00     0.148 A 
ATOM     42  C   UNL A   1      43.251  34.011  33.900  1.00  0.00     0.002 A 
ATOM     43  C   UNL A   1      42.628  32.531  35.719  1.00  0.00     0.091 A 
ATOM     44  F   UNL A   1      42.450  30.191  35.302  1.00  0.00    -0.205 F 
ATOM     45  C   UNL A   1      42.936  33.816  35.243  1.00  0.00     0.022 A 
BRANCH  43  46
ATOM     46  S   UNL A   1      42.172  32.387  37.448  1.00  0.00     0.127 S 
ATOM     47  O   UNL A   1      40.949  31.591  37.366  1.00  0.00    -0.237 OA
ATOM     48  O   UNL A   1      43.324  31.680  38.007  1.00  0.00    -0.237 OA
ATOM     49  O   UNL A   1      41.995  33.748  37.935  1.00  0.00    -0.744 OA
ENDBRANCH  43  46
ENDBRANCH  25  39
BRANCH  26  50
ATOM     50  C   UNL A   1      42.989  23.922  26.917  1.00  0.00     0.023 A 
ATOM     51  C   UNL A   1      43.678  24.042  25.696  1.00  0.00     0.012 A 
ATOM     52  C   UNL A   1      42.312  22.718  27.204  1.00  0.00     0.148 A 
ATOM     53  C   UNL A   1      43.663  23.000  24.765  1.00  0.00     0.002 A 
ATOM     54  C   UNL A   1      42.347  21.665  26.299  1.00  0.00     0.091 A 
ATOM     55  F   UNL A   1      41.648  22.624  28.365  1.00  0.00    -0.205 F 
ATOM     56  C   UNL A   1      43.005  21.811  25.069  1.00  0.00     0.022 A 
BRANCH  54  57
ATOM     57  S   UNL A   1      41.627  20.058  26.657  1.00  0.00     0.127 S 
ATOM     58  O   UNL A   1      42.391  19.644  27.831  1.00  0.00    -0.237 OA
ATOM     59  O   UNL A   1      40.230  20.407  26.922  1.00  0.00    -0.237 OA
ATOM     60  O   UNL A   1      41.829  19.258  25.457  1.00  0.00    -0.744 OA
ENDBRANCH  54  57
ENDBRANCH  26  50
BRANCH  38  61
ATOM     61  C   UNL A   1      47.615  26.478  31.481  1.00  0.00     0.023 A 
ATOM     62  C   UNL A   1      47.816  25.601  32.564  1.00  0.00     0.012 A 
ATOM     63  C   UNL A   1      48.710  26.888  30.697  1.00  0.00     0.148 A 
ATOM     64  C   UNL A   1      49.101  25.171  32.886  1.00  0.00     0.002 A 
ATOM     65  C   UNL A   1      49.976  26.403  30.987  1.00  0.00     0.091 A 
ATOM     66  F   UNL A   1      48.490  27.739  29.685  1.00  0.00    -0.205 F 
ATOM     67  C   UNL A   1      50.176  25.559  32.090  1.00  0.00     0.022 A 
BRANCH  65  68
ATOM     68  S   UNL A   1      51.390  26.756  29.940  1.00  0.00     0.127 S 
ATOM     69  O   UNL A   1      51.480  28.212  30.044  1.00  0.00    -0.237 OA
ATOM     70  O   UNL A   1      52.464  26.028  30.617  1.00  0.00    -0.237 OA
ATOM     71  O   UNL A   1      51.051  26.243  28.620  1.00  0.00    -0.744 OA
ENDBRANCH  65  68
ENDBRANCH  38  61
ENDBRANCH  12  13
ENDBRANCH   5   7
ENDBRANCH   4   5
ENDBRANCH   3   4
ENDBRANCH   2   3
ENDBRANCH   1   2
BRANCH   1  72
ATOM     72  C   UNL A   1      33.180  35.329  29.631  1.00  0.00     0.202 C 
BRANCH  72  73
ATOM     73  C   UNL A   1      33.412  35.306  31.137  1.00  0.00     0.261 C 
BRANCH  73  74
ATOM     74  O   UNL A   1      34.720  34.768  31.415  1.00  0.00    -0.463 OA
BRANCH  74  75
ATOM     75  C   UNL A   1      34.789  33.468  31.807  1.00  0.00     0.311 C 
ATOM     76  O   UNL A   1      33.842  32.778  32.160  1.00  0.00    -0.252 OA
BRANCH  75  77
ATOM     77  C   UNL A   1      36.200  32.917  31.710  1.00  0.00     0.128 C 
ATOM     78  C   UNL A   1      36.457  31.755  32.661  1.00  0.00     0.117 C 
ATOM     79  C   UNL A   1      37.266  33.934  32.087  1.00  0.00     0.135 C 
ATOM     80  C   UNL A   1      37.051  32.430  33.873  1.00  0.00     0.223 C 
ATOM     81  N   UNL A   1      37.503  33.686  33.493  1.00  0.00    -0.339 N 
ATOM     82  O   UNL A   1      37.163  31.918  34.977  1.00  0.00    -0.275 OA
BRANCH  81  83
ATOM     83  C   UNL A   1      38.138  34.623  34.426  1.00  0.00     0.147 C 
BRANCH  83  84
ATOM     84  C   UNL A   1      39.400  34.092  35.096  1.00  0.00     0.177 C 
BRANCH  84  85
ATOM     85  O   UNL A   1      39.146  33.721  36.449  1.00  0.00    -0.395 OA
ATOM     86  H   UNL A   1      38.362  33.150  36.485  1.00  0.00     0.210 HD
ENDBRANCH  84  85
ENDBRANCH  83  84
ENDBRANCH  81  83
ENDBRANCH  75  77
ENDBRANCH  74  75
ENDBRANCH  73  74
ENDBRANCH  72  73
ENDBRANCH   1  72
TORSDOF 20
ENDMDL
