MODEL 1
REMARK VINA RESULT:     -11.5      0.000      0.000
REMARK SMILES Cc1cc(F)c([C@@H](C)[N@@H+]2C[C@H](C)[C@H](C(=O)OCCOCCOC(=O)c3ccc(-c4c5nc(c(-c6cccc(S(=O)(=O)[O-])c6F)c6ccc([nH]6)c(-c6cccc(S(=O)(=O)[O-])c6F)c6nc(c(-c7cccc(S(=O)(=O)[O-])c7F)c7ccc4[nH]7)C=C6)C=C5)cc3)C2)cc1F
REMARK SMILES IDX 20 1 19 2 18 3 17 4 16 5 14 6 15 7 13 8 9 9 10 10 88 11
REMARK SMILES IDX 11 13 12 14 7 15 8 16 6 17 1 18 2 19 3 20 90 21 4 22 89 23
REMARK SMILES IDX 91 24 5 25 21 26 22 27 23 28 24 29 25 30 26 31 87 32 27 33
REMARK SMILES IDX 86 34 28 35 29 36 30 37 80 38 31 39 85 40 79 41 81 42 32 43
REMARK SMILES IDX 84 44 78 45 77 46 33 48 65 49 45 50 64 51 46 52 49 53 63 54
REMARK SMILES IDX 82 55 47 56 48 57 62 59 83 60 50 61 34 62 35 63 43 64 36 65
REMARK SMILES IDX 38 66 44 67 37 68 39 69 40 70 41 71 42 72 66 73 67 74 75 75
REMARK SMILES IDX 68 76 70 77 76 78 69 79 71 80 72 81 73 82 74 83 51 84 52 85
REMARK SMILES IDX 60 86 53 87 55 88 61 89 54 90 56 91 57 92 58 93 59 94
REMARK H PARENT 9 12 81 47 49 58
REMARK Flexibility Score: inf
ROOT
ATOM      1  C   UNL A   1      36.059  20.110  25.001  1.00  0.00     0.202 C 
ENDROOT
BRANCH   1   2
ATOM      2  O   UNL A   1      34.966  21.001  24.783  1.00  0.00    -0.374 OA
BRANCH   2   3
ATOM      3  C   UNL A   1      33.671  20.563  25.187  1.00  0.00     0.202 C 
BRANCH   3   4
ATOM      4  C   UNL A   1      32.504  20.848  24.240  1.00  0.00     0.261 C 
BRANCH   4   5
ATOM      5  O   UNL A   1      32.912  21.682  23.142  1.00  0.00    -0.463 OA
BRANCH   5   6
ATOM      6  C   UNL A   1      32.630  22.997  23.284  1.00  0.00     0.315 C 
ATOM      7  O   UNL A   1      33.209  23.904  22.694  1.00  0.00    -0.252 OA
BRANCH   6   8
ATOM      8  C   UNL A   1      31.545  23.286  24.293  1.00  0.00     0.162 C 
ATOM      9  N   UNL A   1      30.146  25.128  24.897  1.00  0.00    -0.328 N 
ATOM     10  C   UNL A   1      30.576  24.465  26.126  1.00  0.00     0.267 C 
ATOM     11  C   UNL A   1      30.658  24.393  23.749  1.00  0.00     0.278 C 
ATOM     12  H   UNL A   1      29.128  25.067  24.873  1.00  0.00     0.348 HD
ATOM     13  C   UNL A   1      31.796  23.603  25.773  1.00  0.00     0.061 C 
ATOM     14  C   UNL A   1      33.086  24.277  26.219  1.00  0.00     0.015 C 
BRANCH   9  15
ATOM     15  C   UNL A   1      30.200  26.598  24.844  1.00  0.00     0.215 C 
ATOM     16  C   UNL A   1      29.878  27.155  23.448  1.00  0.00     0.081 C 
BRANCH  15  17
ATOM     17  C   UNL A   1      31.438  27.245  25.442  1.00  0.00     0.048 A 
ATOM     18  C   UNL A   1      34.914  29.412  26.820  1.00  0.00     0.047 C 
ATOM     19  C   UNL A   1      33.736  28.604  26.389  1.00  0.00    -0.012 A 
ATOM     20  C   UNL A   1      32.667  28.335  27.251  1.00  0.00     0.046 A 
ATOM     21  C   UNL A   1      33.653  28.172  25.068  1.00  0.00     0.126 A 
ATOM     22  C   UNL A   1      31.544  27.650  26.780  1.00  0.00     0.132 A 
ATOM     23  C   UNL A   1      32.533  27.500  24.597  1.00  0.00     0.052 A 
ATOM     24  F   UNL A   1      34.651  28.443  24.214  1.00  0.00    -0.207 F 
ATOM     25  F   UNL A   1      30.538  27.448  27.642  1.00  0.00    -0.206 F 
ENDBRANCH  15  17
ENDBRANCH   9  15
ENDBRANCH   6   8
ENDBRANCH   5   6
ENDBRANCH   4   5
ENDBRANCH   3   4
ENDBRANCH   2   3
ENDBRANCH   1   2
BRANCH   1  26
ATOM     26  C   UNL A   1      37.481  20.654  24.772  1.00  0.00     0.261 C 
BRANCH  26  27
ATOM     27  O   UNL A   1      37.922  21.558  25.803  1.00  0.00    -0.460 OA
BRANCH  27  28
ATOM     28  C   UNL A   1      39.198  21.380  26.235  1.00  0.00     0.338 C 
ATOM     29  O   UNL A   1      39.891  20.389  26.078  1.00  0.00    -0.246 OA
BRANCH  28  30
ATOM     30  C   UNL A   1      39.719  22.672  26.738  1.00  0.00     0.060 A 
ATOM     31  C   UNL A   1      40.726  22.724  27.697  1.00  0.00     0.016 A 
ATOM     32  C   UNL A   1      39.179  23.859  26.221  1.00  0.00     0.016 A 
ATOM     33  C   UNL A   1      41.196  23.971  28.122  1.00  0.00     0.010 A 
ATOM     34  C   UNL A   1      39.643  25.104  26.665  1.00  0.00     0.010 A 
ATOM     35  C   UNL A   1      40.662  25.178  27.620  1.00  0.00    -0.014 A 
BRANCH  35  36
ATOM     36  C   UNL A   1      41.271  26.487  28.005  1.00  0.00     0.031 A 
ATOM     37  C   UNL A   1      42.712  26.836  27.725  1.00  0.00     0.074 A 
ATOM     38  C   UNL A   1      40.488  27.395  28.624  1.00  0.00     0.049 A 
ATOM     39  N   UNL A   1      43.324  27.982  27.905  1.00  0.00    -0.248 NA
ATOM     40  C   UNL A   1      43.572  25.791  27.148  1.00  0.00     0.031 C 
ATOM     41  C   UNL A   1      39.089  27.177  28.999  1.00  0.00     0.029 A 
ATOM     42  N   UNL A   1      40.750  28.674  29.048  1.00  0.00    -0.354 N 
ATOM     43  C   UNL A   1      44.626  27.805  27.450  1.00  0.00     0.074 A 
ATOM     44  C   UNL A   1      44.724  26.437  26.990  1.00  0.00     0.031 C 
ATOM     45  C   UNL A   1      38.608  28.290  29.568  1.00  0.00     0.029 A 
ATOM     46  C   UNL A   1      39.675  29.283  29.649  1.00  0.00     0.049 A 
ATOM     47  H   UNL A   1      41.623  29.113  28.931  1.00  0.00     0.167 HD
ATOM     48  C   UNL A   1      45.642  28.702  27.409  1.00  0.00     0.034 A 
ATOM     49  C   UNL A   1      39.550  30.495  30.225  1.00  0.00     0.034 A 
ATOM     50  C   UNL A   1      45.570  30.052  27.907  1.00  0.00     0.049 A 
ATOM     51  C   UNL A   1      40.715  31.437  30.238  1.00  0.00     0.074 A 
ATOM     52  C   UNL A   1      46.560  31.023  27.894  1.00  0.00     0.029 A 
ATOM     53  N   UNL A   1      44.472  30.616  28.533  1.00  0.00    -0.354 N 
ATOM     54  N   UNL A   1      41.900  31.281  29.705  1.00  0.00    -0.248 NA
ATOM     55  C   UNL A   1      40.521  32.728  30.915  1.00  0.00     0.031 C 
ATOM     56  C   UNL A   1      46.071  32.160  28.543  1.00  0.00     0.029 A 
ATOM     57  C   UNL A   1      44.765  31.910  28.930  1.00  0.00     0.049 A 
ATOM     58  H   UNL A   1      43.608  30.163  28.676  1.00  0.00     0.167 HD
ATOM     59  C   UNL A   1      42.588  32.461  29.960  1.00  0.00     0.074 A 
ATOM     60  C   UNL A   1      41.683  33.327  30.687  1.00  0.00     0.031 C 
ATOM     61  C   UNL A   1      43.858  32.786  29.624  1.00  0.00     0.034 A 
BRANCH  48  62
ATOM     62  C   UNL A   1      46.943  28.286  26.773  1.00  0.00     0.023 A 
ATOM     63  C   UNL A   1      47.988  27.824  27.597  1.00  0.00     0.012 A 
ATOM     64  C   UNL A   1      47.073  28.200  25.373  1.00  0.00     0.148 A 
ATOM     65  C   UNL A   1      49.145  27.279  27.037  1.00  0.00     0.002 A 
ATOM     66  C   UNL A   1      48.219  27.636  24.823  1.00  0.00     0.091 A 
ATOM     67  F   UNL A   1      46.065  28.646  24.611  1.00  0.00    -0.205 F 
ATOM     68  C   UNL A   1      49.255  27.175  25.653  1.00  0.00     0.022 A 
BRANCH  66  69
ATOM     69  S   UNL A   1      48.443  27.409  23.054  1.00  0.00     0.127 S 
ATOM     70  O   UNL A   1      48.275  25.963  22.920  1.00  0.00    -0.237 OA
ATOM     71  O   UNL A   1      47.348  28.206  22.501  1.00  0.00    -0.237 OA
ATOM     72  O   UNL A   1      49.778  27.905  22.750  1.00  0.00    -0.744 OA
ENDBRANCH  66  69
ENDBRANCH  48  62
BRANCH  49  73
ATOM     73  C   UNL A   1      38.238  30.879  30.809  1.00  0.00     0.023 A 
ATOM     74  C   UNL A   1      37.982  30.620  32.167  1.00  0.00     0.012 A 
ATOM     75  C   UNL A   1      37.288  31.582  30.043  1.00  0.00     0.148 A 
ATOM     76  C   UNL A   1      36.796  31.058  32.756  1.00  0.00     0.002 A 
ATOM     77  C   UNL A   1      36.130  32.053  30.646  1.00  0.00     0.091 A 
ATOM     78  F   UNL A   1      37.562  31.810  28.750  1.00  0.00    -0.205 F 
ATOM     79  C   UNL A   1      35.876  31.784  32.000  1.00  0.00     0.022 A 
BRANCH  77  80
ATOM     80  S   UNL A   1      34.944  33.087  29.782  1.00  0.00     0.127 S 
ATOM     81  O   UNL A   1      34.397  32.156  28.799  1.00  0.00    -0.237 OA
ATOM     82  O   UNL A   1      34.028  33.453  30.863  1.00  0.00    -0.237 OA
ATOM     83  O   UNL A   1      35.710  34.197  29.233  1.00  0.00    -0.744 OA
ENDBRANCH  77  80
ENDBRANCH  49  73
BRANCH  61  84
ATOM     84  C   UNL A   1      44.366  34.147  30.011  1.00  0.00     0.023 A 
ATOM     85  C   UNL A   1      45.107  34.305  31.198  1.00  0.00     0.012 A 
ATOM     86  C   UNL A   1      44.198  35.247  29.146  1.00  0.00     0.148 A 
ATOM     87  C   UNL A   1      45.662  35.542  31.525  1.00  0.00     0.002 A 
ATOM     88  C   UNL A   1      44.783  36.467  29.462  1.00  0.00     0.091 A 
ATOM     89  F   UNL A   1      43.481  35.073  28.027  1.00  0.00    -0.205 F 
ATOM     90  C   UNL A   1      45.511  36.617  30.653  1.00  0.00     0.022 A 
BRANCH  88  91
ATOM     91  S   UNL A   1      44.700  37.892  28.371  1.00  0.00     0.127 S 
ATOM     92  O   UNL A   1      43.272  38.210  28.407  1.00  0.00    -0.237 OA
ATOM     93  O   UNL A   1      45.557  38.857  29.058  1.00  0.00    -0.237 OA
ATOM     94  O   UNL A   1      45.200  37.443  27.079  1.00  0.00    -0.744 OA
ENDBRANCH  88  91
ENDBRANCH  61  84
ENDBRANCH  35  36
ENDBRANCH  28  30
ENDBRANCH  27  28
ENDBRANCH  26  27
ENDBRANCH   1  26
TORSDOF 19
ENDMDL
MODEL 2
REMARK VINA RESULT:     -11.4      1.230      2.459
REMARK SMILES Cc1cc(F)c([C@@H](C)[N@@H+]2C[C@H](C)[C@H](C(=O)OCCOCCOC(=O)c3ccc(-c4c5nc(c(-c6cccc(S(=O)(=O)[O-])c6F)c6ccc([nH]6)c(-c6cccc(S(=O)(=O)[O-])c6F)c6nc(c(-c7cccc(S(=O)(=O)[O-])c7F)c7ccc4[nH]7)C=C6)C=C5)cc3)C2)cc1F
REMARK SMILES IDX 20 1 19 2 18 3 17 4 16 5 14 6 15 7 13 8 9 9 10 10 88 11
REMARK SMILES IDX 11 13 12 14 7 15 8 16 6 17 1 18 2 19 3 20 90 21 4 22 89 23
REMARK SMILES IDX 91 24 5 25 21 26 22 27 23 28 24 29 25 30 26 31 87 32 27 33
REMARK SMILES IDX 86 34 28 35 29 36 30 37 80 38 31 39 85 40 79 41 81 42 32 43
REMARK SMILES IDX 84 44 78 45 77 46 33 48 65 49 45 50 64 51 46 52 49 53 63 54
REMARK SMILES IDX 82 55 47 56 48 57 62 59 83 60 50 61 34 62 35 63 43 64 36 65
REMARK SMILES IDX 38 66 44 67 37 68 39 69 40 70 41 71 42 72 66 73 67 74 75 75
REMARK SMILES IDX 68 76 70 77 76 78 69 79 71 80 72 81 73 82 74 83 51 84 52 85
REMARK SMILES IDX 60 86 53 87 55 88 61 89 54 90 56 91 57 92 58 93 59 94
REMARK H PARENT 9 12 81 47 49 58
REMARK Flexibility Score: inf
ROOT
ATOM      1  C   UNL A   1      34.994  21.699  24.280  1.00  0.00     0.202 C 
ENDROOT
BRANCH   1   2
ATOM      2  O   UNL A   1      34.683  22.853  23.501  1.00  0.00    -0.374 OA
BRANCH   2   3
ATOM      3  C   UNL A   1      33.424  22.872  22.831  1.00  0.00     0.202 C 
BRANCH   3   4
ATOM      4  C   UNL A   1      32.692  24.212  22.746  1.00  0.00     0.261 C 
BRANCH   4   5
ATOM      5  O   UNL A   1      33.618  25.311  22.677  1.00  0.00    -0.463 OA
BRANCH   5   6
ATOM      6  C   UNL A   1      33.314  26.261  21.763  1.00  0.00     0.315 C 
ATOM      7  O   UNL A   1      33.276  26.079  20.550  1.00  0.00    -0.252 OA
BRANCH   6   8
ATOM      8  C   UNL A   1      33.067  27.626  22.359  1.00  0.00     0.162 C 
ATOM      9  N   UNL A   1      33.100  28.635  24.526  1.00  0.00    -0.328 N 
ATOM     10  C   UNL A   1      31.956  29.174  23.794  1.00  0.00     0.267 C 
ATOM     11  C   UNL A   1      33.850  27.738  23.656  1.00  0.00     0.278 C 
ATOM     12  H   UNL A   1      33.705  29.426  24.747  1.00  0.00     0.348 HD
ATOM     13  C   UNL A   1      31.678  28.221  22.623  1.00  0.00     0.061 C 
ATOM     14  C   UNL A   1      30.488  27.321  22.925  1.00  0.00     0.015 C 
BRANCH   9  15
ATOM     15  C   UNL A   1      32.898  28.218  25.923  1.00  0.00     0.215 C 
ATOM     16  C   UNL A   1      34.110  28.528  26.817  1.00  0.00     0.081 C 
BRANCH  15  17
ATOM     17  C   UNL A   1      32.385  26.804  26.132  1.00  0.00     0.048 A 
ATOM     18  C   UNL A   1      30.646  22.854  26.363  1.00  0.00     0.047 C 
ATOM     19  C   UNL A   1      31.278  24.206  26.354  1.00  0.00    -0.012 A 
ATOM     20  C   UNL A   1      32.659  24.377  26.215  1.00  0.00     0.046 A 
ATOM     21  C   UNL A   1      30.466  25.336  26.402  1.00  0.00     0.126 A 
ATOM     22  C   UNL A   1      33.199  25.662  26.122  1.00  0.00     0.132 A 
ATOM     23  C   UNL A   1      31.001  26.614  26.300  1.00  0.00     0.052 A 
ATOM     24  F   UNL A   1      29.136  25.199  26.505  1.00  0.00    -0.207 F 
ATOM     25  F   UNL A   1      34.525  25.765  25.959  1.00  0.00    -0.206 F 
ENDBRANCH  15  17
ENDBRANCH   9  15
ENDBRANCH   6   8
ENDBRANCH   5   6
ENDBRANCH   4   5
ENDBRANCH   3   4
ENDBRANCH   2   3
ENDBRANCH   1   2
BRANCH   1  26
ATOM     26  C   UNL A   1      36.480  21.326  24.440  1.00  0.00     0.261 C 
BRANCH  26  27
ATOM     27  O   UNL A   1      37.032  21.705  25.715  1.00  0.00    -0.460 OA
BRANCH  27  28
ATOM     28  C   UNL A   1      38.351  21.432  25.891  1.00  0.00     0.338 C 
ATOM     29  O   UNL A   1      38.949  20.439  25.509  1.00  0.00    -0.246 OA
BRANCH  28  30
ATOM     30  C   UNL A   1      39.025  22.638  26.424  1.00  0.00     0.060 A 
ATOM     31  C   UNL A   1      40.173  22.541  27.205  1.00  0.00     0.016 A 
ATOM     32  C   UNL A   1      38.486  23.896  26.120  1.00  0.00     0.016 A 
ATOM     33  C   UNL A   1      40.780  23.713  27.666  1.00  0.00     0.010 A 
ATOM     34  C   UNL A   1      39.091  25.065  26.600  1.00  0.00     0.010 A 
ATOM     35  C   UNL A   1      40.251  24.990  27.378  1.00  0.00    -0.014 A 
BRANCH  35  36
ATOM     36  C   UNL A   1      40.994  26.221  27.783  1.00  0.00     0.031 A 
ATOM     37  C   UNL A   1      42.456  26.436  27.478  1.00  0.00     0.074 A 
ATOM     38  C   UNL A   1      40.317  27.183  28.445  1.00  0.00     0.049 A 
ATOM     39  N   UNL A   1      43.181  27.511  27.673  1.00  0.00    -0.248 NA
ATOM     40  C   UNL A   1      43.196  25.329  26.851  1.00  0.00     0.031 C 
ATOM     41  C   UNL A   1      38.912  27.093  28.847  1.00  0.00     0.029 A 
ATOM     42  N   UNL A   1      40.713  28.418  28.896  1.00  0.00    -0.354 N 
ATOM     43  C   UNL A   1      44.450  27.221  27.182  1.00  0.00     0.074 A 
ATOM     44  C   UNL A   1      44.402  25.864  26.683  1.00  0.00     0.031 C 
ATOM     45  C   UNL A   1      38.556  28.230  29.458  1.00  0.00     0.029 A 
ATOM     46  C   UNL A   1      39.717  29.111  29.540  1.00  0.00     0.049 A 
ATOM     47  H   UNL A   1      41.623  28.772  28.770  1.00  0.00     0.167 HD
ATOM     48  C   UNL A   1      45.548  28.015  27.140  1.00  0.00     0.034 A 
ATOM     49  C   UNL A   1      39.724  30.312  30.151  1.00  0.00     0.034 A 
ATOM     50  C   UNL A   1      45.620  29.351  27.676  1.00  0.00     0.049 A 
ATOM     51  C   UNL A   1      40.976  31.135  30.160  1.00  0.00     0.074 A 
ATOM     52  C   UNL A   1      46.700  30.220  27.664  1.00  0.00     0.029 A 
ATOM     53  N   UNL A   1      44.596  30.000  28.343  1.00  0.00    -0.354 N 
ATOM     54  N   UNL A   1      42.129  30.880  29.595  1.00  0.00    -0.248 NA
ATOM     55  C   UNL A   1      40.925  32.419  30.876  1.00  0.00     0.031 C 
ATOM     56  C   UNL A   1      46.340  31.380  28.356  1.00  0.00     0.029 A 
ATOM     57  C   UNL A   1      45.024  31.248  28.767  1.00  0.00     0.049 A 
ATOM     58  H   UNL A   1      43.696  29.631  28.495  1.00  0.00     0.167 HD
ATOM     59  C   UNL A   1      42.935  31.979  29.865  1.00  0.00     0.074 A 
ATOM     60  C   UNL A   1      42.135  32.908  30.637  1.00  0.00     0.031 C 
ATOM     61  C   UNL A   1      44.223  32.188  29.506  1.00  0.00     0.034 A 
BRANCH  48  62
ATOM     62  C   UNL A   1      46.788  27.493  26.461  1.00  0.00     0.023 A 
ATOM     63  C   UNL A   1      47.583  26.543  27.132  1.00  0.00     0.012 A 
ATOM     64  C   UNL A   1      47.072  27.813  25.119  1.00  0.00     0.148 A 
ATOM     65  C   UNL A   1      48.644  25.917  26.476  1.00  0.00     0.002 A 
ATOM     66  C   UNL A   1      48.116  27.169  24.465  1.00  0.00     0.091 A 
ATOM     67  F   UNL A   1      46.299  28.719  24.504  1.00  0.00    -0.205 F 
ATOM     68  C   UNL A   1      48.903  26.220  25.142  1.00  0.00     0.022 A 
BRANCH  66  69
ATOM     69  S   UNL A   1      48.506  27.451  22.733  1.00  0.00     0.127 S 
ATOM     70  O   UNL A   1      49.755  28.205  22.833  1.00  0.00    -0.237 OA
ATOM     71  O   UNL A   1      48.654  26.088  22.226  1.00  0.00    -0.237 OA
ATOM     72  O   UNL A   1      47.381  28.193  22.183  1.00  0.00    -0.744 OA
ENDBRANCH  66  69
ENDBRANCH  48  62
BRANCH  49  73
ATOM     73  C   UNL A   1      38.470  30.806  30.777  1.00  0.00     0.023 A 
ATOM     74  C   UNL A   1      38.300  30.696  32.168  1.00  0.00     0.012 A 
ATOM     75  C   UNL A   1      37.493  31.465  30.006  1.00  0.00     0.148 A 
ATOM     76  C   UNL A   1      37.173  31.238  32.785  1.00  0.00     0.002 A 
ATOM     77  C   UNL A   1      36.395  32.040  30.632  1.00  0.00     0.091 A 
ATOM     78  F   UNL A   1      37.683  31.550  28.681  1.00  0.00    -0.205 F 
ATOM     79  C   UNL A   1      36.228  31.920  32.021  1.00  0.00     0.022 A 
BRANCH  77  80
ATOM     80  S   UNL A   1      35.187  33.028  29.745  1.00  0.00     0.127 S 
ATOM     81  O   UNL A   1      34.625  32.050  28.817  1.00  0.00    -0.237 OA
ATOM     82  O   UNL A   1      34.290  33.438  30.827  1.00  0.00    -0.237 OA
ATOM     83  O   UNL A   1      35.935  34.115  29.131  1.00  0.00    -0.744 OA
ENDBRANCH  77  80
ENDBRANCH  49  73
BRANCH  61  84
ATOM     84  C   UNL A   1      44.871  33.481  29.917  1.00  0.00     0.023 A 
ATOM     85  C   UNL A   1      45.532  33.568  31.158  1.00  0.00     0.012 A 
ATOM     86  C   UNL A   1      44.913  34.574  29.030  1.00  0.00     0.148 A 
ATOM     87  C   UNL A   1      46.215  34.731  31.514  1.00  0.00     0.002 A 
ATOM     88  C   UNL A   1      45.624  35.716  29.377  1.00  0.00     0.091 A 
ATOM     89  F   UNL A   1      44.268  34.470  27.859  1.00  0.00    -0.205 F 
ATOM     90  C   UNL A   1      46.272  35.798  30.621  1.00  0.00     0.022 A 
BRANCH  88  91
ATOM     91  S   UNL A   1      45.810  37.116  28.267  1.00  0.00     0.127 S 
ATOM     92  O   UNL A   1      46.793  37.932  28.980  1.00  0.00    -0.237 OA
ATOM     93  O   UNL A   1      46.313  36.481  27.050  1.00  0.00    -0.237 OA
ATOM     94  O   UNL A   1      44.487  37.713  28.142  1.00  0.00    -0.744 OA
ENDBRANCH  88  91
ENDBRANCH  61  84
ENDBRANCH  35  36
ENDBRANCH  28  30
ENDBRANCH  27  28
ENDBRANCH  26  27
ENDBRANCH   1  26
TORSDOF 19
ENDMDL
MODEL 3
REMARK VINA RESULT:     -11.2      5.168      7.969
REMARK SMILES Cc1cc(F)c([C@@H](C)[N@@H+]2C[C@H](C)[C@H](C(=O)OCCOCCOC(=O)c3ccc(-c4c5nc(c(-c6cccc(S(=O)(=O)[O-])c6F)c6ccc([nH]6)c(-c6cccc(S(=O)(=O)[O-])c6F)c6nc(c(-c7cccc(S(=O)(=O)[O-])c7F)c7ccc4[nH]7)C=C6)C=C5)cc3)C2)cc1F
REMARK SMILES IDX 20 1 19 2 18 3 17 4 16 5 14 6 15 7 13 8 9 9 10 10 88 11
REMARK SMILES IDX 11 13 12 14 7 15 8 16 6 17 1 18 2 19 3 20 90 21 4 22 89 23
REMARK SMILES IDX 91 24 5 25 21 26 22 27 23 28 24 29 25 30 26 31 87 32 27 33
REMARK SMILES IDX 86 34 28 35 29 36 30 37 80 38 31 39 85 40 79 41 81 42 32 43
REMARK SMILES IDX 84 44 78 45 77 46 33 48 65 49 45 50 64 51 46 52 49 53 63 54
REMARK SMILES IDX 82 55 47 56 48 57 62 59 83 60 50 61 34 62 35 63 43 64 36 65
REMARK SMILES IDX 38 66 44 67 37 68 39 69 40 70 41 71 42 72 66 73 67 74 75 75
REMARK SMILES IDX 68 76 70 77 76 78 69 79 71 80 72 81 73 82 74 83 51 84 52 85
REMARK SMILES IDX 60 86 53 87 55 88 61 89 54 90 56 91 57 92 58 93 59 94
REMARK H PARENT 9 12 81 47 49 58
REMARK Flexibility Score: inf
ROOT
ATOM      1  C   UNL A   1      31.041  30.477  25.087  1.00  0.00     0.202 C 
ENDROOT
BRANCH   1   2
ATOM      2  O   UNL A   1      31.364  29.246  24.442  1.00  0.00    -0.374 OA
BRANCH   2   3
ATOM      3  C   UNL A   1      30.343  28.628  23.661  1.00  0.00     0.202 C 
BRANCH   3   4
ATOM      4  C   UNL A   1      30.225  27.105  23.736  1.00  0.00     0.261 C 
BRANCH   4   5
ATOM      5  O   UNL A   1      31.220  26.545  24.610  1.00  0.00    -0.463 OA
BRANCH   5   6
ATOM      6  C   UNL A   1      30.734  25.847  25.661  1.00  0.00     0.315 C 
ATOM      7  O   UNL A   1      29.559  25.844  26.016  1.00  0.00    -0.252 OA
BRANCH   6   8
ATOM      8  C   UNL A   1      31.786  25.084  26.428  1.00  0.00     0.162 C 
ATOM      9  N   UNL A   1      33.847  23.966  25.957  1.00  0.00    -0.328 N 
ATOM     10  C   UNL A   1      33.109  23.162  26.929  1.00  0.00     0.267 C 
ATOM     11  C   UNL A   1      33.105  25.188  25.680  1.00  0.00     0.278 C 
ATOM     12  H   UNL A   1      34.724  24.233  26.404  1.00  0.00     0.348 HD
ATOM     13  C   UNL A   1      31.646  23.624  26.881  1.00  0.00     0.061 C 
ATOM     14  C   UNL A   1      30.790  22.642  26.093  1.00  0.00     0.015 C 
BRANCH   9  15
ATOM     15  C   UNL A   1      34.474  23.277  24.817  1.00  0.00     0.215 C 
ATOM     16  C   UNL A   1      34.656  24.192  23.596  1.00  0.00     0.081 C 
BRANCH  15  17
ATOM     17  C   UNL A   1      33.879  21.933  24.437  1.00  0.00     0.048 A 
ATOM     18  C   UNL A   1      32.319  18.198  22.921  1.00  0.00     0.047 C 
ATOM     19  C   UNL A   1      32.818  19.474  23.511  1.00  0.00    -0.012 A 
ATOM     20  C   UNL A   1      33.759  19.494  24.545  1.00  0.00     0.046 A 
ATOM     21  C   UNL A   1      32.402  20.685  22.963  1.00  0.00     0.126 A 
ATOM     22  C   UNL A   1      34.265  20.712  25.008  1.00  0.00     0.132 A 
ATOM     23  C   UNL A   1      32.911  21.895  23.415  1.00  0.00     0.052 A 
ATOM     24  F   UNL A   1      31.523  20.693  21.951  1.00  0.00    -0.207 F 
ATOM     25  F   UNL A   1      35.187  20.668  25.979  1.00  0.00    -0.206 F 
ENDBRANCH  15  17
ENDBRANCH   9  15
ENDBRANCH   6   8
ENDBRANCH   5   6
ENDBRANCH   4   5
ENDBRANCH   3   4
ENDBRANCH   2   3
ENDBRANCH   1   2
BRANCH   1  26
ATOM     26  C   UNL A   1      31.673  30.747  26.466  1.00  0.00     0.261 C 
BRANCH  26  27
ATOM     27  O   UNL A   1      33.102  30.923  26.418  1.00  0.00    -0.460 OA
BRANCH  27  28
ATOM     28  C   UNL A   1      33.606  31.875  27.246  1.00  0.00     0.338 C 
ATOM     29  O   UNL A   1      33.046  32.894  27.614  1.00  0.00    -0.246 OA
BRANCH  28  30
ATOM     30  C   UNL A   1      34.872  31.379  27.832  1.00  0.00     0.060 A 
ATOM     31  C   UNL A   1      35.944  32.234  28.073  1.00  0.00     0.016 A 
ATOM     32  C   UNL A   1      34.974  30.017  28.153  1.00  0.00     0.016 A 
ATOM     33  C   UNL A   1      37.109  31.716  28.647  1.00  0.00     0.010 A 
ATOM     34  C   UNL A   1      36.151  29.504  28.712  1.00  0.00     0.010 A 
ATOM     35  C   UNL A   1      37.236  30.348  28.972  1.00  0.00    -0.014 A 
BRANCH  35  36
ATOM     36  C   UNL A   1      38.446  29.855  29.695  1.00  0.00     0.031 A 
ATOM     37  C   UNL A   1      39.368  28.802  29.131  1.00  0.00     0.074 A 
ATOM     38  C   UNL A   1      38.726  30.387  30.903  1.00  0.00     0.049 A 
ATOM     39  N   UNL A   1      40.512  28.377  29.610  1.00  0.00    -0.248 NA
ATOM     40  C   UNL A   1      38.984  28.161  27.863  1.00  0.00     0.031 C 
ATOM     41  C   UNL A   1      37.899  31.381  31.592  1.00  0.00     0.029 A 
ATOM     42  N   UNL A   1      39.772  30.170  31.765  1.00  0.00    -0.354 N 
ATOM     43  C   UNL A   1      40.993  27.440  28.702  1.00  0.00     0.074 A 
ATOM     44  C   UNL A   1      40.012  27.348  27.642  1.00  0.00     0.031 C 
ATOM     45  C   UNL A   1      38.482  31.709  32.753  1.00  0.00     0.029 A 
ATOM     46  C   UNL A   1      39.694  30.913  32.919  1.00  0.00     0.049 A 
ATOM     47  H   UNL A   1      40.507  29.544  31.575  1.00  0.00     0.167 HD
ATOM     48  C   UNL A   1      42.147  26.731  28.742  1.00  0.00     0.034 A 
ATOM     49  C   UNL A   1      40.489  30.947  34.007  1.00  0.00     0.034 A 
ATOM     50  C   UNL A   1      43.107  26.778  29.815  1.00  0.00     0.049 A 
ATOM     51  C   UNL A   1      41.717  30.091  34.060  1.00  0.00     0.074 A 
ATOM     52  C   UNL A   1      44.306  26.091  29.922  1.00  0.00     0.029 A 
ATOM     53  N   UNL A   1      42.973  27.522  30.974  1.00  0.00    -0.354 N 
ATOM     54  N   UNL A   1      42.200  29.295  33.140  1.00  0.00    -0.248 NA
ATOM     55  C   UNL A   1      42.518  30.149  35.291  1.00  0.00     0.031 C 
ATOM     56  C   UNL A   1      44.878  26.391  31.161  1.00  0.00     0.029 A 
ATOM     57  C   UNL A   1      44.054  27.294  31.811  1.00  0.00     0.049 A 
ATOM     58  H   UNL A   1      42.221  28.125  31.176  1.00  0.00     0.167 HD
ATOM     59  C   UNL A   1      43.375  28.775  33.669  1.00  0.00     0.074 A 
ATOM     60  C   UNL A   1      43.535  29.353  34.987  1.00  0.00     0.031 C 
ATOM     61  C   UNL A   1      44.234  27.891  33.108  1.00  0.00     0.034 A 
BRANCH  48  62
ATOM     62  C   UNL A   1      42.486  25.841  27.573  1.00  0.00     0.023 A 
ATOM     63  C   UNL A   1      43.413  26.296  26.616  1.00  0.00     0.012 A 
ATOM     64  C   UNL A   1      42.019  24.513  27.511  1.00  0.00     0.148 A 
ATOM     65  C   UNL A   1      43.873  25.442  25.612  1.00  0.00     0.002 A 
ATOM     66  C   UNL A   1      42.499  23.662  26.523  1.00  0.00     0.091 A 
ATOM     67  F   UNL A   1      41.137  24.105  28.435  1.00  0.00    -0.205 F 
ATOM     68  C   UNL A   1      43.426  24.124  25.573  1.00  0.00     0.022 A 
BRANCH  66  69
ATOM     69  S   UNL A   1      42.024  21.931  26.410  1.00  0.00     0.127 S 
ATOM     70  O   UNL A   1      42.370  21.445  27.745  1.00  0.00    -0.237 OA
ATOM     71  O   UNL A   1      40.589  22.023  26.145  1.00  0.00    -0.237 OA
ATOM     72  O   UNL A   1      42.815  21.366  25.325  1.00  0.00    -0.744 OA
ENDBRANCH  66  69
ENDBRANCH  48  62
BRANCH  49  73
ATOM     73  C   UNL A   1      40.138  31.865  35.122  1.00  0.00     0.023 A 
ATOM     74  C   UNL A   1      40.623  33.185  35.112  1.00  0.00     0.012 A 
ATOM     75  C   UNL A   1      39.253  31.456  36.138  1.00  0.00     0.148 A 
ATOM     76  C   UNL A   1      40.228  34.088  36.099  1.00  0.00     0.002 A 
ATOM     77  C   UNL A   1      38.831  32.372  37.092  1.00  0.00     0.091 A 
ATOM     78  F   UNL A   1      38.812  30.191  36.121  1.00  0.00    -0.205 F 
ATOM     79  C   UNL A   1      39.325  33.687  37.081  1.00  0.00     0.022 A 
BRANCH  77  80
ATOM     80  S   UNL A   1      37.588  31.977  38.326  1.00  0.00     0.127 S 
ATOM     81  O   UNL A   1      36.541  32.947  38.015  1.00  0.00    -0.237 OA
ATOM     82  O   UNL A   1      37.264  30.591  37.986  1.00  0.00    -0.237 OA
ATOM     83  O   UNL A   1      38.238  32.151  39.616  1.00  0.00    -0.744 OA
ENDBRANCH  77  80
ENDBRANCH  49  73
BRANCH  61  84
ATOM     84  C   UNL A   1      45.453  27.493  33.893  1.00  0.00     0.023 A 
ATOM     85  C   UNL A   1      46.587  28.328  33.893  1.00  0.00     0.012 A 
ATOM     86  C   UNL A   1      45.435  26.346  34.711  1.00  0.00     0.148 A 
ATOM     87  C   UNL A   1      47.691  28.019  34.688  1.00  0.00     0.002 A 
ATOM     88  C   UNL A   1      46.524  26.064  35.525  1.00  0.00     0.091 A 
ATOM     89  F   UNL A   1      44.347  25.563  34.685  1.00  0.00    -0.205 F 
ATOM     90  C   UNL A   1      47.655  26.897  35.511  1.00  0.00     0.022 A 
BRANCH  88  91
ATOM     91  S   UNL A   1      46.546  24.678  36.668  1.00  0.00     0.127 S 
ATOM     92  O   UNL A   1      46.756  23.549  35.761  1.00  0.00    -0.237 OA
ATOM     93  O   UNL A   1      47.691  24.998  37.519  1.00  0.00    -0.237 OA
ATOM     94  O   UNL A   1      45.258  24.693  37.347  1.00  0.00    -0.744 OA
ENDBRANCH  88  91
ENDBRANCH  61  84
ENDBRANCH  35  36
ENDBRANCH  28  30
ENDBRANCH  27  28
ENDBRANCH  26  27
ENDBRANCH   1  26
TORSDOF 19
ENDMDL
