MODEL 1
REMARK VINA RESULT:     -10.3      0.000      0.000
REMARK SMILES C[C@H](NC(=O)CCn1ccccc1=O)C(=O)OCCOCCOC(=O)c1ccc(-c2c3nc(c(-c4cccc(S(=O)(=O)[O-])c4F)c4ccc([nH]4)c(-c4cccc(S(=O)(=O)[O-])c4F)c4nc(c(-c5cccc(S(=O)(=O)[O-])c5F)c5ccc2[nH]5)C=C4)C=C3)cc1
REMARK SMILES IDX 19 1 18 2 17 3 15 4 16 5 2 6 1 7 3 8 4 9 5 11 6 12 7 13 8 14
REMARK SMILES IDX 9 15 13 16 10 17 12 18 14 19 11 20 20 21 21 22 22 23 23 24
REMARK SMILES IDX 24 25 25 26 26 27 27 28 88 29 28 30 87 31 29 32 30 33 31 34
REMARK SMILES IDX 81 35 32 36 86 37 80 38 82 39 33 40 85 41 79 42 78 43 34 45
REMARK SMILES IDX 66 46 46 47 65 48 47 49 50 50 64 51 83 52 48 53 49 54 63 56
REMARK SMILES IDX 84 57 51 58 35 59 36 60 44 61 37 62 39 63 45 64 38 65 40 66
REMARK SMILES IDX 41 67 42 68 43 69 67 70 68 71 76 72 69 73 71 74 77 75 70 76
REMARK SMILES IDX 72 77 73 78 74 79 75 80 52 81 53 82 61 83 54 84 56 85 62 86
REMARK SMILES IDX 55 87 57 88 58 89 59 90 60 91
REMARK H PARENT 3 10 82 44 50 55
REMARK Flexibility Score: inf
ROOT
ATOM      1  C   UNL A   1      31.885  29.004  22.872  1.00  0.00     0.202 C 
ENDROOT
BRANCH   1   2
ATOM      2  C   UNL A   1      30.664  28.161  22.479  1.00  0.00     0.261 C 
BRANCH   2   3
ATOM      3  O   UNL A   1      30.573  26.743  22.744  1.00  0.00    -0.462 OA
BRANCH   3   4
ATOM      4  C   UNL A   1      29.801  26.316  23.770  1.00  0.00     0.328 C 
ATOM      5  O   UNL A   1      28.609  26.565  23.876  1.00  0.00    -0.250 OA
BRANCH   4   6
ATOM      6  C   UNL A   1      30.556  25.627  24.916  1.00  0.00     0.189 C 
ATOM      7  C   UNL A   1      29.755  25.198  26.138  1.00  0.00     0.043 C 
BRANCH   6   8
ATOM      8  N   UNL A   1      31.741  26.404  25.301  1.00  0.00    -0.343 N 
ATOM      9  C   UNL A   1      32.960  25.994  25.743  1.00  0.00     0.222 C 
ATOM     10  H   UNL A   1      31.635  27.380  25.227  1.00  0.00     0.164 HD
ATOM     11  O   UNL A   1      33.799  26.873  25.971  1.00  0.00    -0.275 OA
BRANCH   9  12
ATOM     12  C   UNL A   1      33.354  24.531  25.874  1.00  0.00     0.122 C 
BRANCH  12  13
ATOM     13  C   UNL A   1      34.840  24.178  25.758  1.00  0.00     0.135 C 
BRANCH  13  14
ATOM     14  N   UNL A   1      35.159  22.791  25.383  1.00  0.00    -0.315 N 
ATOM     15  C   UNL A   1      34.156  21.838  25.283  1.00  0.00     0.089 A 
ATOM     16  C   UNL A   1      36.500  22.469  25.122  1.00  0.00     0.250 A 
ATOM     17  C   UNL A   1      34.443  20.547  25.081  1.00  0.00     0.018 A 
ATOM     18  C   UNL A   1      36.806  21.016  24.998  1.00  0.00     0.072 A 
ATOM     19  O   UNL A   1      37.419  23.280  25.070  1.00  0.00    -0.269 OA
ATOM     20  C   UNL A   1      35.815  20.117  25.000  1.00  0.00     0.007 A 
ENDBRANCH  13  14
ENDBRANCH  12  13
ENDBRANCH   9  12
ENDBRANCH   6   8
ENDBRANCH   4   6
ENDBRANCH   3   4
ENDBRANCH   2   3
ENDBRANCH   1   2
BRANCH   1  21
ATOM     21  O   UNL A   1      32.214  29.220  24.233  1.00  0.00    -0.374 OA
BRANCH  21  22
ATOM     22  C   UNL A   1      31.387  29.991  25.091  1.00  0.00     0.202 C 
BRANCH  22  23
ATOM     23  C   UNL A   1      31.912  30.802  26.301  1.00  0.00     0.261 C 
BRANCH  23  24
ATOM     24  O   UNL A   1      33.282  30.608  26.678  1.00  0.00    -0.460 OA
BRANCH  24  25
ATOM     25  C   UNL A   1      33.838  31.627  27.388  1.00  0.00     0.338 C 
ATOM     26  O   UNL A   1      33.297  32.664  27.732  1.00  0.00    -0.246 OA
BRANCH  25  27
ATOM     27  C   UNL A   1      35.147  31.175  27.905  1.00  0.00     0.060 A 
ATOM     28  C   UNL A   1      36.179  32.079  28.151  1.00  0.00     0.016 A 
ATOM     29  C   UNL A   1      35.334  29.802  28.127  1.00  0.00     0.016 A 
ATOM     30  C   UNL A   1      37.400  31.604  28.642  1.00  0.00     0.010 A 
ATOM     31  C   UNL A   1      36.559  29.327  28.589  1.00  0.00     0.010 A 
ATOM     32  C   UNL A   1      37.593  30.229  28.871  1.00  0.00    -0.014 A 
BRANCH  32  33
ATOM     33  C   UNL A   1      38.795  29.752  29.592  1.00  0.00     0.031 A 
ATOM     34  C   UNL A   1      39.207  30.310  30.920  1.00  0.00     0.074 A 
ATOM     35  C   UNL A   1      39.549  28.816  28.987  1.00  0.00     0.049 A 
ATOM     36  N   UNL A   1      40.204  29.946  31.682  1.00  0.00    -0.248 NA
ATOM     37  C   UNL A   1      38.406  31.418  31.461  1.00  0.00     0.031 C 
ATOM     38  C   UNL A   1      39.275  28.252  27.663  1.00  0.00     0.029 A 
ATOM     39  N   UNL A   1      40.695  28.185  29.391  1.00  0.00    -0.354 N 
ATOM     40  C   UNL A   1      40.151  30.767  32.800  1.00  0.00     0.074 A 
ATOM     41  C   UNL A   1      39.036  31.671  32.603  1.00  0.00     0.031 C 
ATOM     42  C   UNL A   1      40.220  27.346  27.370  1.00  0.00     0.029 A 
ATOM     43  C   UNL A   1      41.170  27.277  28.476  1.00  0.00     0.049 A 
ATOM     44  H   UNL A   1      41.136  28.365  30.253  1.00  0.00     0.167 HD
ATOM     45  C   UNL A   1      40.945  30.745  33.899  1.00  0.00     0.034 A 
ATOM     46  C   UNL A   1      42.243  26.468  28.523  1.00  0.00     0.034 A 
ATOM     47  C   UNL A   1      42.056  29.848  34.080  1.00  0.00     0.049 A 
ATOM     48  C   UNL A   1      43.110  26.467  29.746  1.00  0.00     0.074 A 
ATOM     49  C   UNL A   1      42.893  29.728  35.177  1.00  0.00     0.029 A 
ATOM     50  N   UNL A   1      42.498  28.926  33.142  1.00  0.00    -0.354 N 
ATOM     51  N   UNL A   1      42.974  27.166  30.846  1.00  0.00    -0.248 NA
ATOM     52  C   UNL A   1      44.256  25.548  29.750  1.00  0.00     0.031 C 
ATOM     53  C   UNL A   1      43.847  28.745  34.897  1.00  0.00     0.029 A 
ATOM     54  C   UNL A   1      43.595  28.239  33.633  1.00  0.00     0.049 A 
ATOM     55  H   UNL A   1      42.090  28.782  32.258  1.00  0.00     0.167 HD
ATOM     56  C   UNL A   1      44.007  26.764  31.682  1.00  0.00     0.074 A 
ATOM     57  C   UNL A   1      44.750  25.745  30.967  1.00  0.00     0.031 C 
ATOM     58  C   UNL A   1      44.314  27.209  32.925  1.00  0.00     0.034 A 
BRANCH  45  59
ATOM     59  C   UNL A   1      40.599  31.670  35.034  1.00  0.00     0.023 A 
ATOM     60  C   UNL A   1      41.362  32.843  35.209  1.00  0.00     0.012 A 
ATOM     61  C   UNL A   1      39.476  31.446  35.852  1.00  0.00     0.148 A 
ATOM     62  C   UNL A   1      41.019  33.774  36.188  1.00  0.00     0.002 A 
ATOM     63  C   UNL A   1      39.125  32.391  36.811  1.00  0.00     0.091 A 
ATOM     64  F   UNL A   1      38.770  30.320  35.673  1.00  0.00    -0.205 F 
ATOM     65  C   UNL A   1      39.898  33.553  36.981  1.00  0.00     0.022 A 
BRANCH  63  66
ATOM     66  S   UNL A   1      37.678  32.226  37.863  1.00  0.00     0.127 S 
ATOM     67  O   UNL A   1      38.147  32.841  39.104  1.00  0.00    -0.237 OA
ATOM     68  O   UNL A   1      36.679  33.006  37.134  1.00  0.00    -0.237 OA
ATOM     69  O   UNL A   1      37.401  30.798  37.946  1.00  0.00    -0.744 OA
ENDBRANCH  63  66
ENDBRANCH  45  59
BRANCH  46  70
ATOM     70  C   UNL A   1      42.481  25.534  27.392  1.00  0.00     0.023 A 
ATOM     71  C   UNL A   1      43.361  25.918  26.363  1.00  0.00     0.012 A 
ATOM     72  C   UNL A   1      41.941  24.234  27.396  1.00  0.00     0.148 A 
ATOM     73  C   UNL A   1      43.703  25.019  25.353  1.00  0.00     0.002 A 
ATOM     74  C   UNL A   1      42.312  23.333  26.407  1.00  0.00     0.091 A 
ATOM     75  F   UNL A   1      41.115  23.898  28.397  1.00  0.00    -0.205 F 
ATOM     76  C   UNL A   1      43.188  23.725  25.382  1.00  0.00     0.022 A 
BRANCH  74  77
ATOM     77  S   UNL A   1      41.783  21.617  26.412  1.00  0.00     0.127 S 
ATOM     78  O   UNL A   1      42.630  21.042  25.368  1.00  0.00    -0.237 OA
ATOM     79  O   UNL A   1      42.120  21.206  27.774  1.00  0.00    -0.237 OA
ATOM     80  O   UNL A   1      40.358  21.638  26.114  1.00  0.00    -0.744 OA
ENDBRANCH  74  77
ENDBRANCH  46  70
BRANCH  58  81
ATOM     81  C   UNL A   1      45.512  26.607  33.606  1.00  0.00     0.023 A 
ATOM     82  C   UNL A   1      46.754  27.267  33.532  1.00  0.00     0.012 A 
ATOM     83  C   UNL A   1      45.386  25.448  34.397  1.00  0.00     0.148 A 
ATOM     84  C   UNL A   1      47.859  26.773  34.225  1.00  0.00     0.002 A 
ATOM     85  C   UNL A   1      46.483  24.981  35.111  1.00  0.00     0.091 A 
ATOM     86  F   UNL A   1      44.196  24.834  34.443  1.00  0.00    -0.205 F 
ATOM     87  C   UNL A   1      47.721  25.640  35.022  1.00  0.00     0.022 A 
BRANCH  85  88
ATOM     88  S   UNL A   1      46.391  23.569  36.217  1.00  0.00     0.127 S 
ATOM     89  O   UNL A   1      47.789  23.410  36.613  1.00  0.00    -0.237 OA
ATOM     90  O   UNL A   1      45.509  24.061  37.275  1.00  0.00    -0.237 OA
ATOM     91  O   UNL A   1      45.843  22.473  35.427  1.00  0.00    -0.744 OA
ENDBRANCH  85  88
ENDBRANCH  58  81
ENDBRANCH  32  33
ENDBRANCH  25  27
ENDBRANCH  24  25
ENDBRANCH  23  24
ENDBRANCH  22  23
ENDBRANCH  21  22
ENDBRANCH   1  21
TORSDOF 21
ENDMDL
MODEL 2
REMARK VINA RESULT:     -10.2      2.047      3.719
REMARK SMILES C[C@H](NC(=O)CCn1ccccc1=O)C(=O)OCCOCCOC(=O)c1ccc(-c2c3nc(c(-c4cccc(S(=O)(=O)[O-])c4F)c4ccc([nH]4)c(-c4cccc(S(=O)(=O)[O-])c4F)c4nc(c(-c5cccc(S(=O)(=O)[O-])c5F)c5ccc2[nH]5)C=C4)C=C3)cc1
REMARK SMILES IDX 19 1 18 2 17 3 15 4 16 5 2 6 1 7 3 8 4 9 5 11 6 12 7 13 8 14
REMARK SMILES IDX 9 15 13 16 10 17 12 18 14 19 11 20 20 21 21 22 22 23 23 24
REMARK SMILES IDX 24 25 25 26 26 27 27 28 88 29 28 30 87 31 29 32 30 33 31 34
REMARK SMILES IDX 81 35 32 36 86 37 80 38 82 39 33 40 85 41 79 42 78 43 34 45
REMARK SMILES IDX 66 46 46 47 65 48 47 49 50 50 64 51 83 52 48 53 49 54 63 56
REMARK SMILES IDX 84 57 51 58 35 59 36 60 44 61 37 62 39 63 45 64 38 65 40 66
REMARK SMILES IDX 41 67 42 68 43 69 67 70 68 71 76 72 69 73 71 74 77 75 70 76
REMARK SMILES IDX 72 77 73 78 74 79 75 80 52 81 53 82 61 83 54 84 56 85 62 86
REMARK SMILES IDX 55 87 57 88 58 89 59 90 60 91
REMARK H PARENT 3 10 82 44 50 55
REMARK Flexibility Score: inf
ROOT
ATOM      1  C   UNL A   1      34.487  29.338  26.990  1.00  0.00     0.202 C 
ENDROOT
BRANCH   1   2
ATOM      2  C   UNL A   1      33.519  28.519  26.123  1.00  0.00     0.261 C 
BRANCH   2   3
ATOM      3  O   UNL A   1      33.311  27.101  26.308  1.00  0.00    -0.462 OA
BRANCH   3   4
ATOM      4  C   UNL A   1      32.047  26.621  26.331  1.00  0.00     0.328 C 
ATOM      5  O   UNL A   1      31.182  27.014  27.101  1.00  0.00    -0.250 OA
BRANCH   4   6
ATOM      6  C   UNL A   1      31.792  25.401  25.433  1.00  0.00     0.189 C 
ATOM      7  C   UNL A   1      31.510  24.067  26.110  1.00  0.00     0.043 C 
BRANCH   6   8
ATOM      8  N   UNL A   1      32.844  25.273  24.418  1.00  0.00    -0.343 N 
ATOM      9  C   UNL A   1      32.792  25.434  23.068  1.00  0.00     0.222 C 
ATOM     10  H   UNL A   1      33.730  25.031  24.771  1.00  0.00     0.164 HD
ATOM     11  O   UNL A   1      33.850  25.292  22.445  1.00  0.00    -0.275 OA
BRANCH   9  12
ATOM     12  C   UNL A   1      31.537  25.864  22.324  1.00  0.00     0.122 C 
BRANCH  12  13
ATOM     13  C   UNL A   1      31.239  27.364  22.231  1.00  0.00     0.135 C 
BRANCH  13  14
ATOM     14  N   UNL A   1      29.906  27.797  22.680  1.00  0.00    -0.315 N 
ATOM     15  C   UNL A   1      29.136  26.982  23.497  1.00  0.00     0.089 A 
ATOM     16  C   UNL A   1      29.447  29.057  22.265  1.00  0.00     0.250 A 
ATOM     17  C   UNL A   1      27.872  27.298  23.799  1.00  0.00     0.018 A 
ATOM     18  C   UNL A   1      28.009  29.343  22.528  1.00  0.00     0.072 A 
ATOM     19  O   UNL A   1      30.117  29.880  21.649  1.00  0.00    -0.269 OA
ATOM     20  C   UNL A   1      27.272  28.485  23.243  1.00  0.00     0.007 A 
ENDBRANCH  13  14
ENDBRANCH  12  13
ENDBRANCH   9  12
ENDBRANCH   6   8
ENDBRANCH   4   6
ENDBRANCH   3   4
ENDBRANCH   2   3
ENDBRANCH   1   2
BRANCH   1  21
ATOM     21  O   UNL A   1      34.115  30.608  27.496  1.00  0.00    -0.374 OA
BRANCH  21  22
ATOM     22  C   UNL A   1      32.844  31.179  27.228  1.00  0.00     0.202 C 
BRANCH  22  23
ATOM     23  C   UNL A   1      32.599  32.697  27.039  1.00  0.00     0.261 C 
BRANCH  23  24
ATOM     24  O   UNL A   1      32.439  33.488  28.223  1.00  0.00    -0.460 OA
BRANCH  24  25
ATOM     25  C   UNL A   1      33.457  34.353  28.484  1.00  0.00     0.338 C 
ATOM     26  O   UNL A   1      33.396  35.571  28.527  1.00  0.00    -0.246 OA
BRANCH  25  27
ATOM     27  C   UNL A   1      34.620  33.575  28.962  1.00  0.00     0.060 A 
ATOM     28  C   UNL A   1      35.858  33.659  28.326  1.00  0.00     0.016 A 
ATOM     29  C   UNL A   1      34.442  32.729  30.067  1.00  0.00     0.016 A 
ATOM     30  C   UNL A   1      36.929  32.905  28.816  1.00  0.00     0.010 A 
ATOM     31  C   UNL A   1      35.502  31.956  30.535  1.00  0.00     0.010 A 
ATOM     32  C   UNL A   1      36.759  32.057  29.926  1.00  0.00    -0.014 A 
BRANCH  32  33
ATOM     33  C   UNL A   1      37.933  31.431  30.577  1.00  0.00     0.031 A 
ATOM     34  C   UNL A   1      38.389  31.819  31.950  1.00  0.00     0.074 A 
ATOM     35  C   UNL A   1      38.620  30.517  29.867  1.00  0.00     0.049 A 
ATOM     36  N   UNL A   1      39.366  31.314  32.657  1.00  0.00    -0.248 NA
ATOM     37  C   UNL A   1      37.665  32.913  32.614  1.00  0.00     0.031 C 
ATOM     38  C   UNL A   1      38.301  30.114  28.496  1.00  0.00     0.029 A 
ATOM     39  N   UNL A   1      39.725  29.776  30.188  1.00  0.00    -0.354 N 
ATOM     40  C   UNL A   1      39.374  32.015  33.854  1.00  0.00     0.074 A 
ATOM     41  C   UNL A   1      38.318  33.004  33.768  1.00  0.00     0.031 C 
ATOM     42  C   UNL A   1      39.183  29.186  28.097  1.00  0.00     0.029 A 
ATOM     43  C   UNL A   1      40.134  28.940  29.177  1.00  0.00     0.049 A 
ATOM     44  H   UNL A   1      40.183  29.835  31.058  1.00  0.00     0.167 HD
ATOM     45  C   UNL A   1      40.171  31.827  34.934  1.00  0.00     0.034 A 
ATOM     46  C   UNL A   1      41.153  28.063  29.125  1.00  0.00     0.034 A 
ATOM     47  C   UNL A   1      41.224  30.846  35.006  1.00  0.00     0.049 A 
ATOM     48  C   UNL A   1      42.025  27.878  30.329  1.00  0.00     0.074 A 
ATOM     49  C   UNL A   1      42.058  30.559  36.073  1.00  0.00     0.029 A 
ATOM     50  N   UNL A   1      41.598  30.002  33.971  1.00  0.00    -0.354 N 
ATOM     51  N   UNL A   1      41.943  28.466  31.498  1.00  0.00    -0.248 NA
ATOM     52  C   UNL A   1      43.109  26.893  30.222  1.00  0.00     0.031 C 
ATOM     53  C   UNL A   1      42.945  29.552  35.679  1.00  0.00     0.029 A 
ATOM     54  C   UNL A   1      42.651  29.198  34.372  1.00  0.00     0.049 A 
ATOM     55  H   UNL A   1      41.176  29.978  33.082  1.00  0.00     0.167 HD
ATOM     56  C   UNL A   1      42.953  27.913  32.273  1.00  0.00     0.074 A 
ATOM     57  C   UNL A   1      43.624  26.929  31.446  1.00  0.00     0.031 C 
ATOM     58  C   UNL A   1      43.296  28.205  33.551  1.00  0.00     0.034 A 
BRANCH  45  59
ATOM     59  C   UNL A   1      39.895  32.648  36.164  1.00  0.00     0.023 A 
ATOM     60  C   UNL A   1      40.538  33.895  36.306  1.00  0.00     0.012 A 
ATOM     61  C   UNL A   1      38.936  32.251  37.116  1.00  0.00     0.148 A 
ATOM     62  C   UNL A   1      40.241  34.729  37.382  1.00  0.00     0.002 A 
ATOM     63  C   UNL A   1      38.626  33.100  38.173  1.00  0.00     0.091 A 
ATOM     64  F   UNL A   1      38.343  31.059  36.965  1.00  0.00    -0.205 F 
ATOM     65  C   UNL A   1      39.280  34.337  38.309  1.00  0.00     0.022 A 
BRANCH  63  66
ATOM     66  S   UNL A   1      37.377  32.711  39.405  1.00  0.00     0.127 S 
ATOM     67  O   UNL A   1      37.563  33.799  40.364  1.00  0.00    -0.237 OA
ATOM     68  O   UNL A   1      36.142  32.791  38.624  1.00  0.00    -0.237 OA
ATOM     69  O   UNL A   1      37.703  31.383  39.904  1.00  0.00    -0.744 OA
ENDBRANCH  63  66
ENDBRANCH  45  59
BRANCH  46  70
ATOM     70  C   UNL A   1      41.322  27.240  27.899  1.00  0.00     0.023 A 
ATOM     71  C   UNL A   1      41.968  27.802  26.782  1.00  0.00     0.012 A 
ATOM     72  C   UNL A   1      40.959  25.880  27.882  1.00  0.00     0.148 A 
ATOM     73  C   UNL A   1      42.253  27.020  25.664  1.00  0.00     0.002 A 
ATOM     74  C   UNL A   1      41.277  25.099  26.779  1.00  0.00     0.091 A 
ATOM     75  F   UNL A   1      40.355  25.373  28.966  1.00  0.00    -0.205 F 
ATOM     76  C   UNL A   1      41.918  25.668  25.666  1.00  0.00     0.022 A 
BRANCH  74  77
ATOM     77  S   UNL A   1      40.979  23.329  26.725  1.00  0.00     0.127 S 
ATOM     78  O   UNL A   1      39.534  23.277  26.510  1.00  0.00    -0.237 OA
ATOM     79  O   UNL A   1      41.787  22.927  25.575  1.00  0.00    -0.237 OA
ATOM     80  O   UNL A   1      41.435  22.808  28.006  1.00  0.00    -0.744 OA
ENDBRANCH  74  77
ENDBRANCH  46  70
BRANCH  58  81
ATOM     81  C   UNL A   1      44.457  27.459  34.150  1.00  0.00     0.023 A 
ATOM     82  C   UNL A   1      45.765  27.943  33.954  1.00  0.00     0.012 A 
ATOM     83  C   UNL A   1      44.246  26.343  34.982  1.00  0.00     0.148 A 
ATOM     84  C   UNL A   1      46.850  27.318  34.569  1.00  0.00     0.002 A 
ATOM     85  C   UNL A   1      45.328  25.745  35.618  1.00  0.00     0.091 A 
ATOM     86  F   UNL A   1      42.993  25.895  35.144  1.00  0.00    -0.205 F 
ATOM     87  C   UNL A   1      46.631  26.228  35.408  1.00  0.00     0.022 A 
BRANCH  85  88
ATOM     88  S   UNL A   1      45.144  24.378  36.769  1.00  0.00     0.127 S 
ATOM     89  O   UNL A   1      44.701  23.302  35.885  1.00  0.00    -0.237 OA
ATOM     90  O   UNL A   1      46.504  24.224  37.285  1.00  0.00    -0.237 OA
ATOM     91  O   UNL A   1      44.164  24.811  37.757  1.00  0.00    -0.744 OA
ENDBRANCH  85  88
ENDBRANCH  58  81
ENDBRANCH  32  33
ENDBRANCH  25  27
ENDBRANCH  24  25
ENDBRANCH  23  24
ENDBRANCH  22  23
ENDBRANCH  21  22
ENDBRANCH   1  21
TORSDOF 21
ENDMDL
MODEL 3
REMARK VINA RESULT:     -10.1      1.941      2.769
REMARK SMILES C[C@H](NC(=O)CCn1ccccc1=O)C(=O)OCCOCCOC(=O)c1ccc(-c2c3nc(c(-c4cccc(S(=O)(=O)[O-])c4F)c4ccc([nH]4)c(-c4cccc(S(=O)(=O)[O-])c4F)c4nc(c(-c5cccc(S(=O)(=O)[O-])c5F)c5ccc2[nH]5)C=C4)C=C3)cc1
REMARK SMILES IDX 19 1 18 2 17 3 15 4 16 5 2 6 1 7 3 8 4 9 5 11 6 12 7 13 8 14
REMARK SMILES IDX 9 15 13 16 10 17 12 18 14 19 11 20 20 21 21 22 22 23 23 24
REMARK SMILES IDX 24 25 25 26 26 27 27 28 88 29 28 30 87 31 29 32 30 33 31 34
REMARK SMILES IDX 81 35 32 36 86 37 80 38 82 39 33 40 85 41 79 42 78 43 34 45
REMARK SMILES IDX 66 46 46 47 65 48 47 49 50 50 64 51 83 52 48 53 49 54 63 56
REMARK SMILES IDX 84 57 51 58 35 59 36 60 44 61 37 62 39 63 45 64 38 65 40 66
REMARK SMILES IDX 41 67 42 68 43 69 67 70 68 71 76 72 69 73 71 74 77 75 70 76
REMARK SMILES IDX 72 77 73 78 74 79 75 80 52 81 53 82 61 83 54 84 56 85 62 86
REMARK SMILES IDX 55 87 57 88 58 89 59 90 60 91
REMARK H PARENT 3 10 82 44 50 55
REMARK Flexibility Score: inf
ROOT
ATOM      1  C   UNL A   1      33.770  29.866  26.527  1.00  0.00     0.202 C 
ENDROOT
BRANCH   1   2
ATOM      2  C   UNL A   1      32.467  29.259  25.987  1.00  0.00     0.261 C 
BRANCH   2   3
ATOM      3  O   UNL A   1      32.322  27.851  25.693  1.00  0.00    -0.462 OA
BRANCH   3   4
ATOM      4  C   UNL A   1      31.412  27.128  26.385  1.00  0.00     0.328 C 
ATOM      5  O   UNL A   1      31.099  27.355  27.545  1.00  0.00    -0.250 OA
BRANCH   4   6
ATOM      6  C   UNL A   1      30.902  25.865  25.675  1.00  0.00     0.189 C 
ATOM      7  C   UNL A   1      29.960  26.045  24.493  1.00  0.00     0.043 C 
BRANCH   6   8
ATOM      8  N   UNL A   1      30.365  24.903  26.644  1.00  0.00    -0.343 N 
ATOM      9  C   UNL A   1      30.364  23.543  26.630  1.00  0.00     0.222 C 
ATOM     10  H   UNL A   1      29.936  25.308  27.432  1.00  0.00     0.164 HD
ATOM     11  O   UNL A   1      29.860  22.972  27.604  1.00  0.00    -0.275 OA
BRANCH   9  12
ATOM     12  C   UNL A   1      31.024  22.716  25.537  1.00  0.00     0.122 C 
BRANCH  12  13
ATOM     13  C   UNL A   1      32.363  22.044  25.859  1.00  0.00     0.135 C 
BRANCH  13  14
ATOM     14  N   UNL A   1      33.534  22.520  25.107  1.00  0.00    -0.315 N 
ATOM     15  C   UNL A   1      33.378  23.347  24.004  1.00  0.00     0.089 A 
ATOM     16  C   UNL A   1      34.807  22.120  25.544  1.00  0.00     0.250 A 
ATOM     17  C   UNL A   1      34.417  23.674  23.229  1.00  0.00     0.018 A 
ATOM     18  C   UNL A   1      35.934  22.411  24.615  1.00  0.00     0.072 A 
ATOM     19  O   UNL A   1      35.030  21.496  26.577  1.00  0.00    -0.269 OA
ATOM     20  C   UNL A   1      35.724  23.136  23.509  1.00  0.00     0.007 A 
ENDBRANCH  13  14
ENDBRANCH  12  13
ENDBRANCH   9  12
ENDBRANCH   6   8
ENDBRANCH   4   6
ENDBRANCH   3   4
ENDBRANCH   2   3
ENDBRANCH   1   2
BRANCH   1  21
ATOM     21  O   UNL A   1      33.750  31.018  27.352  1.00  0.00    -0.374 OA
BRANCH  21  22
ATOM     22  C   UNL A   1      32.612  31.862  27.433  1.00  0.00     0.202 C 
BRANCH  22  23
ATOM     23  C   UNL A   1      32.677  33.409  27.388  1.00  0.00     0.261 C 
BRANCH  23  24
ATOM     24  O   UNL A   1      32.350  34.116  28.592  1.00  0.00    -0.460 OA
BRANCH  24  25
ATOM     25  C   UNL A   1      33.311  34.966  29.044  1.00  0.00     0.338 C 
ATOM     26  O   UNL A   1      33.187  36.155  29.286  1.00  0.00    -0.246 OA
BRANCH  25  27
ATOM     27  C   UNL A   1      34.489  34.168  29.444  1.00  0.00     0.060 A 
ATOM     28  C   UNL A   1      35.726  34.342  28.824  1.00  0.00     0.016 A 
ATOM     29  C   UNL A   1      34.329  33.211  30.457  1.00  0.00     0.016 A 
ATOM     30  C   UNL A   1      36.813  33.565  29.238  1.00  0.00     0.010 A 
ATOM     31  C   UNL A   1      35.404  32.417  30.848  1.00  0.00     0.010 A 
ATOM     32  C   UNL A   1      36.660  32.606  30.257  1.00  0.00    -0.014 A 
BRANCH  32  33
ATOM     33  C   UNL A   1      37.846  31.942  30.844  1.00  0.00     0.031 A 
ATOM     34  C   UNL A   1      38.392  32.321  32.186  1.00  0.00     0.074 A 
ATOM     35  C   UNL A   1      38.460  31.001  30.103  1.00  0.00     0.049 A 
ATOM     36  N   UNL A   1      39.390  31.785  32.840  1.00  0.00    -0.248 NA
ATOM     37  C   UNL A   1      37.747  33.443  32.883  1.00  0.00     0.031 C 
ATOM     38  C   UNL A   1      38.049  30.602  28.755  1.00  0.00     0.029 A 
ATOM     39  N   UNL A   1      39.554  30.222  30.366  1.00  0.00    -0.354 N 
ATOM     40  C   UNL A   1      39.491  32.491  34.031  1.00  0.00     0.074 A 
ATOM     41  C   UNL A   1      38.467  33.517  33.997  1.00  0.00     0.031 C 
ATOM     42  C   UNL A   1      38.874  29.641  28.314  1.00  0.00     0.029 A 
ATOM     43  C   UNL A   1      39.875  29.368  29.340  1.00  0.00     0.049 A 
ATOM     44  H   UNL A   1      40.063  30.270  31.208  1.00  0.00     0.167 HD
ATOM     45  C   UNL A   1      40.341  32.281  35.065  1.00  0.00     0.034 A 
ATOM     46  C   UNL A   1      40.858  28.455  29.236  1.00  0.00     0.034 A 
ATOM     47  C   UNL A   1      41.361  31.264  35.084  1.00  0.00     0.049 A 
ATOM     48  C   UNL A   1      41.791  28.246  30.391  1.00  0.00     0.074 A 
ATOM     49  C   UNL A   1      42.244  30.953  36.104  1.00  0.00     0.029 A 
ATOM     50  N   UNL A   1      41.646  30.402  34.036  1.00  0.00    -0.354 N 
ATOM     51  N   UNL A   1      41.795  28.842  31.558  1.00  0.00    -0.248 NA
ATOM     52  C   UNL A   1      42.832  27.222  30.229  1.00  0.00     0.031 C 
ATOM     53  C   UNL A   1      43.071  29.913  35.667  1.00  0.00     0.029 A 
ATOM     54  C   UNL A   1      42.692  29.563  34.382  1.00  0.00     0.049 A 
ATOM     55  H   UNL A   1      41.173  30.388  33.172  1.00  0.00     0.167 HD
ATOM     56  C   UNL A   1      42.828  28.258  32.278  1.00  0.00     0.074 A 
ATOM     57  C   UNL A   1      43.416  27.246  31.422  1.00  0.00     0.031 C 
ATOM     58  C   UNL A   1      43.254  28.543  33.533  1.00  0.00     0.034 A 
BRANCH  45  59
ATOM     59  C   UNL A   1      40.164  33.118  36.302  1.00  0.00     0.023 A 
ATOM     60  C   UNL A   1      40.756  34.396  36.347  1.00  0.00     0.012 A 
ATOM     61  C   UNL A   1      39.339  32.699  37.364  1.00  0.00     0.148 A 
ATOM     62  C   UNL A   1      40.541  35.242  37.434  1.00  0.00     0.002 A 
ATOM     63  C   UNL A   1      39.108  33.558  38.433  1.00  0.00     0.091 A 
ATOM     64  F   UNL A   1      38.792  31.477  37.303  1.00  0.00    -0.205 F 
ATOM     65  C   UNL A   1      39.711  34.827  38.471  1.00  0.00     0.022 A 
BRANCH  63  66
ATOM     66  S   UNL A   1      38.025  33.141  39.806  1.00  0.00     0.127 S 
ATOM     67  O   UNL A   1      38.696  31.966  40.361  1.00  0.00    -0.237 OA
ATOM     68  O   UNL A   1      38.109  34.341  40.637  1.00  0.00    -0.237 OA
ATOM     69  O   UNL A   1      36.715  32.887  39.223  1.00  0.00    -0.744 OA
ENDBRANCH  63  66
ENDBRANCH  45  59
BRANCH  46  70
ATOM     70  C   UNL A   1      40.928  27.620  28.009  1.00  0.00     0.023 A 
ATOM     71  C   UNL A   1      41.587  28.127  26.874  1.00  0.00     0.012 A 
ATOM     72  C   UNL A   1      40.457  26.294  28.005  1.00  0.00     0.148 A 
ATOM     73  C   UNL A   1      41.780  27.324  25.751  1.00  0.00     0.002 A 
ATOM     74  C   UNL A   1      40.683  25.488  26.896  1.00  0.00     0.091 A 
ATOM     75  F   UNL A   1      39.843  25.838  29.106  1.00  0.00    -0.205 F 
ATOM     76  C   UNL A   1      41.338  26.004  25.766  1.00  0.00     0.022 A 
BRANCH  74  77
ATOM     77  S   UNL A   1      40.242  23.748  26.856  1.00  0.00     0.127 S 
ATOM     78  O   UNL A   1      38.853  23.803  26.405  1.00  0.00    -0.237 OA
ATOM     79  O   UNL A   1      41.189  23.226  25.870  1.00  0.00    -0.237 OA
ATOM     80  O   UNL A   1      40.436  23.255  28.212  1.00  0.00    -0.744 OA
ENDBRANCH  74  77
ENDBRANCH  46  70
BRANCH  58  81
ATOM     81  C   UNL A   1      44.420  27.760  34.070  1.00  0.00     0.023 A 
ATOM     82  C   UNL A   1      45.729  28.238  33.863  1.00  0.00     0.012 A 
ATOM     83  C   UNL A   1      44.216  26.611  34.859  1.00  0.00     0.148 A 
ATOM     84  C   UNL A   1      46.820  27.576  34.424  1.00  0.00     0.002 A 
ATOM     85  C   UNL A   1      45.306  25.975  35.442  1.00  0.00     0.091 A 
ATOM     86  F   UNL A   1      42.962  26.171  35.033  1.00  0.00    -0.205 F 
ATOM     87  C   UNL A   1      46.609  26.453  35.220  1.00  0.00     0.022 A 
BRANCH  85  88
ATOM     88  S   UNL A   1      45.134  24.562  36.537  1.00  0.00     0.127 S 
ATOM     89  O   UNL A   1      44.813  23.493  35.595  1.00  0.00    -0.237 OA
ATOM     90  O   UNL A   1      46.466  24.471  37.135  1.00  0.00    -0.237 OA
ATOM     91  O   UNL A   1      44.069  24.904  37.473  1.00  0.00    -0.744 OA
ENDBRANCH  85  88
ENDBRANCH  58  81
ENDBRANCH  32  33
ENDBRANCH  25  27
ENDBRANCH  24  25
ENDBRANCH  23  24
ENDBRANCH  22  23
ENDBRANCH  21  22
ENDBRANCH   1  21
TORSDOF 21
ENDMDL
