MODEL 1
REMARK VINA RESULT:      -9.6      0.000      0.000
REMARK SMILES CC[NH2+][C@@]1(C(=O)OCCOCCOC(=O)c2ccc(-c3c4nc(c(-c5cccc(S(=O)(=O)[O-])c5F)c5ccc([nH]5)c(-c5cccc(S(=O)(=O)[O-])c5F)c5nc(c(-c6cccc(S(=O)(=O)[O-])c6F)c6ccc3[nH]6)C=C5)C=C4)cc2)CC[C@@H](OCCOC)C1
REMARK SMILES IDX 9 1 8 2 7 3 5 4 6 5 4 6 79 7 87 8 80 9 81 10 3 11 2 14 1 15
REMARK SMILES IDX 82 16 83 17 84 18 85 19 86 20 10 21 11 22 12 23 13 24 14 25
REMARK SMILES IDX 15 26 16 27 17 28 78 29 18 30 77 31 19 32 20 33 21 34 71 35
REMARK SMILES IDX 22 36 76 37 70 38 72 39 23 40 75 41 69 42 68 43 24 45 56 46
REMARK SMILES IDX 36 47 55 48 37 49 40 50 54 51 73 52 38 53 39 54 53 56 74 57
REMARK SMILES IDX 41 58 25 59 26 60 34 61 27 62 29 63 35 64 28 65 30 66 31 67
REMARK SMILES IDX 32 68 33 69 57 70 58 71 66 72 59 73 61 74 67 75 60 76 62 77
REMARK SMILES IDX 63 78 64 79 65 80 42 81 43 82 51 83 44 84 46 85 52 86 45 87
REMARK SMILES IDX 47 88 48 89 49 90 50 91
REMARK H PARENT 3 12 3 13 72 44 40 55
REMARK Flexibility Score: inf
ROOT
ATOM      1  C   UNL A   1      33.330  20.967  24.009  1.00  0.00     0.202 C 
ENDROOT
BRANCH   1   2
ATOM      2  C   UNL A   1      33.348  22.497  23.909  1.00  0.00     0.261 C 
BRANCH   2   3
ATOM      3  O   UNL A   1      32.069  23.085  24.164  1.00  0.00    -0.459 OA
BRANCH   3   4
ATOM      4  C   UNL A   1      31.972  23.787  25.327  1.00  0.00     0.368 C 
ATOM      5  O   UNL A   1      32.220  23.321  26.436  1.00  0.00    -0.245 OA
BRANCH   4   6
ATOM      6  C   UNL A   1      31.494  25.257  25.107  1.00  0.00     0.196 C 
ATOM      7  C   UNL A   1      32.432  25.901  24.079  1.00  0.00     0.084 C 
ATOM      8  C   UNL A   1      31.702  26.197  26.310  1.00  0.00     0.113 C 
ATOM      9  C   UNL A   1      33.694  26.216  24.888  1.00  0.00     0.039 C 
ATOM     10  C   UNL A   1      33.206  26.490  26.322  1.00  0.00     0.125 C 
BRANCH   6  11
ATOM     11  N   UNL A   1      30.055  25.322  24.717  1.00  0.00    -0.332 N 
ATOM     12  H   UNL A   1      29.931  24.768  23.870  1.00  0.00     0.347 HD
ATOM     13  H   UNL A   1      29.525  24.964  25.512  1.00  0.00     0.347 HD
BRANCH  11  14
ATOM     14  C   UNL A   1      29.553  26.673  24.458  1.00  0.00     0.257 C 
ATOM     15  C   UNL A   1      28.176  26.611  23.809  1.00  0.00     0.071 C 
ENDBRANCH  11  14
ENDBRANCH   6  11
BRANCH  10  16
ATOM     16  O   UNL A   1      33.477  27.767  26.895  1.00  0.00    -0.376 OA
BRANCH  16  17
ATOM     17  C   UNL A   1      33.911  28.793  26.011  1.00  0.00     0.189 C 
BRANCH  17  18
ATOM     18  C   UNL A   1      33.632  30.204  26.552  1.00  0.00     0.188 C 
BRANCH  18  19
ATOM     19  O   UNL A   1      32.291  30.659  26.391  1.00  0.00    -0.382 OA
ATOM     20  C   UNL A   1      31.554  29.914  25.418  1.00  0.00     0.195 C 
ENDBRANCH  18  19
ENDBRANCH  17  18
ENDBRANCH  16  17
ENDBRANCH  10  16
ENDBRANCH   4   6
ENDBRANCH   3   4
ENDBRANCH   2   3
ENDBRANCH   1   2
BRANCH   1  21
ATOM     21  O   UNL A   1      34.296  20.339  24.845  1.00  0.00    -0.374 OA
BRANCH  21  22
ATOM     22  C   UNL A   1      35.436  21.101  25.251  1.00  0.00     0.202 C 
BRANCH  22  23
ATOM     23  C   UNL A   1      36.831  20.499  25.031  1.00  0.00     0.261 C 
BRANCH  23  24
ATOM     24  O   UNL A   1      37.881  21.485  25.037  1.00  0.00    -0.460 OA
BRANCH  24  25
ATOM     25  C   UNL A   1      38.948  21.169  25.814  1.00  0.00     0.338 C 
ATOM     26  O   UNL A   1      39.563  20.116  25.829  1.00  0.00    -0.246 OA
BRANCH  25  27
ATOM     27  C   UNL A   1      39.412  22.352  26.558  1.00  0.00     0.060 A 
ATOM     28  C   UNL A   1      38.902  23.604  26.185  1.00  0.00     0.016 A 
ATOM     29  C   UNL A   1      40.441  22.251  27.495  1.00  0.00     0.016 A 
ATOM     30  C   UNL A   1      39.458  24.769  26.711  1.00  0.00     0.010 A 
ATOM     31  C   UNL A   1      41.006  23.421  28.010  1.00  0.00     0.010 A 
ATOM     32  C   UNL A   1      40.547  24.683  27.587  1.00  0.00    -0.014 A 
BRANCH  32  33
ATOM     33  C   UNL A   1      41.325  25.895  27.933  1.00  0.00     0.031 A 
ATOM     34  C   UNL A   1      40.631  27.014  28.658  1.00  0.00     0.074 A 
ATOM     35  C   UNL A   1      42.613  26.016  27.568  1.00  0.00     0.049 A 
ATOM     36  N   UNL A   1      41.065  28.213  28.943  1.00  0.00    -0.248 NA
ATOM     37  C   UNL A   1      39.256  26.746  29.118  1.00  0.00     0.031 C 
ATOM     38  C   UNL A   1      43.395  24.991  26.881  1.00  0.00     0.029 A 
ATOM     39  N   UNL A   1      43.475  27.078  27.691  1.00  0.00    -0.354 N 
ATOM     40  C   UNL A   1      40.007  28.857  29.574  1.00  0.00     0.074 A 
ATOM     41  C   UNL A   1      38.911  27.916  29.635  1.00  0.00     0.031 C 
ATOM     42  C   UNL A   1      44.610  25.491  26.598  1.00  0.00     0.029 A 
ATOM     43  C   UNL A   1      44.678  26.878  27.055  1.00  0.00     0.049 A 
ATOM     44  H   UNL A   1      43.254  27.900  28.185  1.00  0.00     0.167 HD
ATOM     45  C   UNL A   1      39.956  30.119  30.061  1.00  0.00     0.034 A 
ATOM     46  C   UNL A   1      45.698  27.730  26.835  1.00  0.00     0.034 A 
ATOM     47  C   UNL A   1      41.057  31.042  30.018  1.00  0.00     0.049 A 
ATOM     48  C   UNL A   1      45.613  29.136  27.369  1.00  0.00     0.074 A 
ATOM     49  C   UNL A   1      41.121  32.328  30.524  1.00  0.00     0.029 A 
ATOM     50  N   UNL A   1      42.283  30.780  29.428  1.00  0.00    -0.354 N 
ATOM     51  N   UNL A   1      44.646  29.701  28.053  1.00  0.00    -0.248 NA
ATOM     52  C   UNL A   1      46.768  30.015  27.130  1.00  0.00     0.031 C 
ATOM     53  C   UNL A   1      42.382  32.851  30.223  1.00  0.00     0.029 A 
ATOM     54  C   UNL A   1      43.110  31.882  29.550  1.00  0.00     0.049 A 
ATOM     55  H   UNL A   1      42.529  29.935  28.987  1.00  0.00     0.167 HD
ATOM     56  C   UNL A   1      45.092  30.982  28.361  1.00  0.00     0.074 A 
ATOM     57  C   UNL A   1      46.419  31.110  27.793  1.00  0.00     0.031 C 
ATOM     58  C   UNL A   1      44.456  31.966  29.042  1.00  0.00     0.034 A 
BRANCH  45  59
ATOM     59  C   UNL A   1      38.670  30.570  30.700  1.00  0.00     0.023 A 
ATOM     60  C   UNL A   1      38.368  30.173  32.017  1.00  0.00     0.012 A 
ATOM     61  C   UNL A   1      37.783  31.422  30.013  1.00  0.00     0.148 A 
ATOM     62  C   UNL A   1      37.189  30.592  32.633  1.00  0.00     0.002 A 
ATOM     63  C   UNL A   1      36.629  31.868  30.647  1.00  0.00     0.091 A 
ATOM     64  F   UNL A   1      38.072  31.766  28.750  1.00  0.00    -0.205 F 
ATOM     65  C   UNL A   1      36.325  31.446  31.952  1.00  0.00     0.022 A 
BRANCH  63  66
ATOM     66  S   UNL A   1      35.496  33.029  29.874  1.00  0.00     0.127 S 
ATOM     67  O   UNL A   1      35.071  33.834  31.019  1.00  0.00    -0.237 OA
ATOM     68  O   UNL A   1      36.366  33.728  28.927  1.00  0.00    -0.237 OA
ATOM     69  O   UNL A   1      34.458  32.218  29.254  1.00  0.00    -0.744 OA
ENDBRANCH  63  66
ENDBRANCH  45  59
BRANCH  46  70
ATOM     70  C   UNL A   1      46.901  27.262  26.090  1.00  0.00     0.023 A 
ATOM     71  C   UNL A   1      46.992  27.492  24.705  1.00  0.00     0.012 A 
ATOM     72  C   UNL A   1      47.970  26.631  26.756  1.00  0.00     0.148 A 
ATOM     73  C   UNL A   1      48.119  27.083  23.991  1.00  0.00     0.002 A 
ATOM     74  C   UNL A   1      49.112  26.275  26.048  1.00  0.00     0.091 A 
ATOM     75  F   UNL A   1      47.854  26.405  28.072  1.00  0.00    -0.205 F 
ATOM     76  C   UNL A   1      49.183  26.486  24.662  1.00  0.00     0.022 A 
BRANCH  74  77
ATOM     77  S   UNL A   1      50.579  25.623  26.854  1.00  0.00     0.127 S 
ATOM     78  O   UNL A   1      50.064  24.407  27.475  1.00  0.00    -0.237 OA
ATOM     79  O   UNL A   1      51.474  25.404  25.717  1.00  0.00    -0.237 OA
ATOM     80  O   UNL A   1      51.020  26.666  27.771  1.00  0.00    -0.744 OA
ENDBRANCH  74  77
ENDBRANCH  46  70
BRANCH  58  81
ATOM     81  C   UNL A   1      45.192  33.259  29.274  1.00  0.00     0.023 A 
ATOM     82  C   UNL A   1      46.042  33.392  30.388  1.00  0.00     0.012 A 
ATOM     83  C   UNL A   1      45.129  34.295  28.320  1.00  0.00     0.148 A 
ATOM     84  C   UNL A   1      46.810  34.544  30.557  1.00  0.00     0.002 A 
ATOM     85  C   UNL A   1      45.931  35.419  28.471  1.00  0.00     0.091 A 
ATOM     86  F   UNL A   1      44.300  34.153  27.277  1.00  0.00    -0.205 F 
ATOM     87  C   UNL A   1      46.765  35.550  29.593  1.00  0.00     0.022 A 
BRANCH  85  88
ATOM     88  S   UNL A   1      46.012  36.719  27.232  1.00  0.00     0.127 S 
ATOM     89  O   UNL A   1      44.616  37.140  27.149  1.00  0.00    -0.237 OA
ATOM     90  O   UNL A   1      46.908  37.691  27.860  1.00  0.00    -0.237 OA
ATOM     91  O   UNL A   1      46.548  36.093  26.029  1.00  0.00    -0.744 OA
ENDBRANCH  85  88
ENDBRANCH  58  81
ENDBRANCH  32  33
ENDBRANCH  25  27
ENDBRANCH  24  25
ENDBRANCH  23  24
ENDBRANCH  22  23
ENDBRANCH  21  22
ENDBRANCH   1  21
TORSDOF 23
ENDMDL
MODEL 2
REMARK VINA RESULT:      -9.3      1.793      2.358
REMARK SMILES CC[NH2+][C@@]1(C(=O)OCCOCCOC(=O)c2ccc(-c3c4nc(c(-c5cccc(S(=O)(=O)[O-])c5F)c5ccc([nH]5)c(-c5cccc(S(=O)(=O)[O-])c5F)c5nc(c(-c6cccc(S(=O)(=O)[O-])c6F)c6ccc3[nH]6)C=C5)C=C4)cc2)CC[C@@H](OCCOC)C1
REMARK SMILES IDX 9 1 8 2 7 3 5 4 6 5 4 6 79 7 87 8 80 9 81 10 3 11 2 14 1 15
REMARK SMILES IDX 82 16 83 17 84 18 85 19 86 20 10 21 11 22 12 23 13 24 14 25
REMARK SMILES IDX 15 26 16 27 17 28 78 29 18 30 77 31 19 32 20 33 21 34 71 35
REMARK SMILES IDX 22 36 76 37 70 38 72 39 23 40 75 41 69 42 68 43 24 45 56 46
REMARK SMILES IDX 36 47 55 48 37 49 40 50 54 51 73 52 38 53 39 54 53 56 74 57
REMARK SMILES IDX 41 58 25 59 26 60 34 61 27 62 29 63 35 64 28 65 30 66 31 67
REMARK SMILES IDX 32 68 33 69 57 70 58 71 66 72 59 73 61 74 67 75 60 76 62 77
REMARK SMILES IDX 63 78 64 79 65 80 42 81 43 82 51 83 44 84 46 85 52 86 45 87
REMARK SMILES IDX 47 88 48 89 49 90 50 91
REMARK H PARENT 3 12 3 13 72 44 40 55
REMARK Flexibility Score: inf
ROOT
ATOM      1  C   UNL A   1      34.591  22.581  23.904  1.00  0.00     0.202 C 
ENDROOT
BRANCH   1   2
ATOM      2  C   UNL A   1      34.058  24.011  24.056  1.00  0.00     0.261 C 
BRANCH   2   3
ATOM      3  O   UNL A   1      33.181  24.160  25.176  1.00  0.00    -0.459 OA
BRANCH   3   4
ATOM      4  C   UNL A   1      31.966  24.708  24.896  1.00  0.00     0.368 C 
ATOM      5  O   UNL A   1      30.965  24.057  24.611  1.00  0.00    -0.245 OA
BRANCH   4   6
ATOM      6  C   UNL A   1      31.978  26.268  24.961  1.00  0.00     0.196 C 
ATOM      7  C   UNL A   1      30.580  26.725  25.397  1.00  0.00     0.084 C 
ATOM      8  C   UNL A   1      32.097  26.978  23.599  1.00  0.00     0.113 C 
ATOM      9  C   UNL A   1      29.740  26.582  24.124  1.00  0.00     0.039 C 
ATOM     10  C   UNL A   1      30.714  26.829  22.958  1.00  0.00     0.125 C 
BRANCH   6  11
ATOM     11  N   UNL A   1      33.069  26.780  25.843  1.00  0.00    -0.332 N 
ATOM     12  H   UNL A   1      33.475  25.986  26.338  1.00  0.00     0.347 HD
ATOM     13  H   UNL A   1      33.733  27.255  25.232  1.00  0.00     0.347 HD
BRANCH  11  14
ATOM     14  C   UNL A   1      32.640  27.766  26.836  1.00  0.00     0.257 C 
ATOM     15  C   UNL A   1      33.725  28.813  27.047  1.00  0.00     0.071 C 
ENDBRANCH  11  14
ENDBRANCH   6  11
BRANCH  10  16
ATOM     16  O   UNL A   1      30.441  27.909  22.068  1.00  0.00    -0.376 OA
BRANCH  16  17
ATOM     17  C   UNL A   1      30.234  29.190  22.650  1.00  0.00     0.189 C 
BRANCH  17  18
ATOM     18  C   UNL A   1      29.008  29.916  22.074  1.00  0.00     0.188 C 
BRANCH  18  19
ATOM     19  O   UNL A   1      27.938  30.117  22.993  1.00  0.00    -0.382 OA
ATOM     20  C   UNL A   1      27.763  31.486  23.367  1.00  0.00     0.195 C 
ENDBRANCH  18  19
ENDBRANCH  17  18
ENDBRANCH  16  17
ENDBRANCH  10  16
ENDBRANCH   4   6
ENDBRANCH   3   4
ENDBRANCH   2   3
ENDBRANCH   1   2
BRANCH   1  21
ATOM     21  O   UNL A   1      35.909  22.303  24.364  1.00  0.00    -0.374 OA
BRANCH  21  22
ATOM     22  C   UNL A   1      36.125  21.105  25.114  1.00  0.00     0.202 C 
BRANCH  22  23
ATOM     23  C   UNL A   1      37.517  20.460  25.073  1.00  0.00     0.261 C 
BRANCH  23  24
ATOM     24  O   UNL A   1      38.589  21.420  25.132  1.00  0.00    -0.460 OA
BRANCH  24  25
ATOM     25  C   UNL A   1      39.547  21.142  26.052  1.00  0.00     0.338 C 
ATOM     26  O   UNL A   1      40.152  20.093  26.191  1.00  0.00    -0.246 OA
BRANCH  25  27
ATOM     27  C   UNL A   1      39.915  22.358  26.797  1.00  0.00     0.060 A 
ATOM     28  C   UNL A   1      39.326  23.569  26.408  1.00  0.00     0.016 A 
ATOM     29  C   UNL A   1      40.931  22.332  27.752  1.00  0.00     0.016 A 
ATOM     30  C   UNL A   1      39.791  24.773  26.937  1.00  0.00     0.010 A 
ATOM     31  C   UNL A   1      41.405  23.540  28.271  1.00  0.00     0.010 A 
ATOM     32  C   UNL A   1      40.867  24.765  27.832  1.00  0.00    -0.014 A 
BRANCH  32  33
ATOM     33  C   UNL A   1      41.554  26.030  28.185  1.00  0.00     0.031 A 
ATOM     34  C   UNL A   1      40.757  27.123  28.840  1.00  0.00     0.074 A 
ATOM     35  C   UNL A   1      42.851  26.218  27.886  1.00  0.00     0.049 A 
ATOM     36  N   UNL A   1      41.105  28.353  29.113  1.00  0.00    -0.248 NA
ATOM     37  C   UNL A   1      39.378  26.786  29.233  1.00  0.00     0.031 C 
ATOM     38  C   UNL A   1      43.728  25.224  27.271  1.00  0.00     0.029 A 
ATOM     39  N   UNL A   1      43.643  27.332  28.025  1.00  0.00    -0.354 N 
ATOM     40  C   UNL A   1      39.979  28.950  29.668  1.00  0.00     0.074 A 
ATOM     41  C   UNL A   1      38.937  27.946  29.698  1.00  0.00     0.031 C 
ATOM     42  C   UNL A   1      44.926  25.788  27.039  1.00  0.00     0.029 A 
ATOM     43  C   UNL A   1      44.888  27.188  27.460  1.00  0.00     0.049 A 
ATOM     44  H   UNL A   1      43.347  28.151  28.483  1.00  0.00     0.167 HD
ATOM     45  C   UNL A   1      39.828  30.218  30.116  1.00  0.00     0.034 A 
ATOM     46  C   UNL A   1      45.867  28.093  27.270  1.00  0.00     0.034 A 
ATOM     47  C   UNL A   1      40.874  31.203  30.106  1.00  0.00     0.049 A 
ATOM     48  C   UNL A   1      45.672  29.504  27.759  1.00  0.00     0.074 A 
ATOM     49  C   UNL A   1      40.836  32.502  30.578  1.00  0.00     0.029 A 
ATOM     50  N   UNL A   1      42.144  31.000  29.590  1.00  0.00    -0.354 N 
ATOM     51  N   UNL A   1      44.638  30.028  28.374  1.00  0.00    -0.248 NA
ATOM     52  C   UNL A   1      46.786  30.444  27.558  1.00  0.00     0.031 C 
ATOM     53  C   UNL A   1      42.080  33.092  30.330  1.00  0.00     0.029 A 
ATOM     54  C   UNL A   1      42.899  32.151  29.725  1.00  0.00     0.049 A 
ATOM     55  H   UNL A   1      42.463  30.160  29.187  1.00  0.00     0.167 HD
ATOM     56  C   UNL A   1      44.991  31.341  28.669  1.00  0.00     0.074 A 
ATOM     57  C   UNL A   1      46.338  31.532  28.170  1.00  0.00     0.031 C 
ATOM     58  C   UNL A   1      44.263  32.302  29.287  1.00  0.00     0.034 A 
BRANCH  45  59
ATOM     59  C   UNL A   1      38.485  30.608  30.672  1.00  0.00     0.023 A 
ATOM     60  C   UNL A   1      38.147  30.254  31.993  1.00  0.00     0.012 A 
ATOM     61  C   UNL A   1      37.576  31.361  29.903  1.00  0.00     0.148 A 
ATOM     62  C   UNL A   1      36.914  30.618  32.532  1.00  0.00     0.002 A 
ATOM     63  C   UNL A   1      36.365  31.755  30.461  1.00  0.00     0.091 A 
ATOM     64  F   UNL A   1      37.903  31.663  28.639  1.00  0.00    -0.205 F 
ATOM     65  C   UNL A   1      36.028  31.377  31.771  1.00  0.00     0.022 A 
BRANCH  63  66
ATOM     66  S   UNL A   1      35.195  32.795  29.579  1.00  0.00     0.127 S 
ATOM     67  O   UNL A   1      35.939  34.049  29.470  1.00  0.00    -0.237 OA
ATOM     68  O   UNL A   1      35.028  32.074  28.316  1.00  0.00    -0.237 OA
ATOM     69  O   UNL A   1      34.000  32.841  30.410  1.00  0.00    -0.744 OA
ENDBRANCH  63  66
ENDBRANCH  45  59
BRANCH  46  70
ATOM     70  C   UNL A   1      47.134  27.679  26.605  1.00  0.00     0.023 A 
ATOM     71  C   UNL A   1      48.180  27.140  27.377  1.00  0.00     0.012 A 
ATOM     72  C   UNL A   1      47.290  27.778  25.208  1.00  0.00     0.148 A 
ATOM     73  C   UNL A   1      49.367  26.724  26.772  1.00  0.00     0.002 A 
ATOM     74  C   UNL A   1      48.453  27.312  24.606  1.00  0.00     0.091 A 
ATOM     75  F   UNL A   1      46.289  28.311  24.493  1.00  0.00    -0.205 F 
ATOM     76  C   UNL A   1      49.499  26.798  25.388  1.00  0.00     0.022 A 
BRANCH  74  77
ATOM     77  S   UNL A   1      48.654  27.247  22.822  1.00  0.00     0.127 S 
ATOM     78  O   UNL A   1      48.336  25.851  22.536  1.00  0.00    -0.237 OA
ATOM     79  O   UNL A   1      47.652  28.213  22.371  1.00  0.00    -0.237 OA
ATOM     80  O   UNL A   1      50.031  27.648  22.568  1.00  0.00    -0.744 OA
ENDBRANCH  74  77
ENDBRANCH  46  70
BRANCH  58  81
ATOM     81  C   UNL A   1      44.909  33.642  29.522  1.00  0.00     0.023 A 
ATOM     82  C   UNL A   1      45.723  33.840  30.653  1.00  0.00     0.012 A 
ATOM     83  C   UNL A   1      44.802  34.662  28.555  1.00  0.00     0.148 A 
ATOM     84  C   UNL A   1      46.411  35.041  30.826  1.00  0.00     0.002 A 
ATOM     85  C   UNL A   1      45.526  35.837  28.711  1.00  0.00     0.091 A 
ATOM     86  F   UNL A   1      44.008  34.457  27.495  1.00  0.00    -0.205 F 
ATOM     87  C   UNL A   1      46.324  36.032  29.851  1.00  0.00     0.022 A 
BRANCH  85  88
ATOM     88  S   UNL A   1      45.553  37.127  27.461  1.00  0.00     0.127 S 
ATOM     89  O   UNL A   1      44.165  37.130  27.004  1.00  0.00    -0.237 OA
ATOM     90  O   UNL A   1      45.943  38.305  28.237  1.00  0.00    -0.237 OA
ATOM     91  O   UNL A   1      46.535  36.706  26.469  1.00  0.00    -0.744 OA
ENDBRANCH  85  88
ENDBRANCH  58  81
ENDBRANCH  32  33
ENDBRANCH  25  27
ENDBRANCH  24  25
ENDBRANCH  23  24
ENDBRANCH  22  23
ENDBRANCH  21  22
ENDBRANCH   1  21
TORSDOF 23
ENDMDL
MODEL 3
REMARK VINA RESULT:      -8.9      2.289      8.101
REMARK SMILES CC[NH2+][C@@]1(C(=O)OCCOCCOC(=O)c2ccc(-c3c4nc(c(-c5cccc(S(=O)(=O)[O-])c5F)c5ccc([nH]5)c(-c5cccc(S(=O)(=O)[O-])c5F)c5nc(c(-c6cccc(S(=O)(=O)[O-])c6F)c6ccc3[nH]6)C=C5)C=C4)cc2)CC[C@@H](OCCOC)C1
REMARK SMILES IDX 9 1 8 2 7 3 5 4 6 5 4 6 79 7 87 8 80 9 81 10 3 11 2 14 1 15
REMARK SMILES IDX 82 16 83 17 84 18 85 19 86 20 10 21 11 22 12 23 13 24 14 25
REMARK SMILES IDX 15 26 16 27 17 28 78 29 18 30 77 31 19 32 20 33 21 34 71 35
REMARK SMILES IDX 22 36 76 37 70 38 72 39 23 40 75 41 69 42 68 43 24 45 56 46
REMARK SMILES IDX 36 47 55 48 37 49 40 50 54 51 73 52 38 53 39 54 53 56 74 57
REMARK SMILES IDX 41 58 25 59 26 60 34 61 27 62 29 63 35 64 28 65 30 66 31 67
REMARK SMILES IDX 32 68 33 69 57 70 58 71 66 72 59 73 61 74 67 75 60 76 62 77
REMARK SMILES IDX 63 78 64 79 65 80 42 81 43 82 51 83 44 84 46 85 52 86 45 87
REMARK SMILES IDX 47 88 48 89 49 90 50 91
REMARK H PARENT 3 12 3 13 72 44 40 55
REMARK Flexibility Score: inf
ROOT
ATOM      1  C   UNL A   1      35.582  23.125  24.803  1.00  0.00     0.202 C 
ENDROOT
BRANCH   1   2
ATOM      2  C   UNL A   1      34.912  23.139  23.423  1.00  0.00     0.261 C 
BRANCH   2   3
ATOM      3  O   UNL A   1      34.139  24.320  23.194  1.00  0.00    -0.459 OA
BRANCH   3   4
ATOM      4  C   UNL A   1      32.876  24.298  23.701  1.00  0.00     0.368 C 
ATOM      5  O   UNL A   1      32.129  23.323  23.648  1.00  0.00    -0.245 OA
BRANCH   4   6
ATOM      6  C   UNL A   1      32.461  25.655  24.352  1.00  0.00     0.196 C 
ATOM      7  C   UNL A   1      31.027  25.500  24.874  1.00  0.00     0.084 C 
ATOM      8  C   UNL A   1      32.280  26.824  23.365  1.00  0.00     0.113 C 
ATOM      9  C   UNL A   1      30.168  25.611  23.611  1.00  0.00     0.039 C 
ATOM     10  C   UNL A   1      30.949  26.540  22.662  1.00  0.00     0.125 C 
BRANCH   6  11
ATOM     11  N   UNL A   1      33.430  26.086  25.402  1.00  0.00    -0.332 N 
ATOM     12  H   UNL A   1      33.517  25.331  26.083  1.00  0.00     0.347 HD
ATOM     13  H   UNL A   1      34.304  26.295  24.919  1.00  0.00     0.347 HD
BRANCH  11  14
ATOM     14  C   UNL A   1      33.051  27.306  26.119  1.00  0.00     0.257 C 
ATOM     15  C   UNL A   1      33.875  28.488  25.628  1.00  0.00     0.071 C 
ENDBRANCH  11  14
ENDBRANCH   6  11
BRANCH  10  16
ATOM     16  O   UNL A   1      30.323  27.750  22.238  1.00  0.00    -0.376 OA
BRANCH  16  17
ATOM     17  C   UNL A   1      30.436  28.874  23.101  1.00  0.00     0.189 C 
BRANCH  17  18
ATOM     18  C   UNL A   1      29.451  29.999  22.747  1.00  0.00     0.188 C 
BRANCH  18  19
ATOM     19  O   UNL A   1      29.320  30.271  21.354  1.00  0.00    -0.382 OA
ATOM     20  C   UNL A   1      28.010  30.708  20.983  1.00  0.00     0.195 C 
ENDBRANCH  18  19
ENDBRANCH  17  18
ENDBRANCH  16  17
ENDBRANCH  10  16
ENDBRANCH   4   6
ENDBRANCH   3   4
ENDBRANCH   2   3
ENDBRANCH   1   2
BRANCH   1  21
ATOM     21  O   UNL A   1      35.687  21.880  25.485  1.00  0.00    -0.374 OA
BRANCH  21  22
ATOM     22  C   UNL A   1      36.217  20.760  24.770  1.00  0.00     0.202 C 
BRANCH  22  23
ATOM     23  C   UNL A   1      37.713  20.448  24.910  1.00  0.00     0.261 C 
BRANCH  23  24
ATOM     24  O   UNL A   1      38.227  20.712  26.229  1.00  0.00    -0.460 OA
BRANCH  24  25
ATOM     25  C   UNL A   1      39.561  20.955  26.277  1.00  0.00     0.338 C 
ATOM     26  O   UNL A   1      40.451  20.284  25.781  1.00  0.00    -0.246 OA
BRANCH  25  27
ATOM     27  C   UNL A   1      39.824  22.272  26.880  1.00  0.00     0.060 A 
ATOM     28  C   UNL A   1      39.083  23.368  26.415  1.00  0.00     0.016 A 
ATOM     29  C   UNL A   1      40.883  22.454  27.771  1.00  0.00     0.016 A 
ATOM     30  C   UNL A   1      39.433  24.661  26.799  1.00  0.00     0.010 A 
ATOM     31  C   UNL A   1      41.240  23.752  28.144  1.00  0.00     0.010 A 
ATOM     32  C   UNL A   1      40.546  24.861  27.625  1.00  0.00    -0.014 A 
BRANCH  32  33
ATOM     33  C   UNL A   1      41.100  26.222  27.815  1.00  0.00     0.031 A 
ATOM     34  C   UNL A   1      42.504  26.498  27.355  1.00  0.00     0.074 A 
ATOM     35  C   UNL A   1      40.383  27.180  28.429  1.00  0.00     0.049 A 
ATOM     36  N   UNL A   1      43.242  27.562  27.535  1.00  0.00    -0.248 NA
ATOM     37  C   UNL A   1      43.168  25.426  26.593  1.00  0.00     0.031 C 
ATOM     38  C   UNL A   1      39.008  27.034  28.898  1.00  0.00     0.029 A 
ATOM     39  N   UNL A   1      40.736  28.455  28.796  1.00  0.00    -0.354 N 
ATOM     40  C   UNL A   1      44.469  27.273  26.951  1.00  0.00     0.074 A 
ATOM     41  C   UNL A   1      44.377  25.936  26.405  1.00  0.00     0.031 C 
ATOM     42  C   UNL A   1      38.647  28.160  29.537  1.00  0.00     0.029 A 
ATOM     43  C   UNL A   1      39.775  29.090  29.548  1.00  0.00     0.049 A 
ATOM     44  H   UNL A   1      41.591  28.873  28.546  1.00  0.00     0.167 HD
ATOM     45  C   UNL A   1      45.573  28.053  26.873  1.00  0.00     0.034 A 
ATOM     46  C   UNL A   1      39.819  30.267  30.201  1.00  0.00     0.034 A 
ATOM     47  C   UNL A   1      45.650  29.389  27.396  1.00  0.00     0.049 A 
ATOM     48  C   UNL A   1      41.063  31.112  30.117  1.00  0.00     0.074 A 
ATOM     49  C   UNL A   1      46.708  30.278  27.329  1.00  0.00     0.029 A 
ATOM     50  N   UNL A   1      44.633  30.025  28.091  1.00  0.00    -0.354 N 
ATOM     51  N   UNL A   1      42.182  30.870  29.475  1.00  0.00    -0.248 NA
ATOM     52  C   UNL A   1      41.045  32.404  30.820  1.00  0.00     0.031 C 
ATOM     53  C   UNL A   1      46.335  31.447  28.001  1.00  0.00     0.029 A 
ATOM     54  C   UNL A   1      45.038  31.293  28.465  1.00  0.00     0.049 A 
ATOM     55  H   UNL A   1      43.752  29.631  28.289  1.00  0.00     0.167 HD
ATOM     56  C   UNL A   1      42.981  31.993  29.662  1.00  0.00     0.074 A 
ATOM     57  C   UNL A   1      42.217  32.919  30.472  1.00  0.00     0.031 C 
ATOM     58  C   UNL A   1      44.238  32.230  29.211  1.00  0.00     0.034 A 
BRANCH  45  59
ATOM     59  C   UNL A   1      46.783  27.485  26.180  1.00  0.00     0.023 A 
ATOM     60  C   UNL A   1      47.617  26.579  26.863  1.00  0.00     0.012 A 
ATOM     61  C   UNL A   1      47.068  27.814  24.841  1.00  0.00     0.148 A 
ATOM     62  C   UNL A   1      48.734  26.030  26.235  1.00  0.00     0.002 A 
ATOM     63  C   UNL A   1      48.160  27.232  24.207  1.00  0.00     0.091 A 
ATOM     64  F   UNL A   1      46.279  28.699  24.216  1.00  0.00    -0.205 F 
ATOM     65  C   UNL A   1      48.999  26.348  24.905  1.00  0.00     0.022 A 
BRANCH  63  66
ATOM     66  S   UNL A   1      48.535  27.526  22.475  1.00  0.00     0.127 S 
ATOM     67  O   UNL A   1      49.827  28.204  22.563  1.00  0.00    -0.237 OA
ATOM     68  O   UNL A   1      48.594  26.167  21.934  1.00  0.00    -0.237 OA
ATOM     69  O   UNL A   1      47.435  28.332  21.962  1.00  0.00    -0.744 OA
ENDBRANCH  63  66
ENDBRANCH  45  59
BRANCH  46  70
ATOM     70  C   UNL A   1      38.629  30.726  30.972  1.00  0.00     0.023 A 
ATOM     71  C   UNL A   1      38.595  30.546  32.367  1.00  0.00     0.012 A 
ATOM     72  C   UNL A   1      37.554  31.376  30.335  1.00  0.00     0.148 A 
ATOM     73  C   UNL A   1      37.502  30.988  33.113  1.00  0.00     0.002 A 
ATOM     74  C   UNL A   1      36.493  31.862  31.090  1.00  0.00     0.091 A 
ATOM     75  F   UNL A   1      37.598  31.520  29.003  1.00  0.00    -0.205 F 
ATOM     76  C   UNL A   1      36.457  31.656  32.478  1.00  0.00     0.022 A 
BRANCH  74  77
ATOM     77  S   UNL A   1      35.173  32.847  30.374  1.00  0.00     0.127 S 
ATOM     78  O   UNL A   1      34.321  33.094  31.534  1.00  0.00    -0.237 OA
ATOM     79  O   UNL A   1      35.903  34.017  29.884  1.00  0.00    -0.237 OA
ATOM     80  O   UNL A   1      34.591  32.022  29.325  1.00  0.00    -0.744 OA
ENDBRANCH  74  77
ENDBRANCH  46  70
BRANCH  58  81
ATOM     81  C   UNL A   1      44.864  33.563  29.524  1.00  0.00     0.023 A 
ATOM     82  C   UNL A   1      44.597  34.675  28.703  1.00  0.00     0.012 A 
ATOM     83  C   UNL A   1      45.620  33.734  30.702  1.00  0.00     0.148 A 
ATOM     84  C   UNL A   1      45.085  35.937  29.042  1.00  0.00     0.002 A 
ATOM     85  C   UNL A   1      46.065  35.002  31.056  1.00  0.00     0.091 A 
ATOM     86  F   UNL A   1      45.877  32.658  31.458  1.00  0.00    -0.205 F 
ATOM     87  C   UNL A   1      45.806  36.103  30.223  1.00  0.00     0.022 A 
BRANCH  85  88
ATOM     88  S   UNL A   1      46.914  35.328  32.606  1.00  0.00     0.127 S 
ATOM     89  O   UNL A   1      45.936  34.862  33.586  1.00  0.00    -0.237 OA
ATOM     90  O   UNL A   1      48.107  34.489  32.488  1.00  0.00    -0.237 OA
ATOM     91  O   UNL A   1      47.183  36.761  32.623  1.00  0.00    -0.744 OA
ENDBRANCH  85  88
ENDBRANCH  58  81
ENDBRANCH  32  33
ENDBRANCH  25  27
ENDBRANCH  24  25
ENDBRANCH  23  24
ENDBRANCH  22  23
ENDBRANCH  21  22
ENDBRANCH   1  21
TORSDOF 23
ENDMDL
