MODEL 1
REMARK VINA RESULT:     -11.7      0.000      0.000
REMARK SMILES O=C(OCCOCCOC(=O)[C@H]1CC=CC[C@@H]1C(=O)Nc1nn(Cc2ccccc2F)cc1Br)c1ccc(-c2c3nc(c(-c4cccc(S(=O)(=O)[O-])c4F)c4ccc([nH]4)c(-c4cccc(S(=O)(=O)[O-])c4F)c4nc(c(-c5cccc(S(=O)(=O)[O-])c5F)c5ccc2[nH]5)C=C4)C=C3)cc1
REMARK SMILES IDX 7 1 6 2 5 3 4 4 3 5 2 6 1 7 35 8 36 9 97 10 37 11 96 12
REMARK SMILES IDX 38 13 39 14 40 15 90 16 41 17 95 18 89 19 91 20 42 21 94 22
REMARK SMILES IDX 88 23 87 24 43 26 75 27 55 28 74 29 56 30 59 31 73 32 92 33
REMARK SMILES IDX 57 34 58 35 72 37 93 38 60 39 44 40 45 41 53 42 46 43 48 44
REMARK SMILES IDX 54 45 47 46 49 47 50 48 51 49 52 50 76 51 77 52 85 53 78 54
REMARK SMILES IDX 80 55 86 56 79 57 81 58 82 59 83 60 84 61 61 62 62 63 70 64
REMARK SMILES IDX 63 65 65 66 71 67 64 68 66 69 67 70 68 71 69 72 8 73 9 74
REMARK SMILES IDX 10 75 11 76 12 77 13 78 17 79 14 80 16 81 15 82 18 83 19 84
REMARK SMILES IDX 20 85 21 87 22 88 33 89 23 90 32 91 34 92 24 93 25 94 26 95
REMARK SMILES IDX 30 96 27 97 29 98 31 99 28 100
REMARK H PARENT 91 25 59 36 20 86
REMARK Flexibility Score: inf
ROOT
ATOM      1  C   UNL A   1      32.007  32.126  26.935  1.00  0.00     0.202 C 
ENDROOT
BRANCH   1   2
ATOM      2  O   UNL A   1      33.228  32.278  27.678  1.00  0.00    -0.374 OA
BRANCH   2   3
ATOM      3  C   UNL A   1      33.728  33.553  28.084  1.00  0.00     0.202 C 
BRANCH   3   4
ATOM      4  C   UNL A   1      34.073  33.891  29.553  1.00  0.00     0.261 C 
BRANCH   4   5
ATOM      5  O   UNL A   1      33.976  32.784  30.443  1.00  0.00    -0.460 OA
BRANCH   5   6
ATOM      6  C   UNL A   1      34.997  32.315  31.186  1.00  0.00     0.338 C 
ATOM      7  O   UNL A   1      34.955  32.402  32.405  1.00  0.00    -0.246 OA
BRANCH   6   8
ATOM      8  C   UNL A   1      36.123  31.591  30.527  1.00  0.00     0.060 A 
ATOM      9  C   UNL A   1      36.370  30.216  30.622  1.00  0.00     0.016 A 
ATOM     10  C   UNL A   1      37.008  32.392  29.798  1.00  0.00     0.016 A 
ATOM     11  C   UNL A   1      37.603  29.715  30.380  1.00  0.00     0.010 A 
ATOM     12  C   UNL A   1      38.230  31.878  29.444  1.00  0.00     0.010 A 
ATOM     13  C   UNL A   1      38.538  30.604  29.905  1.00  0.00    -0.014 A 
BRANCH  13  14
ATOM     14  C   UNL A   1      39.888  30.140  30.012  1.00  0.00     0.031 A 
ATOM     15  C   UNL A   1      40.459  30.385  31.360  1.00  0.00     0.074 A 
ATOM     16  C   UNL A   1      40.399  29.597  28.892  1.00  0.00     0.049 A 
ATOM     17  N   UNL A   1      41.542  31.017  31.674  1.00  0.00    -0.248 NA
ATOM     18  C   UNL A   1      39.588  30.084  32.515  1.00  0.00     0.031 C 
ATOM     19  C   UNL A   1      39.684  29.253  27.649  1.00  0.00     0.029 A 
ATOM     20  N   UNL A   1      41.601  29.013  28.705  1.00  0.00    -0.354 N 
ATOM     21  C   UNL A   1      41.607  30.936  33.064  1.00  0.00     0.074 A 
ATOM     22  C   UNL A   1      40.296  30.578  33.528  1.00  0.00     0.031 C 
ATOM     23  C   UNL A   1      40.314  28.213  27.067  1.00  0.00     0.029 A 
ATOM     24  C   UNL A   1      41.516  27.934  27.829  1.00  0.00     0.049 A 
ATOM     25  H   UNL A   1      42.434  29.313  29.134  1.00  0.00     0.167 HD
ATOM     26  C   UNL A   1      42.798  30.835  33.707  1.00  0.00     0.034 A 
ATOM     27  C   UNL A   1      42.262  26.805  27.911  1.00  0.00     0.034 A 
ATOM     28  C   UNL A   1      43.882  31.324  32.905  1.00  0.00     0.049 A 
ATOM     29  C   UNL A   1      43.410  27.113  28.810  1.00  0.00     0.074 A 
ATOM     30  C   UNL A   1      44.180  32.549  32.345  1.00  0.00     0.029 A 
ATOM     31  N   UNL A   1      44.624  30.393  32.219  1.00  0.00    -0.354 N 
ATOM     32  N   UNL A   1      44.320  28.009  28.537  1.00  0.00    -0.248 NA
ATOM     33  C   UNL A   1      43.256  26.792  30.224  1.00  0.00     0.031 C 
ATOM     34  C   UNL A   1      44.704  32.241  31.058  1.00  0.00     0.029 A 
ATOM     35  C   UNL A   1      44.771  30.851  30.935  1.00  0.00     0.049 A 
ATOM     36  H   UNL A   1      44.984  29.551  32.583  1.00  0.00     0.167 HD
ATOM     37  C   UNL A   1      44.538  28.670  29.742  1.00  0.00     0.074 A 
ATOM     38  C   UNL A   1      43.922  27.818  30.762  1.00  0.00     0.031 C 
ATOM     39  C   UNL A   1      44.899  29.988  29.780  1.00  0.00     0.034 A 
BRANCH  26  40
ATOM     40  C   UNL A   1      43.003  29.933  34.893  1.00  0.00     0.023 A 
ATOM     41  C   UNL A   1      43.731  30.433  35.988  1.00  0.00     0.012 A 
ATOM     42  C   UNL A   1      42.732  28.543  34.875  1.00  0.00     0.148 A 
ATOM     43  C   UNL A   1      44.175  29.586  37.010  1.00  0.00     0.002 A 
ATOM     44  C   UNL A   1      43.090  27.726  35.936  1.00  0.00     0.091 A 
ATOM     45  F   UNL A   1      42.255  27.967  33.767  1.00  0.00    -0.205 F 
ATOM     46  C   UNL A   1      43.839  28.236  36.994  1.00  0.00     0.022 A 
BRANCH  44  47
ATOM     47  S   UNL A   1      42.610  25.995  35.982  1.00  0.00     0.127 S 
ATOM     48  O   UNL A   1      42.831  25.664  37.383  1.00  0.00    -0.237 OA
ATOM     49  O   UNL A   1      41.208  26.062  35.570  1.00  0.00    -0.237 OA
ATOM     50  O   UNL A   1      43.479  25.331  35.013  1.00  0.00    -0.744 OA
ENDBRANCH  44  47
ENDBRANCH  26  40
BRANCH  27  51
ATOM     51  C   UNL A   1      41.802  25.416  27.657  1.00  0.00     0.023 A 
ATOM     52  C   UNL A   1      40.458  25.085  27.906  1.00  0.00     0.012 A 
ATOM     53  C   UNL A   1      42.594  24.483  26.943  1.00  0.00     0.148 A 
ATOM     54  C   UNL A   1      39.915  23.879  27.447  1.00  0.00     0.002 A 
ATOM     55  C   UNL A   1      42.055  23.279  26.502  1.00  0.00     0.091 A 
ATOM     56  F   UNL A   1      43.849  24.814  26.613  1.00  0.00    -0.205 F 
ATOM     57  C   UNL A   1      40.710  22.978  26.743  1.00  0.00     0.022 A 
BRANCH  55  58
ATOM     58  S   UNL A   1      43.016  22.078  25.566  1.00  0.00     0.127 S 
ATOM     59  O   UNL A   1      44.214  21.938  26.396  1.00  0.00    -0.237 OA
ATOM     60  O   UNL A   1      42.131  20.918  25.566  1.00  0.00    -0.237 OA
ATOM     61  O   UNL A   1      43.259  22.690  24.265  1.00  0.00    -0.744 OA
ENDBRANCH  55  58
ENDBRANCH  27  51
BRANCH  39  62
ATOM     62  C   UNL A   1      45.222  30.684  28.478  1.00  0.00     0.023 A 
ATOM     63  C   UNL A   1      44.227  31.243  27.645  1.00  0.00     0.012 A 
ATOM     64  C   UNL A   1      46.565  30.987  28.212  1.00  0.00     0.148 A 
ATOM     65  C   UNL A   1      44.565  32.067  26.567  1.00  0.00     0.002 A 
ATOM     66  C   UNL A   1      46.896  31.850  27.173  1.00  0.00     0.091 A 
ATOM     67  F   UNL A   1      47.503  30.459  29.014  1.00  0.00    -0.205 F 
ATOM     68  C   UNL A   1      45.900  32.385  26.342  1.00  0.00     0.022 A 
BRANCH  66  69
ATOM     69  S   UNL A   1      48.581  32.415  26.942  1.00  0.00     0.127 S 
ATOM     70  O   UNL A   1      48.895  32.984  28.250  1.00  0.00    -0.237 OA
ATOM     71  O   UNL A   1      49.292  31.174  26.627  1.00  0.00    -0.237 OA
ATOM     72  O   UNL A   1      48.534  33.365  25.835  1.00  0.00    -0.744 OA
ENDBRANCH  66  69
ENDBRANCH  39  62
ENDBRANCH  13  14
ENDBRANCH   6   8
ENDBRANCH   5   6
ENDBRANCH   4   5
ENDBRANCH   3   4
ENDBRANCH   2   3
ENDBRANCH   1   2
BRANCH   1  73
ATOM     73  C   UNL A   1      31.666  30.821  26.214  1.00  0.00     0.261 C 
BRANCH  73  74
ATOM     74  O   UNL A   1      32.408  29.715  26.741  1.00  0.00    -0.463 OA
BRANCH  74  75
ATOM     75  C   UNL A   1      31.684  28.583  26.866  1.00  0.00     0.310 C 
ATOM     76  O   UNL A   1      31.247  28.158  27.935  1.00  0.00    -0.252 OA
BRANCH  75  77
ATOM     77  C   UNL A   1      31.400  27.856  25.568  1.00  0.00     0.116 C 
ATOM     78  C   UNL A   1      32.240  28.013  24.302  1.00  0.00     0.043 C 
ATOM     79  C   UNL A   1      31.232  26.385  25.848  1.00  0.00     0.097 C 
ATOM     80  C   UNL A   1      33.556  27.316  24.389  1.00  0.00    -0.030 C 
ATOM     81  C   UNL A   1      32.648  25.795  26.145  1.00  0.00     0.041 C 
ATOM     82  C   UNL A   1      33.752  26.319  25.262  1.00  0.00    -0.030 C 
BRANCH  79  83
ATOM     83  C   UNL A   1      30.471  25.635  24.742  1.00  0.00     0.229 C 
ATOM     84  O   UNL A   1      29.640  26.243  24.050  1.00  0.00    -0.274 OA
ATOM     85  N   UNL A   1      30.799  24.387  24.289  1.00  0.00    -0.308 N 
ATOM     86  H   UNL A   1      30.450  24.223  23.383  1.00  0.00     0.171 HD
BRANCH  85  87
ATOM     87  C   UNL A   1      31.498  23.295  24.778  1.00  0.00     0.168 A 
ATOM     88  N   UNL A   1      32.677  22.827  24.341  1.00  0.00    -0.153 NA
ATOM     89  C   UNL A   1      31.145  22.602  25.962  1.00  0.00     0.080 A 
ATOM     90  N   UNL A   1      32.935  21.722  25.090  1.00  0.00    -0.265 N 
ATOM     91  C   UNL A   1      32.050  21.586  26.124  1.00  0.00     0.127 A 
ATOM     92  Br  UNL A   1      29.657  22.962  27.038  1.00  0.00    -0.045 Br
BRANCH  90  93
ATOM     93  C   UNL A   1      34.145  20.912  24.889  1.00  0.00     0.182 C 
BRANCH  93  94
ATOM     94  C   UNL A   1      33.868  19.493  24.459  1.00  0.00     0.009 A 
ATOM     95  C   UNL A   1      32.597  19.013  24.111  1.00  0.00     0.008 A 
ATOM     96  C   UNL A   1      34.913  18.580  24.469  1.00  0.00     0.128 A 
ATOM     97  C   UNL A   1      32.412  17.669  23.745  1.00  0.00     0.001 A 
ATOM     98  C   UNL A   1      34.741  17.254  24.089  1.00  0.00     0.039 A 
ATOM     99  F   UNL A   1      36.104  18.993  24.911  1.00  0.00    -0.207 F 
ATOM    100  C   UNL A   1      33.491  16.791  23.716  1.00  0.00     0.003 A 
ENDBRANCH  93  94
ENDBRANCH  90  93
ENDBRANCH  85  87
ENDBRANCH  79  83
ENDBRANCH  75  77
ENDBRANCH  74  75
ENDBRANCH  73  74
ENDBRANCH   1  73
TORSDOF 21
ENDMDL
MODEL 2
REMARK VINA RESULT:     -11.6      2.594      7.404
REMARK SMILES O=C(OCCOCCOC(=O)[C@H]1CC=CC[C@@H]1C(=O)Nc1nn(Cc2ccccc2F)cc1Br)c1ccc(-c2c3nc(c(-c4cccc(S(=O)(=O)[O-])c4F)c4ccc([nH]4)c(-c4cccc(S(=O)(=O)[O-])c4F)c4nc(c(-c5cccc(S(=O)(=O)[O-])c5F)c5ccc2[nH]5)C=C4)C=C3)cc1
REMARK SMILES IDX 7 1 6 2 5 3 4 4 3 5 2 6 1 7 35 8 36 9 97 10 37 11 96 12
REMARK SMILES IDX 38 13 39 14 40 15 90 16 41 17 95 18 89 19 91 20 42 21 94 22
REMARK SMILES IDX 88 23 87 24 43 26 75 27 55 28 74 29 56 30 59 31 73 32 92 33
REMARK SMILES IDX 57 34 58 35 72 37 93 38 60 39 44 40 45 41 53 42 46 43 48 44
REMARK SMILES IDX 54 45 47 46 49 47 50 48 51 49 52 50 76 51 77 52 85 53 78 54
REMARK SMILES IDX 80 55 86 56 79 57 81 58 82 59 83 60 84 61 61 62 62 63 70 64
REMARK SMILES IDX 63 65 65 66 71 67 64 68 66 69 67 70 68 71 69 72 8 73 9 74
REMARK SMILES IDX 10 75 11 76 12 77 13 78 17 79 14 80 16 81 15 82 18 83 19 84
REMARK SMILES IDX 20 85 21 87 22 88 33 89 23 90 32 91 34 92 24 93 25 94 26 95
REMARK SMILES IDX 30 96 27 97 29 98 31 99 28 100
REMARK H PARENT 91 25 59 36 20 86
REMARK Flexibility Score: inf
ROOT
ATOM      1  C   UNL A   1      33.207  32.309  27.589  1.00  0.00     0.202 C 
ENDROOT
BRANCH   1   2
ATOM      2  O   UNL A   1      34.020  32.894  28.620  1.00  0.00    -0.374 OA
BRANCH   2   3
ATOM      3  C   UNL A   1      35.243  33.576  28.341  1.00  0.00     0.202 C 
BRANCH   3   4
ATOM      4  C   UNL A   1      36.627  32.893  28.440  1.00  0.00     0.261 C 
BRANCH   4   5
ATOM      5  O   UNL A   1      36.634  31.530  28.031  1.00  0.00    -0.460 OA
BRANCH   5   6
ATOM      6  C   UNL A   1      36.701  30.483  28.876  1.00  0.00     0.338 C 
ATOM      7  O   UNL A   1      35.800  30.290  29.680  1.00  0.00    -0.246 OA
BRANCH   6   8
ATOM      8  C   UNL A   1      37.817  29.501  28.754  1.00  0.00     0.060 A 
ATOM      9  C   UNL A   1      38.092  28.469  29.659  1.00  0.00     0.016 A 
ATOM     10  C   UNL A   1      38.662  29.685  27.654  1.00  0.00     0.016 A 
ATOM     11  C   UNL A   1      39.326  27.918  29.727  1.00  0.00     0.010 A 
ATOM     12  C   UNL A   1      39.880  29.055  27.642  1.00  0.00     0.010 A 
ATOM     13  C   UNL A   1      40.227  28.325  28.772  1.00  0.00    -0.014 A 
BRANCH  13  14
ATOM     14  C   UNL A   1      41.588  28.016  29.089  1.00  0.00     0.031 A 
ATOM     15  C   UNL A   1      42.015  26.715  28.516  1.00  0.00     0.074 A 
ATOM     16  C   UNL A   1      42.221  28.926  29.853  1.00  0.00     0.049 A 
ATOM     17  N   UNL A   1      42.525  25.695  29.124  1.00  0.00    -0.248 NA
ATOM     18  C   UNL A   1      41.606  26.436  27.124  1.00  0.00     0.031 C 
ATOM     19  C   UNL A   1      41.748  30.270  30.233  1.00  0.00     0.029 A 
ATOM     20  N   UNL A   1      43.511  28.951  30.250  1.00  0.00    -0.354 N 
ATOM     21  C   UNL A   1      42.749  24.760  28.116  1.00  0.00     0.074 A 
ATOM     22  C   UNL A   1      41.963  25.162  26.983  1.00  0.00     0.031 C 
ATOM     23  C   UNL A   1      42.822  31.067  30.410  1.00  0.00     0.029 A 
ATOM     24  C   UNL A   1      44.012  30.249  30.282  1.00  0.00     0.049 A 
ATOM     25  H   UNL A   1      44.031  28.150  30.487  1.00  0.00     0.167 HD
ATOM     26  C   UNL A   1      43.814  23.919  28.160  1.00  0.00     0.034 A 
ATOM     27  C   UNL A   1      45.290  30.597  29.992  1.00  0.00     0.034 A 
ATOM     28  C   UNL A   1      44.311  23.757  29.496  1.00  0.00     0.049 A 
ATOM     29  C   UNL A   1      46.098  29.345  30.043  1.00  0.00     0.074 A 
ATOM     30  C   UNL A   1      43.764  23.279  30.669  1.00  0.00     0.029 A 
ATOM     31  N   UNL A   1      45.399  24.515  29.857  1.00  0.00    -0.354 N 
ATOM     32  N   UNL A   1      46.259  28.635  31.127  1.00  0.00    -0.248 NA
ATOM     33  C   UNL A   1      46.294  28.624  28.791  1.00  0.00     0.031 C 
ATOM     34  C   UNL A   1      44.251  24.156  31.680  1.00  0.00     0.029 A 
ATOM     35  C   UNL A   1      45.127  25.066  31.083  1.00  0.00     0.049 A 
ATOM     36  H   UNL A   1      46.222  24.641  29.331  1.00  0.00     0.167 HD
ATOM     37  C   UNL A   1      46.144  27.315  30.706  1.00  0.00     0.074 A 
ATOM     38  C   UNL A   1      46.256  27.368  29.247  1.00  0.00     0.031 C 
ATOM     39  C   UNL A   1      45.644  26.343  31.527  1.00  0.00     0.034 A 
BRANCH  26  40
ATOM     40  C   UNL A   1      44.623  23.572  26.941  1.00  0.00     0.023 A 
ATOM     41  C   UNL A   1      45.274  24.616  26.258  1.00  0.00     0.012 A 
ATOM     42  C   UNL A   1      44.564  22.313  26.295  1.00  0.00     0.148 A 
ATOM     43  C   UNL A   1      45.831  24.416  24.990  1.00  0.00     0.002 A 
ATOM     44  C   UNL A   1      45.201  22.094  25.084  1.00  0.00     0.091 A 
ATOM     45  F   UNL A   1      43.770  21.351  26.774  1.00  0.00    -0.205 F 
ATOM     46  C   UNL A   1      45.812  23.150  24.411  1.00  0.00     0.022 A 
BRANCH  44  47
ATOM     47  S   UNL A   1      45.258  20.459  24.343  1.00  0.00     0.127 S 
ATOM     48  O   UNL A   1      44.483  19.676  25.296  1.00  0.00    -0.237 OA
ATOM     49  O   UNL A   1      44.610  20.691  23.053  1.00  0.00    -0.237 OA
ATOM     50  O   UNL A   1      46.679  20.133  24.240  1.00  0.00    -0.744 OA
ENDBRANCH  44  47
ENDBRANCH  26  40
BRANCH  27  51
ATOM     51  C   UNL A   1      45.735  31.800  29.243  1.00  0.00     0.023 A 
ATOM     52  C   UNL A   1      46.954  32.408  29.591  1.00  0.00     0.012 A 
ATOM     53  C   UNL A   1      45.108  32.207  28.039  1.00  0.00     0.148 A 
ATOM     54  C   UNL A   1      47.539  33.373  28.763  1.00  0.00     0.002 A 
ATOM     55  C   UNL A   1      45.686  33.177  27.227  1.00  0.00     0.091 A 
ATOM     56  F   UNL A   1      43.995  31.578  27.640  1.00  0.00    -0.205 F 
ATOM     57  C   UNL A   1      46.910  33.756  27.581  1.00  0.00     0.022 A 
BRANCH  55  58
ATOM     58  S   UNL A   1      44.940  33.703  25.675  1.00  0.00     0.127 S 
ATOM     59  O   UNL A   1      46.013  34.503  25.081  1.00  0.00    -0.237 OA
ATOM     60  O   UNL A   1      44.691  32.427  25.013  1.00  0.00    -0.237 OA
ATOM     61  O   UNL A   1      43.756  34.469  26.043  1.00  0.00    -0.744 OA
ENDBRANCH  55  58
ENDBRANCH  27  51
BRANCH  39  62
ATOM     62  C   UNL A   1      45.367  26.692  32.972  1.00  0.00     0.023 A 
ATOM     63  C   UNL A   1      44.161  27.295  33.392  1.00  0.00     0.012 A 
ATOM     64  C   UNL A   1      46.239  26.186  33.946  1.00  0.00     0.148 A 
ATOM     65  C   UNL A   1      43.842  27.404  34.749  1.00  0.00     0.002 A 
ATOM     66  C   UNL A   1      45.894  26.247  35.292  1.00  0.00     0.091 A 
ATOM     67  F   UNL A   1      47.378  25.607  33.537  1.00  0.00    -0.205 F 
ATOM     68  C   UNL A   1      44.701  26.864  35.700  1.00  0.00     0.022 A 
BRANCH  66  69
ATOM     69  S   UNL A   1      46.888  25.426  36.539  1.00  0.00     0.127 S 
ATOM     70  O   UNL A   1      46.883  24.043  36.071  1.00  0.00    -0.237 OA
ATOM     71  O   UNL A   1      48.177  26.110  36.417  1.00  0.00    -0.237 OA
ATOM     72  O   UNL A   1      46.211  25.666  37.808  1.00  0.00    -0.744 OA
ENDBRANCH  66  69
ENDBRANCH  39  62
ENDBRANCH  13  14
ENDBRANCH   6   8
ENDBRANCH   5   6
ENDBRANCH   4   5
ENDBRANCH   3   4
ENDBRANCH   2   3
ENDBRANCH   1   2
BRANCH   1  73
ATOM     73  C   UNL A   1      33.254  30.810  27.287  1.00  0.00     0.261 C 
BRANCH  73  74
ATOM     74  O   UNL A   1      32.197  30.413  26.406  1.00  0.00    -0.463 OA
BRANCH  74  75
ATOM     75  C   UNL A   1      31.785  29.141  26.586  1.00  0.00     0.310 C 
ATOM     76  O   UNL A   1      31.701  28.592  27.683  1.00  0.00    -0.252 OA
BRANCH  75  77
ATOM     77  C   UNL A   1      31.384  28.411  25.320  1.00  0.00     0.116 C 
ATOM     78  C   UNL A   1      31.603  28.963  23.913  1.00  0.00     0.043 C 
ATOM     79  C   UNL A   1      31.919  27.003  25.368  1.00  0.00     0.097 C 
ATOM     80  C   UNL A   1      33.030  28.902  23.481  1.00  0.00    -0.030 C 
ATOM     81  C   UNL A   1      33.460  27.073  25.123  1.00  0.00     0.041 C 
ATOM     82  C   UNL A   1      33.890  28.056  24.063  1.00  0.00    -0.030 C 
BRANCH  79  83
ATOM     83  C   UNL A   1      31.186  26.039  24.419  1.00  0.00     0.229 C 
ATOM     84  O   UNL A   1      30.101  26.376  23.923  1.00  0.00    -0.274 OA
ATOM     85  N   UNL A   1      31.746  24.914  23.880  1.00  0.00    -0.308 N 
ATOM     86  H   UNL A   1      31.281  24.632  23.058  1.00  0.00     0.171 HD
BRANCH  85  87
ATOM     87  C   UNL A   1      32.799  24.069  24.193  1.00  0.00     0.168 A 
ATOM     88  N   UNL A   1      33.979  23.979  23.561  1.00  0.00    -0.153 NA
ATOM     89  C   UNL A   1      32.853  23.284  25.370  1.00  0.00     0.080 A 
ATOM     90  N   UNL A   1      34.660  22.987  24.193  1.00  0.00    -0.265 N 
ATOM     91  C   UNL A   1      34.028  22.578  25.335  1.00  0.00     0.127 A 
ATOM     92  Br  UNL A   1      31.513  23.169  26.671  1.00  0.00    -0.045 Br
BRANCH  90  93
ATOM     93  C   UNL A   1      36.006  22.575  23.768  1.00  0.00     0.182 C 
BRANCH  93  94
ATOM     94  C   UNL A   1      37.066  22.756  24.824  1.00  0.00     0.009 A 
ATOM     95  C   UNL A   1      37.289  23.958  25.512  1.00  0.00     0.008 A 
ATOM     96  C   UNL A   1      37.923  21.699  25.093  1.00  0.00     0.128 A 
ATOM     97  C   UNL A   1      38.315  24.059  26.467  1.00  0.00     0.001 A 
ATOM     98  C   UNL A   1      38.928  21.786  26.051  1.00  0.00     0.039 A 
ATOM     99  F   UNL A   1      37.800  20.588  24.363  1.00  0.00    -0.207 F 
ATOM    100  C   UNL A   1      39.126  22.964  26.750  1.00  0.00     0.003 A 
ENDBRANCH  93  94
ENDBRANCH  90  93
ENDBRANCH  85  87
ENDBRANCH  79  83
ENDBRANCH  75  77
ENDBRANCH  74  75
ENDBRANCH  73  74
ENDBRANCH   1  73
TORSDOF 21
ENDMDL
MODEL 3
REMARK VINA RESULT:     -11.5      2.174      7.307
REMARK SMILES O=C(OCCOCCOC(=O)[C@H]1CC=CC[C@@H]1C(=O)Nc1nn(Cc2ccccc2F)cc1Br)c1ccc(-c2c3nc(c(-c4cccc(S(=O)(=O)[O-])c4F)c4ccc([nH]4)c(-c4cccc(S(=O)(=O)[O-])c4F)c4nc(c(-c5cccc(S(=O)(=O)[O-])c5F)c5ccc2[nH]5)C=C4)C=C3)cc1
REMARK SMILES IDX 7 1 6 2 5 3 4 4 3 5 2 6 1 7 35 8 36 9 97 10 37 11 96 12
REMARK SMILES IDX 38 13 39 14 40 15 90 16 41 17 95 18 89 19 91 20 42 21 94 22
REMARK SMILES IDX 88 23 87 24 43 26 75 27 55 28 74 29 56 30 59 31 73 32 92 33
REMARK SMILES IDX 57 34 58 35 72 37 93 38 60 39 44 40 45 41 53 42 46 43 48 44
REMARK SMILES IDX 54 45 47 46 49 47 50 48 51 49 52 50 76 51 77 52 85 53 78 54
REMARK SMILES IDX 80 55 86 56 79 57 81 58 82 59 83 60 84 61 61 62 62 63 70 64
REMARK SMILES IDX 63 65 65 66 71 67 64 68 66 69 67 70 68 71 69 72 8 73 9 74
REMARK SMILES IDX 10 75 11 76 12 77 13 78 17 79 14 80 16 81 15 82 18 83 19 84
REMARK SMILES IDX 20 85 21 87 22 88 33 89 23 90 32 91 34 92 24 93 25 94 26 95
REMARK SMILES IDX 30 96 27 97 29 98 31 99 28 100
REMARK H PARENT 91 25 59 36 20 86
REMARK Flexibility Score: inf
ROOT
ATOM      1  C   UNL A   1      33.441  32.037  27.405  1.00  0.00     0.202 C 
ENDROOT
BRANCH   1   2
ATOM      2  O   UNL A   1      34.015  32.636  28.580  1.00  0.00    -0.374 OA
BRANCH   2   3
ATOM      3  C   UNL A   1      35.246  33.358  28.552  1.00  0.00     0.202 C 
BRANCH   3   4
ATOM      4  C   UNL A   1      36.614  32.697  28.844  1.00  0.00     0.261 C 
BRANCH   4   5
ATOM      5  O   UNL A   1      36.800  31.438  28.207  1.00  0.00    -0.460 OA
BRANCH   5   6
ATOM      6  C   UNL A   1      36.797  30.254  28.849  1.00  0.00     0.338 C 
ATOM      7  O   UNL A   1      35.867  29.965  29.589  1.00  0.00    -0.246 OA
BRANCH   6   8
ATOM      8  C   UNL A   1      37.868  29.255  28.569  1.00  0.00     0.060 A 
ATOM      9  C   UNL A   1      38.163  28.137  29.360  1.00  0.00     0.016 A 
ATOM     10  C   UNL A   1      38.650  29.512  27.438  1.00  0.00     0.016 A 
ATOM     11  C   UNL A   1      39.378  27.546  29.299  1.00  0.00     0.010 A 
ATOM     12  C   UNL A   1      39.843  28.851  27.292  1.00  0.00     0.010 A 
ATOM     13  C   UNL A   1      40.233  28.013  28.329  1.00  0.00    -0.014 A 
BRANCH  13  14
ATOM     14  C   UNL A   1      41.600  27.636  28.529  1.00  0.00     0.031 A 
ATOM     15  C   UNL A   1      41.886  26.272  28.020  1.00  0.00     0.074 A 
ATOM     16  C   UNL A   1      42.362  28.555  29.150  1.00  0.00     0.049 A 
ATOM     17  N   UNL A   1      42.396  25.267  28.651  1.00  0.00    -0.248 NA
ATOM     18  C   UNL A   1      41.315  25.921  26.703  1.00  0.00     0.031 C 
ATOM     19  C   UNL A   1      42.013  29.951  29.469  1.00  0.00     0.029 A 
ATOM     20  N   UNL A   1      43.686  28.522  29.410  1.00  0.00    -0.354 N 
ATOM     21  C   UNL A   1      42.456  24.248  27.702  1.00  0.00     0.074 A 
ATOM     22  C   UNL A   1      41.578  24.619  26.628  1.00  0.00     0.031 C 
ATOM     23  C   UNL A   1      43.144  30.685  29.472  1.00  0.00     0.029 A 
ATOM     24  C   UNL A   1      44.264  29.782  29.289  1.00  0.00     0.049 A 
ATOM     25  H   UNL A   1      44.181  27.707  29.656  1.00  0.00     0.167 HD
ATOM     26  C   UNL A   1      43.468  23.343  27.705  1.00  0.00     0.034 A 
ATOM     27  C   UNL A   1      45.522  30.022  28.845  1.00  0.00     0.034 A 
ATOM     28  C   UNL A   1      44.094  23.245  28.992  1.00  0.00     0.049 A 
ATOM     29  C   UNL A   1      46.256  28.727  28.912  1.00  0.00     0.074 A 
ATOM     30  C   UNL A   1      43.647  22.891  30.248  1.00  0.00     0.029 A 
ATOM     31  N   UNL A   1      45.256  23.953  29.179  1.00  0.00    -0.354 N 
ATOM     32  N   UNL A   1      46.490  28.087  30.026  1.00  0.00    -0.248 NA
ATOM     33  C   UNL A   1      46.275  27.905  27.707  1.00  0.00     0.031 C 
ATOM     34  C   UNL A   1      44.290  23.804  31.132  1.00  0.00     0.029 A 
ATOM     35  C   UNL A   1      45.150  24.608  30.379  1.00  0.00     0.049 A 
ATOM     36  H   UNL A   1      46.025  23.985  28.564  1.00  0.00     0.167 HD
ATOM     37  C   UNL A   1      46.252  26.750  29.724  1.00  0.00     0.074 A 
ATOM     38  C   UNL A   1      46.211  26.691  28.262  1.00  0.00     0.031 C 
ATOM     39  C   UNL A   1      45.786  25.876  30.666  1.00  0.00     0.034 A 
BRANCH  26  40
ATOM     40  C   UNL A   1      44.121  22.856  26.441  1.00  0.00     0.023 A 
ATOM     41  C   UNL A   1      44.662  23.813  25.563  1.00  0.00     0.012 A 
ATOM     42  C   UNL A   1      44.001  21.529  25.959  1.00  0.00     0.148 A 
ATOM     43  C   UNL A   1      45.056  23.464  24.265  1.00  0.00     0.002 A 
ATOM     44  C   UNL A   1      44.482  21.170  24.711  1.00  0.00     0.091 A 
ATOM     45  F   UNL A   1      43.290  20.629  26.645  1.00  0.00    -0.205 F 
ATOM     46  C   UNL A   1      44.984  22.140  23.845  1.00  0.00     0.022 A 
BRANCH  44  47
ATOM     47  S   UNL A   1      44.471  19.458  24.165  1.00  0.00     0.127 S 
ATOM     48  O   UNL A   1      43.222  18.974  24.738  1.00  0.00    -0.237 OA
ATOM     49  O   UNL A   1      44.473  19.607  22.710  1.00  0.00    -0.237 OA
ATOM     50  O   UNL A   1      45.699  18.877  24.702  1.00  0.00    -0.744 OA
ENDBRANCH  44  47
ENDBRANCH  26  40
BRANCH  27  51
ATOM     51  C   UNL A   1      45.955  31.135  27.962  1.00  0.00     0.023 A 
ATOM     52  C   UNL A   1      45.260  31.363  26.760  1.00  0.00     0.012 A 
ATOM     53  C   UNL A   1      46.872  32.124  28.397  1.00  0.00     0.148 A 
ATOM     54  C   UNL A   1      45.457  32.539  26.026  1.00  0.00     0.002 A 
ATOM     55  C   UNL A   1      47.075  33.284  27.657  1.00  0.00     0.091 A 
ATOM     56  F   UNL A   1      47.476  31.974  29.583  1.00  0.00    -0.205 F 
ATOM     57  C   UNL A   1      46.359  33.501  26.474  1.00  0.00     0.022 A 
BRANCH  55  58
ATOM     58  S   UNL A   1      48.207  34.579  28.188  1.00  0.00     0.127 S 
ATOM     59  O   UNL A   1      49.510  33.950  27.966  1.00  0.00    -0.237 OA
ATOM     60  O   UNL A   1      47.884  35.660  27.262  1.00  0.00    -0.237 OA
ATOM     61  O   UNL A   1      47.895  34.830  29.589  1.00  0.00    -0.744 OA
ENDBRANCH  55  58
ENDBRANCH  27  51
BRANCH  39  62
ATOM     62  C   UNL A   1      45.685  26.346  32.099  1.00  0.00     0.023 A 
ATOM     63  C   UNL A   1      46.809  26.448  32.949  1.00  0.00     0.012 A 
ATOM     64  C   UNL A   1      44.475  26.917  32.518  1.00  0.00     0.148 A 
ATOM     65  C   UNL A   1      46.723  27.090  34.188  1.00  0.00     0.002 A 
ATOM     66  C   UNL A   1      44.406  27.601  33.727  1.00  0.00     0.091 A 
ATOM     67  F   UNL A   1      43.415  26.823  31.701  1.00  0.00    -0.205 F 
ATOM     68  C   UNL A   1      45.525  27.682  34.570  1.00  0.00     0.022 A 
BRANCH  66  69
ATOM     69  S   UNL A   1      42.934  28.515  34.189  1.00  0.00     0.127 S 
ATOM     70  O   UNL A   1      41.917  27.467  34.205  1.00  0.00    -0.237 OA
ATOM     71  O   UNL A   1      43.289  29.045  35.507  1.00  0.00    -0.237 OA
ATOM     72  O   UNL A   1      42.767  29.542  33.166  1.00  0.00    -0.744 OA
ENDBRANCH  66  69
ENDBRANCH  39  62
ENDBRANCH  13  14
ENDBRANCH   6   8
ENDBRANCH   5   6
ENDBRANCH   4   5
ENDBRANCH   3   4
ENDBRANCH   2   3
ENDBRANCH   1   2
BRANCH   1  73
ATOM     73  C   UNL A   1      33.310  30.520  27.263  1.00  0.00     0.261 C 
BRANCH  73  74
ATOM     74  O   UNL A   1      32.334  30.163  26.278  1.00  0.00    -0.463 OA
BRANCH  74  75
ATOM     75  C   UNL A   1      31.758  28.961  26.491  1.00  0.00     0.310 C 
ATOM     76  O   UNL A   1      31.511  28.502  27.605  1.00  0.00    -0.252 OA
BRANCH  75  77
ATOM     77  C   UNL A   1      31.388  28.195  25.237  1.00  0.00     0.116 C 
ATOM     78  C   UNL A   1      32.085  28.378  23.891  1.00  0.00     0.043 C 
ATOM     79  C   UNL A   1      31.337  26.723  25.551  1.00  0.00     0.097 C 
ATOM     80  C   UNL A   1      33.443  27.759  23.852  1.00  0.00    -0.030 C 
ATOM     81  C   UNL A   1      32.808  26.220  25.710  1.00  0.00     0.041 C 
ATOM     82  C   UNL A   1      33.784  26.792  24.712  1.00  0.00    -0.030 C 
BRANCH  79  83
ATOM     83  C   UNL A   1      30.513  25.910  24.538  1.00  0.00     0.229 C 
ATOM     84  O   UNL A   1      29.662  26.483  23.841  1.00  0.00    -0.274 OA
ATOM     85  N   UNL A   1      30.800  24.626  24.163  1.00  0.00    -0.308 N 
ATOM     86  H   UNL A   1      30.407  24.404  23.288  1.00  0.00     0.171 HD
BRANCH  85  87
ATOM     87  C   UNL A   1      31.502  23.558  24.700  1.00  0.00     0.168 A 
ATOM     88  N   UNL A   1      32.686  23.080  24.288  1.00  0.00    -0.153 NA
ATOM     89  C   UNL A   1      31.148  22.913  25.909  1.00  0.00     0.080 A 
ATOM     90  N   UNL A   1      32.945  22.008  25.082  1.00  0.00    -0.265 N 
ATOM     91  C   UNL A   1      32.057  21.909  26.117  1.00  0.00     0.127 A 
ATOM     92  Br  UNL A   1      29.652  23.308  26.962  1.00  0.00    -0.045 Br
BRANCH  90  93
ATOM     93  C   UNL A   1      34.161  21.196  24.920  1.00  0.00     0.182 C 
BRANCH  93  94
ATOM     94  C   UNL A   1      33.897  19.780  24.474  1.00  0.00     0.009 A 
ATOM     95  C   UNL A   1      32.641  19.307  24.066  1.00  0.00     0.008 A 
ATOM     96  C   UNL A   1      34.935  18.862  24.531  1.00  0.00     0.128 A 
ATOM     97  C   UNL A   1      32.467  17.965  23.689  1.00  0.00     0.001 A 
ATOM     98  C   UNL A   1      34.775  17.537  24.140  1.00  0.00     0.039 A 
ATOM     99  F   UNL A   1      36.106  19.267  25.030  1.00  0.00    -0.207 F 
ATOM    100  C   UNL A   1      33.542  17.081  23.708  1.00  0.00     0.003 A 
ENDBRANCH  93  94
ENDBRANCH  90  93
ENDBRANCH  85  87
ENDBRANCH  79  83
ENDBRANCH  75  77
ENDBRANCH  74  75
ENDBRANCH  73  74
ENDBRANCH   1  73
TORSDOF 21
ENDMDL
