MODEL 1
REMARK VINA RESULT:     -10.6      0.000      0.000
REMARK SMILES C[NH+]1CCC([N@@H+](CC(=O)OCCOCCOC(=O)c2ccc(-c3c4nc(c(-c5cccc(S(=O)(=O)[O-])c5F)c5ccc([nH]5)c(-c5cccc(S(=O)(=O)[O-])c5F)c5nc(c(-c6cccc(S(=O)(=O)[O-])c6F)c6ccc3[nH]6)C=C5)C=C4)cc2)C(C)(C)C)CC1
REMARK SMILES IDX 14 1 13 2 12 3 11 4 10 5 8 6 9 7 7 8 6 9 5 11 1 12 2 13 3 14
REMARK SMILES IDX 87 15 4 17 86 18 82 19 83 20 84 21 85 22 15 23 16 24 17 25
REMARK SMILES IDX 18 26 19 27 20 28 81 29 21 30 80 31 22 32 23 33 24 34 74 35
REMARK SMILES IDX 25 36 79 37 73 38 75 39 26 40 78 41 72 42 71 43 27 45 59 46
REMARK SMILES IDX 39 47 58 48 40 49 43 50 57 51 76 52 41 53 42 54 56 56 77 57
REMARK SMILES IDX 44 58 28 59 29 60 37 61 30 62 32 63 38 64 31 65 33 66 34 67
REMARK SMILES IDX 35 68 36 69 60 70 61 71 69 72 62 73 64 74 70 75 63 76 65 77
REMARK SMILES IDX 66 78 67 79 68 80 45 81 46 82 54 83 47 84 49 85 55 86 48 87
REMARK SMILES IDX 50 88 51 89 52 90 53 91
REMARK H PARENT 6 10 2 16 75 44 43 55
REMARK Flexibility Score: inf
ROOT
ATOM      1  C   UNL A   1      32.978  29.703  25.137  1.00  0.00     0.202 C 
ENDROOT
BRANCH   1   2
ATOM      2  O   UNL A   1      32.894  28.281  25.197  1.00  0.00    -0.374 OA
BRANCH   2   3
ATOM      3  C   UNL A   1      31.638  27.763  25.644  1.00  0.00     0.202 C 
BRANCH   3   4
ATOM      4  C   UNL A   1      31.742  26.901  26.902  1.00  0.00     0.261 C 
BRANCH   4   5
ATOM      5  O   UNL A   1      32.245  25.591  26.562  1.00  0.00    -0.459 OA
BRANCH   5   6
ATOM      6  C   UNL A   1      31.393  24.580  26.283  1.00  0.00     0.361 C 
ATOM      7  O   UNL A   1      30.219  24.560  26.643  1.00  0.00    -0.245 OA
BRANCH   6   8
ATOM      8  C   UNL A   1      32.083  23.398  25.579  1.00  0.00     0.387 C 
BRANCH   8   9
ATOM      9  N   UNL A   1      33.487  23.563  25.112  1.00  0.00    -0.319 N 
ATOM     10  H   UNL A   1      33.859  24.429  25.503  1.00  0.00     0.349 HD
BRANCH   9  11
ATOM     11  C   UNL A   1      33.618  23.960  23.674  1.00  0.00     0.196 C 
ATOM     12  C   UNL A   1      32.533  25.426  19.722  1.00  0.00     0.332 C 
ATOM     13  N   UNL A   1      32.539  24.973  21.115  1.00  0.00    -0.337 N 
ATOM     14  C   UNL A   1      33.379  25.855  21.923  1.00  0.00     0.268 C 
ATOM     15  C   UNL A   1      33.046  23.601  21.206  1.00  0.00     0.268 C 
ATOM     16  H   UNL A   1      31.582  24.998  21.467  1.00  0.00     0.347 HD
ATOM     17  C   UNL A   1      33.356  25.453  23.395  1.00  0.00     0.126 C 
ATOM     18  C   UNL A   1      32.879  23.094  22.637  1.00  0.00     0.126 C 
ENDBRANCH   9  11
BRANCH   9  19
ATOM     19  C   UNL A   1      34.579  22.913  25.883  1.00  0.00     0.090 C 
ATOM     20  C   UNL A   1      34.896  21.529  25.310  1.00  0.00     0.078 C 
ATOM     21  C   UNL A   1      35.886  23.749  25.904  1.00  0.00     0.078 C 
ATOM     22  C   UNL A   1      34.244  22.725  27.391  1.00  0.00     0.078 C 
ENDBRANCH   9  19
ENDBRANCH   8   9
ENDBRANCH   6   8
ENDBRANCH   5   6
ENDBRANCH   4   5
ENDBRANCH   3   4
ENDBRANCH   2   3
ENDBRANCH   1   2
BRANCH   1  23
ATOM     23  C   UNL A   1      32.106  30.418  26.184  1.00  0.00     0.261 C 
BRANCH  23  24
ATOM     24  O   UNL A   1      32.769  30.533  27.460  1.00  0.00    -0.460 OA
BRANCH  24  25
ATOM     25  C   UNL A   1      33.557  31.626  27.601  1.00  0.00     0.338 C 
ATOM     26  O   UNL A   1      33.186  32.788  27.636  1.00  0.00    -0.246 OA
BRANCH  25  27
ATOM     27  C   UNL A   1      34.961  31.249  27.877  1.00  0.00     0.060 A 
ATOM     28  C   UNL A   1      35.213  29.889  28.092  1.00  0.00     0.016 A 
ATOM     29  C   UNL A   1      35.988  32.179  28.040  1.00  0.00     0.016 A 
ATOM     30  C   UNL A   1      36.460  29.465  28.552  1.00  0.00     0.010 A 
ATOM     31  C   UNL A   1      37.245  31.744  28.496  1.00  0.00     0.010 A 
ATOM     32  C   UNL A   1      37.483  30.389  28.805  1.00  0.00    -0.014 A 
BRANCH  32  33
ATOM     33  C   UNL A   1      38.724  29.928  29.501  1.00  0.00     0.031 A 
ATOM     34  C   UNL A   1      39.053  30.440  30.885  1.00  0.00     0.074 A 
ATOM     35  C   UNL A   1      39.536  29.001  28.950  1.00  0.00     0.049 A 
ATOM     36  N   UNL A   1      40.017  30.078  31.696  1.00  0.00    -0.248 NA
ATOM     37  C   UNL A   1      38.190  31.501  31.423  1.00  0.00     0.031 C 
ATOM     38  C   UNL A   1      39.380  28.426  27.616  1.00  0.00     0.029 A 
ATOM     39  N   UNL A   1      40.660  28.382  29.451  1.00  0.00    -0.354 N 
ATOM     40  C   UNL A   1      39.896  30.884  32.821  1.00  0.00     0.074 A 
ATOM     41  C   UNL A   1      38.784  31.778  32.574  1.00  0.00     0.031 C 
ATOM     42  C   UNL A   1      40.364  27.534  27.405  1.00  0.00     0.029 A 
ATOM     43  C   UNL A   1      41.233  27.485  28.580  1.00  0.00     0.049 A 
ATOM     44  H   UNL A   1      41.018  28.564  30.349  1.00  0.00     0.167 HD
ATOM     45  C   UNL A   1      40.614  30.873  33.971  1.00  0.00     0.034 A 
ATOM     46  C   UNL A   1      42.331  26.708  28.705  1.00  0.00     0.034 A 
ATOM     47  C   UNL A   1      41.698  29.971  34.253  1.00  0.00     0.049 A 
ATOM     48  C   UNL A   1      43.114  26.704  29.994  1.00  0.00     0.074 A 
ATOM     49  C   UNL A   1      42.425  29.841  35.424  1.00  0.00     0.029 A 
ATOM     50  N   UNL A   1      42.225  29.056  33.357  1.00  0.00    -0.354 N 
ATOM     51  N   UNL A   1      42.883  27.365  31.102  1.00  0.00    -0.248 NA
ATOM     52  C   UNL A   1      44.286  25.818  30.062  1.00  0.00     0.031 C 
ATOM     53  C   UNL A   1      43.417  28.876  35.223  1.00  0.00     0.029 A 
ATOM     54  C   UNL A   1      43.281  28.375  33.939  1.00  0.00     0.049 A 
ATOM     55  H   UNL A   1      41.897  28.912  32.440  1.00  0.00     0.167 HD
ATOM     56  C   UNL A   1      43.858  26.949  32.006  1.00  0.00     0.074 A 
ATOM     57  C   UNL A   1      44.670  25.964  31.324  1.00  0.00     0.031 C 
ATOM     58  C   UNL A   1      44.064  27.357  33.283  1.00  0.00     0.034 A 
BRANCH  45  59
ATOM     59  C   UNL A   1      40.226  31.868  35.037  1.00  0.00     0.023 A 
ATOM     60  C   UNL A   1      40.864  33.124  35.090  1.00  0.00     0.012 A 
ATOM     61  C   UNL A   1      39.208  31.571  35.965  1.00  0.00     0.148 A 
ATOM     62  C   UNL A   1      40.533  34.049  36.080  1.00  0.00     0.002 A 
ATOM     63  C   UNL A   1      38.849  32.518  36.918  1.00  0.00     0.091 A 
ATOM     64  F   UNL A   1      38.623  30.366  35.911  1.00  0.00    -0.205 F 
ATOM     65  C   UNL A   1      39.521  33.748  36.987  1.00  0.00     0.022 A 
BRANCH  63  66
ATOM     66  S   UNL A   1      37.500  32.257  38.075  1.00  0.00     0.127 S 
ATOM     67  O   UNL A   1      38.060  32.807  39.309  1.00  0.00    -0.237 OA
ATOM     68  O   UNL A   1      36.427  33.056  37.483  1.00  0.00    -0.237 OA
ATOM     69  O   UNL A   1      37.251  30.823  38.084  1.00  0.00    -0.744 OA
ENDBRANCH  63  66
ENDBRANCH  45  59
BRANCH  46  70
ATOM     70  C   UNL A   1      42.743  25.824  27.576  1.00  0.00     0.023 A 
ATOM     71  C   UNL A   1      43.665  26.290  26.619  1.00  0.00     0.012 A 
ATOM     72  C   UNL A   1      42.232  24.517  27.457  1.00  0.00     0.148 A 
ATOM     73  C   UNL A   1      44.047  25.482  25.546  1.00  0.00     0.002 A 
ATOM     74  C   UNL A   1      42.660  23.696  26.421  1.00  0.00     0.091 A 
ATOM     75  F   UNL A   1      41.345  24.098  28.372  1.00  0.00    -0.205 F 
ATOM     76  C   UNL A   1      43.554  24.183  25.454  1.00  0.00     0.022 A 
BRANCH  74  77
ATOM     77  S   UNL A   1      42.181  21.971  26.295  1.00  0.00     0.127 S 
ATOM     78  O   UNL A   1      42.533  21.464  27.620  1.00  0.00    -0.237 OA
ATOM     79  O   UNL A   1      40.745  22.079  26.036  1.00  0.00    -0.237 OA
ATOM     80  O   UNL A   1      42.953  21.424  25.188  1.00  0.00    -0.744 OA
ENDBRANCH  74  77
ENDBRANCH  46  70
BRANCH  58  81
ATOM     81  C   UNL A   1      45.191  26.724  34.064  1.00  0.00     0.023 A 
ATOM     82  C   UNL A   1      46.480  27.294  34.032  1.00  0.00     0.012 A 
ATOM     83  C   UNL A   1      44.951  25.613  34.898  1.00  0.00     0.148 A 
ATOM     84  C   UNL A   1      47.517  26.751  34.792  1.00  0.00     0.002 A 
ATOM     85  C   UNL A   1      45.977  25.108  35.691  1.00  0.00     0.091 A 
ATOM     86  F   UNL A   1      43.725  25.071  34.906  1.00  0.00    -0.205 F 
ATOM     87  C   UNL A   1      47.263  25.667  35.630  1.00  0.00     0.022 A 
BRANCH  85  88
ATOM     88  S   UNL A   1      45.720  23.778  36.873  1.00  0.00     0.127 S 
ATOM     89  O   UNL A   1      47.069  23.587  37.405  1.00  0.00    -0.237 OA
ATOM     90  O   UNL A   1      44.773  24.379  37.814  1.00  0.00    -0.237 OA
ATOM     91  O   UNL A   1      45.186  22.659  36.110  1.00  0.00    -0.744 OA
ENDBRANCH  85  88
ENDBRANCH  58  81
ENDBRANCH  32  33
ENDBRANCH  25  27
ENDBRANCH  24  25
ENDBRANCH  23  24
ENDBRANCH   1  23
TORSDOF 20
ENDMDL
MODEL 2
REMARK VINA RESULT:     -10.5      1.574      2.451
REMARK SMILES C[NH+]1CCC([N@@H+](CC(=O)OCCOCCOC(=O)c2ccc(-c3c4nc(c(-c5cccc(S(=O)(=O)[O-])c5F)c5ccc([nH]5)c(-c5cccc(S(=O)(=O)[O-])c5F)c5nc(c(-c6cccc(S(=O)(=O)[O-])c6F)c6ccc3[nH]6)C=C5)C=C4)cc2)C(C)(C)C)CC1
REMARK SMILES IDX 14 1 13 2 12 3 11 4 10 5 8 6 9 7 7 8 6 9 5 11 1 12 2 13 3 14
REMARK SMILES IDX 87 15 4 17 86 18 82 19 83 20 84 21 85 22 15 23 16 24 17 25
REMARK SMILES IDX 18 26 19 27 20 28 81 29 21 30 80 31 22 32 23 33 24 34 74 35
REMARK SMILES IDX 25 36 79 37 73 38 75 39 26 40 78 41 72 42 71 43 27 45 59 46
REMARK SMILES IDX 39 47 58 48 40 49 43 50 57 51 76 52 41 53 42 54 56 56 77 57
REMARK SMILES IDX 44 58 28 59 29 60 37 61 30 62 32 63 38 64 31 65 33 66 34 67
REMARK SMILES IDX 35 68 36 69 60 70 61 71 69 72 62 73 64 74 70 75 63 76 65 77
REMARK SMILES IDX 66 78 67 79 68 80 45 81 46 82 54 83 47 84 49 85 55 86 48 87
REMARK SMILES IDX 50 88 51 89 52 90 53 91
REMARK H PARENT 6 10 2 16 75 44 43 55
REMARK Flexibility Score: inf
ROOT
ATOM      1  C   UNL A   1      31.987  29.145  24.994  1.00  0.00     0.202 C 
ENDROOT
BRANCH   1   2
ATOM      2  O   UNL A   1      31.516  27.964  25.639  1.00  0.00    -0.374 OA
BRANCH   2   3
ATOM      3  C   UNL A   1      30.472  27.269  24.952  1.00  0.00     0.202 C 
BRANCH   3   4
ATOM      4  C   UNL A   1      30.279  25.827  25.423  1.00  0.00     0.261 C 
BRANCH   4   5
ATOM      5  O   UNL A   1      31.302  25.480  26.381  1.00  0.00    -0.459 OA
BRANCH   5   6
ATOM      6  C   UNL A   1      31.530  24.187  26.701  1.00  0.00     0.361 C 
ATOM      7  O   UNL A   1      30.790  23.522  27.420  1.00  0.00    -0.245 OA
BRANCH   6   8
ATOM      8  C   UNL A   1      32.884  23.676  26.177  1.00  0.00     0.387 C 
BRANCH   8   9
ATOM      9  N   UNL A   1      32.960  23.139  24.790  1.00  0.00    -0.319 N 
ATOM     10  H   UNL A   1      32.167  23.501  24.259  1.00  0.00     0.349 HD
BRANCH   9  11
ATOM     11  C   UNL A   1      32.596  21.691  24.667  1.00  0.00     0.196 C 
ATOM     12  C   UNL A   1      33.018  17.414  23.985  1.00  0.00     0.332 C 
ATOM     13  N   UNL A   1      33.226  18.858  24.108  1.00  0.00    -0.337 N 
ATOM     14  C   UNL A   1      33.029  19.274  25.494  1.00  0.00     0.268 C 
ATOM     15  C   UNL A   1      32.293  19.587  23.244  1.00  0.00     0.268 C 
ATOM     16  H   UNL A   1      34.181  19.072  23.821  1.00  0.00     0.347 HD
ATOM     17  C   UNL A   1      33.305  20.765  25.675  1.00  0.00     0.126 C 
ATOM     18  C   UNL A   1      32.647  21.073  23.258  1.00  0.00     0.126 C 
ENDBRANCH   9  11
BRANCH   9  19
ATOM     19  C   UNL A   1      33.782  23.863  23.785  1.00  0.00     0.090 C 
ATOM     20  C   UNL A   1      33.857  25.354  24.121  1.00  0.00     0.078 C 
ATOM     21  C   UNL A   1      35.226  23.309  23.673  1.00  0.00     0.078 C 
ATOM     22  C   UNL A   1      33.232  23.741  22.334  1.00  0.00     0.078 C 
ENDBRANCH   9  19
ENDBRANCH   8   9
ENDBRANCH   6   8
ENDBRANCH   5   6
ENDBRANCH   4   5
ENDBRANCH   3   4
ENDBRANCH   2   3
ENDBRANCH   1   2
BRANCH   1  23
ATOM     23  C   UNL A   1      31.772  30.426  25.819  1.00  0.00     0.261 C 
BRANCH  23  24
ATOM     24  O   UNL A   1      32.502  30.401  27.063  1.00  0.00    -0.460 OA
BRANCH  24  25
ATOM     25  C   UNL A   1      33.189  31.533  27.348  1.00  0.00     0.338 C 
ATOM     26  O   UNL A   1      32.725  32.656  27.458  1.00  0.00    -0.246 OA
BRANCH  25  27
ATOM     27  C   UNL A   1      34.601  31.239  27.680  1.00  0.00     0.060 A 
ATOM     28  C   UNL A   1      34.940  29.890  27.834  1.00  0.00     0.016 A 
ATOM     29  C   UNL A   1      35.548  32.228  27.952  1.00  0.00     0.016 A 
ATOM     30  C   UNL A   1      36.189  29.527  28.338  1.00  0.00     0.010 A 
ATOM     31  C   UNL A   1      36.808  31.855  28.452  1.00  0.00     0.010 A 
ATOM     32  C   UNL A   1      37.128  30.504  28.698  1.00  0.00    -0.014 A 
BRANCH  32  33
ATOM     33  C   UNL A   1      38.362  30.090  29.436  1.00  0.00     0.031 A 
ATOM     34  C   UNL A   1      38.565  30.515  30.872  1.00  0.00     0.074 A 
ATOM     35  C   UNL A   1      39.280  29.279  28.870  1.00  0.00     0.049 A 
ATOM     36  N   UNL A   1      39.509  30.167  31.714  1.00  0.00    -0.248 NA
ATOM     37  C   UNL A   1      37.586  31.457  31.432  1.00  0.00     0.031 C 
ATOM     38  C   UNL A   1      39.250  28.801  27.490  1.00  0.00     0.029 A 
ATOM     39  N   UNL A   1      40.422  28.714  29.393  1.00  0.00    -0.354 N 
ATOM     40  C   UNL A   1      39.255  30.869  32.887  1.00  0.00     0.074 A 
ATOM     41  C   UNL A   1      38.087  31.688  32.637  1.00  0.00     0.031 C 
ATOM     42  C   UNL A   1      40.317  28.012  27.276  1.00  0.00     0.029 A 
ATOM     43  C   UNL A   1      41.119  27.938  28.496  1.00  0.00     0.049 A 
ATOM     44  H   UNL A   1      40.711  28.852  30.324  1.00  0.00     0.167 HD
ATOM     45  C   UNL A   1      39.904  30.824  34.076  1.00  0.00     0.034 A 
ATOM     46  C   UNL A   1      42.270  27.245  28.633  1.00  0.00     0.034 A 
ATOM     47  C   UNL A   1      41.043  29.992  34.358  1.00  0.00     0.049 A 
ATOM     48  C   UNL A   1      42.974  27.202  29.965  1.00  0.00     0.074 A 
ATOM     49  C   UNL A   1      41.710  29.828  35.561  1.00  0.00     0.029 A 
ATOM     50  N   UNL A   1      41.696  29.197  33.431  1.00  0.00    -0.354 N 
ATOM     51  N   UNL A   1      42.625  27.751  31.103  1.00  0.00    -0.248 NA
ATOM     52  C   UNL A   1      44.213  26.409  30.042  1.00  0.00     0.031 C 
ATOM     53  C   UNL A   1      42.790  28.965  35.351  1.00  0.00     0.029 A 
ATOM     54  C   UNL A   1      42.771  28.559  34.027  1.00  0.00     0.049 A 
ATOM     55  H   UNL A   1      41.435  29.101  32.487  1.00  0.00     0.167 HD
ATOM     56  C   UNL A   1      43.578  27.344  32.034  1.00  0.00     0.074 A 
ATOM     57  C   UNL A   1      44.509  26.485  31.333  1.00  0.00     0.031 C 
ATOM     58  C   UNL A   1      43.675  27.663  33.348  1.00  0.00     0.034 A 
BRANCH  45  59
ATOM     59  C   UNL A   1      39.372  31.695  35.187  1.00  0.00     0.023 A 
ATOM     60  C   UNL A   1      38.415  31.181  36.085  1.00  0.00     0.012 A 
ATOM     61  C   UNL A   1      39.845  33.011  35.361  1.00  0.00     0.148 A 
ATOM     62  C   UNL A   1      37.897  31.978  37.106  1.00  0.00     0.002 A 
ATOM     63  C   UNL A   1      39.361  33.783  36.411  1.00  0.00     0.091 A 
ATOM     64  F   UNL A   1      40.744  33.490  34.490  1.00  0.00    -0.205 F 
ATOM     65  C   UNL A   1      38.376  33.274  37.273  1.00  0.00     0.022 A 
BRANCH  63  66
ATOM     66  S   UNL A   1      39.978  35.433  36.761  1.00  0.00     0.127 S 
ATOM     67  O   UNL A   1      39.423  36.197  35.646  1.00  0.00    -0.237 OA
ATOM     68  O   UNL A   1      39.370  35.721  38.060  1.00  0.00    -0.237 OA
ATOM     69  O   UNL A   1      41.430  35.321  36.785  1.00  0.00    -0.744 OA
ENDBRANCH  63  66
ENDBRANCH  45  59
BRANCH  46  70
ATOM     70  C   UNL A   1      42.820  26.490  27.470  1.00  0.00     0.023 A 
ATOM     71  C   UNL A   1      43.720  27.118  26.587  1.00  0.00     0.012 A 
ATOM     72  C   UNL A   1      42.462  25.147  27.244  1.00  0.00     0.148 A 
ATOM     73  C   UNL A   1      44.230  26.432  25.483  1.00  0.00     0.002 A 
ATOM     74  C   UNL A   1      43.017  24.451  26.178  1.00  0.00     0.091 A 
ATOM     75  F   UNL A   1      41.593  24.573  28.089  1.00  0.00    -0.205 F 
ATOM     76  C   UNL A   1      43.888  25.096  25.286  1.00  0.00     0.022 A 
BRANCH  74  77
ATOM     77  S   UNL A   1      42.737  22.696  25.920  1.00  0.00     0.127 S 
ATOM     78  O   UNL A   1      43.330  22.490  24.600  1.00  0.00    -0.237 OA
ATOM     79  O   UNL A   1      43.484  22.109  27.032  1.00  0.00    -0.237 OA
ATOM     80  O   UNL A   1      41.295  22.509  25.996  1.00  0.00    -0.744 OA
ENDBRANCH  74  77
ENDBRANCH  46  70
BRANCH  58  81
ATOM     81  C   UNL A   1      44.805  27.063  34.150  1.00  0.00     0.023 A 
ATOM     82  C   UNL A   1      46.063  27.698  34.183  1.00  0.00     0.012 A 
ATOM     83  C   UNL A   1      44.594  25.914  34.940  1.00  0.00     0.148 A 
ATOM     84  C   UNL A   1      47.100  27.183  34.963  1.00  0.00     0.002 A 
ATOM     85  C   UNL A   1      45.616  25.436  35.754  1.00  0.00     0.091 A 
ATOM     86  F   UNL A   1      43.398  25.311  34.885  1.00  0.00    -0.205 F 
ATOM     87  C   UNL A   1      46.873  26.061  35.757  1.00  0.00     0.022 A 
BRANCH  85  88
ATOM     88  S   UNL A   1      45.387  24.056  36.883  1.00  0.00     0.127 S 
ATOM     89  O   UNL A   1      44.569  24.663  37.932  1.00  0.00    -0.237 OA
ATOM     90  O   UNL A   1      44.681  23.085  36.045  1.00  0.00    -0.237 OA
ATOM     91  O   UNL A   1      46.722  23.643  37.292  1.00  0.00    -0.744 OA
ENDBRANCH  85  88
ENDBRANCH  58  81
ENDBRANCH  32  33
ENDBRANCH  25  27
ENDBRANCH  24  25
ENDBRANCH  23  24
ENDBRANCH   1  23
TORSDOF 20
ENDMDL
MODEL 3
REMARK VINA RESULT:     -10.5      5.199     10.103
REMARK SMILES C[NH+]1CCC([N@@H+](CC(=O)OCCOCCOC(=O)c2ccc(-c3c4nc(c(-c5cccc(S(=O)(=O)[O-])c5F)c5ccc([nH]5)c(-c5cccc(S(=O)(=O)[O-])c5F)c5nc(c(-c6cccc(S(=O)(=O)[O-])c6F)c6ccc3[nH]6)C=C5)C=C4)cc2)C(C)(C)C)CC1
REMARK SMILES IDX 14 1 13 2 12 3 11 4 10 5 8 6 9 7 7 8 6 9 5 11 1 12 2 13 3 14
REMARK SMILES IDX 87 15 4 17 86 18 82 19 83 20 84 21 85 22 15 23 16 24 17 25
REMARK SMILES IDX 18 26 19 27 20 28 81 29 21 30 80 31 22 32 23 33 24 34 74 35
REMARK SMILES IDX 25 36 79 37 73 38 75 39 26 40 78 41 72 42 71 43 27 45 59 46
REMARK SMILES IDX 39 47 58 48 40 49 43 50 57 51 76 52 41 53 42 54 56 56 77 57
REMARK SMILES IDX 44 58 28 59 29 60 37 61 30 62 32 63 38 64 31 65 33 66 34 67
REMARK SMILES IDX 35 68 36 69 60 70 61 71 69 72 62 73 64 74 70 75 63 76 65 77
REMARK SMILES IDX 66 78 67 79 68 80 45 81 46 82 54 83 47 84 49 85 55 86 48 87
REMARK SMILES IDX 50 88 51 89 52 90 53 91
REMARK H PARENT 6 10 2 16 75 44 43 55
REMARK Flexibility Score: inf
ROOT
ATOM      1  C   UNL A   1      35.615  20.618  25.047  1.00  0.00     0.202 C 
ENDROOT
BRANCH   1   2
ATOM      2  O   UNL A   1      35.426  21.909  24.470  1.00  0.00    -0.374 OA
BRANCH   2   3
ATOM      3  C   UNL A   1      34.274  22.040  23.633  1.00  0.00     0.202 C 
BRANCH   3   4
ATOM      4  C   UNL A   1      33.213  22.987  24.193  1.00  0.00     0.261 C 
BRANCH   4   5
ATOM      5  O   UNL A   1      32.808  23.931  23.178  1.00  0.00    -0.459 OA
BRANCH   5   6
ATOM      6  C   UNL A   1      31.604  24.541  23.252  1.00  0.00     0.361 C 
ATOM      7  O   UNL A   1      30.534  23.953  23.129  1.00  0.00    -0.245 OA
BRANCH   6   8
ATOM      8  C   UNL A   1      31.721  26.071  23.373  1.00  0.00     0.387 C 
BRANCH   8   9
ATOM      9  N   UNL A   1      31.143  26.742  24.570  1.00  0.00    -0.319 N 
ATOM     10  H   UNL A   1      30.455  26.116  24.990  1.00  0.00     0.349 HD
BRANCH   9  11
ATOM     11  C   UNL A   1      30.189  27.852  24.256  1.00  0.00     0.196 C 
ATOM     12  C   UNL A   1      27.868  30.718  21.944  1.00  0.00     0.332 C 
ATOM     13  N   UNL A   1      28.793  29.675  22.394  1.00  0.00    -0.337 N 
ATOM     14  C   UNL A   1      28.046  28.568  22.988  1.00  0.00     0.268 C 
ATOM     15  C   UNL A   1      29.732  30.213  23.382  1.00  0.00     0.268 C 
ATOM     16  H   UNL A   1      29.317  29.337  21.587  1.00  0.00     0.347 HD
ATOM     17  C   UNL A   1      28.972  27.431  23.408  1.00  0.00     0.126 C 
ATOM     18  C   UNL A   1      30.789  29.158  23.702  1.00  0.00     0.126 C 
ENDBRANCH   9  11
BRANCH   9  19
ATOM     19  C   UNL A   1      31.848  26.614  25.873  1.00  0.00     0.090 C 
ATOM     20  C   UNL A   1      33.362  26.717  25.681  1.00  0.00     0.078 C 
ATOM     21  C   UNL A   1      31.406  27.682  26.907  1.00  0.00     0.078 C 
ATOM     22  C   UNL A   1      31.563  25.266  26.599  1.00  0.00     0.078 C 
ENDBRANCH   9  19
ENDBRANCH   8   9
ENDBRANCH   6   8
ENDBRANCH   5   6
ENDBRANCH   4   5
ENDBRANCH   3   4
ENDBRANCH   2   3
ENDBRANCH   1   2
BRANCH   1  23
ATOM     23  C   UNL A   1      37.065  20.111  24.967  1.00  0.00     0.261 C 
BRANCH  23  24
ATOM     24  O   UNL A   1      38.024  21.185  25.072  1.00  0.00    -0.460 OA
BRANCH  24  25
ATOM     25  C   UNL A   1      39.120  20.904  25.817  1.00  0.00     0.338 C 
ATOM     26  O   UNL A   1      39.771  19.872  25.790  1.00  0.00    -0.246 OA
BRANCH  25  27
ATOM     27  C   UNL A   1      39.564  22.084  26.591  1.00  0.00     0.060 A 
ATOM     28  C   UNL A   1      39.013  23.317  26.223  1.00  0.00     0.016 A 
ATOM     29  C   UNL A   1      40.565  22.033  27.562  1.00  0.00     0.016 A 
ATOM     30  C   UNL A   1      39.516  24.504  26.758  1.00  0.00     0.010 A 
ATOM     31  C   UNL A   1      41.062  23.232  28.102  1.00  0.00     0.010 A 
ATOM     32  C   UNL A   1      40.578  24.484  27.672  1.00  0.00    -0.014 A 
BRANCH  32  33
ATOM     33  C   UNL A   1      41.232  25.775  28.054  1.00  0.00     0.031 A 
ATOM     34  C   UNL A   1      42.647  26.068  27.610  1.00  0.00     0.074 A 
ATOM     35  C   UNL A   1      40.563  26.728  28.734  1.00  0.00     0.049 A 
ATOM     36  N   UNL A   1      43.346  27.169  27.743  1.00  0.00    -0.248 NA
ATOM     37  C   UNL A   1      43.371  24.981  26.936  1.00  0.00     0.031 C 
ATOM     38  C   UNL A   1      39.206  26.597  29.260  1.00  0.00     0.029 A 
ATOM     39  N   UNL A   1      40.940  28.001  29.101  1.00  0.00    -0.354 N 
ATOM     40  C   UNL A   1      44.597  26.898  27.199  1.00  0.00     0.074 A 
ATOM     41  C   UNL A   1      44.571  25.517  26.765  1.00  0.00     0.031 C 
ATOM     42  C   UNL A   1      38.861  27.742  29.875  1.00  0.00     0.029 A 
ATOM     43  C   UNL A   1      39.976  28.685  29.805  1.00  0.00     0.049 A 
ATOM     44  H   UNL A   1      41.818  28.385  28.880  1.00  0.00     0.167 HD
ATOM     45  C   UNL A   1      45.665  27.719  27.042  1.00  0.00     0.034 A 
ATOM     46  C   UNL A   1      39.981  29.927  30.335  1.00  0.00     0.034 A 
ATOM     47  C   UNL A   1      45.701  29.103  27.431  1.00  0.00     0.049 A 
ATOM     48  C   UNL A   1      41.175  30.828  30.144  1.00  0.00     0.074 A 
ATOM     49  C   UNL A   1      46.715  30.024  27.234  1.00  0.00     0.029 A 
ATOM     50  N   UNL A   1      44.691  29.764  28.110  1.00  0.00    -0.354 N 
ATOM     51  N   UNL A   1      42.287  30.598  29.488  1.00  0.00    -0.248 NA
ATOM     52  C   UNL A   1      41.099  32.174  30.733  1.00  0.00     0.031 C 
ATOM     53  C   UNL A   1      46.335  31.232  27.829  1.00  0.00     0.029 A 
ATOM     54  C   UNL A   1      45.066  31.074  28.360  1.00  0.00     0.049 A 
ATOM     55  H   UNL A   1      43.833  29.362  28.377  1.00  0.00     0.167 HD
ATOM     56  C   UNL A   1      43.024  31.778  29.558  1.00  0.00     0.074 A 
ATOM     57  C   UNL A   1      42.226  32.728  30.301  1.00  0.00     0.031 C 
ATOM     58  C   UNL A   1      44.256  32.042  29.058  1.00  0.00     0.034 A 
BRANCH  45  59
ATOM     59  C   UNL A   1      46.893  27.136  26.387  1.00  0.00     0.023 A 
ATOM     60  C   UNL A   1      47.045  27.213  24.987  1.00  0.00     0.012 A 
ATOM     61  C   UNL A   1      47.910  26.543  27.160  1.00  0.00     0.148 A 
ATOM     62  C   UNL A   1      48.164  26.663  24.362  1.00  0.00     0.002 A 
ATOM     63  C   UNL A   1      49.046  26.041  26.534  1.00  0.00     0.091 A 
ATOM     64  F   UNL A   1      47.743  26.463  28.488  1.00  0.00    -0.205 F 
ATOM     65  C   UNL A   1      49.166  26.085  25.136  1.00  0.00     0.022 A 
BRANCH  63  66
ATOM     66  S   UNL A   1      50.429  25.354  27.451  1.00  0.00     0.127 S 
ATOM     67  O   UNL A   1      49.812  24.194  28.091  1.00  0.00    -0.237 OA
ATOM     68  O   UNL A   1      51.377  25.031  26.385  1.00  0.00    -0.237 OA
ATOM     69  O   UNL A   1      50.873  26.408  28.354  1.00  0.00    -0.744 OA
ENDBRANCH  63  66
ENDBRANCH  45  59
BRANCH  46  70
ATOM     70  C   UNL A   1      38.783  30.419  31.076  1.00  0.00     0.023 A 
ATOM     71  C   UNL A   1      38.694  30.233  32.470  1.00  0.00     0.012 A 
ATOM     72  C   UNL A   1      37.738  31.081  30.403  1.00  0.00     0.148 A 
ATOM     73  C   UNL A   1      37.572  30.672  33.175  1.00  0.00     0.002 A 
ATOM     74  C   UNL A   1      36.650  31.567  31.119  1.00  0.00     0.091 A 
ATOM     75  F   UNL A   1      37.837  31.235  29.075  1.00  0.00    -0.205 F 
ATOM     76  C   UNL A   1      36.557  31.348  32.503  1.00  0.00     0.022 A 
BRANCH  74  77
ATOM     77  S   UNL A   1      35.361  32.559  30.361  1.00  0.00     0.127 S 
ATOM     78  O   UNL A   1      34.476  32.818  31.496  1.00  0.00    -0.237 OA
ATOM     79  O   UNL A   1      36.117  33.720  29.890  1.00  0.00    -0.237 OA
ATOM     80  O   UNL A   1      34.797  31.736  29.301  1.00  0.00    -0.744 OA
ENDBRANCH  74  77
ENDBRANCH  46  70
BRANCH  58  81
ATOM     81  C   UNL A   1      44.828  33.426  29.255  1.00  0.00     0.023 A 
ATOM     82  C   UNL A   1      45.482  33.755  30.458  1.00  0.00     0.012 A 
ATOM     83  C   UNL A   1      44.790  34.374  28.211  1.00  0.00     0.148 A 
ATOM     84  C   UNL A   1      46.062  35.013  30.633  1.00  0.00     0.002 A 
ATOM     85  C   UNL A   1      45.414  35.607  28.373  1.00  0.00     0.091 A 
ATOM     86  F   UNL A   1      44.150  34.053  27.078  1.00  0.00    -0.205 F 
ATOM     87  C   UNL A   1      46.039  35.933  29.586  1.00  0.00     0.022 A 
BRANCH  85  88
ATOM     88  S   UNL A   1      45.520  36.817  27.048  1.00  0.00     0.127 S 
ATOM     89  O   UNL A   1      44.114  37.169  26.853  1.00  0.00    -0.237 OA
ATOM     90  O   UNL A   1      46.334  37.871  27.656  1.00  0.00    -0.237 OA
ATOM     91  O   UNL A   1      46.154  36.135  25.928  1.00  0.00    -0.744 OA
ENDBRANCH  85  88
ENDBRANCH  58  81
ENDBRANCH  32  33
ENDBRANCH  25  27
ENDBRANCH  24  25
ENDBRANCH  23  24
ENDBRANCH   1  23
TORSDOF 20
ENDMDL
