MODEL 1
REMARK VINA RESULT:     -11.3      0.000      0.000
REMARK SMILES CCOc1ccc(C(=O)NC(=S)Nc2cccc(C(=O)OCCOCCOC(=O)c3ccc(-c4c5nc(c(-c6cccc(S(=O)(=O)[O-])c6F)c6ccc([nH]6)c(-c6cccc(S(=O)(=O)[O-])c6F)c6nc(c(-c7cccc(S(=O)(=O)[O-])c7F)c7ccc4[nH]7)C=C6)C=C5)cc3)c2C)cc1Br
REMARK SMILES IDX 22 1 21 2 19 3 20 4 18 5 14 6 15 7 93 8 16 9 94 10 17 11
REMARK SMILES IDX 13 12 11 14 12 15 10 16 8 17 9 18 7 20 4 21 5 22 96 23 6 24
REMARK SMILES IDX 95 25 97 26 3 27 2 28 1 29 23 30 24 31 25 32 26 33 27 34
REMARK SMILES IDX 28 35 29 36 30 37 31 38 92 39 32 40 91 41 33 42 34 43 35 44
REMARK SMILES IDX 85 45 36 46 90 47 84 48 86 49 37 50 89 51 83 52 82 53 38 55
REMARK SMILES IDX 70 56 50 57 69 58 51 59 54 60 68 61 87 62 52 63 53 64 67 66
REMARK SMILES IDX 88 67 55 68 39 69 40 70 48 71 41 72 43 73 49 74 42 75 44 76
REMARK SMILES IDX 45 77 46 78 47 79 71 80 72 81 80 82 73 83 75 84 81 85 74 86
REMARK SMILES IDX 76 87 77 88 78 89 79 90 56 91 57 92 65 93 58 94 60 95 66 96
REMARK SMILES IDX 59 97 61 98 62 99 63 100 64 101
REMARK H PARENT 13 13 10 19 86 54 54 65
REMARK Flexibility Score: inf
ROOT
ATOM      1  C   UNL A   1      37.229  23.760  25.855  1.00  0.00     0.261 C 
ENDROOT
BRANCH   1   2
ATOM      2  O   UNL A   1      35.820  23.625  26.282  1.00  0.00    -0.460 OA
BRANCH   2   3
ATOM      3  C   UNL A   1      34.782  22.778  25.993  1.00  0.00     0.338 C 
ATOM      4  O   UNL A   1      34.737  21.604  25.705  1.00  0.00    -0.246 OA
BRANCH   3   5
ATOM      5  C   UNL A   1      33.567  23.572  26.288  1.00  0.00     0.065 A 
ATOM      6  C   UNL A   1      31.495  25.938  26.068  1.00  0.00     0.044 A 
ATOM      7  C   UNL A   1      30.072  24.964  26.518  1.00  0.00     0.026 A 
ATOM      8  C   UNL A   1      33.160  25.241  25.821  1.00  0.00    -0.013 A 
ATOM      9  C   UNL A   1      30.355  23.272  26.906  1.00  0.00     0.003 A 
ATOM     10  C   UNL A   1      34.292  26.127  25.384  1.00  0.00     0.047 C 
ATOM     11  C   UNL A   1      32.248  22.567  26.907  1.00  0.00     0.016 A 
BRANCH   6  12
ATOM     12  N   UNL A   1      31.467  27.068  26.930  1.00  0.00    -0.332 N 
ATOM     13  H   UNL A   1      31.240  26.900  27.873  1.00  0.00     0.169 HD
BRANCH  12  14
ATOM     14  C   UNL A   1      31.727  28.380  26.574  1.00  0.00     0.177 C 
ATOM     15  S   UNL A   1      32.913  29.177  27.455  1.00  0.00    -0.040 S 
BRANCH  14  16
ATOM     16  N   UNL A   1      31.040  29.144  25.527  1.00  0.00    -0.299 N 
ATOM     17  C   UNL A   1      30.719  29.583  24.082  1.00  0.00     0.257 C 
ATOM     18  O   UNL A   1      29.943  30.523  23.922  1.00  0.00    -0.269 OA
ATOM     19  H   UNL A   1      30.424  29.704  26.052  1.00  0.00     0.172 HD
BRANCH  17  20
ATOM     20  C   UNL A   1      31.417  28.973  22.870  1.00  0.00     0.041 A 
ATOM     21  C   UNL A   1      32.763  25.590  21.861  1.00  0.00     0.133 A 
ATOM     22  C   UNL A   1      33.820  27.016  22.125  1.00  0.00     0.048 A 
ATOM     23  C   UNL A   1      31.007  25.807  22.117  1.00  0.00     0.060 A 
ATOM     24  C   UNL A   1      33.163  28.643  22.649  1.00  0.00     0.018 A 
ATOM     25  C   UNL A   1      30.355  27.678  22.520  1.00  0.00     0.033 A 
ATOM     26  Br  UNL A   1      30.597  23.905  23.234  1.00  0.00    -0.047 Br
BRANCH  21  27
ATOM     27  O   UNL A   1      33.140  24.408  21.249  1.00  0.00    -0.493 OA
BRANCH  27  28
ATOM     28  C   UNL A   1      33.792  23.475  22.165  1.00  0.00     0.226 C 
ATOM     29  C   UNL A   1      33.068  22.260  22.761  1.00  0.00     0.049 C 
ENDBRANCH  27  28
ENDBRANCH  21  27
ENDBRANCH  17  20
ENDBRANCH  14  16
ENDBRANCH  12  14
ENDBRANCH   6  12
ENDBRANCH   3   5
ENDBRANCH   2   3
ENDBRANCH   1   2
BRANCH   1  30
ATOM     30  C   UNL A   1      38.182  24.135  26.931  1.00  0.00     0.202 C 
BRANCH  30  31
ATOM     31  O   UNL A   1      39.367  24.371  26.223  1.00  0.00    -0.374 OA
BRANCH  31  32
ATOM     32  C   UNL A   1      40.358  25.260  26.628  1.00  0.00     0.202 C 
BRANCH  32  33
ATOM     33  C   UNL A   1      41.496  25.441  25.650  1.00  0.00     0.261 C 
BRANCH  33  34
ATOM     34  O   UNL A   1      41.582  26.830  25.211  1.00  0.00    -0.460 OA
BRANCH  34  35
ATOM     35  C   UNL A   1      42.480  27.689  25.797  1.00  0.00     0.338 C 
ATOM     36  O   UNL A   1      43.685  27.501  25.744  1.00  0.00    -0.246 OA
BRANCH  35  37
ATOM     37  C   UNL A   1      41.826  28.847  26.512  1.00  0.00     0.060 A 
ATOM     38  C   UNL A   1      42.548  29.756  27.291  1.00  0.00     0.016 A 
ATOM     39  C   UNL A   1      40.470  28.818  26.704  1.00  0.00     0.016 A 
ATOM     40  C   UNL A   1      41.980  30.315  28.461  1.00  0.00     0.010 A 
ATOM     41  C   UNL A   1      40.025  29.114  27.987  1.00  0.00     0.010 A 
ATOM     42  C   UNL A   1      40.784  29.823  28.934  1.00  0.00    -0.014 A 
BRANCH  42  43
ATOM     43  C   UNL A   1      40.122  30.105  30.242  1.00  0.00     0.031 A 
ATOM     44  C   UNL A   1      39.268  31.331  30.143  1.00  0.00     0.074 A 
ATOM     45  C   UNL A   1      40.132  29.370  31.415  1.00  0.00     0.049 A 
ATOM     46  N   UNL A   1      38.983  32.085  31.143  1.00  0.00    -0.248 NA
ATOM     47  C   UNL A   1      38.784  31.928  28.881  1.00  0.00     0.031 C 
ATOM     48  C   UNL A   1      39.079  29.352  32.456  1.00  0.00     0.029 A 
ATOM     49  N   UNL A   1      40.986  28.355  31.921  1.00  0.00    -0.354 N 
ATOM     50  C   UNL A   1      37.998  32.949  30.709  1.00  0.00     0.074 A 
ATOM     51  C   UNL A   1      38.101  32.989  29.293  1.00  0.00     0.031 C 
ATOM     52  C   UNL A   1      39.460  28.615  33.523  1.00  0.00     0.029 A 
ATOM     53  C   UNL A   1      40.832  28.207  33.308  1.00  0.00     0.049 A 
ATOM     54  H   UNL A   1      41.606  27.825  31.369  1.00  0.00     0.167 HD
ATOM     55  C   UNL A   1      37.041  33.334  31.587  1.00  0.00     0.034 A 
ATOM     56  C   UNL A   1      41.879  28.243  34.181  1.00  0.00     0.034 A 
ATOM     57  C   UNL A   1      37.345  32.748  32.899  1.00  0.00     0.049 A 
ATOM     58  C   UNL A   1      41.735  29.501  34.988  1.00  0.00     0.074 A 
ATOM     59  C   UNL A   1      36.813  31.687  33.608  1.00  0.00     0.029 A 
ATOM     60  N   UNL A   1      38.568  33.042  33.487  1.00  0.00    -0.354 N 
ATOM     61  N   UNL A   1      40.875  30.417  34.646  1.00  0.00    -0.248 NA
ATOM     62  C   UNL A   1      42.410  29.825  36.239  1.00  0.00     0.031 C 
ATOM     63  C   UNL A   1      37.730  31.363  34.649  1.00  0.00     0.029 A 
ATOM     64  C   UNL A   1      38.811  32.229  34.572  1.00  0.00     0.049 A 
ATOM     65  H   UNL A   1      39.184  33.741  33.168  1.00  0.00     0.167 HD
ATOM     66  C   UNL A   1      40.836  31.408  35.563  1.00  0.00     0.074 A 
ATOM     67  C   UNL A   1      41.825  31.001  36.546  1.00  0.00     0.031 C 
ATOM     68  C   UNL A   1      39.988  32.464  35.401  1.00  0.00     0.034 A 
BRANCH  55  69
ATOM     69  C   UNL A   1      35.722  34.019  31.278  1.00  0.00     0.023 A 
ATOM     70  C   UNL A   1      35.081  33.565  30.104  1.00  0.00     0.012 A 
ATOM     71  C   UNL A   1      35.051  35.054  31.981  1.00  0.00     0.148 A 
ATOM     72  C   UNL A   1      33.882  34.102  29.635  1.00  0.00     0.002 A 
ATOM     73  C   UNL A   1      33.835  35.579  31.527  1.00  0.00     0.091 A 
ATOM     74  F   UNL A   1      35.565  35.570  33.096  1.00  0.00    -0.205 F 
ATOM     75  C   UNL A   1      33.254  35.107  30.348  1.00  0.00     0.022 A 
BRANCH  73  76
ATOM     76  S   UNL A   1      32.928  36.879  32.393  1.00  0.00     0.127 S 
ATOM     77  O   UNL A   1      33.022  37.997  31.452  1.00  0.00    -0.237 OA
ATOM     78  O   UNL A   1      31.590  36.301  32.513  1.00  0.00    -0.237 OA
ATOM     79  O   UNL A   1      33.617  37.101  33.659  1.00  0.00    -0.744 OA
ENDBRANCH  73  76
ENDBRANCH  55  69
BRANCH  56  80
ATOM     80  C   UNL A   1      43.114  27.635  33.592  1.00  0.00     0.023 A 
ATOM     81  C   UNL A   1      44.002  28.538  32.945  1.00  0.00     0.012 A 
ATOM     82  C   UNL A   1      43.639  26.468  34.166  1.00  0.00     0.148 A 
ATOM     83  C   UNL A   1      45.386  28.410  33.099  1.00  0.00     0.002 A 
ATOM     84  C   UNL A   1      45.017  26.350  34.315  1.00  0.00     0.091 A 
ATOM     85  F   UNL A   1      42.786  25.564  34.663  1.00  0.00    -0.205 F 
ATOM     86  C   UNL A   1      45.887  27.351  33.844  1.00  0.00     0.022 A 
BRANCH  84  87
ATOM     87  S   UNL A   1      45.747  25.021  35.268  1.00  0.00     0.127 S 
ATOM     88  O   UNL A   1      46.999  25.620  35.716  1.00  0.00    -0.237 OA
ATOM     89  O   UNL A   1      44.751  24.834  36.324  1.00  0.00    -0.237 OA
ATOM     90  O   UNL A   1      45.885  23.908  34.343  1.00  0.00    -0.744 OA
ENDBRANCH  84  87
ENDBRANCH  56  80
BRANCH  68  91
ATOM     91  C   UNL A   1      40.180  33.811  36.049  1.00  0.00     0.023 A 
ATOM     92  C   UNL A   1      39.404  34.213  37.147  1.00  0.00     0.012 A 
ATOM     93  C   UNL A   1      41.247  34.670  35.672  1.00  0.00     0.148 A 
ATOM     94  C   UNL A   1      39.580  35.453  37.758  1.00  0.00     0.002 A 
ATOM     95  C   UNL A   1      41.512  35.832  36.378  1.00  0.00     0.091 A 
ATOM     96  F   UNL A   1      42.009  34.391  34.609  1.00  0.00    -0.205 F 
ATOM     97  C   UNL A   1      40.645  36.257  37.383  1.00  0.00     0.022 A 
BRANCH  95  98
ATOM     98  S   UNL A   1      43.019  36.771  36.119  1.00  0.00     0.127 S 
ATOM     99  O   UNL A   1      42.699  37.499  34.893  1.00  0.00    -0.237 OA
ATOM    100  O   UNL A   1      43.067  37.596  37.329  1.00  0.00    -0.237 OA
ATOM    101  O   UNL A   1      44.092  35.793  36.016  1.00  0.00    -0.744 OA
ENDBRANCH  95  98
ENDBRANCH  68  91
ENDBRANCH  42  43
ENDBRANCH  35  37
ENDBRANCH  34  35
ENDBRANCH  33  34
ENDBRANCH  32  33
ENDBRANCH  31  32
ENDBRANCH  30  31
ENDBRANCH   1  30
TORSDOF 23
ENDMDL
MODEL 2
REMARK VINA RESULT:     -11.2      5.673     12.702
REMARK SMILES CCOc1ccc(C(=O)NC(=S)Nc2cccc(C(=O)OCCOCCOC(=O)c3ccc(-c4c5nc(c(-c6cccc(S(=O)(=O)[O-])c6F)c6ccc([nH]6)c(-c6cccc(S(=O)(=O)[O-])c6F)c6nc(c(-c7cccc(S(=O)(=O)[O-])c7F)c7ccc4[nH]7)C=C6)C=C5)cc3)c2C)cc1Br
REMARK SMILES IDX 22 1 21 2 19 3 20 4 18 5 14 6 15 7 93 8 16 9 94 10 17 11
REMARK SMILES IDX 13 12 11 14 12 15 10 16 8 17 9 18 7 20 4 21 5 22 96 23 6 24
REMARK SMILES IDX 95 25 97 26 3 27 2 28 1 29 23 30 24 31 25 32 26 33 27 34
REMARK SMILES IDX 28 35 29 36 30 37 31 38 92 39 32 40 91 41 33 42 34 43 35 44
REMARK SMILES IDX 85 45 36 46 90 47 84 48 86 49 37 50 89 51 83 52 82 53 38 55
REMARK SMILES IDX 70 56 50 57 69 58 51 59 54 60 68 61 87 62 52 63 53 64 67 66
REMARK SMILES IDX 88 67 55 68 39 69 40 70 48 71 41 72 43 73 49 74 42 75 44 76
REMARK SMILES IDX 45 77 46 78 47 79 71 80 72 81 80 82 73 83 75 84 81 85 74 86
REMARK SMILES IDX 76 87 77 88 78 89 79 90 56 91 57 92 65 93 58 94 60 95 66 96
REMARK SMILES IDX 59 97 61 98 62 99 63 100 64 101
REMARK H PARENT 13 13 10 19 86 54 54 65
REMARK Flexibility Score: inf
ROOT
ATOM      1  C   UNL A   1      39.038  25.885  27.651  1.00  0.00     0.261 C 
ENDROOT
BRANCH   1   2
ATOM      2  O   UNL A   1      40.234  26.715  27.904  1.00  0.00    -0.460 OA
BRANCH   2   3
ATOM      3  C   UNL A   1      40.903  27.706  27.233  1.00  0.00     0.338 C 
ATOM      4  O   UNL A   1      41.096  27.913  26.057  1.00  0.00    -0.246 OA
BRANCH   3   5
ATOM      5  C   UNL A   1      41.248  28.692  28.282  1.00  0.00     0.065 A 
ATOM      6  C   UNL A   1      40.855  30.516  30.824  1.00  0.00     0.044 A 
ATOM      7  C   UNL A   1      42.567  30.494  31.318  1.00  0.00     0.026 A 
ATOM      8  C   UNL A   1      40.190  29.535  29.440  1.00  0.00    -0.013 A 
ATOM      9  C   UNL A   1      43.683  29.605  30.289  1.00  0.00     0.003 A 
ATOM     10  C   UNL A   1      38.721  29.567  29.129  1.00  0.00     0.047 C 
ATOM     11  C   UNL A   1      42.989  28.752  28.594  1.00  0.00     0.016 A 
BRANCH   6  12
ATOM     12  N   UNL A   1      40.491  31.888  30.783  1.00  0.00    -0.332 N 
ATOM     13  H   UNL A   1      40.819  32.411  30.015  1.00  0.00     0.169 HD
BRANCH  12  14
ATOM     14  C   UNL A   1      39.721  32.564  31.715  1.00  0.00     0.177 C 
ATOM     15  S   UNL A   1      39.667  34.236  31.576  1.00  0.00    -0.040 S 
BRANCH  14  16
ATOM     16  N   UNL A   1      38.981  31.957  32.826  1.00  0.00    -0.299 N 
ATOM     17  C   UNL A   1      37.742  31.652  33.696  1.00  0.00     0.257 C 
ATOM     18  O   UNL A   1      37.907  31.014  34.734  1.00  0.00    -0.269 OA
ATOM     19  H   UNL A   1      39.685  31.447  33.287  1.00  0.00     0.172 HD
BRANCH  17  20
ATOM     20  C   UNL A   1      36.360  32.211  33.372  1.00  0.00     0.041 A 
ATOM     21  C   UNL A   1      34.637  33.792  30.404  1.00  0.00     0.133 A 
ATOM     22  C   UNL A   1      34.972  34.687  31.923  1.00  0.00     0.048 A 
ATOM     23  C   UNL A   1      35.176  32.089  30.316  1.00  0.00     0.060 A 
ATOM     24  C   UNL A   1      35.839  33.925  33.344  1.00  0.00     0.018 A 
ATOM     25  C   UNL A   1      35.963  31.280  31.993  1.00  0.00     0.033 A 
ATOM     26  Br  UNL A   1      36.020  32.115  28.238  1.00  0.00    -0.047 Br
BRANCH  21  27
ATOM     27  O   UNL A   1      33.796  34.211  29.390  1.00  0.00    -0.493 OA
BRANCH  27  28
ATOM     28  C   UNL A   1      33.139  35.482  29.682  1.00  0.00     0.226 C 
ATOM     29  C   UNL A   1      33.395  36.752  28.860  1.00  0.00     0.049 C 
ENDBRANCH  27  28
ENDBRANCH  21  27
ENDBRANCH  17  20
ENDBRANCH  14  16
ENDBRANCH  12  14
ENDBRANCH   6  12
ENDBRANCH   3   5
ENDBRANCH   2   3
ENDBRANCH   1   2
BRANCH   1  30
ATOM     30  C   UNL A   1      39.266  24.418  27.698  1.00  0.00     0.202 C 
BRANCH  30  31
ATOM     31  O   UNL A   1      38.451  23.947  26.660  1.00  0.00    -0.374 OA
BRANCH  31  32
ATOM     32  C   UNL A   1      38.499  22.654  26.150  1.00  0.00     0.202 C 
BRANCH  32  33
ATOM     33  C   UNL A   1      39.662  21.817  26.631  1.00  0.00     0.261 C 
BRANCH  33  34
ATOM     34  O   UNL A   1      40.715  21.769  25.621  1.00  0.00    -0.460 OA
BRANCH  34  35
ATOM     35  C   UNL A   1      42.036  21.830  25.992  1.00  0.00     0.338 C 
ATOM     36  O   UNL A   1      42.865  21.042  25.565  1.00  0.00    -0.246 OA
BRANCH  35  37
ATOM     37  C   UNL A   1      42.335  22.937  26.975  1.00  0.00     0.060 A 
ATOM     38  C   UNL A   1      42.493  24.270  26.583  1.00  0.00     0.016 A 
ATOM     39  C   UNL A   1      42.812  22.603  28.215  1.00  0.00     0.016 A 
ATOM     40  C   UNL A   1      43.422  25.110  27.241  1.00  0.00     0.010 A 
ATOM     41  C   UNL A   1      43.922  23.311  28.656  1.00  0.00     0.010 A 
ATOM     42  C   UNL A   1      44.304  24.565  28.148  1.00  0.00    -0.014 A 
BRANCH  42  43
ATOM     43  C   UNL A   1      45.489  25.210  28.785  1.00  0.00     0.031 A 
ATOM     44  C   UNL A   1      46.711  25.007  27.944  1.00  0.00     0.074 A 
ATOM     45  C   UNL A   1      45.565  25.992  29.925  1.00  0.00     0.049 A 
ATOM     46  N   UNL A   1      47.907  24.995  28.413  1.00  0.00    -0.248 NA
ATOM     47  C   UNL A   1      46.704  24.630  26.516  1.00  0.00     0.031 C 
ATOM     48  C   UNL A   1      46.572  27.039  30.215  1.00  0.00     0.029 A 
ATOM     49  N   UNL A   1      44.708  26.169  31.044  1.00  0.00    -0.354 N 
ATOM     50  C   UNL A   1      48.752  25.028  27.321  1.00  0.00     0.074 A 
ATOM     51  C   UNL A   1      47.995  24.547  26.220  1.00  0.00     0.031 C 
ATOM     52  C   UNL A   1      46.423  27.527  31.466  1.00  0.00     0.029 A 
ATOM     53  C   UNL A   1      45.395  26.749  32.122  1.00  0.00     0.049 A 
ATOM     54  H   UNL A   1      43.756  25.918  31.059  1.00  0.00     0.167 HD
ATOM     55  C   UNL A   1      49.921  25.703  27.429  1.00  0.00     0.034 A 
ATOM     56  C   UNL A   1      45.401  26.210  33.375  1.00  0.00     0.034 A 
ATOM     57  C   UNL A   1      50.044  26.215  28.799  1.00  0.00     0.049 A 
ATOM     58  C   UNL A   1      46.797  25.721  33.636  1.00  0.00     0.074 A 
ATOM     59  C   UNL A   1      49.887  27.470  29.358  1.00  0.00     0.029 A 
ATOM     60  N   UNL A   1      50.009  25.309  29.849  1.00  0.00    -0.354 N 
ATOM     61  N   UNL A   1      47.670  25.656  32.672  1.00  0.00    -0.248 NA
ATOM     62  C   UNL A   1      47.378  25.366  34.925  1.00  0.00     0.031 C 
ATOM     63  C   UNL A   1      49.781  27.302  30.768  1.00  0.00     0.029 A 
ATOM     64  C   UNL A   1      49.877  25.950  31.062  1.00  0.00     0.049 A 
ATOM     65  H   UNL A   1      50.070  24.332  29.742  1.00  0.00     0.167 HD
ATOM     66  C   UNL A   1      48.883  25.294  33.144  1.00  0.00     0.074 A 
ATOM     67  C   UNL A   1      48.654  25.112  34.567  1.00  0.00     0.031 C 
ATOM     68  C   UNL A   1      49.946  25.178  32.298  1.00  0.00     0.034 A 
BRANCH  55  69
ATOM     69  C   UNL A   1      50.853  26.125  26.306  1.00  0.00     0.023 A 
ATOM     70  C   UNL A   1      50.232  26.846  25.262  1.00  0.00     0.012 A 
ATOM     71  C   UNL A   1      52.243  25.886  26.144  1.00  0.00     0.148 A 
ATOM     72  C   UNL A   1      50.916  27.282  24.127  1.00  0.00     0.002 A 
ATOM     73  C   UNL A   1      52.938  26.342  25.017  1.00  0.00     0.091 A 
ATOM     74  F   UNL A   1      52.933  25.206  27.057  1.00  0.00    -0.205 F 
ATOM     75  C   UNL A   1      52.272  27.035  24.004  1.00  0.00     0.022 A 
BRANCH  73  76
ATOM     76  S   UNL A   1      54.709  26.087  24.771  1.00  0.00     0.127 S 
ATOM     77  O   UNL A   1      54.912  26.629  23.425  1.00  0.00    -0.237 OA
ATOM     78  O   UNL A   1      55.294  26.893  25.842  1.00  0.00    -0.237 OA
ATOM     79  O   UNL A   1      54.947  24.653  24.882  1.00  0.00    -0.744 OA
ENDBRANCH  73  76
ENDBRANCH  55  69
BRANCH  56  80
ATOM     80  C   UNL A   1      44.095  25.558  33.706  1.00  0.00     0.023 A 
ATOM     81  C   UNL A   1      44.063  24.141  33.592  1.00  0.00     0.012 A 
ATOM     82  C   UNL A   1      43.236  26.180  34.624  1.00  0.00     0.148 A 
ATOM     83  C   UNL A   1      43.393  23.364  34.542  1.00  0.00     0.002 A 
ATOM     84  C   UNL A   1      42.575  25.398  35.566  1.00  0.00     0.091 A 
ATOM     85  F   UNL A   1      43.182  27.518  34.639  1.00  0.00    -0.205 F 
ATOM     86  C   UNL A   1      42.707  23.998  35.569  1.00  0.00     0.022 A 
BRANCH  84  87
ATOM     87  S   UNL A   1      41.675  26.134  36.928  1.00  0.00     0.127 S 
ATOM     88  O   UNL A   1      40.995  27.248  36.277  1.00  0.00    -0.237 OA
ATOM     89  O   UNL A   1      40.794  25.035  37.328  1.00  0.00    -0.237 OA
ATOM     90  O   UNL A   1      42.683  26.506  37.907  1.00  0.00    -0.744 OA
ENDBRANCH  84  87
ENDBRANCH  56  80
BRANCH  68  91
ATOM     91  C   UNL A   1      51.171  24.348  32.585  1.00  0.00     0.023 A 
ATOM     92  C   UNL A   1      52.464  24.876  32.439  1.00  0.00     0.012 A 
ATOM     93  C   UNL A   1      51.071  23.050  33.153  1.00  0.00     0.148 A 
ATOM     94  C   UNL A   1      53.602  24.118  32.710  1.00  0.00     0.002 A 
ATOM     95  C   UNL A   1      52.200  22.360  33.560  1.00  0.00     0.091 A 
ATOM     96  F   UNL A   1      49.883  22.450  33.286  1.00  0.00    -0.205 F 
ATOM     97  C   UNL A   1      53.470  22.865  33.286  1.00  0.00     0.022 A 
BRANCH  95  98
ATOM     98  S   UNL A   1      52.089  20.865  34.547  1.00  0.00     0.127 S 
ATOM     99  O   UNL A   1      51.294  21.327  35.683  1.00  0.00    -0.237 OA
ATOM    100  O   UNL A   1      51.387  19.958  33.635  1.00  0.00    -0.237 OA
ATOM    101  O   UNL A   1      53.459  20.476  34.846  1.00  0.00    -0.744 OA
ENDBRANCH  95  98
ENDBRANCH  68  91
ENDBRANCH  42  43
ENDBRANCH  35  37
ENDBRANCH  34  35
ENDBRANCH  33  34
ENDBRANCH  32  33
ENDBRANCH  31  32
ENDBRANCH  30  31
ENDBRANCH   1  30
TORSDOF 23
ENDMDL
MODEL 3
REMARK VINA RESULT:     -11.0      2.292      3.948
REMARK SMILES CCOc1ccc(C(=O)NC(=S)Nc2cccc(C(=O)OCCOCCOC(=O)c3ccc(-c4c5nc(c(-c6cccc(S(=O)(=O)[O-])c6F)c6ccc([nH]6)c(-c6cccc(S(=O)(=O)[O-])c6F)c6nc(c(-c7cccc(S(=O)(=O)[O-])c7F)c7ccc4[nH]7)C=C6)C=C5)cc3)c2C)cc1Br
REMARK SMILES IDX 22 1 21 2 19 3 20 4 18 5 14 6 15 7 93 8 16 9 94 10 17 11
REMARK SMILES IDX 13 12 11 14 12 15 10 16 8 17 9 18 7 20 4 21 5 22 96 23 6 24
REMARK SMILES IDX 95 25 97 26 3 27 2 28 1 29 23 30 24 31 25 32 26 33 27 34
REMARK SMILES IDX 28 35 29 36 30 37 31 38 92 39 32 40 91 41 33 42 34 43 35 44
REMARK SMILES IDX 85 45 36 46 90 47 84 48 86 49 37 50 89 51 83 52 82 53 38 55
REMARK SMILES IDX 70 56 50 57 69 58 51 59 54 60 68 61 87 62 52 63 53 64 67 66
REMARK SMILES IDX 88 67 55 68 39 69 40 70 48 71 41 72 43 73 49 74 42 75 44 76
REMARK SMILES IDX 45 77 46 78 47 79 71 80 72 81 80 82 73 83 75 84 81 85 74 86
REMARK SMILES IDX 76 87 77 88 78 89 79 90 56 91 57 92 65 93 58 94 60 95 66 96
REMARK SMILES IDX 59 97 61 98 62 99 63 100 64 101
REMARK H PARENT 13 13 10 19 86 54 54 65
REMARK Flexibility Score: inf
ROOT
ATOM      1  C   UNL A   1      43.430  21.614  25.022  1.00  0.00     0.261 C 
ENDROOT
BRANCH   1   2
ATOM      2  O   UNL A   1      42.108  21.984  25.570  1.00  0.00    -0.460 OA
BRANCH   2   3
ATOM      3  C   UNL A   1      41.503  21.932  26.799  1.00  0.00     0.338 C 
ATOM      4  O   UNL A   1      41.898  22.170  27.917  1.00  0.00    -0.246 OA
BRANCH   3   5
ATOM      5  C   UNL A   1      40.077  21.675  26.496  1.00  0.00     0.065 A 
ATOM      6  C   UNL A   1      37.106  22.311  25.651  1.00  0.00     0.044 A 
ATOM      7  C   UNL A   1      36.783  20.709  24.938  1.00  0.00     0.026 A 
ATOM      8  C   UNL A   1      38.737  22.827  26.279  1.00  0.00    -0.013 A 
ATOM      9  C   UNL A   1      38.082  19.526  25.016  1.00  0.00     0.003 A 
ATOM     10  C   UNL A   1      38.935  24.218  26.810  1.00  0.00     0.047 C 
ATOM     11  C   UNL A   1      39.797  20.009  25.968  1.00  0.00     0.016 A 
BRANCH   6  12
ATOM     12  N   UNL A   1      36.041  22.540  26.563  1.00  0.00    -0.332 N 
ATOM     13  H   UNL A   1      36.289  22.804  27.478  1.00  0.00     0.169 HD
BRANCH  12  14
ATOM     14  C   UNL A   1      34.688  22.429  26.291  1.00  0.00     0.177 C 
ATOM     15  S   UNL A   1      33.669  22.232  27.612  1.00  0.00    -0.040 S 
BRANCH  14  16
ATOM     16  N   UNL A   1      34.071  22.433  24.961  1.00  0.00    -0.299 N 
ATOM     17  C   UNL A   1      33.048  22.849  23.882  1.00  0.00     0.257 C 
ATOM     18  O   UNL A   1      33.083  22.270  22.797  1.00  0.00    -0.269 OA
ATOM     19  H   UNL A   1      34.641  21.800  24.468  1.00  0.00     0.172 HD
BRANCH  17  20
ATOM     20  C   UNL A   1      31.937  23.858  24.156  1.00  0.00     0.041 A 
ATOM     21  C   UNL A   1      31.679  27.525  25.027  1.00  0.00     0.133 A 
ATOM     22  C   UNL A   1      31.182  26.222  26.156  1.00  0.00     0.048 A 
ATOM     23  C   UNL A   1      32.341  27.033  23.440  1.00  0.00     0.060 A 
ATOM     24  C   UNL A   1      31.344  24.447  25.741  1.00  0.00     0.018 A 
ATOM     25  C   UNL A   1      32.316  25.060  23.000  1.00  0.00     0.033 A 
ATOM     26  Br  UNL A   1      34.056  28.476  23.335  1.00  0.00    -0.047 Br
BRANCH  21  27
ATOM     27  O   UNL A   1      31.379  28.869  25.163  1.00  0.00    -0.493 OA
BRANCH  27  28
ATOM     28  C   UNL A   1      31.875  29.439  26.413  1.00  0.00     0.226 C 
ATOM     29  C   UNL A   1      33.368  29.498  26.761  1.00  0.00     0.049 C 
ENDBRANCH  27  28
ENDBRANCH  21  27
ENDBRANCH  17  20
ENDBRANCH  14  16
ENDBRANCH  12  14
ENDBRANCH   6  12
ENDBRANCH   3   5
ENDBRANCH   2   3
ENDBRANCH   1   2
BRANCH   1  30
ATOM     30  C   UNL A   1      44.584  22.339  25.612  1.00  0.00     0.202 C 
BRANCH  30  31
ATOM     31  O   UNL A   1      44.066  23.624  25.819  1.00  0.00    -0.374 OA
BRANCH  31  32
ATOM     32  C   UNL A   1      44.720  24.628  26.526  1.00  0.00     0.202 C 
BRANCH  32  33
ATOM     33  C   UNL A   1      44.915  25.922  25.770  1.00  0.00     0.261 C 
BRANCH  33  34
ATOM     34  O   UNL A   1      44.084  26.979  26.335  1.00  0.00    -0.460 OA
BRANCH  34  35
ATOM     35  C   UNL A   1      42.809  27.186  25.865  1.00  0.00     0.338 C 
ATOM     36  O   UNL A   1      42.318  26.485  24.995  1.00  0.00    -0.246 OA
BRANCH  35  37
ATOM     37  C   UNL A   1      42.112  28.358  26.514  1.00  0.00     0.060 A 
ATOM     38  C   UNL A   1      42.800  29.332  27.246  1.00  0.00     0.016 A 
ATOM     39  C   UNL A   1      40.757  28.293  26.703  1.00  0.00     0.016 A 
ATOM     40  C   UNL A   1      42.206  29.932  28.382  1.00  0.00     0.010 A 
ATOM     41  C   UNL A   1      40.296  28.641  27.966  1.00  0.00     0.010 A 
ATOM     42  C   UNL A   1      41.025  29.426  28.877  1.00  0.00    -0.014 A 
BRANCH  42  43
ATOM     43  C   UNL A   1      40.347  29.755  30.165  1.00  0.00     0.031 A 
ATOM     44  C   UNL A   1      39.473  30.960  30.005  1.00  0.00     0.074 A 
ATOM     45  C   UNL A   1      40.360  29.074  31.370  1.00  0.00     0.049 A 
ATOM     46  N   UNL A   1      39.166  31.753  30.967  1.00  0.00    -0.248 NA
ATOM     47  C   UNL A   1      38.989  31.490  28.714  1.00  0.00     0.031 C 
ATOM     48  C   UNL A   1      39.299  29.083  32.403  1.00  0.00     0.029 A 
ATOM     49  N   UNL A   1      41.227  28.098  31.929  1.00  0.00    -0.354 N 
ATOM     50  C   UNL A   1      38.170  32.579  30.486  1.00  0.00     0.074 A 
ATOM     51  C   UNL A   1      38.285  32.557  29.071  1.00  0.00     0.031 C 
ATOM     52  C   UNL A   1      39.683  28.403  33.505  1.00  0.00     0.029 A 
ATOM     53  C   UNL A   1      41.063  28.010  33.320  1.00  0.00     0.049 A 
ATOM     54  H   UNL A   1      41.861  27.554  31.406  1.00  0.00     0.167 HD
ATOM     55  C   UNL A   1      37.200  32.986  31.339  1.00  0.00     0.034 A 
ATOM     56  C   UNL A   1      42.103  28.104  34.198  1.00  0.00     0.034 A 
ATOM     57  C   UNL A   1      37.502  32.465  32.678  1.00  0.00     0.049 A 
ATOM     58  C   UNL A   1      41.930  29.394  34.947  1.00  0.00     0.074 A 
ATOM     59  C   UNL A   1      36.983  31.428  33.430  1.00  0.00     0.029 A 
ATOM     60  N   UNL A   1      38.714  32.807  33.262  1.00  0.00    -0.354 N 
ATOM     61  N   UNL A   1      41.057  30.278  34.556  1.00  0.00    -0.248 NA
ATOM     62  C   UNL A   1      42.588  29.786  36.187  1.00  0.00     0.031 C 
ATOM     63  C   UNL A   1      37.896  31.168  34.492  1.00  0.00     0.029 A 
ATOM     64  C   UNL A   1      38.962  32.048  34.385  1.00  0.00     0.049 A 
ATOM     65  H   UNL A   1      39.321  33.502  32.917  1.00  0.00     0.167 HD
ATOM     66  C   UNL A   1      40.992  31.309  35.427  1.00  0.00     0.074 A 
ATOM     67  C   UNL A   1      41.980  30.964  36.436  1.00  0.00     0.031 C 
ATOM     68  C   UNL A   1      40.128  32.341  35.212  1.00  0.00     0.034 A 
BRANCH  55  69
ATOM     69  C   UNL A   1      35.871  33.632  30.989  1.00  0.00     0.023 A 
ATOM     70  C   UNL A   1      35.385  33.324  29.699  1.00  0.00     0.012 A 
ATOM     71  C   UNL A   1      35.060  34.510  31.756  1.00  0.00     0.148 A 
ATOM     72  C   UNL A   1      34.202  33.856  29.184  1.00  0.00     0.002 A 
ATOM     73  C   UNL A   1      33.860  35.028  31.251  1.00  0.00     0.091 A 
ATOM     74  F   UNL A   1      35.422  34.883  32.982  1.00  0.00    -0.205 F 
ATOM     75  C   UNL A   1      33.435  34.705  29.961  1.00  0.00     0.022 A 
BRANCH  73  76
ATOM     76  S   UNL A   1      32.780  36.129  32.191  1.00  0.00     0.127 S 
ATOM     77  O   UNL A   1      31.924  35.180  32.906  1.00  0.00    -0.237 OA
ATOM     78  O   UNL A   1      33.729  36.847  33.041  1.00  0.00    -0.237 OA
ATOM     79  O   UNL A   1      32.077  36.958  31.220  1.00  0.00    -0.744 OA
ENDBRANCH  73  76
ENDBRANCH  55  69
BRANCH  56  80
ATOM     80  C   UNL A   1      43.352  27.491  33.647  1.00  0.00     0.023 A 
ATOM     81  C   UNL A   1      44.346  28.406  33.202  1.00  0.00     0.012 A 
ATOM     82  C   UNL A   1      43.756  26.231  34.111  1.00  0.00     0.148 A 
ATOM     83  C   UNL A   1      45.700  28.169  33.458  1.00  0.00     0.002 A 
ATOM     84  C   UNL A   1      45.105  26.005  34.365  1.00  0.00     0.091 A 
ATOM     85  F   UNL A   1      42.811  25.331  34.412  1.00  0.00    -0.205 F 
ATOM     86  C   UNL A   1      46.069  26.996  34.103  1.00  0.00     0.022 A 
BRANCH  84  87
ATOM     87  S   UNL A   1      45.666  24.524  35.200  1.00  0.00     0.127 S 
ATOM     88  O   UNL A   1      45.175  23.472  34.318  1.00  0.00    -0.237 OA
ATOM     89  O   UNL A   1      47.119  24.705  35.179  1.00  0.00    -0.237 OA
ATOM     90  O   UNL A   1      45.057  24.566  36.520  1.00  0.00    -0.744 OA
ENDBRANCH  84  87
ENDBRANCH  56  80
BRANCH  68  91
ATOM     91  C   UNL A   1      40.291  33.719  35.799  1.00  0.00     0.023 A 
ATOM     92  C   UNL A   1      40.554  34.835  34.988  1.00  0.00     0.012 A 
ATOM     93  C   UNL A   1      40.044  33.974  37.174  1.00  0.00     0.148 A 
ATOM     94  C   UNL A   1      40.697  36.114  35.522  1.00  0.00     0.002 A 
ATOM     95  C   UNL A   1      40.040  35.265  37.673  1.00  0.00     0.091 A 
ATOM     96  F   UNL A   1      39.832  32.968  38.030  1.00  0.00    -0.205 F 
ATOM     97  C   UNL A   1      40.425  36.332  36.863  1.00  0.00     0.022 A 
BRANCH  95  98
ATOM     98  S   UNL A   1      39.439  35.640  39.322  1.00  0.00     0.127 S 
ATOM     99  O   UNL A   1      39.056  37.043  39.178  1.00  0.00    -0.237 OA
ATOM    100  O   UNL A   1      38.317  34.707  39.449  1.00  0.00    -0.237 OA
ATOM    101  O   UNL A   1      40.548  35.373  40.226  1.00  0.00    -0.744 OA
ENDBRANCH  95  98
ENDBRANCH  68  91
ENDBRANCH  42  43
ENDBRANCH  35  37
ENDBRANCH  34  35
ENDBRANCH  33  34
ENDBRANCH  32  33
ENDBRANCH  31  32
ENDBRANCH  30  31
ENDBRANCH   1  30
TORSDOF 23
ENDMDL
