MODEL 1
REMARK VINA RESULT:     -11.4      0.000      0.000
REMARK SMILES Cc1cccc(/C=C(/F)C(=O)OCCOCCOC(=O)c2ccc(-c3c4nc(c(-c5cccc(S(=O)(=O)[O-])c5F)c5ccc([nH]5)c(-c5cccc(S(=O)(=O)[O-])c5F)c5nc(c(-c6cccc(S(=O)(=O)[O-])c6F)c6ccc3[nH]6)C=C5)C=C4)cc2)c1C
REMARK SMILES IDX 16 1 15 2 14 3 13 4 12 5 10 6 11 7 8 8 7 9 9 10 6 11 1 12
REMARK SMILES IDX 2 13 3 14 84 15 4 16 85 17 5 18 17 19 18 20 19 21 20 22
REMARK SMILES IDX 21 23 22 24 83 25 23 26 82 27 24 28 25 29 26 30 76 31 27 32
REMARK SMILES IDX 81 33 75 34 77 35 28 36 80 37 74 38 73 39 29 41 61 42 41 43
REMARK SMILES IDX 60 44 42 45 45 46 59 47 78 48 43 49 44 50 58 52 79 53 46 54
REMARK SMILES IDX 30 55 31 56 39 57 32 58 34 59 40 60 33 61 35 62 36 63 37 64
REMARK SMILES IDX 38 65 62 66 63 67 71 68 64 69 66 70 72 71 65 72 67 73 68 74
REMARK SMILES IDX 69 75 70 76 47 77 48 78 56 79 49 80 51 81 57 82 50 83 52 84
REMARK SMILES IDX 53 85 54 86 55 87
REMARK H PARENT 77 40 45 51
REMARK Flexibility Score: inf
ROOT
ATOM      1  C   UNL A   1      35.911  20.591  25.121  1.00  0.00     0.202 C 
ENDROOT
BRANCH   1   2
ATOM      2  O   UNL A   1      34.888  19.719  24.637  1.00  0.00    -0.374 OA
BRANCH   2   3
ATOM      3  C   UNL A   1      33.518  20.095  24.795  1.00  0.00     0.202 C 
BRANCH   3   4
ATOM      4  C   UNL A   1      33.032  20.793  26.080  1.00  0.00     0.261 C 
BRANCH   4   5
ATOM      5  O   UNL A   1      32.149  21.886  25.797  1.00  0.00    -0.458 OA
BRANCH   5   6
ATOM      6  C   UNL A   1      32.167  22.896  26.710  1.00  0.00     0.367 C 
ATOM      7  O   UNL A   1      31.232  23.287  27.392  1.00  0.00    -0.243 OA
BRANCH   6   8
ATOM      8  C   UNL A   1      33.555  23.360  26.869  1.00  0.00     0.208 C 
ATOM      9  C   UNL A   1      34.274  24.216  26.120  1.00  0.00     0.055 C 
ATOM     10  F   UNL A   1      34.135  22.882  27.998  1.00  0.00    -0.199 F 
BRANCH   9  11
ATOM     11  C   UNL A   1      34.114  25.105  24.923  1.00  0.00    -0.019 A 
ATOM     12  C   UNL A   1      32.788  25.396  21.319  1.00  0.00     0.044 C 
ATOM     13  C   UNL A   1      33.359  25.761  22.668  1.00  0.00    -0.048 A 
ATOM     14  C   UNL A   1      33.343  27.103  23.053  1.00  0.00     0.004 A 
ATOM     15  C   UNL A   1      33.836  24.770  23.574  1.00  0.00    -0.041 A 
ATOM     16  C   UNL A   1      33.754  27.466  24.325  1.00  0.00     0.001 A 
ATOM     17  C   UNL A   1      34.086  23.403  23.022  1.00  0.00     0.045 C 
ATOM     18  C   UNL A   1      34.101  26.479  25.249  1.00  0.00     0.008 A 
ENDBRANCH   9  11
ENDBRANCH   6   8
ENDBRANCH   5   6
ENDBRANCH   4   5
ENDBRANCH   3   4
ENDBRANCH   2   3
ENDBRANCH   1   2
BRANCH   1  19
ATOM     19  C   UNL A   1      37.380  20.170  25.007  1.00  0.00     0.261 C 
BRANCH  19  20
ATOM     20  O   UNL A   1      38.294  21.262  25.118  1.00  0.00    -0.460 OA
BRANCH  20  21
ATOM     21  C   UNL A   1      39.313  21.044  25.986  1.00  0.00     0.338 C 
ATOM     22  O   UNL A   1      39.933  20.005  26.156  1.00  0.00    -0.246 OA
BRANCH  21  23
ATOM     23  C   UNL A   1      39.729  22.333  26.561  1.00  0.00     0.060 A 
ATOM     24  C   UNL A   1      39.043  23.482  26.139  1.00  0.00     0.016 A 
ATOM     25  C   UNL A   1      40.764  22.415  27.493  1.00  0.00     0.016 A 
ATOM     26  C   UNL A   1      39.423  24.730  26.616  1.00  0.00     0.010 A 
ATOM     27  C   UNL A   1      41.157  23.670  27.956  1.00  0.00     0.010 A 
ATOM     28  C   UNL A   1      40.513  24.829  27.488  1.00  0.00    -0.014 A 
BRANCH  28  29
ATOM     29  C   UNL A   1      41.096  26.158  27.764  1.00  0.00     0.031 A 
ATOM     30  C   UNL A   1      42.499  26.427  27.301  1.00  0.00     0.074 A 
ATOM     31  C   UNL A   1      40.384  27.098  28.407  1.00  0.00     0.049 A 
ATOM     32  N   UNL A   1      43.236  27.490  27.470  1.00  0.00    -0.248 NA
ATOM     33  C   UNL A   1      43.165  25.347  26.549  1.00  0.00     0.031 C 
ATOM     34  C   UNL A   1      39.010  26.939  28.885  1.00  0.00     0.029 A 
ATOM     35  N   UNL A   1      40.732  28.365  28.793  1.00  0.00    -0.354 N 
ATOM     36  C   UNL A   1      44.461  27.197  26.883  1.00  0.00     0.074 A 
ATOM     37  C   UNL A   1      44.373  25.854  26.356  1.00  0.00     0.031 C 
ATOM     38  C   UNL A   1      38.644  28.058  29.531  1.00  0.00     0.029 A 
ATOM     39  C   UNL A   1      39.765  28.995  29.538  1.00  0.00     0.049 A 
ATOM     40  H   UNL A   1      41.592  28.784  28.560  1.00  0.00     0.167 HD
ATOM     41  C   UNL A   1      45.555  27.985  26.783  1.00  0.00     0.034 A 
ATOM     42  C   UNL A   1      39.800  30.180  30.178  1.00  0.00     0.034 A 
ATOM     43  C   UNL A   1      45.622  29.325  27.297  1.00  0.00     0.049 A 
ATOM     44  C   UNL A   1      41.043  31.025  30.073  1.00  0.00     0.074 A 
ATOM     45  C   UNL A   1      46.665  30.228  27.210  1.00  0.00     0.029 A 
ATOM     46  N   UNL A   1      44.608  29.948  28.009  1.00  0.00    -0.354 N 
ATOM     47  N   UNL A   1      42.155  30.781  29.422  1.00  0.00    -0.248 NA
ATOM     48  C   UNL A   1      41.023  32.323  30.762  1.00  0.00     0.031 C 
ATOM     49  C   UNL A   1      46.297  31.384  27.905  1.00  0.00     0.029 A 
ATOM     50  C   UNL A   1      45.007  31.218  28.382  1.00  0.00     0.049 A 
ATOM     51  H   UNL A   1      43.734  29.545  28.219  1.00  0.00     0.167 HD
ATOM     52  C   UNL A   1      42.950  31.910  29.587  1.00  0.00     0.074 A 
ATOM     53  C   UNL A   1      42.183  32.845  30.385  1.00  0.00     0.031 C 
ATOM     54  C   UNL A   1      44.204  32.151  29.132  1.00  0.00     0.034 A 
BRANCH  41  55
ATOM     55  C   UNL A   1      46.767  27.423  26.089  1.00  0.00     0.023 A 
ATOM     56  C   UNL A   1      47.564  26.457  26.733  1.00  0.00     0.012 A 
ATOM     57  C   UNL A   1      47.077  27.808  24.769  1.00  0.00     0.148 A 
ATOM     58  C   UNL A   1      48.667  25.900  26.087  1.00  0.00     0.002 A 
ATOM     59  C   UNL A   1      48.148  27.215  24.114  1.00  0.00     0.091 A 
ATOM     60  F   UNL A   1      46.321  28.748  24.184  1.00  0.00    -0.205 F 
ATOM     61  C   UNL A   1      48.952  26.270  24.774  1.00  0.00     0.022 A 
BRANCH  59  62
ATOM     62  S   UNL A   1      48.548  27.562  22.398  1.00  0.00     0.127 S 
ATOM     63  O   UNL A   1      48.640  26.214  21.838  1.00  0.00    -0.237 OA
ATOM     64  O   UNL A   1      47.380  28.325  21.962  1.00  0.00    -0.237 OA
ATOM     65  O   UNL A   1      49.796  28.312  22.417  1.00  0.00    -0.744 OA
ENDBRANCH  59  62
ENDBRANCH  41  55
BRANCH  42  66
ATOM     66  C   UNL A   1      38.622  30.645  30.963  1.00  0.00     0.023 A 
ATOM     67  C   UNL A   1      38.554  30.379  32.345  1.00  0.00     0.012 A 
ATOM     68  C   UNL A   1      37.568  31.349  30.348  1.00  0.00     0.148 A 
ATOM     69  C   UNL A   1      37.441  30.770  33.091  1.00  0.00     0.002 A 
ATOM     70  C   UNL A   1      36.490  31.786  31.107  1.00  0.00     0.091 A 
ATOM     71  F   UNL A   1      37.646  31.580  29.029  1.00  0.00    -0.205 F 
ATOM     72  C   UNL A   1      36.414  31.481  32.474  1.00  0.00     0.022 A 
BRANCH  70  73
ATOM     73  S   UNL A   1      35.186  32.813  30.424  1.00  0.00     0.127 S 
ATOM     74  O   UNL A   1      35.935  33.978  29.961  1.00  0.00    -0.237 OA
ATOM     75  O   UNL A   1      34.656  31.959  29.361  1.00  0.00    -0.237 OA
ATOM     76  O   UNL A   1      34.258  33.053  31.520  1.00  0.00    -0.744 OA
ENDBRANCH  70  73
ENDBRANCH  42  66
BRANCH  54  77
ATOM     77  C   UNL A   1      44.809  33.498  29.430  1.00  0.00     0.023 A 
ATOM     78  C   UNL A   1      45.571  33.690  30.598  1.00  0.00     0.012 A 
ATOM     79  C   UNL A   1      44.682  34.553  28.504  1.00  0.00     0.148 A 
ATOM     80  C   UNL A   1      46.166  34.924  30.860  1.00  0.00     0.002 A 
ATOM     81  C   UNL A   1      45.324  35.761  28.743  1.00  0.00     0.091 A 
ATOM     82  F   UNL A   1      43.940  34.354  27.404  1.00  0.00    -0.205 F 
ATOM     83  C   UNL A   1      46.053  35.953  29.928  1.00  0.00     0.022 A 
BRANCH  81  84
ATOM     84  S   UNL A   1      45.321  37.106  27.554  1.00  0.00     0.127 S 
ATOM     85  O   UNL A   1      46.012  38.161  28.295  1.00  0.00    -0.237 OA
ATOM     86  O   UNL A   1      46.087  36.538  26.444  1.00  0.00    -0.237 OA
ATOM     87  O   UNL A   1      43.922  37.374  27.250  1.00  0.00    -0.744 OA
ENDBRANCH  81  84
ENDBRANCH  54  77
ENDBRANCH  28  29
ENDBRANCH  21  23
ENDBRANCH  20  21
ENDBRANCH  19  20
ENDBRANCH   1  19
TORSDOF 18
ENDMDL
MODEL 2
REMARK VINA RESULT:     -11.4      1.398      1.674
REMARK SMILES Cc1cccc(/C=C(/F)C(=O)OCCOCCOC(=O)c2ccc(-c3c4nc(c(-c5cccc(S(=O)(=O)[O-])c5F)c5ccc([nH]5)c(-c5cccc(S(=O)(=O)[O-])c5F)c5nc(c(-c6cccc(S(=O)(=O)[O-])c6F)c6ccc3[nH]6)C=C5)C=C4)cc2)c1C
REMARK SMILES IDX 16 1 15 2 14 3 13 4 12 5 10 6 11 7 8 8 7 9 9 10 6 11 1 12
REMARK SMILES IDX 2 13 3 14 84 15 4 16 85 17 5 18 17 19 18 20 19 21 20 22
REMARK SMILES IDX 21 23 22 24 83 25 23 26 82 27 24 28 25 29 26 30 76 31 27 32
REMARK SMILES IDX 81 33 75 34 77 35 28 36 80 37 74 38 73 39 29 41 61 42 41 43
REMARK SMILES IDX 60 44 42 45 45 46 59 47 78 48 43 49 44 50 58 52 79 53 46 54
REMARK SMILES IDX 30 55 31 56 39 57 32 58 34 59 40 60 33 61 35 62 36 63 37 64
REMARK SMILES IDX 38 65 62 66 63 67 71 68 64 69 66 70 72 71 65 72 67 73 68 74
REMARK SMILES IDX 69 75 70 76 47 77 48 78 56 79 49 80 51 81 57 82 50 83 52 84
REMARK SMILES IDX 53 85 54 86 55 87
REMARK H PARENT 77 40 45 51
REMARK Flexibility Score: inf
ROOT
ATOM      1  C   UNL A   1      35.729  20.610  25.282  1.00  0.00     0.202 C 
ENDROOT
BRANCH   1   2
ATOM      2  O   UNL A   1      34.693  19.870  24.633  1.00  0.00    -0.374 OA
BRANCH   2   3
ATOM      3  C   UNL A   1      33.394  20.452  24.507  1.00  0.00     0.202 C 
BRANCH   3   4
ATOM      4  C   UNL A   1      32.600  20.892  25.753  1.00  0.00     0.261 C 
BRANCH   4   5
ATOM      5  O   UNL A   1      32.018  22.192  25.587  1.00  0.00    -0.458 OA
BRANCH   5   6
ATOM      6  C   UNL A   1      32.171  23.034  26.646  1.00  0.00     0.367 C 
ATOM      7  O   UNL A   1      31.327  23.328  27.478  1.00  0.00    -0.243 OA
BRANCH   6   8
ATOM      8  C   UNL A   1      33.586  23.430  26.731  1.00  0.00     0.208 C 
ATOM      9  C   UNL A   1      34.298  24.273  25.961  1.00  0.00     0.055 C 
ATOM     10  F   UNL A   1      34.209  22.895  27.810  1.00  0.00    -0.199 F 
BRANCH   9  11
ATOM     11  C   UNL A   1      34.108  25.200  24.798  1.00  0.00    -0.019 A 
ATOM     12  C   UNL A   1      32.758  25.589  21.212  1.00  0.00     0.044 C 
ATOM     13  C   UNL A   1      33.325  25.919  22.572  1.00  0.00    -0.048 A 
ATOM     14  C   UNL A   1      33.274  27.244  23.006  1.00  0.00     0.004 A 
ATOM     15  C   UNL A   1      33.833  24.908  23.438  1.00  0.00    -0.041 A 
ATOM     16  C   UNL A   1      33.681  27.571  24.290  1.00  0.00     0.001 A 
ATOM     17  C   UNL A   1      34.117  23.570  22.835  1.00  0.00     0.045 C 
ATOM     18  C   UNL A   1      34.059  26.561  25.175  1.00  0.00     0.008 A 
ENDBRANCH   9  11
ENDBRANCH   6   8
ENDBRANCH   5   6
ENDBRANCH   4   5
ENDBRANCH   3   4
ENDBRANCH   2   3
ENDBRANCH   1   2
BRANCH   1  19
ATOM     19  C   UNL A   1      37.195  20.285  24.977  1.00  0.00     0.261 C 
BRANCH  19  20
ATOM     20  O   UNL A   1      38.072  21.399  25.151  1.00  0.00    -0.460 OA
BRANCH  20  21
ATOM     21  C   UNL A   1      39.132  21.148  25.959  1.00  0.00     0.338 C 
ATOM     22  O   UNL A   1      39.754  20.102  26.060  1.00  0.00    -0.246 OA
BRANCH  21  23
ATOM     23  C   UNL A   1      39.582  22.415  26.557  1.00  0.00     0.060 A 
ATOM     24  C   UNL A   1      38.916  23.587  26.169  1.00  0.00     0.016 A 
ATOM     25  C   UNL A   1      40.630  22.454  27.478  1.00  0.00     0.016 A 
ATOM     26  C   UNL A   1      39.329  24.815  26.669  1.00  0.00     0.010 A 
ATOM     27  C   UNL A   1      41.055  23.689  27.964  1.00  0.00     0.010 A 
ATOM     28  C   UNL A   1      40.431  24.872  27.529  1.00  0.00    -0.014 A 
BRANCH  28  29
ATOM     29  C   UNL A   1      41.046  26.182  27.827  1.00  0.00     0.031 A 
ATOM     30  C   UNL A   1      42.463  26.416  27.390  1.00  0.00     0.074 A 
ATOM     31  C   UNL A   1      40.349  27.136  28.467  1.00  0.00     0.049 A 
ATOM     32  N   UNL A   1      43.226  27.457  27.581  1.00  0.00    -0.248 NA
ATOM     33  C   UNL A   1      43.112  25.325  26.639  1.00  0.00     0.031 C 
ATOM     34  C   UNL A   1      38.964  27.010  28.921  1.00  0.00     0.029 A 
ATOM     35  N   UNL A   1      40.726  28.389  28.871  1.00  0.00    -0.354 N 
ATOM     36  C   UNL A   1      44.452  27.135  27.011  1.00  0.00     0.074 A 
ATOM     37  C   UNL A   1      44.336  25.800  26.471  1.00  0.00     0.031 C 
ATOM     38  C   UNL A   1      38.618  28.134  29.571  1.00  0.00     0.029 A 
ATOM     39  C   UNL A   1      39.764  29.039  29.606  1.00  0.00     0.049 A 
ATOM     40  H   UNL A   1      41.601  28.786  28.656  1.00  0.00     0.167 HD
ATOM     41  C   UNL A   1      45.570  27.893  26.937  1.00  0.00     0.034 A 
ATOM     42  C   UNL A   1      39.821  30.216  30.257  1.00  0.00     0.034 A 
ATOM     43  C   UNL A   1      45.665  29.226  27.464  1.00  0.00     0.049 A 
ATOM     44  C   UNL A   1      41.088  31.028  30.180  1.00  0.00     0.074 A 
ATOM     45  C   UNL A   1      46.734  30.100  27.404  1.00  0.00     0.029 A 
ATOM     46  N   UNL A   1      44.657  29.871  28.166  1.00  0.00    -0.354 N 
ATOM     47  N   UNL A   1      42.205  30.759  29.546  1.00  0.00    -0.248 NA
ATOM     48  C   UNL A   1      41.093  32.320  30.881  1.00  0.00     0.031 C 
ATOM     49  C   UNL A   1      46.386  31.260  28.103  1.00  0.00     0.029 A 
ATOM     50  C   UNL A   1      45.084  31.126  28.557  1.00  0.00     0.049 A 
ATOM     51  H   UNL A   1      43.769  29.490  28.357  1.00  0.00     0.167 HD
ATOM     52  C   UNL A   1      43.028  31.864  29.735  1.00  0.00     0.074 A 
ATOM     53  C   UNL A   1      42.273  32.813  30.528  1.00  0.00     0.031 C 
ATOM     54  C   UNL A   1      44.295  32.074  29.302  1.00  0.00     0.034 A 
BRANCH  41  55
ATOM     55  C   UNL A   1      46.777  27.304  26.258  1.00  0.00     0.023 A 
ATOM     56  C   UNL A   1      46.974  27.499  24.877  1.00  0.00     0.012 A 
ATOM     57  C   UNL A   1      47.750  26.610  27.005  1.00  0.00     0.148 A 
ATOM     58  C   UNL A   1      48.108  26.991  24.243  1.00  0.00     0.002 A 
ATOM     59  C   UNL A   1      48.899  26.149  26.376  1.00  0.00     0.091 A 
ATOM     60  F   UNL A   1      47.530  26.413  28.312  1.00  0.00    -0.205 F 
ATOM     61  C   UNL A   1      49.075  26.327  24.994  1.00  0.00     0.022 A 
BRANCH  59  62
ATOM     62  S   UNL A   1      50.240  25.354  27.268  1.00  0.00     0.127 S 
ATOM     63  O   UNL A   1      49.566  24.185  27.833  1.00  0.00    -0.237 OA
ATOM     64  O   UNL A   1      51.184  25.053  26.193  1.00  0.00    -0.237 OA
ATOM     65  O   UNL A   1      50.711  26.328  28.242  1.00  0.00    -0.744 OA
ENDBRANCH  59  62
ENDBRANCH  41  55
BRANCH  42  66
ATOM     66  C   UNL A   1      38.643  30.707  31.027  1.00  0.00     0.023 A 
ATOM     67  C   UNL A   1      38.589  30.511  32.421  1.00  0.00     0.012 A 
ATOM     68  C   UNL A   1      37.577  31.366  30.385  1.00  0.00     0.148 A 
ATOM     69  C   UNL A   1      37.477  30.927  33.155  1.00  0.00     0.002 A 
ATOM     70  C   UNL A   1      36.498  31.828  31.129  1.00  0.00     0.091 A 
ATOM     71  F   UNL A   1      37.641  31.530  29.056  1.00  0.00    -0.205 F 
ATOM     72  C   UNL A   1      36.437  31.593  32.511  1.00  0.00     0.022 A 
BRANCH  70  73
ATOM     73  S   UNL A   1      35.177  32.803  30.405  1.00  0.00     0.127 S 
ATOM     74  O   UNL A   1      34.698  31.918  29.347  1.00  0.00    -0.237 OA
ATOM     75  O   UNL A   1      34.264  32.961  31.537  1.00  0.00    -0.237 OA
ATOM     76  O   UNL A   1      35.800  34.041  29.959  1.00  0.00    -0.744 OA
ENDBRANCH  70  73
ENDBRANCH  42  66
BRANCH  54  77
ATOM     77  C   UNL A   1      44.932  33.401  29.623  1.00  0.00     0.023 A 
ATOM     78  C   UNL A   1      45.694  33.556  30.796  1.00  0.00     0.012 A 
ATOM     79  C   UNL A   1      44.835  34.473  28.712  1.00  0.00     0.148 A 
ATOM     80  C   UNL A   1      46.318  34.771  31.079  1.00  0.00     0.002 A 
ATOM     81  C   UNL A   1      45.506  35.661  28.972  1.00  0.00     0.091 A 
ATOM     82  F   UNL A   1      44.093  34.308  27.607  1.00  0.00    -0.205 F 
ATOM     83  C   UNL A   1      46.234  35.817  30.163  1.00  0.00     0.022 A 
BRANCH  81  84
ATOM     84  S   UNL A   1      45.541  37.023  27.804  1.00  0.00     0.127 S 
ATOM     85  O   UNL A   1      44.149  37.472  27.828  1.00  0.00    -0.237 OA
ATOM     86  O   UNL A   1      46.490  37.943  28.431  1.00  0.00    -0.237 OA
ATOM     87  O   UNL A   1      45.990  36.459  26.538  1.00  0.00    -0.744 OA
ENDBRANCH  81  84
ENDBRANCH  54  77
ENDBRANCH  28  29
ENDBRANCH  21  23
ENDBRANCH  20  21
ENDBRANCH  19  20
ENDBRANCH   1  19
TORSDOF 18
ENDMDL
MODEL 3
REMARK VINA RESULT:     -11.3      5.482     11.345
REMARK SMILES Cc1cccc(/C=C(/F)C(=O)OCCOCCOC(=O)c2ccc(-c3c4nc(c(-c5cccc(S(=O)(=O)[O-])c5F)c5ccc([nH]5)c(-c5cccc(S(=O)(=O)[O-])c5F)c5nc(c(-c6cccc(S(=O)(=O)[O-])c6F)c6ccc3[nH]6)C=C5)C=C4)cc2)c1C
REMARK SMILES IDX 16 1 15 2 14 3 13 4 12 5 10 6 11 7 8 8 7 9 9 10 6 11 1 12
REMARK SMILES IDX 2 13 3 14 84 15 4 16 85 17 5 18 17 19 18 20 19 21 20 22
REMARK SMILES IDX 21 23 22 24 83 25 23 26 82 27 24 28 25 29 26 30 76 31 27 32
REMARK SMILES IDX 81 33 75 34 77 35 28 36 80 37 74 38 73 39 29 41 61 42 41 43
REMARK SMILES IDX 60 44 42 45 45 46 59 47 78 48 43 49 44 50 58 52 79 53 46 54
REMARK SMILES IDX 30 55 31 56 39 57 32 58 34 59 40 60 33 61 35 62 36 63 37 64
REMARK SMILES IDX 38 65 62 66 63 67 71 68 64 69 66 70 72 71 65 72 67 73 68 74
REMARK SMILES IDX 69 75 70 76 47 77 48 78 56 79 49 80 51 81 57 82 50 83 52 84
REMARK SMILES IDX 53 85 54 86 55 87
REMARK H PARENT 77 40 45 51
REMARK Flexibility Score: inf
ROOT
ATOM      1  C   UNL A   1      34.001  34.938  28.610  1.00  0.00     0.202 C 
ENDROOT
BRANCH   1   2
ATOM      2  O   UNL A   1      32.858  35.342  29.365  1.00  0.00    -0.374 OA
BRANCH   2   3
ATOM      3  C   UNL A   1      32.895  36.581  30.077  1.00  0.00     0.202 C 
BRANCH   3   4
ATOM      4  C   UNL A   1      33.296  36.627  31.564  1.00  0.00     0.261 C 
BRANCH   4   5
ATOM      5  O   UNL A   1      33.349  35.318  32.147  1.00  0.00    -0.458 OA
BRANCH   5   6
ATOM      6  C   UNL A   1      34.446  35.071  32.915  1.00  0.00     0.367 C 
ATOM      7  O   UNL A   1      34.929  35.804  33.764  1.00  0.00    -0.243 OA
BRANCH   6   8
ATOM      8  C   UNL A   1      34.888  33.688  32.670  1.00  0.00     0.208 C 
ATOM      9  C   UNL A   1      35.981  33.227  32.036  1.00  0.00     0.055 C 
ATOM     10  F   UNL A   1      34.075  32.774  33.256  1.00  0.00    -0.199 F 
BRANCH   9  11
ATOM     11  C   UNL A   1      37.221  33.741  31.367  1.00  0.00    -0.019 A 
ATOM     12  C   UNL A   1      40.998  34.405  31.721  1.00  0.00     0.044 C 
ATOM     13  C   UNL A   1      39.621  34.252  31.119  1.00  0.00    -0.048 A 
ATOM     14  C   UNL A   1      39.514  34.133  29.733  1.00  0.00     0.004 A 
ATOM     15  C   UNL A   1      38.456  34.149  31.932  1.00  0.00    -0.041 A 
ATOM     16  C   UNL A   1      38.284  33.879  29.150  1.00  0.00     0.001 A 
ATOM     17  C   UNL A   1      38.584  34.552  33.366  1.00  0.00     0.045 C 
ATOM     18  C   UNL A   1      37.167  33.656  29.957  1.00  0.00     0.008 A 
ENDBRANCH   9  11
ENDBRANCH   6   8
ENDBRANCH   5   6
ENDBRANCH   4   5
ENDBRANCH   3   4
ENDBRANCH   2   3
ENDBRANCH   1   2
BRANCH   1  19
ATOM     19  C   UNL A   1      33.984  33.593  27.874  1.00  0.00     0.261 C 
BRANCH  19  20
ATOM     20  O   UNL A   1      34.580  32.530  28.619  1.00  0.00    -0.460 OA
BRANCH  20  21
ATOM     21  C   UNL A   1      34.476  31.315  28.027  1.00  0.00     0.338 C 
ATOM     22  O   UNL A   1      33.633  30.953  27.221  1.00  0.00    -0.246 OA
BRANCH  21  23
ATOM     23  C   UNL A   1      35.687  30.535  28.333  1.00  0.00     0.060 A 
ATOM     24  C   UNL A   1      35.701  29.802  29.529  1.00  0.00     0.016 A 
ATOM     25  C   UNL A   1      36.781  30.519  27.466  1.00  0.00     0.016 A 
ATOM     26  C   UNL A   1      36.834  29.084  29.887  1.00  0.00     0.010 A 
ATOM     27  C   UNL A   1      37.924  29.813  27.836  1.00  0.00     0.010 A 
ATOM     28  C   UNL A   1      37.965  29.129  29.064  1.00  0.00    -0.014 A 
BRANCH  28  29
ATOM     29  C   UNL A   1      39.251  28.614  29.578  1.00  0.00     0.031 A 
ATOM     30  C   UNL A   1      39.868  29.300  30.762  1.00  0.00     0.074 A 
ATOM     31  C   UNL A   1      39.845  27.556  28.999  1.00  0.00     0.049 A 
ATOM     32  N   UNL A   1      41.007  29.062  31.354  1.00  0.00    -0.248 NA
ATOM     33  C   UNL A   1      39.100  30.409  31.357  1.00  0.00     0.031 C 
ATOM     34  C   UNL A   1      39.319  26.814  27.853  1.00  0.00     0.029 A 
ATOM     35  N   UNL A   1      41.037  26.943  29.283  1.00  0.00    -0.354 N 
ATOM     36  C   UNL A   1      41.111  30.012  32.364  1.00  0.00     0.074 A 
ATOM     37  C   UNL A   1      39.924  30.834  32.303  1.00  0.00     0.031 C 
ATOM     38  C   UNL A   1      40.204  25.862  27.511  1.00  0.00     0.029 A 
ATOM     39  C   UNL A   1      41.366  25.951  28.391  1.00  0.00     0.049 A 
ATOM     40  H   UNL A   1      41.602  27.189  30.050  1.00  0.00     0.167 HD
ATOM     41  C   UNL A   1      42.105  30.173  33.266  1.00  0.00     0.034 A 
ATOM     42  C   UNL A   1      42.495  25.225  28.284  1.00  0.00     0.034 A 
ATOM     43  C   UNL A   1      43.271  29.336  33.326  1.00  0.00     0.049 A 
ATOM     44  C   UNL A   1      43.598  25.444  29.287  1.00  0.00     0.074 A 
ATOM     45  C   UNL A   1      44.317  29.383  34.228  1.00  0.00     0.029 A 
ATOM     46  N   UNL A   1      43.554  28.313  32.433  1.00  0.00    -0.354 N 
ATOM     47  N   UNL A   1      43.637  26.273  30.303  1.00  0.00    -0.248 NA
ATOM     48  C   UNL A   1      44.798  24.607  29.149  1.00  0.00     0.031 C 
ATOM     49  C   UNL A   1      45.252  28.411  33.858  1.00  0.00     0.029 A 
ATOM     50  C   UNL A   1      44.765  27.730  32.754  1.00  0.00     0.049 A 
ATOM     51  H   UNL A   1      42.977  28.042  31.682  1.00  0.00     0.167 HD
ATOM     52  C   UNL A   1      44.843  26.027  30.950  1.00  0.00     0.074 A 
ATOM     53  C   UNL A   1      45.496  24.959  30.220  1.00  0.00     0.031 C 
ATOM     54  C   UNL A   1      45.371  26.633  32.042  1.00  0.00     0.034 A 
BRANCH  41  55
ATOM     55  C   UNL A   1      41.973  31.290  34.268  1.00  0.00     0.023 A 
ATOM     56  C   UNL A   1      41.120  31.143  35.379  1.00  0.00     0.012 A 
ATOM     57  C   UNL A   1      42.747  32.460  34.138  1.00  0.00     0.148 A 
ATOM     58  C   UNL A   1      41.018  32.154  36.334  1.00  0.00     0.002 A 
ATOM     59  C   UNL A   1      42.676  33.442  35.117  1.00  0.00     0.091 A 
ATOM     60  F   UNL A   1      43.532  32.590  33.059  1.00  0.00    -0.205 F 
ATOM     61  C   UNL A   1      41.804  33.298  36.210  1.00  0.00     0.022 A 
BRANCH  59  62
ATOM     62  S   UNL A   1      43.706  34.914  35.091  1.00  0.00     0.127 S 
ATOM     63  O   UNL A   1      43.225  35.590  33.887  1.00  0.00    -0.237 OA
ATOM     64  O   UNL A   1      43.336  35.566  36.346  1.00  0.00    -0.237 OA
ATOM     65  O   UNL A   1      45.082  34.443  35.030  1.00  0.00    -0.744 OA
ENDBRANCH  59  62
ENDBRANCH  41  55
BRANCH  42  66
ATOM     66  C   UNL A   1      42.638  24.215  27.197  1.00  0.00     0.023 A 
ATOM     67  C   UNL A   1      43.369  24.536  26.036  1.00  0.00     0.012 A 
ATOM     68  C   UNL A   1      42.054  22.938  27.309  1.00  0.00     0.148 A 
ATOM     69  C   UNL A   1      43.481  23.619  24.990  1.00  0.00     0.002 A 
ATOM     70  C   UNL A   1      42.218  22.009  26.288  1.00  0.00     0.091 A 
ATOM     71  F   UNL A   1      41.351  22.656  28.416  1.00  0.00    -0.205 F 
ATOM     72  C   UNL A   1      42.914  22.354  25.120  1.00  0.00     0.022 A 
BRANCH  70  73
ATOM     73  S   UNL A   1      41.629  20.319  26.423  1.00  0.00     0.127 S 
ATOM     74  O   UNL A   1      40.192  20.487  26.230  1.00  0.00    -0.237 OA
ATOM     75  O   UNL A   1      42.328  19.668  25.315  1.00  0.00    -0.237 OA
ATOM     76  O   UNL A   1      42.041  19.862  27.743  1.00  0.00    -0.744 OA
ENDBRANCH  70  73
ENDBRANCH  42  66
BRANCH  54  77
ATOM     77  C   UNL A   1      46.692  26.123  32.555  1.00  0.00     0.023 A 
ATOM     78  C   UNL A   1      47.893  26.741  32.157  1.00  0.00     0.012 A 
ATOM     79  C   UNL A   1      46.731  25.074  33.496  1.00  0.00     0.148 A 
ATOM     80  C   UNL A   1      49.117  26.298  32.658  1.00  0.00     0.002 A 
ATOM     81  C   UNL A   1      47.948  24.676  34.034  1.00  0.00     0.091 A 
ATOM     82  F   UNL A   1      45.577  24.490  33.851  1.00  0.00    -0.205 F 
ATOM     83  C   UNL A   1      49.143  25.276  33.605  1.00  0.00     0.022 A 
BRANCH  81  84
ATOM     84  S   UNL A   1      48.070  23.442  35.333  1.00  0.00     0.127 S 
ATOM     85  O   UNL A   1      47.238  22.364  34.798  1.00  0.00    -0.237 OA
ATOM     86  O   UNL A   1      49.504  23.154  35.351  1.00  0.00    -0.237 OA
ATOM     87  O   UNL A   1      47.563  24.077  36.542  1.00  0.00    -0.744 OA
ENDBRANCH  81  84
ENDBRANCH  54  77
ENDBRANCH  28  29
ENDBRANCH  21  23
ENDBRANCH  20  21
ENDBRANCH  19  20
ENDBRANCH   1  19
TORSDOF 18
ENDMDL
