MODEL 1
REMARK VINA RESULT:     -10.9      0.000      0.000
REMARK SMILES Cc1ccc(C)c(N2C(=O)C[C@@H](SCC(=O)OCCOCCOC(=O)c3ccc(-c4c5nc(c(-c6cccc(S(=O)(=O)[O-])c6F)c6ccc([nH]6)c(-c6cccc(S(=O)(=O)[O-])c6F)c6nc(c(-c7cccc(S(=O)(=O)[O-])c7F)c7ccc4[nH]7)C=C6)C=C5)cc3)C2=O)c1
REMARK SMILES IDX 20 1 19 2 18 3 17 4 15 5 16 6 14 7 13 8 12 9 8 10 9 11 89 12
REMARK SMILES IDX 10 13 11 14 90 15 7 16 1 17 2 18 3 19 91 20 4 21 5 22 6 23
REMARK SMILES IDX 21 24 22 25 23 26 24 27 25 28 26 29 27 30 88 31 28 32 87 33
REMARK SMILES IDX 29 34 30 35 31 36 81 37 32 38 86 39 80 40 82 41 33 42 85 43
REMARK SMILES IDX 79 44 78 45 34 47 66 48 46 49 65 50 47 51 50 52 64 53 83 54
REMARK SMILES IDX 48 55 49 56 63 58 84 59 51 60 35 61 36 62 44 63 37 64 39 65
REMARK SMILES IDX 45 66 38 67 40 68 41 69 42 70 43 71 67 72 68 73 76 74 69 75
REMARK SMILES IDX 71 76 77 77 70 78 72 79 73 80 74 81 75 82 52 83 53 84 61 85
REMARK SMILES IDX 54 86 56 87 62 88 55 89 57 90 58 91 59 92 60 93
REMARK H PARENT 82 46 50 57
REMARK Flexibility Score: inf
ROOT
ATOM      1  O   UNL A   1      39.580  21.772  25.641  1.00  0.00    -0.374 OA
ENDROOT
BRANCH   1   2
ATOM      2  C   UNL A   1      38.323  22.116  26.183  1.00  0.00     0.202 C 
BRANCH   2   3
ATOM      3  C   UNL A   1      37.309  22.202  25.029  1.00  0.00     0.261 C 
BRANCH   3   4
ATOM      4  O   UNL A   1      36.291  21.177  25.080  1.00  0.00    -0.463 OA
BRANCH   4   5
ATOM      5  C   UNL A   1      35.038  21.540  25.492  1.00  0.00     0.315 C 
ATOM      6  O   UNL A   1      34.669  21.692  26.631  1.00  0.00    -0.251 OA
BRANCH   5   7
ATOM      7  C   UNL A   1      34.147  21.856  24.315  1.00  0.00     0.192 C 
BRANCH   7   8
ATOM      8  S   UNL A   1      32.833  22.984  24.831  1.00  0.00    -0.136 SA
BRANCH   8   9
ATOM      9  C   UNL A   1      32.210  23.474  23.175  1.00  0.00     0.146 C 
ATOM     10  N   UNL A   1      31.980  25.761  23.036  1.00  0.00    -0.249 N 
ATOM     11  C   UNL A   1      33.030  25.481  22.199  1.00  0.00     0.235 C 
ATOM     12  C   UNL A   1      31.289  24.630  23.370  1.00  0.00     0.247 C 
ATOM     13  O   UNL A   1      33.661  26.257  21.494  1.00  0.00    -0.274 OA
ATOM     14  C   UNL A   1      33.253  23.994  22.201  1.00  0.00     0.125 C 
ATOM     15  O   UNL A   1      30.116  24.524  23.712  1.00  0.00    -0.273 OA
BRANCH  10  16
ATOM     16  C   UNL A   1      31.541  27.041  23.413  1.00  0.00     0.055 A 
ATOM     17  C   UNL A   1      29.239  29.765  22.088  1.00  0.00     0.044 C 
ATOM     18  C   UNL A   1      30.189  29.010  22.963  1.00  0.00    -0.049 A 
ATOM     19  C   UNL A   1      30.606  29.560  24.179  1.00  0.00     0.004 A 
ATOM     20  C   UNL A   1      30.676  27.758  22.576  1.00  0.00     0.030 A 
ATOM     21  C   UNL A   1      31.495  28.871  25.001  1.00  0.00     0.006 A 
ATOM     22  C   UNL A   1      31.987  27.617  24.625  1.00  0.00    -0.027 A 
ATOM     23  C   UNL A   1      33.016  26.974  25.519  1.00  0.00     0.046 C 
ENDBRANCH  10  16
ENDBRANCH   8   9
ENDBRANCH   7   8
ENDBRANCH   5   7
ENDBRANCH   4   5
ENDBRANCH   3   4
ENDBRANCH   2   3
ENDBRANCH   1   2
BRANCH   1  24
ATOM     24  C   UNL A   1      40.600  21.272  26.485  1.00  0.00     0.202 C 
BRANCH  24  25
ATOM     25  C   UNL A   1      41.834  22.175  26.552  1.00  0.00     0.261 C 
BRANCH  25  26
ATOM     26  O   UNL A   1      41.536  23.517  26.987  1.00  0.00    -0.460 OA
BRANCH  26  27
ATOM     27  C   UNL A   1      42.015  23.831  28.224  1.00  0.00     0.338 C 
ATOM     28  O   UNL A   1      42.270  23.009  29.089  1.00  0.00    -0.246 OA
BRANCH  27  29
ATOM     29  C   UNL A   1      42.002  25.306  28.414  1.00  0.00     0.060 A 
ATOM     30  C   UNL A   1      42.883  25.888  29.337  1.00  0.00     0.016 A 
ATOM     31  C   UNL A   1      40.913  26.032  27.931  1.00  0.00     0.016 A 
ATOM     32  C   UNL A   1      42.604  27.159  29.858  1.00  0.00     0.010 A 
ATOM     33  C   UNL A   1      40.555  27.202  28.576  1.00  0.00     0.010 A 
ATOM     34  C   UNL A   1      41.398  27.792  29.533  1.00  0.00    -0.014 A 
BRANCH  34  35
ATOM     35  C   UNL A   1      41.195  29.238  29.736  1.00  0.00     0.031 A 
ATOM     36  C   UNL A   1      42.383  29.939  29.211  1.00  0.00     0.074 A 
ATOM     37  C   UNL A   1      40.146  29.974  30.165  1.00  0.00     0.049 A 
ATOM     38  N   UNL A   1      43.396  30.293  29.934  1.00  0.00    -0.248 NA
ATOM     39  C   UNL A   1      42.615  30.011  27.759  1.00  0.00     0.031 C 
ATOM     40  C   UNL A   1      38.859  29.529  30.668  1.00  0.00     0.029 A 
ATOM     41  N   UNL A   1      39.966  31.336  30.116  1.00  0.00    -0.354 N 
ATOM     42  C   UNL A   1      44.217  30.935  29.030  1.00  0.00     0.074 A 
ATOM     43  C   UNL A   1      43.887  30.410  27.731  1.00  0.00     0.031 C 
ATOM     44  C   UNL A   1      37.938  30.514  30.555  1.00  0.00     0.029 A 
ATOM     45  C   UNL A   1      38.627  31.735  30.184  1.00  0.00     0.049 A 
ATOM     46  H   UNL A   1      40.713  31.973  30.040  1.00  0.00     0.167 HD
ATOM     47  C   UNL A   1      44.724  32.159  29.329  1.00  0.00     0.034 A 
ATOM     48  C   UNL A   1      38.121  32.982  30.002  1.00  0.00     0.034 A 
ATOM     49  C   UNL A   1      44.612  32.483  30.729  1.00  0.00     0.049 A 
ATOM     50  C   UNL A   1      39.205  33.909  30.385  1.00  0.00     0.074 A 
ATOM     51  C   UNL A   1      44.873  31.827  31.917  1.00  0.00     0.029 A 
ATOM     52  N   UNL A   1      43.792  33.535  31.046  1.00  0.00    -0.354 N 
ATOM     53  N   UNL A   1      39.576  34.102  31.619  1.00  0.00    -0.248 NA
ATOM     54  C   UNL A   1      40.103  34.423  29.368  1.00  0.00     0.031 C 
ATOM     55  C   UNL A   1      43.879  32.280  32.832  1.00  0.00     0.029 A 
ATOM     56  C   UNL A   1      43.094  33.233  32.183  1.00  0.00     0.049 A 
ATOM     57  H   UNL A   1      43.716  34.375  30.536  1.00  0.00     0.167 HD
ATOM     58  C   UNL A   1      40.945  34.272  31.521  1.00  0.00     0.074 A 
ATOM     59  C   UNL A   1      41.174  34.651  30.130  1.00  0.00     0.031 C 
ATOM     60  C   UNL A   1      41.776  33.757  32.475  1.00  0.00     0.034 A 
BRANCH  47  61
ATOM     61  C   UNL A   1      44.899  33.214  28.273  1.00  0.00     0.023 A 
ATOM     62  C   UNL A   1      43.765  33.606  27.547  1.00  0.00     0.012 A 
ATOM     63  C   UNL A   1      46.154  33.676  27.812  1.00  0.00     0.148 A 
ATOM     64  C   UNL A   1      43.877  34.443  26.434  1.00  0.00     0.002 A 
ATOM     65  C   UNL A   1      46.247  34.617  26.801  1.00  0.00     0.091 A 
ATOM     66  F   UNL A   1      47.285  33.095  28.230  1.00  0.00    -0.205 F 
ATOM     67  C   UNL A   1      45.113  34.983  26.083  1.00  0.00     0.022 A 
BRANCH  65  68
ATOM     68  S   UNL A   1      47.817  35.408  26.440  1.00  0.00     0.127 S 
ATOM     69  O   UNL A   1      48.306  35.716  27.779  1.00  0.00    -0.237 OA
ATOM     70  O   UNL A   1      48.538  34.347  25.738  1.00  0.00    -0.237 OA
ATOM     71  O   UNL A   1      47.473  36.549  25.596  1.00  0.00    -0.744 OA
ENDBRANCH  65  68
ENDBRANCH  47  61
BRANCH  48  72
ATOM     72  C   UNL A   1      36.802  33.518  29.573  1.00  0.00     0.023 A 
ATOM     73  C   UNL A   1      36.254  33.080  28.344  1.00  0.00     0.012 A 
ATOM     74  C   UNL A   1      35.946  34.176  30.479  1.00  0.00     0.148 A 
ATOM     75  C   UNL A   1      34.890  33.215  28.062  1.00  0.00     0.002 A 
ATOM     76  C   UNL A   1      34.585  34.309  30.190  1.00  0.00     0.091 A 
ATOM     77  F   UNL A   1      36.444  34.590  31.652  1.00  0.00    -0.205 F 
ATOM     78  C   UNL A   1      34.051  33.813  28.993  1.00  0.00     0.022 A 
BRANCH  76  79
ATOM     79  S   UNL A   1      33.427  35.054  31.349  1.00  0.00     0.127 S 
ATOM     80  O   UNL A   1      32.202  35.138  30.552  1.00  0.00    -0.237 OA
ATOM     81  O   UNL A   1      33.391  34.062  32.421  1.00  0.00    -0.237 OA
ATOM     82  O   UNL A   1      34.004  36.348  31.693  1.00  0.00    -0.744 OA
ENDBRANCH  76  79
ENDBRANCH  48  72
BRANCH  60  83
ATOM     83  C   UNL A   1      41.216  33.471  33.848  1.00  0.00     0.023 A 
ATOM     84  C   UNL A   1      41.127  34.436  34.872  1.00  0.00     0.012 A 
ATOM     85  C   UNL A   1      40.648  32.201  34.069  1.00  0.00     0.148 A 
ATOM     86  C   UNL A   1      40.527  34.129  36.097  1.00  0.00     0.002 A 
ATOM     87  C   UNL A   1      40.000  31.919  35.266  1.00  0.00     0.091 A 
ATOM     88  F   UNL A   1      40.744  31.282  33.097  1.00  0.00    -0.205 F 
ATOM     89  C   UNL A   1      39.950  32.876  36.290  1.00  0.00     0.022 A 
BRANCH  87  90
ATOM     90  S   UNL A   1      39.131  30.368  35.507  1.00  0.00     0.127 S 
ATOM     91  O   UNL A   1      40.212  29.468  35.904  1.00  0.00    -0.237 OA
ATOM     92  O   UNL A   1      38.185  30.696  36.575  1.00  0.00    -0.237 OA
ATOM     93  O   UNL A   1      38.496  30.070  34.228  1.00  0.00    -0.744 OA
ENDBRANCH  87  90
ENDBRANCH  60  83
ENDBRANCH  34  35
ENDBRANCH  27  29
ENDBRANCH  26  27
ENDBRANCH  25  26
ENDBRANCH  24  25
ENDBRANCH   1  24
TORSDOF 20
ENDMDL
MODEL 2
REMARK VINA RESULT:     -10.9      4.201     10.259
REMARK SMILES Cc1ccc(C)c(N2C(=O)C[C@@H](SCC(=O)OCCOCCOC(=O)c3ccc(-c4c5nc(c(-c6cccc(S(=O)(=O)[O-])c6F)c6ccc([nH]6)c(-c6cccc(S(=O)(=O)[O-])c6F)c6nc(c(-c7cccc(S(=O)(=O)[O-])c7F)c7ccc4[nH]7)C=C6)C=C5)cc3)C2=O)c1
REMARK SMILES IDX 20 1 19 2 18 3 17 4 15 5 16 6 14 7 13 8 12 9 8 10 9 11 89 12
REMARK SMILES IDX 10 13 11 14 90 15 7 16 1 17 2 18 3 19 91 20 4 21 5 22 6 23
REMARK SMILES IDX 21 24 22 25 23 26 24 27 25 28 26 29 27 30 88 31 28 32 87 33
REMARK SMILES IDX 29 34 30 35 31 36 81 37 32 38 86 39 80 40 82 41 33 42 85 43
REMARK SMILES IDX 79 44 78 45 34 47 66 48 46 49 65 50 47 51 50 52 64 53 83 54
REMARK SMILES IDX 48 55 49 56 63 58 84 59 51 60 35 61 36 62 44 63 37 64 39 65
REMARK SMILES IDX 45 66 38 67 40 68 41 69 42 70 43 71 67 72 68 73 76 74 69 75
REMARK SMILES IDX 71 76 77 77 70 78 72 79 73 80 74 81 75 82 52 83 53 84 61 85
REMARK SMILES IDX 54 86 56 87 62 88 55 89 57 90 58 91 59 92 60 93
REMARK H PARENT 82 46 50 57
REMARK Flexibility Score: inf
ROOT
ATOM      1  O   UNL A   1      33.355  29.275  27.187  1.00  0.00    -0.374 OA
ENDROOT
BRANCH   1   2
ATOM      2  C   UNL A   1      32.288  30.185  27.020  1.00  0.00     0.202 C 
BRANCH   2   3
ATOM      3  C   UNL A   1      31.854  30.151  25.544  1.00  0.00     0.261 C 
BRANCH   3   4
ATOM      4  O   UNL A   1      31.047  29.000  25.208  1.00  0.00    -0.463 OA
BRANCH   4   5
ATOM      5  C   UNL A   1      31.467  28.204  24.177  1.00  0.00     0.315 C 
ATOM      6  O   UNL A   1      31.246  28.369  23.002  1.00  0.00    -0.251 OA
BRANCH   5   7
ATOM      7  C   UNL A   1      32.372  27.103  24.673  1.00  0.00     0.192 C 
BRANCH   7   8
ATOM      8  S   UNL A   1      33.218  26.332  23.273  1.00  0.00    -0.136 SA
BRANCH   8   9
ATOM      9  C   UNL A   1      32.633  24.607  23.501  1.00  0.00     0.146 C 
ATOM     10  N   UNL A   1      34.155  23.389  24.727  1.00  0.00    -0.249 N 
ATOM     11  C   UNL A   1      33.078  23.519  25.568  1.00  0.00     0.235 C 
ATOM     12  C   UNL A   1      33.831  23.721  23.441  1.00  0.00     0.247 C 
ATOM     13  O   UNL A   1      32.933  23.047  26.687  1.00  0.00    -0.274 OA
ATOM     14  C   UNL A   1      32.007  24.291  24.848  1.00  0.00     0.125 C 
ATOM     15  O   UNL A   1      34.354  23.341  22.400  1.00  0.00    -0.273 OA
BRANCH  10  16
ATOM     16  C   UNL A   1      35.407  22.849  25.064  1.00  0.00     0.055 A 
ATOM     17  C   UNL A   1      38.843  24.080  26.136  1.00  0.00     0.044 C 
ATOM     18  C   UNL A   1      37.710  23.175  25.767  1.00  0.00    -0.049 A 
ATOM     19  C   UNL A   1      37.885  21.788  25.800  1.00  0.00     0.004 A 
ATOM     20  C   UNL A   1      36.474  23.699  25.379  1.00  0.00     0.030 A 
ATOM     21  C   UNL A   1      36.841  20.934  25.452  1.00  0.00     0.006 A 
ATOM     22  C   UNL A   1      35.599  21.448  25.064  1.00  0.00    -0.027 A 
ATOM     23  C   UNL A   1      34.548  20.467  24.613  1.00  0.00     0.046 C 
ENDBRANCH  10  16
ENDBRANCH   8   9
ENDBRANCH   7   8
ENDBRANCH   5   7
ENDBRANCH   4   5
ENDBRANCH   3   4
ENDBRANCH   2   3
ENDBRANCH   1   2
BRANCH   1  24
ATOM     24  C   UNL A   1      34.690  29.714  27.025  1.00  0.00     0.202 C 
BRANCH  24  25
ATOM     25  C   UNL A   1      34.962  31.083  27.652  1.00  0.00     0.261 C 
BRANCH  25  26
ATOM     26  O   UNL A   1      35.427  31.005  29.015  1.00  0.00    -0.460 OA
BRANCH  26  27
ATOM     27  C   UNL A   1      36.527  31.764  29.283  1.00  0.00     0.338 C 
ATOM     28  O   UNL A   1      36.600  32.964  29.073  1.00  0.00    -0.246 OA
BRANCH  27  29
ATOM     29  C   UNL A   1      37.660  30.889  29.687  1.00  0.00     0.060 A 
ATOM     30  C   UNL A   1      38.915  31.463  29.943  1.00  0.00     0.016 A 
ATOM     31  C   UNL A   1      37.546  29.514  29.484  1.00  0.00     0.016 A 
ATOM     32  C   UNL A   1      40.068  30.668  29.883  1.00  0.00     0.010 A 
ATOM     33  C   UNL A   1      38.696  28.778  29.257  1.00  0.00     0.010 A 
ATOM     34  C   UNL A   1      39.969  29.334  29.468  1.00  0.00    -0.014 A 
BRANCH  34  35
ATOM     35  C   UNL A   1      41.043  28.356  29.720  1.00  0.00     0.031 A 
ATOM     36  C   UNL A   1      41.326  28.360  31.168  1.00  0.00     0.074 A 
ATOM     37  C   UNL A   1      41.668  27.445  28.941  1.00  0.00     0.049 A 
ATOM     38  N   UNL A   1      42.258  29.064  31.725  1.00  0.00    -0.248 NA
ATOM     39  C   UNL A   1      40.354  27.781  32.111  1.00  0.00     0.031 C 
ATOM     40  C   UNL A   1      41.522  27.205  27.517  1.00  0.00     0.029 A 
ATOM     41  N   UNL A   1      42.506  26.420  29.310  1.00  0.00    -0.354 N 
ATOM     42  C   UNL A   1      42.163  28.713  33.056  1.00  0.00     0.074 A 
ATOM     43  C   UNL A   1      40.813  28.262  33.267  1.00  0.00     0.031 C 
ATOM     44  C   UNL A   1      41.939  25.956  27.202  1.00  0.00     0.029 A 
ATOM     45  C   UNL A   1      42.595  25.392  28.365  1.00  0.00     0.049 A 
ATOM     46  H   UNL A   1      42.998  26.411  30.162  1.00  0.00     0.167 HD
ATOM     47  C   UNL A   1      43.279  28.348  33.739  1.00  0.00     0.034 A 
ATOM     48  C   UNL A   1      43.205  24.187  28.504  1.00  0.00     0.034 A 
ATOM     49  C   UNL A   1      44.495  28.715  33.059  1.00  0.00     0.049 A 
ATOM     50  C   UNL A   1      44.282  24.399  29.492  1.00  0.00     0.074 A 
ATOM     51  C   UNL A   1      44.970  29.850  32.429  1.00  0.00     0.029 A 
ATOM     52  N   UNL A   1      45.287  27.680  32.628  1.00  0.00    -0.354 N 
ATOM     53  N   UNL A   1      45.372  25.062  29.228  1.00  0.00    -0.248 NA
ATOM     54  C   UNL A   1      44.033  24.126  30.895  1.00  0.00     0.031 C 
ATOM     55  C   UNL A   1      45.769  29.383  31.347  1.00  0.00     0.029 A 
ATOM     56  C   UNL A   1      45.797  27.989  31.397  1.00  0.00     0.049 A 
ATOM     57  H   UNL A   1      45.460  26.848  33.125  1.00  0.00     0.167 HD
ATOM     58  C   UNL A   1      45.643  25.721  30.414  1.00  0.00     0.074 A 
ATOM     59  C   UNL A   1      44.920  24.966  31.432  1.00  0.00     0.031 C 
ATOM     60  C   UNL A   1      46.137  26.994  30.400  1.00  0.00     0.034 A 
BRANCH  47  61
ATOM     61  C   UNL A   1      43.239  27.271  34.787  1.00  0.00     0.023 A 
ATOM     62  C   UNL A   1      42.278  26.258  34.646  1.00  0.00     0.012 A 
ATOM     63  C   UNL A   1      43.948  27.325  36.010  1.00  0.00     0.148 A 
ATOM     64  C   UNL A   1      42.059  25.328  35.666  1.00  0.00     0.002 A 
ATOM     65  C   UNL A   1      43.831  26.321  36.954  1.00  0.00     0.091 A 
ATOM     66  F   UNL A   1      44.623  28.429  36.352  1.00  0.00    -0.205 F 
ATOM     67  C   UNL A   1      42.862  25.333  36.804  1.00  0.00     0.022 A 
BRANCH  65  68
ATOM     68  S   UNL A   1      44.954  26.254  38.352  1.00  0.00     0.127 S 
ATOM     69  O   UNL A   1      44.496  25.052  39.040  1.00  0.00    -0.237 OA
ATOM     70  O   UNL A   1      46.254  26.140  37.691  1.00  0.00    -0.237 OA
ATOM     71  O   UNL A   1      44.755  27.520  39.051  1.00  0.00    -0.744 OA
ENDBRANCH  65  68
ENDBRANCH  47  61
BRANCH  48  72
ATOM     72  C   UNL A   1      43.026  22.851  27.875  1.00  0.00     0.023 A 
ATOM     73  C   UNL A   1      41.781  22.194  28.010  1.00  0.00     0.012 A 
ATOM     74  C   UNL A   1      43.919  22.375  26.895  1.00  0.00     0.148 A 
ATOM     75  C   UNL A   1      41.402  21.158  27.148  1.00  0.00     0.002 A 
ATOM     76  C   UNL A   1      43.536  21.339  26.038  1.00  0.00     0.091 A 
ATOM     77  F   UNL A   1      45.100  22.990  26.745  1.00  0.00    -0.205 F 
ATOM     78  C   UNL A   1      42.272  20.742  26.149  1.00  0.00     0.022 A 
BRANCH  76  79
ATOM     79  S   UNL A   1      44.596  20.753  24.706  1.00  0.00     0.127 S 
ATOM     80  O   UNL A   1      44.522  21.856  23.745  1.00  0.00    -0.237 OA
ATOM     81  O   UNL A   1      45.883  20.617  25.381  1.00  0.00    -0.237 OA
ATOM     82  O   UNL A   1      43.982  19.515  24.241  1.00  0.00    -0.744 OA
ENDBRANCH  76  79
ENDBRANCH  48  72
BRANCH  60  83
ATOM     83  C   UNL A   1      46.852  27.483  29.164  1.00  0.00     0.023 A 
ATOM     84  C   UNL A   1      48.230  27.291  28.932  1.00  0.00     0.012 A 
ATOM     85  C   UNL A   1      46.072  28.058  28.142  1.00  0.00     0.148 A 
ATOM     86  C   UNL A   1      48.820  27.699  27.731  1.00  0.00     0.002 A 
ATOM     87  C   UNL A   1      46.650  28.408  26.928  1.00  0.00     0.091 A 
ATOM     88  F   UNL A   1      44.764  28.250  28.371  1.00  0.00    -0.205 F 
ATOM     89  C   UNL A   1      48.028  28.245  26.723  1.00  0.00     0.022 A 
BRANCH  87  90
ATOM     90  S   UNL A   1      45.649  28.990  25.558  1.00  0.00     0.127 S 
ATOM     91  O   UNL A   1      44.734  27.870  25.348  1.00  0.00    -0.237 OA
ATOM     92  O   UNL A   1      45.025  30.195  26.108  1.00  0.00    -0.237 OA
ATOM     93  O   UNL A   1      46.585  29.255  24.471  1.00  0.00    -0.744 OA
ENDBRANCH  87  90
ENDBRANCH  60  83
ENDBRANCH  34  35
ENDBRANCH  27  29
ENDBRANCH  26  27
ENDBRANCH  25  26
ENDBRANCH  24  25
ENDBRANCH   1  24
TORSDOF 20
ENDMDL
MODEL 3
REMARK VINA RESULT:     -10.8      4.138      8.264
REMARK SMILES Cc1ccc(C)c(N2C(=O)C[C@@H](SCC(=O)OCCOCCOC(=O)c3ccc(-c4c5nc(c(-c6cccc(S(=O)(=O)[O-])c6F)c6ccc([nH]6)c(-c6cccc(S(=O)(=O)[O-])c6F)c6nc(c(-c7cccc(S(=O)(=O)[O-])c7F)c7ccc4[nH]7)C=C6)C=C5)cc3)C2=O)c1
REMARK SMILES IDX 20 1 19 2 18 3 17 4 15 5 16 6 14 7 13 8 12 9 8 10 9 11 89 12
REMARK SMILES IDX 10 13 11 14 90 15 7 16 1 17 2 18 3 19 91 20 4 21 5 22 6 23
REMARK SMILES IDX 21 24 22 25 23 26 24 27 25 28 26 29 27 30 88 31 28 32 87 33
REMARK SMILES IDX 29 34 30 35 31 36 81 37 32 38 86 39 80 40 82 41 33 42 85 43
REMARK SMILES IDX 79 44 78 45 34 47 66 48 46 49 65 50 47 51 50 52 64 53 83 54
REMARK SMILES IDX 48 55 49 56 63 58 84 59 51 60 35 61 36 62 44 63 37 64 39 65
REMARK SMILES IDX 45 66 38 67 40 68 41 69 42 70 43 71 67 72 68 73 76 74 69 75
REMARK SMILES IDX 71 76 77 77 70 78 72 79 73 80 74 81 75 82 52 83 53 84 61 85
REMARK SMILES IDX 54 86 56 87 62 88 55 89 57 90 58 91 59 92 60 93
REMARK H PARENT 82 46 50 57
REMARK Flexibility Score: inf
ROOT
ATOM      1  O   UNL A   1      37.556  20.784  25.429  1.00  0.00    -0.374 OA
ENDROOT
BRANCH   1   2
ATOM      2  C   UNL A   1      38.303  21.965  25.632  1.00  0.00     0.202 C 
BRANCH   2   3
ATOM      3  C   UNL A   1      37.319  23.144  25.734  1.00  0.00     0.261 C 
BRANCH   3   4
ATOM      4  O   UNL A   1      35.936  22.733  25.826  1.00  0.00    -0.463 OA
BRANCH   4   5
ATOM      5  C   UNL A   1      35.178  22.783  24.688  1.00  0.00     0.315 C 
ATOM      6  O   UNL A   1      35.581  22.743  23.551  1.00  0.00    -0.251 OA
BRANCH   5   7
ATOM      7  C   UNL A   1      33.704  22.780  25.015  1.00  0.00     0.192 C 
BRANCH   7   8
ATOM      8  S   UNL A   1      33.105  24.481  25.144  1.00  0.00    -0.136 SA
BRANCH   8   9
ATOM      9  C   UNL A   1      32.633  24.752  23.391  1.00  0.00     0.146 C 
ATOM     10  N   UNL A   1      31.982  26.935  23.053  1.00  0.00    -0.249 N 
ATOM     11  C   UNL A   1      33.172  26.834  22.377  1.00  0.00     0.235 C 
ATOM     12  C   UNL A   1      31.486  25.704  23.382  1.00  0.00     0.247 C 
ATOM     13  O   UNL A   1      33.730  27.687  21.700  1.00  0.00    -0.274 OA
ATOM     14  C   UNL A   1      33.678  25.425  22.519  1.00  0.00     0.125 C 
ATOM     15  O   UNL A   1      30.321  25.379  23.582  1.00  0.00    -0.273 OA
BRANCH  10  16
ATOM     16  C   UNL A   1      31.254  28.115  23.274  1.00  0.00     0.055 A 
ATOM     17  C   UNL A   1      28.456  30.088  21.614  1.00  0.00     0.044 C 
ATOM     18  C   UNL A   1      29.516  29.666  22.583  1.00  0.00    -0.049 A 
ATOM     19  C   UNL A   1      29.751  30.425  23.733  1.00  0.00     0.004 A 
ATOM     20  C   UNL A   1      30.285  28.523  22.349  1.00  0.00     0.030 A 
ATOM     21  C   UNL A   1      30.738  30.049  24.641  1.00  0.00     0.006 A 
ATOM     22  C   UNL A   1      31.512  28.905  24.418  1.00  0.00    -0.027 A 
ATOM     23  C   UNL A   1      32.623  28.613  25.394  1.00  0.00     0.046 C 
ENDBRANCH  10  16
ENDBRANCH   8   9
ENDBRANCH   7   8
ENDBRANCH   5   7
ENDBRANCH   4   5
ENDBRANCH   3   4
ENDBRANCH   2   3
ENDBRANCH   1   2
BRANCH   1  24
ATOM     24  C   UNL A   1      38.195  19.619  24.941  1.00  0.00     0.202 C 
BRANCH  24  25
ATOM     25  C   UNL A   1      39.439  19.226  25.742  1.00  0.00     0.261 C 
BRANCH  25  26
ATOM     26  O   UNL A   1      40.675  19.530  25.063  1.00  0.00    -0.460 OA
BRANCH  26  27
ATOM     27  C   UNL A   1      41.797  19.295  25.800  1.00  0.00     0.338 C 
ATOM     28  O   UNL A   1      42.369  18.218  25.854  1.00  0.00    -0.246 OA
BRANCH  27  29
ATOM     29  C   UNL A   1      42.102  20.475  26.652  1.00  0.00     0.060 A 
ATOM     30  C   UNL A   1      41.279  20.761  27.752  1.00  0.00     0.016 A 
ATOM     31  C   UNL A   1      42.978  21.444  26.161  1.00  0.00     0.016 A 
ATOM     32  C   UNL A   1      41.257  22.057  28.285  1.00  0.00     0.010 A 
ATOM     33  C   UNL A   1      42.821  22.754  26.579  1.00  0.00     0.010 A 
ATOM     34  C   UNL A   1      41.977  23.079  27.653  1.00  0.00    -0.014 A 
BRANCH  34  35
ATOM     35  C   UNL A   1      42.293  24.347  28.334  1.00  0.00     0.031 A 
ATOM     36  C   UNL A   1      41.182  25.284  28.083  1.00  0.00     0.074 A 
ATOM     37  C   UNL A   1      43.278  24.723  29.181  1.00  0.00     0.049 A 
ATOM     38  N   UNL A   1      41.169  26.158  27.128  1.00  0.00    -0.248 NA
ATOM     39  C   UNL A   1      39.877  25.073  28.732  1.00  0.00     0.031 C 
ATOM     40  C   UNL A   1      44.437  23.972  29.629  1.00  0.00     0.029 A 
ATOM     41  N   UNL A   1      43.376  25.862  29.944  1.00  0.00    -0.354 N 
ATOM     42  C   UNL A   1      39.969  26.811  27.316  1.00  0.00     0.074 A 
ATOM     43  C   UNL A   1      39.108  25.896  28.019  1.00  0.00     0.031 C 
ATOM     44  C   UNL A   1      44.915  24.484  30.787  1.00  0.00     0.029 A 
ATOM     45  C   UNL A   1      44.235  25.739  31.041  1.00  0.00     0.049 A 
ATOM     46  H   UNL A   1      42.885  26.690  29.736  1.00  0.00     0.167 HD
ATOM     47  C   UNL A   1      39.936  28.169  27.340  1.00  0.00     0.034 A 
ATOM     48  C   UNL A   1      44.417  26.621  32.057  1.00  0.00     0.034 A 
ATOM     49  C   UNL A   1      41.135  28.766  26.809  1.00  0.00     0.049 A 
ATOM     50  C   UNL A   1      44.102  27.948  31.491  1.00  0.00     0.074 A 
ATOM     51  C   UNL A   1      41.921  28.573  25.689  1.00  0.00     0.029 A 
ATOM     52  N   UNL A   1      41.901  29.482  27.694  1.00  0.00    -0.354 N 
ATOM     53  N   UNL A   1      44.879  28.566  30.647  1.00  0.00    -0.248 NA
ATOM     54  C   UNL A   1      42.762  28.488  31.629  1.00  0.00     0.031 C 
ATOM     55  C   UNL A   1      43.257  28.836  26.107  1.00  0.00     0.029 A 
ATOM     56  C   UNL A   1      43.223  29.235  27.443  1.00  0.00     0.049 A 
ATOM     57  H   UNL A   1      41.555  30.077  28.398  1.00  0.00     0.167 HD
ATOM     58  C   UNL A   1      43.990  29.202  29.798  1.00  0.00     0.074 A 
ATOM     59  C   UNL A   1      42.744  29.279  30.554  1.00  0.00     0.031 C 
ATOM     60  C   UNL A   1      44.253  29.288  28.461  1.00  0.00     0.034 A 
BRANCH  47  61
ATOM     61  C   UNL A   1      39.006  28.914  28.256  1.00  0.00     0.023 A 
ATOM     62  C   UNL A   1      38.220  29.935  27.700  1.00  0.00     0.012 A 
ATOM     63  C   UNL A   1      39.027  28.810  29.667  1.00  0.00     0.148 A 
ATOM     64  C   UNL A   1      37.470  30.789  28.513  1.00  0.00     0.002 A 
ATOM     65  C   UNL A   1      38.175  29.561  30.456  1.00  0.00     0.091 A 
ATOM     66  F   UNL A   1      39.984  28.102  30.279  1.00  0.00    -0.205 F 
ATOM     67  C   UNL A   1      37.414  30.578  29.888  1.00  0.00     0.022 A 
BRANCH  65  68
ATOM     68  S   UNL A   1      38.004  29.200  32.206  1.00  0.00     0.127 S 
ATOM     69  O   UNL A   1      37.691  27.776  32.183  1.00  0.00    -0.237 OA
ATOM     70  O   UNL A   1      39.332  29.541  32.717  1.00  0.00    -0.237 OA
ATOM     71  O   UNL A   1      36.945  30.091  32.669  1.00  0.00    -0.744 OA
ENDBRANCH  65  68
ENDBRANCH  47  61
BRANCH  48  72
ATOM     72  C   UNL A   1      44.867  26.504  33.469  1.00  0.00     0.023 A 
ATOM     73  C   UNL A   1      46.194  26.872  33.796  1.00  0.00     0.012 A 
ATOM     74  C   UNL A   1      43.946  26.358  34.525  1.00  0.00     0.148 A 
ATOM     75  C   UNL A   1      46.570  27.166  35.111  1.00  0.00     0.002 A 
ATOM     76  C   UNL A   1      44.328  26.653  35.838  1.00  0.00     0.091 A 
ATOM     77  F   UNL A   1      42.682  26.020  34.236  1.00  0.00    -0.205 F 
ATOM     78  C   UNL A   1      45.632  27.075  36.131  1.00  0.00     0.022 A 
BRANCH  76  79
ATOM     79  S   UNL A   1      43.169  26.578  37.213  1.00  0.00     0.127 S 
ATOM     80  O   UNL A   1      44.017  26.941  38.351  1.00  0.00    -0.237 OA
ATOM     81  O   UNL A   1      42.186  27.590  36.837  1.00  0.00    -0.237 OA
ATOM     82  O   UNL A   1      42.692  25.201  37.241  1.00  0.00    -0.744 OA
ENDBRANCH  76  79
ENDBRANCH  48  72
BRANCH  60  83
ATOM     83  C   UNL A   1      45.682  29.166  27.991  1.00  0.00     0.023 A 
ATOM     84  C   UNL A   1      46.568  30.259  27.893  1.00  0.00     0.012 A 
ATOM     85  C   UNL A   1      46.183  27.871  27.754  1.00  0.00     0.148 A 
ATOM     86  C   UNL A   1      47.904  30.070  27.526  1.00  0.00     0.002 A 
ATOM     87  C   UNL A   1      47.526  27.681  27.447  1.00  0.00     0.091 A 
ATOM     88  F   UNL A   1      45.336  26.835  27.838  1.00  0.00    -0.205 F 
ATOM     89  C   UNL A   1      48.387  28.780  27.317  1.00  0.00     0.022 A 
BRANCH  87  90
ATOM     90  S   UNL A   1      48.219  26.033  27.300  1.00  0.00     0.127 S 
ATOM     91  O   UNL A   1      47.752  25.620  25.979  1.00  0.00    -0.237 OA
ATOM     92  O   UNL A   1      49.659  26.284  27.389  1.00  0.00    -0.237 OA
ATOM     93  O   UNL A   1      47.681  25.278  28.426  1.00  0.00    -0.744 OA
ENDBRANCH  87  90
ENDBRANCH  60  83
ENDBRANCH  34  35
ENDBRANCH  27  29
ENDBRANCH  26  27
ENDBRANCH  25  26
ENDBRANCH  24  25
ENDBRANCH   1  24
TORSDOF 20
ENDMDL
