MODEL 1
REMARK VINA RESULT:     -11.1      0.000      0.000
REMARK SMILES Cc1nsc(N(C)C(=O)[C@@H]2CC(=O)N(C)C2)c1C(=O)OCCOCCOC(=O)c1ccc(-c2c3nc(c(-c4cccc(S(=O)(=O)[O-])c4F)c4ccc([nH]4)c(-c4cccc(S(=O)(=O)[O-])c4F)c4nc(c(-c5cccc(S(=O)(=O)[O-])c5F)c5ccc2[nH]5)C=C4)C=C3)cc1
REMARK SMILES IDX 23 1 22 2 21 3 20 4 18 5 19 6 17 7 1 8 2 9 3 10 4 11 5 12
REMARK SMILES IDX 6 13 7 14 8 15 9 16 10 17 11 18 16 19 12 20 14 21 13 22
REMARK SMILES IDX 15 23 24 24 25 25 26 26 27 27 28 28 29 29 30 30 91 31 31 32
REMARK SMILES IDX 90 33 32 34 33 35 34 36 84 37 35 38 89 39 83 40 85 41 36 42
REMARK SMILES IDX 88 43 82 44 81 45 37 47 69 48 49 49 68 50 50 51 53 52 67 53
REMARK SMILES IDX 86 54 51 55 52 56 66 58 87 59 54 60 38 61 39 62 47 63 40 64
REMARK SMILES IDX 42 65 48 66 41 67 43 68 44 69 45 70 46 71 70 72 71 73 79 74
REMARK SMILES IDX 72 75 74 76 80 77 73 78 75 79 76 80 77 81 78 82 55 83 56 84
REMARK SMILES IDX 64 85 57 86 59 87 65 88 58 89 60 90 61 91 62 92 63 93
REMARK H PARENT 85 46 53 57
REMARK Flexibility Score: inf
ROOT
ATOM      1  O   UNL A   1      36.365  22.906  26.184  1.00  0.00    -0.374 OA
ENDROOT
BRANCH   1   2
ATOM      2  C   UNL A   1      36.323  24.001  25.270  1.00  0.00     0.202 C 
BRANCH   2   3
ATOM      3  C   UNL A   1      35.036  24.262  24.486  1.00  0.00     0.261 C 
BRANCH   3   4
ATOM      4  O   UNL A   1      34.870  23.287  23.454  1.00  0.00    -0.460 OA
BRANCH   4   5
ATOM      5  C   UNL A   1      33.673  23.323  22.810  1.00  0.00     0.343 C 
ATOM      6  O   UNL A   1      33.530  23.344  21.588  1.00  0.00    -0.246 OA
BRANCH   5   7
ATOM      7  C   UNL A   1      32.581  23.449  23.750  1.00  0.00     0.117 A 
ATOM      8  C   UNL A   1      31.981  25.886  22.968  1.00  0.00     0.069 C 
ATOM      9  C   UNL A   1      31.757  24.645  23.770  1.00  0.00     0.068 A 
ATOM     10  N   UNL A   1      30.726  24.630  24.603  1.00  0.00    -0.195 NA
ATOM     11  S   UNL A   1      30.741  23.230  25.447  1.00  0.00    -0.017 S 
ATOM     12  C   UNL A   1      32.194  22.568  24.771  1.00  0.00     0.133 A 
BRANCH  12  13
ATOM     13  N   UNL A   1      32.704  21.391  25.410  1.00  0.00    -0.305 N 
ATOM     14  C   UNL A   1      33.261  21.431  26.765  1.00  0.00     0.154 C 
BRANCH  13  15
ATOM     15  C   UNL A   1      32.716  20.179  24.714  1.00  0.00     0.232 C 
ATOM     16  O   UNL A   1      32.161  20.027  23.624  1.00  0.00    -0.274 OA
BRANCH  15  17
ATOM     17  C   UNL A   1      33.515  18.967  25.253  1.00  0.00     0.108 C 
ATOM     18  C   UNL A   1      34.462  18.266  24.288  1.00  0.00     0.115 C 
ATOM     19  C   UNL A   1      32.703  17.862  25.911  1.00  0.00     0.133 C 
ATOM     20  C   UNL A   1      33.951  16.845  24.207  1.00  0.00     0.223 C 
ATOM     21  N   UNL A   1      32.948  16.684  25.138  1.00  0.00    -0.345 N 
ATOM     22  O   UNL A   1      34.377  15.995  23.442  1.00  0.00    -0.275 OA
ATOM     23  C   UNL A   1      32.269  15.443  25.448  1.00  0.00     0.146 C 
ENDBRANCH  15  17
ENDBRANCH  13  15
ENDBRANCH  12  13
ENDBRANCH   5   7
ENDBRANCH   4   5
ENDBRANCH   3   4
ENDBRANCH   2   3
ENDBRANCH   1   2
BRANCH   1  24
ATOM     24  C   UNL A   1      36.536  21.578  25.716  1.00  0.00     0.202 C 
BRANCH  24  25
ATOM     25  C   UNL A   1      37.786  21.119  24.992  1.00  0.00     0.261 C 
BRANCH  25  26
ATOM     26  O   UNL A   1      38.923  21.353  25.777  1.00  0.00    -0.460 OA
BRANCH  26  27
ATOM     27  C   UNL A   1      39.785  20.317  25.723  1.00  0.00     0.338 C 
ATOM     28  O   UNL A   1      39.531  19.158  25.434  1.00  0.00    -0.246 OA
BRANCH  27  29
ATOM     29  C   UNL A   1      41.077  20.783  26.231  1.00  0.00     0.060 A 
ATOM     30  C   UNL A   1      41.208  20.564  27.598  1.00  0.00     0.016 A 
ATOM     31  C   UNL A   1      41.669  21.867  25.564  1.00  0.00     0.016 A 
ATOM     32  C   UNL A   1      41.557  21.649  28.351  1.00  0.00     0.010 A 
ATOM     33  C   UNL A   1      42.005  22.955  26.318  1.00  0.00     0.010 A 
ATOM     34  C   UNL A   1      41.830  22.855  27.691  1.00  0.00    -0.014 A 
BRANCH  34  35
ATOM     35  C   UNL A   1      42.096  23.998  28.515  1.00  0.00     0.031 A 
ATOM     36  C   UNL A   1      41.037  25.004  28.337  1.00  0.00     0.074 A 
ATOM     37  C   UNL A   1      43.154  24.090  29.334  1.00  0.00     0.049 A 
ATOM     38  N   UNL A   1      41.104  26.050  27.586  1.00  0.00    -0.248 NA
ATOM     39  C   UNL A   1      39.678  24.653  28.775  1.00  0.00     0.031 C 
ATOM     40  C   UNL A   1      44.090  23.056  29.776  1.00  0.00     0.029 A 
ATOM     41  N   UNL A   1      43.528  25.170  30.055  1.00  0.00    -0.354 N 
ATOM     42  C   UNL A   1      39.844  26.624  27.665  1.00  0.00     0.074 A 
ATOM     43  C   UNL A   1      38.968  25.599  28.161  1.00  0.00     0.031 C 
ATOM     44  C   UNL A   1      44.736  23.502  30.881  1.00  0.00     0.029 A 
ATOM     45  C   UNL A   1      44.350  24.882  31.131  1.00  0.00     0.049 A 
ATOM     46  H   UNL A   1      43.241  26.085  29.832  1.00  0.00     0.167 HD
ATOM     47  C   UNL A   1      39.694  27.972  27.593  1.00  0.00     0.034 A 
ATOM     48  C   UNL A   1      44.565  25.708  32.186  1.00  0.00     0.034 A 
ATOM     49  C   UNL A   1      40.899  28.598  27.102  1.00  0.00     0.049 A 
ATOM     50  C   UNL A   1      44.210  27.084  31.743  1.00  0.00     0.074 A 
ATOM     51  C   UNL A   1      41.622  28.523  25.928  1.00  0.00     0.029 A 
ATOM     52  N   UNL A   1      41.756  29.111  28.050  1.00  0.00    -0.354 N 
ATOM     53  N   UNL A   1      44.873  27.724  30.819  1.00  0.00    -0.248 NA
ATOM     54  C   UNL A   1      42.841  27.539  31.952  1.00  0.00     0.031 C 
ATOM     55  C   UNL A   1      42.988  28.558  26.334  1.00  0.00     0.029 A 
ATOM     56  C   UNL A   1      43.030  28.726  27.720  1.00  0.00     0.049 A 
ATOM     57  H   UNL A   1      41.499  29.658  28.827  1.00  0.00     0.167 HD
ATOM     58  C   UNL A   1      43.891  28.315  30.030  1.00  0.00     0.074 A 
ATOM     59  C   UNL A   1      42.669  28.252  30.834  1.00  0.00     0.031 C 
ATOM     60  C   UNL A   1      44.082  28.511  28.691  1.00  0.00     0.034 A 
BRANCH  47  61
ATOM     61  C   UNL A   1      38.637  28.757  28.330  1.00  0.00     0.023 A 
ATOM     62  C   UNL A   1      37.946  29.735  27.584  1.00  0.00     0.012 A 
ATOM     63  C   UNL A   1      38.471  28.786  29.735  1.00  0.00     0.148 A 
ATOM     64  C   UNL A   1      37.191  30.733  28.208  1.00  0.00     0.002 A 
ATOM     65  C   UNL A   1      37.663  29.734  30.345  1.00  0.00     0.091 A 
ATOM     66  F   UNL A   1      39.190  27.984  30.522  1.00  0.00    -0.205 F 
ATOM     67  C   UNL A   1      37.049  30.732  29.590  1.00  0.00     0.022 A 
BRANCH  65  68
ATOM     68  S   UNL A   1      37.418  29.755  32.127  1.00  0.00     0.127 S 
ATOM     69  O   UNL A   1      38.583  30.516  32.572  1.00  0.00    -0.237 OA
ATOM     70  O   UNL A   1      36.138  30.453  32.242  1.00  0.00    -0.237 OA
ATOM     71  O   UNL A   1      37.375  28.358  32.540  1.00  0.00    -0.744 OA
ENDBRANCH  65  68
ENDBRANCH  47  61
BRANCH  48  72
ATOM     72  C   UNL A   1      44.702  25.353  33.620  1.00  0.00     0.023 A 
ATOM     73  C   UNL A   1      43.551  25.205  34.420  1.00  0.00     0.012 A 
ATOM     74  C   UNL A   1      45.932  24.881  34.134  1.00  0.00     0.148 A 
ATOM     75  C   UNL A   1      43.620  24.588  35.677  1.00  0.00     0.002 A 
ATOM     76  C   UNL A   1      45.995  24.274  35.384  1.00  0.00     0.091 A 
ATOM     77  F   UNL A   1      47.021  24.938  33.359  1.00  0.00    -0.205 F 
ATOM     78  C   UNL A   1      44.840  24.116  36.156  1.00  0.00     0.022 A 
BRANCH  76  79
ATOM     79  S   UNL A   1      47.533  23.611  36.042  1.00  0.00     0.127 S 
ATOM     80  O   UNL A   1      48.471  24.702  35.778  1.00  0.00    -0.237 OA
ATOM     81  O   UNL A   1      47.197  23.415  37.450  1.00  0.00    -0.237 OA
ATOM     82  O   UNL A   1      47.799  22.396  35.281  1.00  0.00    -0.744 OA
ENDBRANCH  76  79
ENDBRANCH  48  72
BRANCH  60  83
ATOM     83  C   UNL A   1      45.460  28.248  28.128  1.00  0.00     0.023 A 
ATOM     84  C   UNL A   1      46.526  29.162  28.272  1.00  0.00     0.012 A 
ATOM     85  C   UNL A   1      45.729  26.973  27.611  1.00  0.00     0.148 A 
ATOM     86  C   UNL A   1      47.827  28.818  27.890  1.00  0.00     0.002 A 
ATOM     87  C   UNL A   1      47.030  26.616  27.277  1.00  0.00     0.091 A 
ATOM     88  F   UNL A   1      44.708  26.112  27.486  1.00  0.00    -0.205 F 
ATOM     89  C   UNL A   1      48.081  27.538  27.405  1.00  0.00     0.022 A 
BRANCH  87  90
ATOM     90  S   UNL A   1      47.439  24.943  26.777  1.00  0.00     0.127 S 
ATOM     91  O   UNL A   1      47.060  24.946  25.366  1.00  0.00    -0.237 OA
ATOM     92  O   UNL A   1      48.882  24.884  27.024  1.00  0.00    -0.237 OA
ATOM     93  O   UNL A   1      46.655  24.066  27.637  1.00  0.00    -0.744 OA
ENDBRANCH  87  90
ENDBRANCH  60  83
ENDBRANCH  34  35
ENDBRANCH  27  29
ENDBRANCH  26  27
ENDBRANCH  25  26
ENDBRANCH  24  25
ENDBRANCH   1  24
TORSDOF 20
ENDMDL
MODEL 2
REMARK VINA RESULT:     -10.9      4.566      9.198
REMARK SMILES Cc1nsc(N(C)C(=O)[C@@H]2CC(=O)N(C)C2)c1C(=O)OCCOCCOC(=O)c1ccc(-c2c3nc(c(-c4cccc(S(=O)(=O)[O-])c4F)c4ccc([nH]4)c(-c4cccc(S(=O)(=O)[O-])c4F)c4nc(c(-c5cccc(S(=O)(=O)[O-])c5F)c5ccc2[nH]5)C=C4)C=C3)cc1
REMARK SMILES IDX 23 1 22 2 21 3 20 4 18 5 19 6 17 7 1 8 2 9 3 10 4 11 5 12
REMARK SMILES IDX 6 13 7 14 8 15 9 16 10 17 11 18 16 19 12 20 14 21 13 22
REMARK SMILES IDX 15 23 24 24 25 25 26 26 27 27 28 28 29 29 30 30 91 31 31 32
REMARK SMILES IDX 90 33 32 34 33 35 34 36 84 37 35 38 89 39 83 40 85 41 36 42
REMARK SMILES IDX 88 43 82 44 81 45 37 47 69 48 49 49 68 50 50 51 53 52 67 53
REMARK SMILES IDX 86 54 51 55 52 56 66 58 87 59 54 60 38 61 39 62 47 63 40 64
REMARK SMILES IDX 42 65 48 66 41 67 43 68 44 69 45 70 46 71 70 72 71 73 79 74
REMARK SMILES IDX 72 75 74 76 80 77 73 78 75 79 76 80 77 81 78 82 55 83 56 84
REMARK SMILES IDX 64 85 57 86 59 87 65 88 58 89 60 90 61 91 62 92 63 93
REMARK H PARENT 85 46 53 57
REMARK Flexibility Score: inf
ROOT
ATOM      1  O   UNL A   1      33.686  29.106  25.564  1.00  0.00    -0.374 OA
ENDROOT
BRANCH   1   2
ATOM      2  C   UNL A   1      33.821  28.066  26.533  1.00  0.00     0.202 C 
BRANCH   2   3
ATOM      3  C   UNL A   1      32.638  27.131  26.785  1.00  0.00     0.261 C 
BRANCH   3   4
ATOM      4  O   UNL A   1      32.911  25.825  26.272  1.00  0.00    -0.460 OA
BRANCH   4   5
ATOM      5  C   UNL A   1      32.145  25.446  25.213  1.00  0.00     0.343 C 
ATOM      6  O   UNL A   1      30.958  25.729  25.066  1.00  0.00    -0.246 OA
BRANCH   5   7
ATOM      7  C   UNL A   1      32.878  24.564  24.331  1.00  0.00     0.117 A 
ATOM      8  C   UNL A   1      33.482  26.492  22.649  1.00  0.00     0.069 C 
ATOM      9  C   UNL A   1      33.551  25.088  23.155  1.00  0.00     0.068 A 
ATOM     10  N   UNL A   1      34.272  24.219  22.460  1.00  0.00    -0.195 NA
ATOM     11  S   UNL A   1      34.116  22.737  23.131  1.00  0.00    -0.017 S 
ATOM     12  C   UNL A   1      33.004  23.169  24.390  1.00  0.00     0.133 A 
BRANCH  12  13
ATOM     13  N   UNL A   1      32.423  22.077  25.115  1.00  0.00    -0.305 N 
ATOM     14  C   UNL A   1      31.107  22.190  25.751  1.00  0.00     0.154 C 
BRANCH  13  15
ATOM     15  C   UNL A   1      33.142  20.887  25.262  1.00  0.00     0.232 C 
ATOM     16  O   UNL A   1      34.284  20.847  25.722  1.00  0.00    -0.274 OA
BRANCH  15  17
ATOM     17  C   UNL A   1      32.489  19.524  24.923  1.00  0.00     0.108 C 
ATOM     18  C   UNL A   1      32.637  18.403  25.943  1.00  0.00     0.115 C 
ATOM     19  C   UNL A   1      32.860  18.914  23.581  1.00  0.00     0.133 C 
ATOM     20  C   UNL A   1      33.370  17.304  25.206  1.00  0.00     0.223 C 
ATOM     21  N   UNL A   1      33.477  17.659  23.879  1.00  0.00    -0.345 N 
ATOM     22  O   UNL A   1      33.781  16.277  25.720  1.00  0.00    -0.275 OA
ATOM     23  C   UNL A   1      34.022  16.834  22.821  1.00  0.00     0.146 C 
ENDBRANCH  15  17
ENDBRANCH  13  15
ENDBRANCH  12  13
ENDBRANCH   5   7
ENDBRANCH   4   5
ENDBRANCH   3   4
ENDBRANCH   2   3
ENDBRANCH   1   2
BRANCH   1  24
ATOM     24  C   UNL A   1      32.663  30.081  25.686  1.00  0.00     0.202 C 
BRANCH  24  25
ATOM     25  C   UNL A   1      32.333  30.763  26.999  1.00  0.00     0.261 C 
BRANCH  25  26
ATOM     26  O   UNL A   1      33.411  31.549  27.428  1.00  0.00    -0.460 OA
BRANCH  26  27
ATOM     27  C   UNL A   1      33.007  32.781  27.804  1.00  0.00     0.338 C 
ATOM     28  O   UNL A   1      32.062  33.416  27.364  1.00  0.00    -0.246 OA
BRANCH  27  29
ATOM     29  C   UNL A   1      34.003  33.312  28.737  1.00  0.00     0.060 A 
ATOM     30  C   UNL A   1      34.972  34.070  28.089  1.00  0.00     0.016 A 
ATOM     31  C   UNL A   1      34.262  32.555  29.890  1.00  0.00     0.016 A 
ATOM     32  C   UNL A   1      36.270  33.725  28.334  1.00  0.00     0.010 A 
ATOM     33  C   UNL A   1      35.560  32.202  30.126  1.00  0.00     0.010 A 
ATOM     34  C   UNL A   1      36.524  32.708  29.265  1.00  0.00    -0.014 A 
BRANCH  34  35
ATOM     35  C   UNL A   1      37.888  32.303  29.426  1.00  0.00     0.031 A 
ATOM     36  C   UNL A   1      38.065  30.925  28.941  1.00  0.00     0.074 A 
ATOM     37  C   UNL A   1      38.843  33.101  29.928  1.00  0.00     0.049 A 
ATOM     38  N   UNL A   1      38.099  29.863  29.672  1.00  0.00    -0.248 NA
ATOM     39  C   UNL A   1      37.866  30.672  27.507  1.00  0.00     0.031 C 
ATOM     40  C   UNL A   1      38.826  34.542  30.175  1.00  0.00     0.029 A 
ATOM     41  N   UNL A   1      40.120  32.757  30.209  1.00  0.00    -0.354 N 
ATOM     42  C   UNL A   1      38.177  28.814  28.769  1.00  0.00     0.074 A 
ATOM     43  C   UNL A   1      37.755  29.345  27.502  1.00  0.00     0.031 C 
ATOM     44  C   UNL A   1      40.105  34.974  30.305  1.00  0.00     0.029 A 
ATOM     45  C   UNL A   1      40.997  33.825  30.279  1.00  0.00     0.049 A 
ATOM     46  H   UNL A   1      40.401  31.825  30.354  1.00  0.00     0.167 HD
ATOM     47  C   UNL A   1      38.859  27.682  29.083  1.00  0.00     0.034 A 
ATOM     48  C   UNL A   1      42.348  33.728  30.192  1.00  0.00     0.034 A 
ATOM     49  C   UNL A   1      39.138  27.626  30.498  1.00  0.00     0.049 A 
ATOM     50  C   UNL A   1      42.706  32.321  30.525  1.00  0.00     0.074 A 
ATOM     51  C   UNL A   1      38.360  27.584  31.639  1.00  0.00     0.029 A 
ATOM     52  N   UNL A   1      40.384  28.051  30.898  1.00  0.00    -0.354 N 
ATOM     53  N   UNL A   1      42.520  31.804  31.708  1.00  0.00    -0.248 NA
ATOM     54  C   UNL A   1      42.789  31.359  29.433  1.00  0.00     0.031 C 
ATOM     55  C   UNL A   1      39.037  28.417  32.577  1.00  0.00     0.029 A 
ATOM     56  C   UNL A   1      40.223  28.864  31.990  1.00  0.00     0.049 A 
ATOM     57  H   UNL A   1      41.241  27.813  30.474  1.00  0.00     0.167 HD
ATOM     58  C   UNL A   1      42.001  30.538  31.459  1.00  0.00     0.074 A 
ATOM     59  C   UNL A   1      42.286  30.283  30.045  1.00  0.00     0.031 C 
ATOM     60  C   UNL A   1      41.118  29.953  32.322  1.00  0.00     0.034 A 
BRANCH  47  61
ATOM     61  C   UNL A   1      39.621  26.839  28.091  1.00  0.00     0.023 A 
ATOM     62  C   UNL A   1      39.415  25.444  28.161  1.00  0.00     0.012 A 
ATOM     63  C   UNL A   1      40.703  27.287  27.297  1.00  0.00     0.148 A 
ATOM     64  C   UNL A   1      40.283  24.544  27.538  1.00  0.00     0.002 A 
ATOM     65  C   UNL A   1      41.519  26.393  26.620  1.00  0.00     0.091 A 
ATOM     66  F   UNL A   1      41.048  28.576  27.282  1.00  0.00    -0.205 F 
ATOM     67  C   UNL A   1      41.336  25.018  26.765  1.00  0.00     0.022 A 
BRANCH  65  68
ATOM     68  S   UNL A   1      42.874  26.957  25.580  1.00  0.00     0.127 S 
ATOM     69  O   UNL A   1      43.795  27.505  26.572  1.00  0.00    -0.237 OA
ATOM     70  O   UNL A   1      43.306  25.708  24.953  1.00  0.00    -0.237 OA
ATOM     71  O   UNL A   1      42.291  27.919  24.653  1.00  0.00    -0.744 OA
ENDBRANCH  65  68
ENDBRANCH  47  61
BRANCH  48  72
ATOM     72  C   UNL A   1      43.294  34.640  29.504  1.00  0.00     0.023 A 
ATOM     73  C   UNL A   1      43.461  34.558  28.107  1.00  0.00     0.012 A 
ATOM     74  C   UNL A   1      43.817  35.774  30.168  1.00  0.00     0.148 A 
ATOM     75  C   UNL A   1      44.104  35.580  27.395  1.00  0.00     0.002 A 
ATOM     76  C   UNL A   1      44.459  36.782  29.458  1.00  0.00     0.091 A 
ATOM     77  F   UNL A   1      43.600  35.912  31.482  1.00  0.00    -0.205 F 
ATOM     78  C   UNL A   1      44.596  36.694  28.069  1.00  0.00     0.022 A 
BRANCH  76  79
ATOM     79  S   UNL A   1      45.083  38.264  30.264  1.00  0.00     0.127 S 
ATOM     80  O   UNL A   1      46.108  37.717  31.154  1.00  0.00    -0.237 OA
ATOM     81  O   UNL A   1      45.598  39.029  29.131  1.00  0.00    -0.237 OA
ATOM     82  O   UNL A   1      43.942  38.851  30.956  1.00  0.00    -0.744 OA
ENDBRANCH  76  79
ENDBRANCH  48  72
BRANCH  60  83
ATOM     83  C   UNL A   1      40.872  30.631  33.649  1.00  0.00     0.023 A 
ATOM     84  C   UNL A   1      41.811  30.602  34.704  1.00  0.00     0.012 A 
ATOM     85  C   UNL A   1      39.756  31.473  33.763  1.00  0.00     0.148 A 
ATOM     86  C   UNL A   1      41.628  31.378  35.853  1.00  0.00     0.002 A 
ATOM     87  C   UNL A   1      39.602  32.279  34.884  1.00  0.00     0.091 A 
ATOM     88  F   UNL A   1      38.875  31.497  32.752  1.00  0.00    -0.205 F 
ATOM     89  C   UNL A   1      40.529  32.229  35.937  1.00  0.00     0.022 A 
BRANCH  87  90
ATOM     90  S   UNL A   1      38.283  33.491  34.987  1.00  0.00     0.127 S 
ATOM     91  O   UNL A   1      37.097  32.642  35.087  1.00  0.00    -0.237 OA
ATOM     92  O   UNL A   1      38.619  34.218  36.213  1.00  0.00    -0.237 OA
ATOM     93  O   UNL A   1      38.382  34.294  33.776  1.00  0.00    -0.744 OA
ENDBRANCH  87  90
ENDBRANCH  60  83
ENDBRANCH  34  35
ENDBRANCH  27  29
ENDBRANCH  26  27
ENDBRANCH  25  26
ENDBRANCH  24  25
ENDBRANCH   1  24
TORSDOF 20
ENDMDL
MODEL 3
REMARK VINA RESULT:     -10.9      4.388      8.995
REMARK SMILES Cc1nsc(N(C)C(=O)[C@@H]2CC(=O)N(C)C2)c1C(=O)OCCOCCOC(=O)c1ccc(-c2c3nc(c(-c4cccc(S(=O)(=O)[O-])c4F)c4ccc([nH]4)c(-c4cccc(S(=O)(=O)[O-])c4F)c4nc(c(-c5cccc(S(=O)(=O)[O-])c5F)c5ccc2[nH]5)C=C4)C=C3)cc1
REMARK SMILES IDX 23 1 22 2 21 3 20 4 18 5 19 6 17 7 1 8 2 9 3 10 4 11 5 12
REMARK SMILES IDX 6 13 7 14 8 15 9 16 10 17 11 18 16 19 12 20 14 21 13 22
REMARK SMILES IDX 15 23 24 24 25 25 26 26 27 27 28 28 29 29 30 30 91 31 31 32
REMARK SMILES IDX 90 33 32 34 33 35 34 36 84 37 35 38 89 39 83 40 85 41 36 42
REMARK SMILES IDX 88 43 82 44 81 45 37 47 69 48 49 49 68 50 50 51 53 52 67 53
REMARK SMILES IDX 86 54 51 55 52 56 66 58 87 59 54 60 38 61 39 62 47 63 40 64
REMARK SMILES IDX 42 65 48 66 41 67 43 68 44 69 45 70 46 71 70 72 71 73 79 74
REMARK SMILES IDX 72 75 74 76 80 77 73 78 75 79 76 80 77 81 78 82 55 83 56 84
REMARK SMILES IDX 64 85 57 86 59 87 65 88 58 89 60 90 61 91 62 92 63 93
REMARK H PARENT 85 46 53 57
REMARK Flexibility Score: inf
ROOT
ATOM      1  O   UNL A   1      32.787  28.469  25.412  1.00  0.00    -0.374 OA
ENDROOT
BRANCH   1   2
ATOM      2  C   UNL A   1      33.612  28.801  24.295  1.00  0.00     0.202 C 
BRANCH   2   3
ATOM      3  C   UNL A   1      33.102  28.502  22.884  1.00  0.00     0.261 C 
BRANCH   3   4
ATOM      4  O   UNL A   1      33.210  27.105  22.597  1.00  0.00    -0.460 OA
BRANCH   4   5
ATOM      5  C   UNL A   1      32.036  26.479  22.313  1.00  0.00     0.343 C 
ATOM      6  O   UNL A   1      31.526  26.411  21.196  1.00  0.00    -0.246 OA
BRANCH   5   7
ATOM      7  C   UNL A   1      31.399  25.998  23.520  1.00  0.00     0.117 A 
ATOM      8  C   UNL A   1      29.506  27.820  23.435  1.00  0.00     0.069 C 
ATOM      9  C   UNL A   1      30.173  26.609  24.002  1.00  0.00     0.068 A 
ATOM     10  N   UNL A   1      29.615  26.041  25.062  1.00  0.00    -0.195 NA
ATOM     11  S   UNL A   1      30.566  24.812  25.572  1.00  0.00    -0.017 S 
ATOM     12  C   UNL A   1      31.837  25.006  24.409  1.00  0.00     0.133 A 
BRANCH  12  13
ATOM     13  N   UNL A   1      33.020  24.228  24.637  1.00  0.00    -0.305 N 
ATOM     14  C   UNL A   1      34.072  24.678  25.552  1.00  0.00     0.154 C 
BRANCH  13  15
ATOM     15  C   UNL A   1      33.201  23.030  23.939  1.00  0.00     0.232 C 
ATOM     16  O   UNL A   1      34.230  22.769  23.312  1.00  0.00    -0.274 OA
BRANCH  15  17
ATOM     17  C   UNL A   1      32.127  21.916  23.992  1.00  0.00     0.108 C 
ATOM     18  C   UNL A   1      32.052  21.074  25.259  1.00  0.00     0.115 C 
ATOM     19  C   UNL A   1      32.125  20.925  22.838  1.00  0.00     0.133 C 
ATOM     20  C   UNL A   1      32.317  19.659  24.801  1.00  0.00     0.223 C 
ATOM     21  N   UNL A   1      32.362  19.642  23.424  1.00  0.00    -0.345 N 
ATOM     22  O   UNL A   1      32.456  18.701  25.544  1.00  0.00    -0.275 OA
ATOM     23  C   UNL A   1      32.493  18.464  22.592  1.00  0.00     0.146 C 
ENDBRANCH  15  17
ENDBRANCH  13  15
ENDBRANCH  12  13
ENDBRANCH   5   7
ENDBRANCH   4   5
ENDBRANCH   3   4
ENDBRANCH   2   3
ENDBRANCH   1   2
BRANCH   1  24
ATOM     24  C   UNL A   1      32.770  29.288  26.569  1.00  0.00     0.202 C 
BRANCH  24  25
ATOM     25  C   UNL A   1      33.240  30.729  26.559  1.00  0.00     0.261 C 
BRANCH  25  26
ATOM     26  O   UNL A   1      33.384  31.208  27.868  1.00  0.00    -0.460 OA
BRANCH  26  27
ATOM     27  C   UNL A   1      33.126  32.531  27.944  1.00  0.00     0.338 C 
ATOM     28  O   UNL A   1      32.269  33.153  27.338  1.00  0.00    -0.246 OA
BRANCH  27  29
ATOM     29  C   UNL A   1      34.169  33.142  28.770  1.00  0.00     0.060 A 
ATOM     30  C   UNL A   1      35.129  33.792  28.002  1.00  0.00     0.016 A 
ATOM     31  C   UNL A   1      34.455  32.520  29.996  1.00  0.00     0.016 A 
ATOM     32  C   UNL A   1      36.427  33.444  28.240  1.00  0.00     0.010 A 
ATOM     33  C   UNL A   1      35.753  32.164  30.226  1.00  0.00     0.010 A 
ATOM     34  C   UNL A   1      36.694  32.539  29.276  1.00  0.00    -0.014 A 
BRANCH  34  35
ATOM     35  C   UNL A   1      38.054  32.119  29.436  1.00  0.00     0.031 A 
ATOM     36  C   UNL A   1      38.222  30.748  28.928  1.00  0.00     0.074 A 
ATOM     37  C   UNL A   1      39.014  32.900  29.955  1.00  0.00     0.049 A 
ATOM     38  N   UNL A   1      38.244  29.674  29.641  1.00  0.00    -0.248 NA
ATOM     39  C   UNL A   1      38.027  30.522  27.489  1.00  0.00     0.031 C 
ATOM     40  C   UNL A   1      39.007  34.337  30.228  1.00  0.00     0.029 A 
ATOM     41  N   UNL A   1      40.286  32.541  30.236  1.00  0.00    -0.354 N 
ATOM     42  C   UNL A   1      38.317  28.640  28.720  1.00  0.00     0.074 A 
ATOM     43  C   UNL A   1      37.905  29.196  27.461  1.00  0.00     0.031 C 
ATOM     44  C   UNL A   1      40.289  34.756  30.370  1.00  0.00     0.029 A 
ATOM     45  C   UNL A   1      41.172  33.601  30.327  1.00  0.00     0.049 A 
ATOM     46  H   UNL A   1      40.560  31.604  30.366  1.00  0.00     0.167 HD
ATOM     47  C   UNL A   1      38.988  27.497  29.017  1.00  0.00     0.034 A 
ATOM     48  C   UNL A   1      42.522  33.494  30.244  1.00  0.00     0.034 A 
ATOM     49  C   UNL A   1      39.261  27.414  30.433  1.00  0.00     0.049 A 
ATOM     50  C   UNL A   1      42.867  32.079  30.554  1.00  0.00     0.074 A 
ATOM     51  C   UNL A   1      38.478  27.359  31.569  1.00  0.00     0.029 A 
ATOM     52  N   UNL A   1      40.509  27.822  30.844  1.00  0.00    -0.354 N 
ATOM     53  N   UNL A   1      42.672  31.543  31.728  1.00  0.00    -0.248 NA
ATOM     54  C   UNL A   1      42.947  31.135  29.446  1.00  0.00     0.031 C 
ATOM     55  C   UNL A   1      39.158  28.170  32.524  1.00  0.00     0.029 A 
ATOM     56  C   UNL A   1      40.350  28.617  31.950  1.00  0.00     0.049 A 
ATOM     57  H   UNL A   1      41.365  27.584  30.420  1.00  0.00     0.167 HD
ATOM     58  C   UNL A   1      42.144  30.286  31.455  1.00  0.00     0.074 A 
ATOM     59  C   UNL A   1      42.433  30.052  30.038  1.00  0.00     0.031 C 
ATOM     60  C   UNL A   1      41.253  29.693  32.304  1.00  0.00     0.034 A 
BRANCH  47  61
ATOM     61  C   UNL A   1      39.748  26.665  28.014  1.00  0.00     0.023 A 
ATOM     62  C   UNL A   1      39.514  25.273  28.045  1.00  0.00     0.012 A 
ATOM     63  C   UNL A   1      40.849  27.112  27.247  1.00  0.00     0.148 A 
ATOM     64  C   UNL A   1      40.372  24.372  27.410  1.00  0.00     0.002 A 
ATOM     65  C   UNL A   1      41.658  26.219  26.557  1.00  0.00     0.091 A 
ATOM     66  F   UNL A   1      41.220  28.393  27.271  1.00  0.00    -0.205 F 
ATOM     67  C   UNL A   1      41.445  24.845  26.664  1.00  0.00     0.022 A 
BRANCH  65  68
ATOM     68  S   UNL A   1      43.038  26.783  25.551  1.00  0.00     0.127 S 
ATOM     69  O   UNL A   1      42.374  27.708  24.638  1.00  0.00    -0.237 OA
ATOM     70  O   UNL A   1      43.898  27.410  26.554  1.00  0.00    -0.237 OA
ATOM     71  O   UNL A   1      43.604  25.585  24.944  1.00  0.00    -0.744 OA
ENDBRANCH  65  68
ENDBRANCH  47  61
BRANCH  48  72
ATOM     72  C   UNL A   1      43.479  34.410  29.576  1.00  0.00     0.023 A 
ATOM     73  C   UNL A   1      44.253  35.301  30.347  1.00  0.00     0.012 A 
ATOM     74  C   UNL A   1      43.841  34.216  28.224  1.00  0.00     0.148 A 
ATOM     75  C   UNL A   1      45.363  35.956  29.794  1.00  0.00     0.002 A 
ATOM     76  C   UNL A   1      44.939  34.873  27.679  1.00  0.00     0.091 A 
ATOM     77  F   UNL A   1      43.170  33.314  27.497  1.00  0.00    -0.205 F 
ATOM     78  C   UNL A   1      45.710  35.737  28.464  1.00  0.00     0.022 A 
BRANCH  76  79
ATOM     79  S   UNL A   1      45.462  34.603  25.979  1.00  0.00     0.127 S 
ATOM     80  O   UNL A   1      46.290  35.782  25.725  1.00  0.00    -0.237 OA
ATOM     81  O   UNL A   1      46.198  33.347  26.086  1.00  0.00    -0.237 OA
ATOM     82  O   UNL A   1      44.237  34.552  25.190  1.00  0.00    -0.744 OA
ENDBRANCH  76  79
ENDBRANCH  48  72
BRANCH  60  83
ATOM     83  C   UNL A   1      41.007  30.351  33.642  1.00  0.00     0.023 A 
ATOM     84  C   UNL A   1      41.933  30.281  34.705  1.00  0.00     0.012 A 
ATOM     85  C   UNL A   1      39.906  31.213  33.761  1.00  0.00     0.148 A 
ATOM     86  C   UNL A   1      41.754  31.039  35.867  1.00  0.00     0.002 A 
ATOM     87  C   UNL A   1      39.757  32.000  34.896  1.00  0.00     0.091 A 
ATOM     88  F   UNL A   1      39.037  31.274  32.741  1.00  0.00    -0.205 F 
ATOM     89  C   UNL A   1      40.673  31.910  35.957  1.00  0.00     0.022 A 
BRANCH  87  90
ATOM     90  S   UNL A   1      38.462  33.236  35.010  1.00  0.00     0.127 S 
ATOM     91  O   UNL A   1      38.814  33.933  36.245  1.00  0.00    -0.237 OA
ATOM     92  O   UNL A   1      38.665  34.017  33.787  1.00  0.00    -0.237 OA
ATOM     93  O   UNL A   1      37.206  32.498  35.039  1.00  0.00    -0.744 OA
ENDBRANCH  87  90
ENDBRANCH  60  83
ENDBRANCH  34  35
ENDBRANCH  27  29
ENDBRANCH  26  27
ENDBRANCH  25  26
ENDBRANCH  24  25
ENDBRANCH   1  24
TORSDOF 20
ENDMDL
