MODEL 1
REMARK VINA RESULT:     -11.7      0.000      0.000
REMARK SMILES Cc1cc(=O)cc(C)n1C[C@H]1CCCC[C@@H]1C(=O)OCCOCCOC(=O)c1ccc(-c2c3nc(c(-c4cccc(S(=O)(=O)[O-])c4F)c4ccc([nH]4)c(-c4cccc(S(=O)(=O)[O-])c4F)c4nc(c(-c5cccc(S(=O)(=O)[O-])c5F)c5ccc2[nH]5)C=C4)C=C3)cc1
REMARK SMILES IDX 23 1 22 2 21 3 20 4 19 5 17 6 18 7 16 8 11 9 12 10 13 11
REMARK SMILES IDX 15 12 14 13 10 14 9 15 1 16 2 17 3 18 4 19 7 20 5 21 6 22
REMARK SMILES IDX 8 23 24 24 25 25 26 26 27 27 28 28 29 29 90 30 30 31 89 32
REMARK SMILES IDX 31 33 32 34 33 35 83 36 34 37 88 38 82 39 84 40 35 41 87 42
REMARK SMILES IDX 81 43 80 44 36 46 68 47 48 48 67 49 49 50 52 51 66 52 85 53
REMARK SMILES IDX 50 54 51 55 65 57 86 58 53 59 37 60 38 61 46 62 39 63 41 64
REMARK SMILES IDX 47 65 40 66 42 67 43 68 44 69 45 70 69 71 70 72 78 73 71 74
REMARK SMILES IDX 73 75 79 76 72 77 74 78 75 79 76 80 77 81 54 82 55 83 63 84
REMARK SMILES IDX 56 85 58 86 64 87 57 88 59 89 60 90 61 91 62 92
REMARK H PARENT 84 45 52 56
REMARK Flexibility Score: inf
ROOT
ATOM      1  C   UNL A   1      35.677  20.925  24.722  1.00  0.00     0.202 C 
ENDROOT
BRANCH   1   2
ATOM      2  O   UNL A   1      34.646  20.395  25.550  1.00  0.00    -0.374 OA
BRANCH   2   3
ATOM      3  C   UNL A   1      33.730  19.499  24.911  1.00  0.00     0.202 C 
BRANCH   3   4
ATOM      4  C   UNL A   1      32.620  20.147  24.075  1.00  0.00     0.261 C 
BRANCH   4   5
ATOM      5  O   UNL A   1      32.179  21.386  24.678  1.00  0.00    -0.463 OA
BRANCH   5   6
ATOM      6  C   UNL A   1      32.204  22.502  23.909  1.00  0.00     0.309 C 
ATOM      7  O   UNL A   1      32.403  22.495  22.699  1.00  0.00    -0.252 OA
BRANCH   6   8
ATOM      8  C   UNL A   1      31.938  23.800  24.695  1.00  0.00     0.104 C 
ATOM      9  C   UNL A   1      32.475  25.130  24.078  1.00  0.00     0.023 C 
ATOM     10  C   UNL A   1      34.004  25.096  24.133  1.00  0.00     0.006 C 
ATOM     11  C   UNL A   1      34.546  24.950  25.556  1.00  0.00     0.000 C 
ATOM     12  C   UNL A   1      32.440  23.614  26.144  1.00  0.00     0.016 C 
ATOM     13  C   UNL A   1      33.951  23.771  26.319  1.00  0.00     0.001 C 
BRANCH   9  14
ATOM     14  C   UNL A   1      31.898  26.379  24.814  1.00  0.00     0.126 C 
BRANCH  14  15
ATOM     15  N   UNL A   1      31.282  27.408  23.917  1.00  0.00    -0.349 N 
ATOM     16  C   UNL A   1      28.982  26.387  24.355  1.00  0.00     0.064 C 
ATOM     17  C   UNL A   1      29.882  27.368  23.641  1.00  0.00     0.018 A 
ATOM     18  C   UNL A   1      29.281  28.223  22.792  1.00  0.00     0.073 A 
ATOM     19  C   UNL A   1      30.065  29.265  22.118  1.00  0.00     0.182 A 
ATOM     20  C   UNL A   1      32.025  28.489  23.352  1.00  0.00     0.018 A 
ATOM     21  O   UNL A   1      29.552  30.083  21.366  1.00  0.00    -0.290 OA
ATOM     22  C   UNL A   1      31.488  29.350  22.467  1.00  0.00     0.073 A 
ATOM     23  C   UNL A   1      33.429  28.833  23.783  1.00  0.00     0.064 C 
ENDBRANCH  14  15
ENDBRANCH   9  14
ENDBRANCH   6   8
ENDBRANCH   5   6
ENDBRANCH   4   5
ENDBRANCH   3   4
ENDBRANCH   2   3
ENDBRANCH   1   2
BRANCH   1  24
ATOM     24  C   UNL A   1      37.089  20.366  24.966  1.00  0.00     0.261 C 
BRANCH  24  25
ATOM     25  O   UNL A   1      38.058  21.414  25.155  1.00  0.00    -0.460 OA
BRANCH  25  26
ATOM     26  C   UNL A   1      39.122  21.079  25.922  1.00  0.00     0.338 C 
ATOM     27  O   UNL A   1      39.760  20.037  25.871  1.00  0.00    -0.246 OA
BRANCH  26  28
ATOM     28  C   UNL A   1      39.580  22.253  26.693  1.00  0.00     0.060 A 
ATOM     29  C   UNL A   1      38.955  23.472  26.403  1.00  0.00     0.016 A 
ATOM     30  C   UNL A   1      40.606  22.193  27.640  1.00  0.00     0.016 A 
ATOM     31  C   UNL A   1      39.396  24.646  27.002  1.00  0.00     0.010 A 
ATOM     32  C   UNL A   1      41.059  23.382  28.235  1.00  0.00     0.010 A 
ATOM     33  C   UNL A   1      40.489  24.620  27.878  1.00  0.00    -0.014 A 
BRANCH  33  34
ATOM     34  C   UNL A   1      41.131  25.913  28.227  1.00  0.00     0.031 A 
ATOM     35  C   UNL A   1      42.527  26.181  27.728  1.00  0.00     0.074 A 
ATOM     36  C   UNL A   1      40.452  26.880  28.870  1.00  0.00     0.049 A 
ATOM     37  N   UNL A   1      43.232  27.280  27.794  1.00  0.00    -0.248 NA
ATOM     38  C   UNL A   1      43.217  25.068  27.052  1.00  0.00     0.031 C 
ATOM     39  C   UNL A   1      39.088  26.756  29.379  1.00  0.00     0.029 A 
ATOM     40  N   UNL A   1      40.817  28.165  29.194  1.00  0.00    -0.354 N 
ATOM     41  C   UNL A   1      44.445  26.990  27.180  1.00  0.00     0.074 A 
ATOM     42  C   UNL A   1      44.395  25.603  26.776  1.00  0.00     0.031 C 
ATOM     43  C   UNL A   1      38.730  27.920  29.952  1.00  0.00     0.029 A 
ATOM     44  C   UNL A   1      39.843  28.866  29.865  1.00  0.00     0.049 A 
ATOM     45  H   UNL A   1      41.695  28.549  28.966  1.00  0.00     0.167 HD
ATOM     46  C   UNL A   1      45.496  27.810  26.942  1.00  0.00     0.034 A 
ATOM     47  C   UNL A   1      39.847  30.123  30.354  1.00  0.00     0.034 A 
ATOM     48  C   UNL A   1      45.538  29.195  27.321  1.00  0.00     0.049 A 
ATOM     49  C   UNL A   1      41.057  30.999  30.133  1.00  0.00     0.074 A 
ATOM     50  C   UNL A   1      46.543  30.115  27.086  1.00  0.00     0.029 A 
ATOM     51  N   UNL A   1      44.544  29.857  28.023  1.00  0.00    -0.354 N 
ATOM     52  N   UNL A   1      42.140  30.750  29.437  1.00  0.00    -0.248 NA
ATOM     53  C   UNL A   1      41.034  32.340  30.741  1.00  0.00     0.031 C 
ATOM     54  C   UNL A   1      46.175  31.324  27.680  1.00  0.00     0.029 A 
ATOM     55  C   UNL A   1      44.924  31.167  28.258  1.00  0.00     0.049 A 
ATOM     56  H   UNL A   1      43.693  29.456  28.312  1.00  0.00     0.167 HD
ATOM     57  C   UNL A   1      42.919  31.902  29.510  1.00  0.00     0.074 A 
ATOM     58  C   UNL A   1      42.168  32.864  30.288  1.00  0.00     0.031 C 
ATOM     59  C   UNL A   1      44.153  32.133  28.997  1.00  0.00     0.034 A 
BRANCH  46  60
ATOM     60  C   UNL A   1      46.677  27.245  26.200  1.00  0.00     0.023 A 
ATOM     61  C   UNL A   1      46.757  27.405  24.801  1.00  0.00     0.012 A 
ATOM     62  C   UNL A   1      47.745  26.638  26.889  1.00  0.00     0.148 A 
ATOM     63  C   UNL A   1      47.871  26.947  24.097  1.00  0.00     0.002 A 
ATOM     64  C   UNL A   1      48.872  26.229  26.187  1.00  0.00     0.091 A 
ATOM     65  F   UNL A   1      47.640  26.481  28.216  1.00  0.00    -0.205 F 
ATOM     66  C   UNL A   1      48.931  26.371  24.792  1.00  0.00     0.022 A 
BRANCH  64  67
ATOM     67  S   UNL A   1      50.328  25.554  26.994  1.00  0.00     0.127 S 
ATOM     68  O   UNL A   1      50.674  26.629  27.925  1.00  0.00    -0.237 OA
ATOM     69  O   UNL A   1      49.796  24.348  27.626  1.00  0.00    -0.237 OA
ATOM     70  O   UNL A   1      51.301  25.314  25.937  1.00  0.00    -0.744 OA
ENDBRANCH  64  67
ENDBRANCH  46  60
BRANCH  47  71
ATOM     71  C   UNL A   1      38.645  30.648  31.068  1.00  0.00     0.023 A 
ATOM     72  C   UNL A   1      38.577  30.565  32.472  1.00  0.00     0.012 A 
ATOM     73  C   UNL A   1      37.585  31.258  30.366  1.00  0.00     0.148 A 
ATOM     74  C   UNL A   1      37.469  31.059  33.162  1.00  0.00     0.002 A 
ATOM     75  C   UNL A   1      36.513  31.802  31.064  1.00  0.00     0.091 A 
ATOM     76  F   UNL A   1      37.657  31.310  29.029  1.00  0.00    -0.205 F 
ATOM     77  C   UNL A   1      36.444  31.689  32.461  1.00  0.00     0.022 A 
BRANCH  75  78
ATOM     78  S   UNL A   1      35.215  32.750  30.261  1.00  0.00     0.127 S 
ATOM     79  O   UNL A   1      35.956  33.898  29.744  1.00  0.00    -0.237 OA
ATOM     80  O   UNL A   1      34.744  31.810  29.244  1.00  0.00    -0.237 OA
ATOM     81  O   UNL A   1      34.240  33.049  31.302  1.00  0.00    -0.744 OA
ENDBRANCH  75  78
ENDBRANCH  47  71
BRANCH  59  82
ATOM     82  C   UNL A   1      44.804  33.469  29.260  1.00  0.00     0.023 A 
ATOM     83  C   UNL A   1      45.593  33.632  30.416  1.00  0.00     0.012 A 
ATOM     84  C   UNL A   1      44.763  34.501  28.301  1.00  0.00     0.148 A 
ATOM     85  C   UNL A   1      46.321  34.805  30.618  1.00  0.00     0.002 A 
ATOM     86  C   UNL A   1      45.532  35.645  28.484  1.00  0.00     0.091 A 
ATOM     87  F   UNL A   1      44.000  34.328  27.211  1.00  0.00    -0.205 F 
ATOM     88  C   UNL A   1      46.302  35.803  29.647  1.00  0.00     0.022 A 
BRANCH  86  89
ATOM     89  S   UNL A   1      45.662  36.940  27.245  1.00  0.00     0.127 S 
ATOM     90  O   UNL A   1      46.763  37.747  27.771  1.00  0.00    -0.237 OA
ATOM     91  O   UNL A   1      45.986  36.180  26.038  1.00  0.00    -0.237 OA
ATOM     92  O   UNL A   1      44.367  37.608  27.216  1.00  0.00    -0.744 OA
ENDBRANCH  86  89
ENDBRANCH  59  82
ENDBRANCH  33  34
ENDBRANCH  26  28
ENDBRANCH  25  26
ENDBRANCH  24  25
ENDBRANCH   1  24
TORSDOF 19
ENDMDL
MODEL 2
REMARK VINA RESULT:     -11.5      1.154      1.920
REMARK SMILES Cc1cc(=O)cc(C)n1C[C@H]1CCCC[C@@H]1C(=O)OCCOCCOC(=O)c1ccc(-c2c3nc(c(-c4cccc(S(=O)(=O)[O-])c4F)c4ccc([nH]4)c(-c4cccc(S(=O)(=O)[O-])c4F)c4nc(c(-c5cccc(S(=O)(=O)[O-])c5F)c5ccc2[nH]5)C=C4)C=C3)cc1
REMARK SMILES IDX 23 1 22 2 21 3 20 4 19 5 17 6 18 7 16 8 11 9 12 10 13 11
REMARK SMILES IDX 15 12 14 13 10 14 9 15 1 16 2 17 3 18 4 19 7 20 5 21 6 22
REMARK SMILES IDX 8 23 24 24 25 25 26 26 27 27 28 28 29 29 90 30 30 31 89 32
REMARK SMILES IDX 31 33 32 34 33 35 83 36 34 37 88 38 82 39 84 40 35 41 87 42
REMARK SMILES IDX 81 43 80 44 36 46 68 47 48 48 67 49 49 50 52 51 66 52 85 53
REMARK SMILES IDX 50 54 51 55 65 57 86 58 53 59 37 60 38 61 46 62 39 63 41 64
REMARK SMILES IDX 47 65 40 66 42 67 43 68 44 69 45 70 69 71 70 72 78 73 71 74
REMARK SMILES IDX 73 75 79 76 72 77 74 78 75 79 76 80 77 81 54 82 55 83 63 84
REMARK SMILES IDX 56 85 58 86 64 87 57 88 59 89 60 90 61 91 62 92
REMARK H PARENT 84 45 52 56
REMARK Flexibility Score: inf
ROOT
ATOM      1  C   UNL A   1      35.761  20.994  25.145  1.00  0.00     0.202 C 
ENDROOT
BRANCH   1   2
ATOM      2  O   UNL A   1      35.568  21.768  26.325  1.00  0.00    -0.374 OA
BRANCH   2   3
ATOM      3  C   UNL A   1      34.352  21.525  27.041  1.00  0.00     0.202 C 
BRANCH   3   4
ATOM      4  C   UNL A   1      33.493  22.755  27.354  1.00  0.00     0.261 C 
BRANCH   4   5
ATOM      5  O   UNL A   1      33.655  23.769  26.335  1.00  0.00    -0.463 OA
BRANCH   5   6
ATOM      6  C   UNL A   1      32.810  23.733  25.275  1.00  0.00     0.309 C 
ATOM      7  O   UNL A   1      32.115  22.765  24.985  1.00  0.00    -0.252 OA
BRANCH   6   8
ATOM      8  C   UNL A   1      32.782  25.043  24.465  1.00  0.00     0.104 C 
ATOM      9  C   UNL A   1      32.367  26.343  25.225  1.00  0.00     0.023 C 
ATOM     10  C   UNL A   1      30.885  26.227  25.591  1.00  0.00     0.006 C 
ATOM     11  C   UNL A   1      29.981  26.051  24.370  1.00  0.00     0.000 C 
ATOM     12  C   UNL A   1      31.912  24.831  23.207  1.00  0.00     0.016 C 
ATOM     13  C   UNL A   1      30.405  24.906  23.456  1.00  0.00     0.001 C 
BRANCH   9  14
ATOM     14  C   UNL A   1      32.654  27.621  24.377  1.00  0.00     0.126 C 
BRANCH  14  15
ATOM     15  N   UNL A   1      32.272  28.911  25.035  1.00  0.00    -0.349 N 
ATOM     16  C   UNL A   1      34.307  28.712  26.566  1.00  0.00     0.064 C 
ATOM     17  C   UNL A   1      33.032  29.401  26.139  1.00  0.00     0.018 A 
ATOM     18  C   UNL A   1      32.701  30.518  26.815  1.00  0.00     0.073 A 
ATOM     19  C   UNL A   1      31.525  31.299  26.414  1.00  0.00     0.182 A 
ATOM     20  C   UNL A   1      31.195  29.728  24.574  1.00  0.00     0.018 A 
ATOM     21  O   UNL A   1      31.209  32.338  26.980  1.00  0.00    -0.290 OA
ATOM     22  C   UNL A   1      30.794  30.833  25.231  1.00  0.00     0.073 A 
ATOM     23  C   UNL A   1      30.496  29.497  23.257  1.00  0.00     0.064 C 
ENDBRANCH  14  15
ENDBRANCH   9  14
ENDBRANCH   6   8
ENDBRANCH   5   6
ENDBRANCH   4   5
ENDBRANCH   3   4
ENDBRANCH   2   3
ENDBRANCH   1   2
BRANCH   1  24
ATOM     24  C   UNL A   1      37.132  20.310  25.007  1.00  0.00     0.261 C 
BRANCH  24  25
ATOM     25  O   UNL A   1      38.214  21.259  25.064  1.00  0.00    -0.460 OA
BRANCH  25  26
ATOM     26  C   UNL A   1      39.233  20.914  25.886  1.00  0.00     0.338 C 
ATOM     27  O   UNL A   1      39.851  19.860  25.880  1.00  0.00    -0.246 OA
BRANCH  26  28
ATOM     28  C   UNL A   1      39.679  22.091  26.660  1.00  0.00     0.060 A 
ATOM     29  C   UNL A   1      39.034  23.302  26.380  1.00  0.00     0.016 A 
ATOM     30  C   UNL A   1      40.713  22.042  27.600  1.00  0.00     0.016 A 
ATOM     31  C   UNL A   1      39.462  24.480  26.982  1.00  0.00     0.010 A 
ATOM     32  C   UNL A   1      41.151  23.234  28.197  1.00  0.00     0.010 A 
ATOM     33  C   UNL A   1      40.561  24.465  27.851  1.00  0.00    -0.014 A 
BRANCH  33  34
ATOM     34  C   UNL A   1      41.186  25.767  28.202  1.00  0.00     0.031 A 
ATOM     35  C   UNL A   1      42.577  26.055  27.701  1.00  0.00     0.074 A 
ATOM     36  C   UNL A   1      40.495  26.723  28.849  1.00  0.00     0.049 A 
ATOM     37  N   UNL A   1      43.267  27.164  27.769  1.00  0.00    -0.248 NA
ATOM     38  C   UNL A   1      43.280  24.953  27.021  1.00  0.00     0.031 C 
ATOM     39  C   UNL A   1      39.134  26.578  29.361  1.00  0.00     0.029 A 
ATOM     40  N   UNL A   1      40.843  28.011  29.176  1.00  0.00    -0.354 N 
ATOM     41  C   UNL A   1      44.482  26.891  27.152  1.00  0.00     0.074 A 
ATOM     42  C   UNL A   1      44.451  25.505  26.744  1.00  0.00     0.031 C 
ATOM     43  C   UNL A   1      38.761  27.735  29.937  1.00  0.00     0.029 A 
ATOM     44  C   UNL A   1      39.860  28.697  29.851  1.00  0.00     0.049 A 
ATOM     45  H   UNL A   1      41.715  28.408  28.948  1.00  0.00     0.167 HD
ATOM     46  C   UNL A   1      45.522  27.727  26.914  1.00  0.00     0.034 A 
ATOM     47  C   UNL A   1      39.849  29.953  30.344  1.00  0.00     0.034 A 
ATOM     48  C   UNL A   1      45.545  29.111  27.297  1.00  0.00     0.049 A 
ATOM     49  C   UNL A   1      41.046  30.846  30.122  1.00  0.00     0.074 A 
ATOM     50  C   UNL A   1      46.537  30.045  27.062  1.00  0.00     0.029 A 
ATOM     51  N   UNL A   1      44.544  29.757  28.003  1.00  0.00    -0.354 N 
ATOM     52  N   UNL A   1      42.131  30.613  29.424  1.00  0.00    -0.248 NA
ATOM     53  C   UNL A   1      41.006  32.184  30.734  1.00  0.00     0.031 C 
ATOM     54  C   UNL A   1      46.154  31.248  27.661  1.00  0.00     0.029 A 
ATOM     55  C   UNL A   1      44.907  31.072  28.240  1.00  0.00     0.049 A 
ATOM     56  H   UNL A   1      43.699  29.344  28.292  1.00  0.00     0.167 HD
ATOM     57  C   UNL A   1      42.894  31.776  29.499  1.00  0.00     0.074 A 
ATOM     58  C   UNL A   1      42.131  32.725  30.281  1.00  0.00     0.031 C 
ATOM     59  C   UNL A   1      44.123  32.025  28.984  1.00  0.00     0.034 A 
BRANCH  46  60
ATOM     60  C   UNL A   1      46.709  27.180  26.168  1.00  0.00     0.023 A 
ATOM     61  C   UNL A   1      46.783  27.342  24.769  1.00  0.00     0.012 A 
ATOM     62  C   UNL A   1      47.788  26.589  26.854  1.00  0.00     0.148 A 
ATOM     63  C   UNL A   1      47.901  26.901  24.062  1.00  0.00     0.002 A 
ATOM     64  C   UNL A   1      48.919  26.197  26.149  1.00  0.00     0.091 A 
ATOM     65  F   UNL A   1      47.689  26.430  28.181  1.00  0.00    -0.205 F 
ATOM     66  C   UNL A   1      48.972  26.341  24.753  1.00  0.00     0.022 A 
BRANCH  64  67
ATOM     67  S   UNL A   1      50.387  25.544  26.950  1.00  0.00     0.127 S 
ATOM     68  O   UNL A   1      50.740  26.637  27.856  1.00  0.00    -0.237 OA
ATOM     69  O   UNL A   1      49.868  24.348  27.612  1.00  0.00    -0.237 OA
ATOM     70  O   UNL A   1      51.349  25.287  25.886  1.00  0.00    -0.744 OA
ENDBRANCH  64  67
ENDBRANCH  46  60
BRANCH  47  71
ATOM     71  C   UNL A   1      38.640  30.459  31.061  1.00  0.00     0.023 A 
ATOM     72  C   UNL A   1      38.544  30.305  32.458  1.00  0.00     0.012 A 
ATOM     73  C   UNL A   1      37.603  31.121  30.373  1.00  0.00     0.148 A 
ATOM     74  C   UNL A   1      37.430  30.781  33.152  1.00  0.00     0.002 A 
ATOM     75  C   UNL A   1      36.526  31.644  31.078  1.00  0.00     0.091 A 
ATOM     76  F   UNL A   1      37.702  31.240  29.041  1.00  0.00    -0.205 F 
ATOM     77  C   UNL A   1      36.429  31.461  32.466  1.00  0.00     0.022 A 
BRANCH  75  78
ATOM     78  S   UNL A   1      35.257  32.653  30.301  1.00  0.00     0.127 S 
ATOM     79  O   UNL A   1      34.293  32.813  31.386  1.00  0.00    -0.237 OA
ATOM     80  O   UNL A   1      36.007  33.863  29.958  1.00  0.00    -0.237 OA
ATOM     81  O   UNL A   1      34.790  31.889  29.152  1.00  0.00    -0.744 OA
ENDBRANCH  75  78
ENDBRANCH  47  71
BRANCH  59  82
ATOM     82  C   UNL A   1      44.757  33.369  29.250  1.00  0.00     0.023 A 
ATOM     83  C   UNL A   1      45.546  33.540  30.404  1.00  0.00     0.012 A 
ATOM     84  C   UNL A   1      44.699  34.403  28.293  1.00  0.00     0.148 A 
ATOM     85  C   UNL A   1      46.258  34.722  30.608  1.00  0.00     0.002 A 
ATOM     86  C   UNL A   1      45.453  35.558  28.478  1.00  0.00     0.091 A 
ATOM     87  F   UNL A   1      43.937  34.223  27.205  1.00  0.00    -0.205 F 
ATOM     88  C   UNL A   1      46.224  35.722  29.640  1.00  0.00     0.022 A 
BRANCH  86  89
ATOM     89  S   UNL A   1      45.563  36.858  27.243  1.00  0.00     0.127 S 
ATOM     90  O   UNL A   1      46.474  37.804  27.885  1.00  0.00    -0.237 OA
ATOM     91  O   UNL A   1      46.131  36.146  26.098  1.00  0.00    -0.237 OA
ATOM     92  O   UNL A   1      44.204  37.347  27.045  1.00  0.00    -0.744 OA
ENDBRANCH  86  89
ENDBRANCH  59  82
ENDBRANCH  33  34
ENDBRANCH  26  28
ENDBRANCH  25  26
ENDBRANCH  24  25
ENDBRANCH   1  24
TORSDOF 19
ENDMDL
MODEL 3
REMARK VINA RESULT:     -11.2      1.872      7.783
REMARK SMILES Cc1cc(=O)cc(C)n1C[C@H]1CCCC[C@@H]1C(=O)OCCOCCOC(=O)c1ccc(-c2c3nc(c(-c4cccc(S(=O)(=O)[O-])c4F)c4ccc([nH]4)c(-c4cccc(S(=O)(=O)[O-])c4F)c4nc(c(-c5cccc(S(=O)(=O)[O-])c5F)c5ccc2[nH]5)C=C4)C=C3)cc1
REMARK SMILES IDX 23 1 22 2 21 3 20 4 19 5 17 6 18 7 16 8 11 9 12 10 13 11
REMARK SMILES IDX 15 12 14 13 10 14 9 15 1 16 2 17 3 18 4 19 7 20 5 21 6 22
REMARK SMILES IDX 8 23 24 24 25 25 26 26 27 27 28 28 29 29 90 30 30 31 89 32
REMARK SMILES IDX 31 33 32 34 33 35 83 36 34 37 88 38 82 39 84 40 35 41 87 42
REMARK SMILES IDX 81 43 80 44 36 46 68 47 48 48 67 49 49 50 52 51 66 52 85 53
REMARK SMILES IDX 50 54 51 55 65 57 86 58 53 59 37 60 38 61 46 62 39 63 41 64
REMARK SMILES IDX 47 65 40 66 42 67 43 68 44 69 45 70 69 71 70 72 78 73 71 74
REMARK SMILES IDX 73 75 79 76 72 77 74 78 75 79 76 80 77 81 54 82 55 83 63 84
REMARK SMILES IDX 56 85 58 86 64 87 57 88 59 89 60 90 61 91 62 92
REMARK H PARENT 84 45 52 56
REMARK Flexibility Score: inf
ROOT
ATOM      1  C   UNL A   1      35.386  20.288  25.046  1.00  0.00     0.202 C 
ENDROOT
BRANCH   1   2
ATOM      2  O   UNL A   1      34.899  21.350  25.862  1.00  0.00    -0.374 OA
BRANCH   2   3
ATOM      3  C   UNL A   1      33.837  21.012  26.760  1.00  0.00     0.202 C 
BRANCH   3   4
ATOM      4  C   UNL A   1      32.869  22.144  27.121  1.00  0.00     0.261 C 
BRANCH   4   5
ATOM      5  O   UNL A   1      33.464  23.435  26.852  1.00  0.00    -0.463 OA
BRANCH   5   6
ATOM      6  C   UNL A   1      32.627  24.470  26.593  1.00  0.00     0.309 C 
ATOM      7  O   UNL A   1      31.431  24.468  26.863  1.00  0.00    -0.252 OA
BRANCH   6   8
ATOM      8  C   UNL A   1      33.324  25.677  25.936  1.00  0.00     0.104 C 
ATOM      9  C   UNL A   1      32.478  26.535  24.944  1.00  0.00     0.023 C 
ATOM     10  C   UNL A   1      32.194  25.686  23.703  1.00  0.00     0.006 C 
ATOM     11  C   UNL A   1      33.467  25.216  22.998  1.00  0.00     0.000 C 
ATOM     12  C   UNL A   1      34.636  25.196  25.278  1.00  0.00     0.016 C 
ATOM     13  C   UNL A   1      34.454  24.512  23.923  1.00  0.00     0.001 C 
BRANCH   9  14
ATOM     14  C   UNL A   1      33.199  27.870  24.578  1.00  0.00     0.126 C 
BRANCH  14  15
ATOM     15  N   UNL A   1      32.679  29.081  25.288  1.00  0.00    -0.349 N 
ATOM     16  C   UNL A   1      30.661  29.109  23.723  1.00  0.00     0.064 C 
ATOM     17  C   UNL A   1      31.488  29.720  24.830  1.00  0.00     0.018 A 
ATOM     18  C   UNL A   1      31.006  30.849  25.384  1.00  0.00     0.073 A 
ATOM     19  C   UNL A   1      31.699  31.465  26.520  1.00  0.00     0.182 A 
ATOM     20  C   UNL A   1      33.291  29.615  26.463  1.00  0.00     0.018 A 
ATOM     21  O   UNL A   1      31.276  32.472  27.074  1.00  0.00    -0.290 OA
ATOM     22  C   UNL A   1      32.878  30.761  27.036  1.00  0.00     0.073 A 
ATOM     23  C   UNL A   1      34.367  28.887  27.230  1.00  0.00     0.064 C 
ENDBRANCH  14  15
ENDBRANCH   9  14
ENDBRANCH   6   8
ENDBRANCH   5   6
ENDBRANCH   4   5
ENDBRANCH   3   4
ENDBRANCH   2   3
ENDBRANCH   1   2
BRANCH   1  24
ATOM     24  C   UNL A   1      36.877  20.356  24.676  1.00  0.00     0.261 C 
BRANCH  24  25
ATOM     25  O   UNL A   1      37.548  21.443  25.341  1.00  0.00    -0.460 OA
BRANCH  25  26
ATOM     26  C   UNL A   1      38.745  21.127  25.888  1.00  0.00     0.338 C 
ATOM     27  O   UNL A   1      39.363  20.083  25.740  1.00  0.00    -0.246 OA
BRANCH  26  28
ATOM     28  C   UNL A   1      39.346  22.322  26.517  1.00  0.00     0.060 A 
ATOM     29  C   UNL A   1      38.739  23.550  26.227  1.00  0.00     0.016 A 
ATOM     30  C   UNL A   1      40.481  22.270  27.331  1.00  0.00     0.016 A 
ATOM     31  C   UNL A   1      39.301  24.736  26.687  1.00  0.00     0.010 A 
ATOM     32  C   UNL A   1      41.054  23.469  27.784  1.00  0.00     0.010 A 
ATOM     33  C   UNL A   1      40.494  24.709  27.420  1.00  0.00    -0.014 A 
BRANCH  33  34
ATOM     34  C   UNL A   1      41.228  25.988  27.599  1.00  0.00     0.031 A 
ATOM     35  C   UNL A   1      40.587  27.077  28.421  1.00  0.00     0.074 A 
ATOM     36  C   UNL A   1      42.486  26.143  27.146  1.00  0.00     0.049 A 
ATOM     37  N   UNL A   1      41.089  28.216  28.820  1.00  0.00    -0.248 NA
ATOM     38  C   UNL A   1      39.200  26.846  28.863  1.00  0.00     0.031 C 
ATOM     39  C   UNL A   1      43.227  25.156  26.364  1.00  0.00     0.029 A 
ATOM     40  N   UNL A   1      43.366  27.187  27.291  1.00  0.00    -0.354 N 
ATOM     41  C   UNL A   1      40.083  28.838  29.549  1.00  0.00     0.074 A 
ATOM     42  C   UNL A   1      38.930  27.968  29.511  1.00  0.00     0.031 C 
ATOM     43  C   UNL A   1      44.452  25.643  26.098  1.00  0.00     0.029 A 
ATOM     44  C   UNL A   1      44.578  26.981  26.676  1.00  0.00     0.049 A 
ATOM     45  H   UNL A   1      43.149  28.009  27.790  1.00  0.00     0.167 HD
ATOM     46  C   UNL A   1      40.122  30.015  30.219  1.00  0.00     0.034 A 
ATOM     47  C   UNL A   1      45.663  27.778  26.587  1.00  0.00     0.034 A 
ATOM     48  C   UNL A   1      41.275  30.870  30.279  1.00  0.00     0.049 A 
ATOM     49  C   UNL A   1      45.659  29.114  27.291  1.00  0.00     0.074 A 
ATOM     50  C   UNL A   1      41.421  32.060  30.967  1.00  0.00     0.029 A 
ATOM     51  N   UNL A   1      42.470  30.638  29.619  1.00  0.00    -0.354 N 
ATOM     52  N   UNL A   1      44.749  29.628  28.083  1.00  0.00    -0.248 NA
ATOM     53  C   UNL A   1      46.843  29.970  27.110  1.00  0.00     0.031 C 
ATOM     54  C   UNL A   1      42.692  32.569  30.692  1.00  0.00     0.029 A 
ATOM     55  C   UNL A   1      43.351  31.679  29.858  1.00  0.00     0.049 A 
ATOM     56  H   UNL A   1      42.666  29.850  29.063  1.00  0.00     0.167 HD
ATOM     57  C   UNL A   1      45.254  30.855  28.506  1.00  0.00     0.074 A 
ATOM     58  C   UNL A   1      46.566  30.993  27.910  1.00  0.00     0.031 C 
ATOM     59  C   UNL A   1      44.673  31.790  29.296  1.00  0.00     0.034 A 
BRANCH  46  60
ATOM     60  C   UNL A   1      38.893  30.432  30.982  1.00  0.00     0.023 A 
ATOM     61  C   UNL A   1      38.815  30.173  32.366  1.00  0.00     0.012 A 
ATOM     62  C   UNL A   1      37.860  31.154  30.354  1.00  0.00     0.148 A 
ATOM     63  C   UNL A   1      37.717  30.605  33.108  1.00  0.00     0.002 A 
ATOM     64  C   UNL A   1      36.792  31.624  31.109  1.00  0.00     0.091 A 
ATOM     65  F   UNL A   1      37.946  31.374  29.035  1.00  0.00    -0.205 F 
ATOM     66  C   UNL A   1      36.713  31.340  32.482  1.00  0.00     0.022 A 
BRANCH  64  67
ATOM     67  S   UNL A   1      35.491  32.652  30.420  1.00  0.00     0.127 S 
ATOM     68  O   UNL A   1      36.152  33.955  30.348  1.00  0.00    -0.237 OA
ATOM     69  O   UNL A   1      35.254  32.017  29.125  1.00  0.00    -0.237 OA
ATOM     70  O   UNL A   1      34.376  32.574  31.354  1.00  0.00    -0.744 OA
ENDBRANCH  64  67
ENDBRANCH  46  60
BRANCH  47  71
ATOM     71  C   UNL A   1      46.868  27.314  25.836  1.00  0.00     0.023 A 
ATOM     72  C   UNL A   1      47.765  26.416  26.446  1.00  0.00     0.012 A 
ATOM     73  C   UNL A   1      47.111  27.731  24.512  1.00  0.00     0.148 A 
ATOM     74  C   UNL A   1      48.892  25.959  25.760  1.00  0.00     0.002 A 
ATOM     75  C   UNL A   1      48.202  27.226  23.814  1.00  0.00     0.091 A 
ATOM     76  F   UNL A   1      46.258  28.602  23.955  1.00  0.00    -0.205 F 
ATOM     77  C   UNL A   1      49.104  26.352  24.442  1.00  0.00     0.022 A 
BRANCH  75  78
ATOM     78  S   UNL A   1      48.481  27.566  22.072  1.00  0.00     0.127 S 
ATOM     79  O   UNL A   1      49.620  28.480  22.122  1.00  0.00    -0.237 OA
ATOM     80  O   UNL A   1      48.783  26.232  21.552  1.00  0.00    -0.237 OA
ATOM     81  O   UNL A   1      47.237  28.139  21.575  1.00  0.00    -0.744 OA
ENDBRANCH  75  78
ENDBRANCH  47  71
BRANCH  59  82
ATOM     82  C   UNL A   1      45.425  33.070  29.570  1.00  0.00     0.023 A 
ATOM     83  C   UNL A   1      46.340  33.113  30.641  1.00  0.00     0.012 A 
ATOM     84  C   UNL A   1      45.342  34.167  28.688  1.00  0.00     0.148 A 
ATOM     85  C   UNL A   1      47.151  34.232  30.836  1.00  0.00     0.002 A 
ATOM     86  C   UNL A   1      46.190  35.255  28.858  1.00  0.00     0.091 A 
ATOM     87  F   UNL A   1      44.459  34.108  27.679  1.00  0.00    -0.205 F 
ATOM     88  C   UNL A   1      47.087  35.293  29.937  1.00  0.00     0.022 A 
BRANCH  86  89
ATOM     89  S   UNL A   1      46.264  36.624  27.696  1.00  0.00     0.127 S 
ATOM     90  O   UNL A   1      46.609  35.940  26.450  1.00  0.00    -0.237 OA
ATOM     91  O   UNL A   1      44.898  37.145  27.747  1.00  0.00    -0.237 OA
ATOM     92  O   UNL A   1      47.283  37.534  28.203  1.00  0.00    -0.744 OA
ENDBRANCH  86  89
ENDBRANCH  59  82
ENDBRANCH  33  34
ENDBRANCH  26  28
ENDBRANCH  25  26
ENDBRANCH  24  25
ENDBRANCH   1  24
TORSDOF 19
ENDMDL
