MODEL 1
REMARK VINA RESULT:     -12.1      0.000      0.000
REMARK SMILES Cc1c(Cl)cccc1NC(=O)NCc1cn([C@@H]2C[NH2+][C@H](C(=O)OCCOCCOC(=O)c3ccc(-c4c5nc(c(-c6cccc(S(=O)(=O)[O-])c6F)c6ccc([nH]6)c(-c6cccc(S(=O)(=O)[O-])c6F)c6nc(c(-c7cccc(S(=O)(=O)[O-])c7F)c7ccc4[nH]7)C=C6)C=C5)cc3)C2)nn1
REMARK SMILES IDX 25 1 24 2 23 3 21 4 22 5 20 6 17 7 18 8 95 9 19 10 16 13
REMARK SMILES IDX 14 14 15 15 97 16 96 17 13 18 12 19 9 20 10 21 11 23 8 25
REMARK SMILES IDX 1 26 2 27 3 28 4 29 5 30 7 31 6 32 26 33 27 34 28 35 29 36
REMARK SMILES IDX 30 37 31 38 32 39 33 40 94 41 34 42 93 43 35 44 36 45 37 46
REMARK SMILES IDX 87 47 38 48 92 49 86 50 88 51 39 52 91 53 85 54 84 55 40 57
REMARK SMILES IDX 72 58 52 59 71 60 53 61 56 62 70 63 89 64 54 65 55 66 69 68
REMARK SMILES IDX 90 69 57 70 41 71 42 72 50 73 43 74 45 75 51 76 44 77 46 78
REMARK SMILES IDX 47 79 48 80 49 81 73 82 74 83 82 84 75 85 77 86 83 87 76 88
REMARK SMILES IDX 78 89 79 90 80 91 81 92 58 93 59 94 67 95 60 96 62 97 68 98
REMARK SMILES IDX 61 99 63 100 64 101 65 102 66 103
REMARK H PARENT 19 11 19 12 9 22 12 24 88 56 56 67
REMARK Flexibility Score: inf
ROOT
ATOM      1  C   UNL A   1      33.929  27.946  26.364  1.00  0.00     0.202 C 
ENDROOT
BRANCH   1   2
ATOM      2  C   UNL A   1      33.842  28.212  24.860  1.00  0.00     0.261 C 
BRANCH   2   3
ATOM      3  O   UNL A   1      33.527  27.019  24.127  1.00  0.00    -0.459 OA
BRANCH   3   4
ATOM      4  C   UNL A   1      33.136  27.203  22.834  1.00  0.00     0.365 C 
ATOM      5  O   UNL A   1      33.901  27.442  21.906  1.00  0.00    -0.245 OA
BRANCH   4   6
ATOM      6  C   UNL A   1      31.633  26.905  22.643  1.00  0.00     0.295 C 
ATOM      7  C   UNL A   1      30.584  25.195  24.028  1.00  0.00     0.170 C 
ATOM      8  C   UNL A   1      31.256  24.596  22.793  1.00  0.00     0.289 C 
ATOM      9  C   UNL A   1      30.926  26.685  23.979  1.00  0.00     0.110 C 
ATOM     10  N   UNL A   1      31.390  25.694  21.832  1.00  0.00    -0.333 N 
ATOM     11  H   UNL A   1      30.533  25.797  21.287  1.00  0.00     0.347 HD
ATOM     12  H   UNL A   1      32.147  25.526  21.170  1.00  0.00     0.347 HD
BRANCH   7  13
ATOM     13  N   UNL A   1      31.033  24.574  25.252  1.00  0.00    -0.243 N 
ATOM     14  C   UNL A   1      32.162  23.490  26.739  1.00  0.00     0.102 A 
ATOM     15  C   UNL A   1      32.211  23.930  25.438  1.00  0.00     0.137 A 
ATOM     16  N   UNL A   1      31.011  23.948  27.320  1.00  0.00    -0.134 NA
ATOM     17  N   UNL A   1      30.326  24.624  26.396  1.00  0.00    -0.067 NA
BRANCH  14  18
ATOM     18  C   UNL A   1      33.223  22.698  27.381  1.00  0.00     0.178 C 
BRANCH  18  19
ATOM     19  N   UNL A   1      34.569  23.087  27.085  1.00  0.00    -0.332 N 
ATOM     20  N   UNL A   1      35.363  22.020  25.073  1.00  0.00    -0.308 N 
ATOM     21  C   UNL A   1      35.390  22.946  26.047  1.00  0.00     0.319 C 
ATOM     22  H   UNL A   1      36.093  22.174  24.431  1.00  0.00     0.171 HD
ATOM     23  O   UNL A   1      36.362  23.717  26.024  1.00  0.00    -0.248 OA
ATOM     24  H   UNL A   1      34.988  23.579  27.829  1.00  0.00     0.165 HD
BRANCH  20  25
ATOM     25  C   UNL A   1      34.602  20.895  24.697  1.00  0.00     0.047 A 
ATOM     26  C   UNL A   1      36.664  19.376  24.935  1.00  0.00     0.048 C 
ATOM     27  C   UNL A   1      35.184  19.604  24.743  1.00  0.00    -0.009 A 
ATOM     28  C   UNL A   1      34.354  18.477  24.530  1.00  0.00     0.046 A 
ATOM     29  Cl  UNL A   1      34.974  16.861  24.566  1.00  0.00    -0.084 Cl
ATOM     30  C   UNL A   1      32.995  18.620  24.252  1.00  0.00     0.021 A 
ATOM     31  C   UNL A   1      33.309  20.999  24.186  1.00  0.00     0.026 A 
ATOM     32  C   UNL A   1      32.480  19.886  24.035  1.00  0.00     0.004 A 
ENDBRANCH  20  25
ENDBRANCH  18  19
ENDBRANCH  14  18
ENDBRANCH   7  13
ENDBRANCH   4   6
ENDBRANCH   3   4
ENDBRANCH   2   3
ENDBRANCH   1   2
BRANCH   1  33
ATOM     33  O   UNL A   1      33.238  28.819  27.260  1.00  0.00    -0.374 OA
BRANCH  33  34
ATOM     34  C   UNL A   1      32.043  29.481  26.855  1.00  0.00     0.202 C 
BRANCH  34  35
ATOM     35  C   UNL A   1      32.021  31.001  26.755  1.00  0.00     0.261 C 
BRANCH  35  36
ATOM     36  O   UNL A   1      33.102  31.587  27.454  1.00  0.00    -0.460 OA
BRANCH  36  37
ATOM     37  C   UNL A   1      32.895  32.879  27.778  1.00  0.00     0.338 C 
ATOM     38  O   UNL A   1      31.990  33.605  27.379  1.00  0.00    -0.246 OA
BRANCH  37  39
ATOM     39  C   UNL A   1      34.008  33.345  28.605  1.00  0.00     0.060 A 
ATOM     40  C   UNL A   1      35.021  33.984  27.888  1.00  0.00     0.016 A 
ATOM     41  C   UNL A   1      34.231  32.707  29.834  1.00  0.00     0.016 A 
ATOM     42  C   UNL A   1      36.310  33.659  28.207  1.00  0.00     0.010 A 
ATOM     43  C   UNL A   1      35.518  32.360  30.135  1.00  0.00     0.010 A 
ATOM     44  C   UNL A   1      36.518  32.753  29.250  1.00  0.00    -0.014 A 
BRANCH  44  45
ATOM     45  C   UNL A   1      37.860  32.279  29.452  1.00  0.00     0.031 A 
ATOM     46  C   UNL A   1      38.001  30.872  29.041  1.00  0.00     0.074 A 
ATOM     47  C   UNL A   1      38.838  33.088  29.893  1.00  0.00     0.049 A 
ATOM     48  N   UNL A   1      38.177  29.851  29.810  1.00  0.00    -0.248 NA
ATOM     49  C   UNL A   1      37.658  30.532  27.651  1.00  0.00     0.031 C 
ATOM     50  C   UNL A   1      38.806  34.543  30.064  1.00  0.00     0.029 A 
ATOM     51  N   UNL A   1      40.138  32.779  30.128  1.00  0.00    -0.354 N 
ATOM     52  C   UNL A   1      38.212  28.761  28.949  1.00  0.00     0.074 A 
ATOM     53  C   UNL A   1      37.636  29.202  27.710  1.00  0.00     0.031 C 
ATOM     54  C   UNL A   1      40.078  35.005  30.098  1.00  0.00     0.029 A 
ATOM     55  C   UNL A   1      40.990  33.873  30.056  1.00  0.00     0.049 A 
ATOM     56  H   UNL A   1      40.447  31.866  30.330  1.00  0.00     0.167 HD
ATOM     57  C   UNL A   1      38.987  27.680  29.226  1.00  0.00     0.034 A 
ATOM     58  C   UNL A   1      42.329  33.823  29.843  1.00  0.00     0.034 A 
ATOM     59  C   UNL A   1      39.401  27.677  30.606  1.00  0.00     0.049 A 
ATOM     60  C   UNL A   1      42.777  32.443  30.165  1.00  0.00     0.074 A 
ATOM     61  C   UNL A   1      38.740  27.654  31.817  1.00  0.00     0.029 A 
ATOM     62  N   UNL A   1      40.677  28.118  30.868  1.00  0.00    -0.354 N 
ATOM     63  N   UNL A   1      42.755  31.951  31.372  1.00  0.00    -0.248 NA
ATOM     64  C   UNL A   1      42.790  31.458  29.092  1.00  0.00     0.031 C 
ATOM     65  C   UNL A   1      39.502  28.504  32.668  1.00  0.00     0.029 A 
ATOM     66  C   UNL A   1      40.619  28.948  31.956  1.00  0.00     0.049 A 
ATOM     67  H   UNL A   1      41.489  27.879  30.364  1.00  0.00     0.167 HD
ATOM     68  C   UNL A   1      42.282  30.654  31.209  1.00  0.00     0.074 A 
ATOM     69  C   UNL A   1      42.432  30.370  29.783  1.00  0.00     0.031 C 
ATOM     70  C   UNL A   1      41.524  30.055  32.175  1.00  0.00     0.034 A 
BRANCH  57  71
ATOM     71  C   UNL A   1      39.702  26.854  28.185  1.00  0.00     0.023 A 
ATOM     72  C   UNL A   1      39.475  25.462  28.219  1.00  0.00     0.012 A 
ATOM     73  C   UNL A   1      40.773  27.311  27.384  1.00  0.00     0.148 A 
ATOM     74  C   UNL A   1      40.316  24.569  27.549  1.00  0.00     0.002 A 
ATOM     75  C   UNL A   1      41.559  26.426  26.658  1.00  0.00     0.091 A 
ATOM     76  F   UNL A   1      41.146  28.592  27.413  1.00  0.00    -0.205 F 
ATOM     77  C   UNL A   1      41.357  25.050  26.765  1.00  0.00     0.022 A 
BRANCH  75  78
ATOM     78  S   UNL A   1      42.892  27.007  25.601  1.00  0.00     0.127 S 
ATOM     79  O   UNL A   1      43.282  25.776  24.921  1.00  0.00    -0.237 OA
ATOM     80  O   UNL A   1      42.203  27.989  24.765  1.00  0.00    -0.237 OA
ATOM     81  O   UNL A   1      43.885  27.583  26.501  1.00  0.00    -0.744 OA
ENDBRANCH  75  78
ENDBRANCH  57  71
BRANCH  58  82
ATOM     82  C   UNL A   1      43.183  34.782  29.103  1.00  0.00     0.023 A 
ATOM     83  C   UNL A   1      43.374  34.630  27.716  1.00  0.00     0.012 A 
ATOM     84  C   UNL A   1      43.609  35.991  29.701  1.00  0.00     0.148 A 
ATOM     85  C   UNL A   1      43.953  35.652  26.950  1.00  0.00     0.002 A 
ATOM     86  C   UNL A   1      44.198  36.996  28.941  1.00  0.00     0.091 A 
ATOM     87  F   UNL A   1      43.348  36.200  30.998  1.00  0.00    -0.205 F 
ATOM     88  C   UNL A   1      44.364  36.835  27.561  1.00  0.00     0.022 A 
BRANCH  86  89
ATOM     89  S   UNL A   1      44.732  38.549  29.673  1.00  0.00     0.127 S 
ATOM     90  O   UNL A   1      43.466  39.124  30.127  1.00  0.00    -0.237 OA
ATOM     91  O   UNL A   1      45.616  38.092  30.741  1.00  0.00    -0.237 OA
ATOM     92  O   UNL A   1      45.374  39.297  28.598  1.00  0.00    -0.744 OA
ENDBRANCH  86  89
ENDBRANCH  58  82
BRANCH  70  93
ATOM     93  C   UNL A   1      41.405  30.744  33.513  1.00  0.00     0.023 A 
ATOM     94  C   UNL A   1      42.389  30.614  34.517  1.00  0.00     0.012 A 
ATOM     95  C   UNL A   1      40.392  31.702  33.677  1.00  0.00     0.148 A 
ATOM     96  C   UNL A   1      42.351  31.408  35.665  1.00  0.00     0.002 A 
ATOM     97  C   UNL A   1      40.388  32.526  34.794  1.00  0.00     0.091 A 
ATOM     98  F   UNL A   1      39.468  31.817  32.710  1.00  0.00    -0.205 F 
ATOM     99  C   UNL A   1      41.359  32.376  35.797  1.00  0.00     0.022 A 
BRANCH  97 100
ATOM    100  S   UNL A   1      39.225  33.883  34.946  1.00  0.00     0.127 S 
ATOM    101  O   UNL A   1      39.755  34.613  36.096  1.00  0.00    -0.237 OA
ATOM    102  O   UNL A   1      39.374  34.571  33.663  1.00  0.00    -0.237 OA
ATOM    103  O   UNL A   1      37.917  33.269  35.140  1.00  0.00    -0.744 OA
ENDBRANCH  97 100
ENDBRANCH  70  93
ENDBRANCH  44  45
ENDBRANCH  37  39
ENDBRANCH  36  37
ENDBRANCH  35  36
ENDBRANCH  34  35
ENDBRANCH  33  34
ENDBRANCH   1  33
TORSDOF 21
ENDMDL
MODEL 2
REMARK VINA RESULT:     -11.9      4.179      8.537
REMARK SMILES Cc1c(Cl)cccc1NC(=O)NCc1cn([C@@H]2C[NH2+][C@H](C(=O)OCCOCCOC(=O)c3ccc(-c4c5nc(c(-c6cccc(S(=O)(=O)[O-])c6F)c6ccc([nH]6)c(-c6cccc(S(=O)(=O)[O-])c6F)c6nc(c(-c7cccc(S(=O)(=O)[O-])c7F)c7ccc4[nH]7)C=C6)C=C5)cc3)C2)nn1
REMARK SMILES IDX 25 1 24 2 23 3 21 4 22 5 20 6 17 7 18 8 95 9 19 10 16 13
REMARK SMILES IDX 14 14 15 15 97 16 96 17 13 18 12 19 9 20 10 21 11 23 8 25
REMARK SMILES IDX 1 26 2 27 3 28 4 29 5 30 7 31 6 32 26 33 27 34 28 35 29 36
REMARK SMILES IDX 30 37 31 38 32 39 33 40 94 41 34 42 93 43 35 44 36 45 37 46
REMARK SMILES IDX 87 47 38 48 92 49 86 50 88 51 39 52 91 53 85 54 84 55 40 57
REMARK SMILES IDX 72 58 52 59 71 60 53 61 56 62 70 63 89 64 54 65 55 66 69 68
REMARK SMILES IDX 90 69 57 70 41 71 42 72 50 73 43 74 45 75 51 76 44 77 46 78
REMARK SMILES IDX 47 79 48 80 49 81 73 82 74 83 82 84 75 85 77 86 83 87 76 88
REMARK SMILES IDX 78 89 79 90 80 91 81 92 58 93 59 94 67 95 60 96 62 97 68 98
REMARK SMILES IDX 61 99 63 100 64 101 65 102 66 103
REMARK H PARENT 19 11 19 12 9 22 12 24 88 56 56 67
REMARK Flexibility Score: inf
ROOT
ATOM      1  C   UNL A   1      35.667  24.085  24.610  1.00  0.00     0.202 C 
ENDROOT
BRANCH   1   2
ATOM      2  C   UNL A   1      34.832  24.467  23.387  1.00  0.00     0.261 C 
BRANCH   2   3
ATOM      3  O   UNL A   1      33.901  25.517  23.685  1.00  0.00    -0.459 OA
BRANCH   3   4
ATOM      4  C   UNL A   1      33.516  26.286  22.629  1.00  0.00     0.365 C 
ATOM      5  O   UNL A   1      33.789  26.042  21.458  1.00  0.00    -0.245 OA
BRANCH   4   6
ATOM      6  C   UNL A   1      32.549  27.409  23.061  1.00  0.00     0.295 C 
ATOM      7  C   UNL A   1      30.698  26.864  24.550  1.00  0.00     0.170 C 
ATOM      8  C   UNL A   1      30.350  26.598  23.085  1.00  0.00     0.289 C 
ATOM      9  C   UNL A   1      32.167  27.290  24.535  1.00  0.00     0.110 C 
ATOM     10  N   UNL A   1      31.286  27.402  22.295  1.00  0.00    -0.333 N 
ATOM     11  H   UNL A   1      30.932  28.352  22.183  1.00  0.00     0.347 HD
ATOM     12  H   UNL A   1      31.415  27.019  21.359  1.00  0.00     0.347 HD
BRANCH   7  13
ATOM     13  N   UNL A   1      30.475  25.706  25.385  1.00  0.00    -0.243 N 
ATOM     14  C   UNL A   1      30.596  23.763  26.318  1.00  0.00     0.102 A 
ATOM     15  C   UNL A   1      31.214  24.570  25.394  1.00  0.00     0.137 A 
ATOM     16  N   UNL A   1      29.566  24.456  26.895  1.00  0.00    -0.134 NA
ATOM     17  N   UNL A   1      29.507  25.658  26.319  1.00  0.00    -0.067 NA
BRANCH  14  18
ATOM     18  C   UNL A   1      31.033  22.396  26.641  1.00  0.00     0.178 C 
BRANCH  18  19
ATOM     19  N   UNL A   1      32.259  22.281  27.372  1.00  0.00    -0.332 N 
ATOM     20  N   UNL A   1      33.792  20.775  26.277  1.00  0.00    -0.308 N 
ATOM     21  C   UNL A   1      33.458  21.752  27.138  1.00  0.00     0.319 C 
ATOM     22  H   UNL A   1      34.760  20.601  26.313  1.00  0.00     0.171 HD
ATOM     23  O   UNL A   1      34.373  22.152  27.873  1.00  0.00    -0.248 OA
ATOM     24  H   UNL A   1      32.201  22.695  28.265  1.00  0.00     0.165 HD
BRANCH  20  25
ATOM     25  C   UNL A   1      33.170  19.926  25.339  1.00  0.00     0.047 A 
ATOM     26  C   UNL A   1      32.838  21.898  23.721  1.00  0.00     0.048 C 
ATOM     27  C   UNL A   1      32.817  20.428  24.062  1.00  0.00    -0.009 A 
ATOM     28  C   UNL A   1      32.355  19.518  23.080  1.00  0.00     0.046 A 
ATOM     29  Cl  UNL A   1      31.899  20.036  21.492  1.00  0.00    -0.084 Cl
ATOM     30  C   UNL A   1      32.220  18.158  23.357  1.00  0.00     0.021 A 
ATOM     31  C   UNL A   1      32.797  18.618  25.642  1.00  0.00     0.026 A 
ATOM     32  C   UNL A   1      32.399  17.713  24.656  1.00  0.00     0.004 A 
ENDBRANCH  20  25
ENDBRANCH  18  19
ENDBRANCH  14  18
ENDBRANCH   7  13
ENDBRANCH   4   6
ENDBRANCH   3   4
ENDBRANCH   2   3
ENDBRANCH   1   2
BRANCH   1  33
ATOM     33  O   UNL A   1      35.970  22.706  24.836  1.00  0.00    -0.374 OA
BRANCH  33  34
ATOM     34  C   UNL A   1      37.028  22.328  25.713  1.00  0.00     0.202 C 
BRANCH  34  35
ATOM     35  C   UNL A   1      37.896  21.124  25.370  1.00  0.00     0.261 C 
BRANCH  35  36
ATOM     36  O   UNL A   1      39.270  21.457  25.353  1.00  0.00    -0.460 OA
BRANCH  36  37
ATOM     37  C   UNL A   1      40.071  20.458  25.777  1.00  0.00     0.338 C 
ATOM     38  O   UNL A   1      39.849  19.254  25.707  1.00  0.00    -0.246 OA
BRANCH  37  39
ATOM     39  C   UNL A   1      41.224  21.036  26.467  1.00  0.00     0.060 A 
ATOM     40  C   UNL A   1      41.129  21.002  27.860  1.00  0.00     0.016 A 
ATOM     41  C   UNL A   1      42.003  21.977  25.779  1.00  0.00     0.016 A 
ATOM     42  C   UNL A   1      41.501  22.129  28.536  1.00  0.00     0.010 A 
ATOM     43  C   UNL A   1      42.349  23.115  26.453  1.00  0.00     0.010 A 
ATOM     44  C   UNL A   1      41.989  23.208  27.794  1.00  0.00    -0.014 A 
BRANCH  44  45
ATOM     45  C   UNL A   1      42.199  24.447  28.493  1.00  0.00     0.031 A 
ATOM     46  C   UNL A   1      41.100  25.395  28.249  1.00  0.00     0.074 A 
ATOM     47  C   UNL A   1      43.250  24.628  29.312  1.00  0.00     0.049 A 
ATOM     48  N   UNL A   1      41.151  26.484  27.558  1.00  0.00    -0.248 NA
ATOM     49  C   UNL A   1      39.738  24.961  28.599  1.00  0.00     0.031 C 
ATOM     50  C   UNL A   1      44.217  23.633  29.784  1.00  0.00     0.029 A 
ATOM     51  N   UNL A   1      43.571  25.734  30.028  1.00  0.00    -0.354 N 
ATOM     52  C   UNL A   1      39.859  26.992  27.604  1.00  0.00     0.074 A 
ATOM     53  C   UNL A   1      39.009  25.911  28.014  1.00  0.00     0.031 C 
ATOM     54  C   UNL A   1      44.821  24.108  30.898  1.00  0.00     0.029 A 
ATOM     55  C   UNL A   1      44.356  25.465  31.141  1.00  0.00     0.049 A 
ATOM     56  H   UNL A   1      43.276  26.640  29.782  1.00  0.00     0.167 HD
ATOM     57  C   UNL A   1      39.639  28.333  27.596  1.00  0.00     0.034 A 
ATOM     58  C   UNL A   1      44.488  26.263  32.230  1.00  0.00     0.034 A 
ATOM     59  C   UNL A   1      40.812  29.050  27.167  1.00  0.00     0.049 A 
ATOM     60  C   UNL A   1      44.051  27.627  31.835  1.00  0.00     0.074 A 
ATOM     61  C   UNL A   1      41.580  29.058  26.020  1.00  0.00     0.029 A 
ATOM     62  N   UNL A   1      41.583  29.620  28.154  1.00  0.00    -0.354 N 
ATOM     63  N   UNL A   1      44.700  28.363  30.976  1.00  0.00    -0.248 NA
ATOM     64  C   UNL A   1      42.649  27.977  32.020  1.00  0.00     0.031 C 
ATOM     65  C   UNL A   1      42.920  29.211  26.476  1.00  0.00     0.029 A 
ATOM     66  C   UNL A   1      42.895  29.355  27.865  1.00  0.00     0.049 A 
ATOM     67  H   UNL A   1      41.250  30.126  28.930  1.00  0.00     0.167 HD
ATOM     68  C   UNL A   1      43.707  28.933  30.188  1.00  0.00     0.074 A 
ATOM     69  C   UNL A   1      42.469  28.755  30.946  1.00  0.00     0.031 C 
ATOM     70  C   UNL A   1      43.928  29.207  28.868  1.00  0.00     0.034 A 
BRANCH  57  71
ATOM     71  C   UNL A   1      38.525  29.018  28.350  1.00  0.00     0.023 A 
ATOM     72  C   UNL A   1      37.698  29.884  27.604  1.00  0.00     0.012 A 
ATOM     73  C   UNL A   1      38.422  29.087  29.759  1.00  0.00     0.148 A 
ATOM     74  C   UNL A   1      36.867  30.818  28.229  1.00  0.00     0.002 A 
ATOM     75  C   UNL A   1      37.539  29.963  30.374  1.00  0.00     0.091 A 
ATOM     76  F   UNL A   1      39.271  28.412  30.535  1.00  0.00    -0.205 F 
ATOM     77  C   UNL A   1      36.784  30.856  29.615  1.00  0.00     0.022 A 
BRANCH  75  78
ATOM     78  S   UNL A   1      37.371  30.019  32.164  1.00  0.00     0.127 S 
ATOM     79  O   UNL A   1      38.664  30.570  32.559  1.00  0.00    -0.237 OA
ATOM     80  O   UNL A   1      36.234  30.923  32.328  1.00  0.00    -0.237 OA
ATOM     81  O   UNL A   1      37.106  28.647  32.578  1.00  0.00    -0.744 OA
ENDBRANCH  75  78
ENDBRANCH  57  71
BRANCH  58  82
ATOM     82  C   UNL A   1      44.676  25.869  33.647  1.00  0.00     0.023 A 
ATOM     83  C   UNL A   1      45.965  25.562  34.127  1.00  0.00     0.012 A 
ATOM     84  C   UNL A   1      43.639  26.034  34.594  1.00  0.00     0.148 A 
ATOM     85  C   UNL A   1      46.213  25.441  35.502  1.00  0.00     0.002 A 
ATOM     86  C   UNL A   1      43.886  25.898  35.956  1.00  0.00     0.091 A 
ATOM     87  F   UNL A   1      42.430  26.424  34.170  1.00  0.00    -0.205 F 
ATOM     88  C   UNL A   1      45.176  25.611  36.416  1.00  0.00     0.022 A 
BRANCH  86  89
ATOM     89  S   UNL A   1      42.590  26.122  37.182  1.00  0.00     0.127 S 
ATOM     90  O   UNL A   1      41.784  24.915  36.999  1.00  0.00    -0.237 OA
ATOM     91  O   UNL A   1      43.354  26.168  38.425  1.00  0.00    -0.237 OA
ATOM     92  O   UNL A   1      41.905  27.357  36.816  1.00  0.00    -0.744 OA
ENDBRANCH  86  89
ENDBRANCH  58  82
BRANCH  70  93
ATOM     93  C   UNL A   1      45.338  29.087  28.344  1.00  0.00     0.023 A 
ATOM     94  C   UNL A   1      46.292  30.114  28.512  1.00  0.00     0.012 A 
ATOM     95  C   UNL A   1      45.763  27.839  27.865  1.00  0.00     0.148 A 
ATOM     96  C   UNL A   1      47.635  29.904  28.189  1.00  0.00     0.002 A 
ATOM     97  C   UNL A   1      47.107  27.618  27.596  1.00  0.00     0.091 A 
ATOM     98  F   UNL A   1      44.845  26.871  27.717  1.00  0.00    -0.205 F 
ATOM     99  C   UNL A   1      48.046  28.651  27.746  1.00  0.00     0.022 A 
BRANCH  97 100
ATOM    100  S   UNL A   1      47.715  25.986  27.164  1.00  0.00     0.127 S 
ATOM    101  O   UNL A   1      47.387  25.212  28.359  1.00  0.00    -0.237 OA
ATOM    102  O   UNL A   1      46.918  25.655  25.982  1.00  0.00    -0.237 OA
ATOM    103  O   UNL A   1      49.138  26.149  26.891  1.00  0.00    -0.744 OA
ENDBRANCH  97 100
ENDBRANCH  70  93
ENDBRANCH  44  45
ENDBRANCH  37  39
ENDBRANCH  36  37
ENDBRANCH  35  36
ENDBRANCH  34  35
ENDBRANCH  33  34
ENDBRANCH   1  33
TORSDOF 21
ENDMDL
MODEL 3
REMARK VINA RESULT:     -11.5      1.933      2.382
REMARK SMILES Cc1c(Cl)cccc1NC(=O)NCc1cn([C@@H]2C[NH2+][C@H](C(=O)OCCOCCOC(=O)c3ccc(-c4c5nc(c(-c6cccc(S(=O)(=O)[O-])c6F)c6ccc([nH]6)c(-c6cccc(S(=O)(=O)[O-])c6F)c6nc(c(-c7cccc(S(=O)(=O)[O-])c7F)c7ccc4[nH]7)C=C6)C=C5)cc3)C2)nn1
REMARK SMILES IDX 25 1 24 2 23 3 21 4 22 5 20 6 17 7 18 8 95 9 19 10 16 13
REMARK SMILES IDX 14 14 15 15 97 16 96 17 13 18 12 19 9 20 10 21 11 23 8 25
REMARK SMILES IDX 1 26 2 27 3 28 4 29 5 30 7 31 6 32 26 33 27 34 28 35 29 36
REMARK SMILES IDX 30 37 31 38 32 39 33 40 94 41 34 42 93 43 35 44 36 45 37 46
REMARK SMILES IDX 87 47 38 48 92 49 86 50 88 51 39 52 91 53 85 54 84 55 40 57
REMARK SMILES IDX 72 58 52 59 71 60 53 61 56 62 70 63 89 64 54 65 55 66 69 68
REMARK SMILES IDX 90 69 57 70 41 71 42 72 50 73 43 74 45 75 51 76 44 77 46 78
REMARK SMILES IDX 47 79 48 80 49 81 73 82 74 83 82 84 75 85 77 86 83 87 76 88
REMARK SMILES IDX 78 89 79 90 80 91 81 92 58 93 59 94 67 95 60 96 62 97 68 98
REMARK SMILES IDX 61 99 63 100 64 101 65 102 66 103
REMARK H PARENT 19 11 19 12 9 22 12 24 88 56 56 67
REMARK Flexibility Score: inf
ROOT
ATOM      1  C   UNL A   1      33.581  28.646  27.128  1.00  0.00     0.202 C 
ENDROOT
BRANCH   1   2
ATOM      2  C   UNL A   1      34.106  28.691  25.692  1.00  0.00     0.261 C 
BRANCH   2   3
ATOM      3  O   UNL A   1      33.187  28.087  24.771  1.00  0.00    -0.459 OA
BRANCH   3   4
ATOM      4  C   UNL A   1      32.996  28.756  23.598  1.00  0.00     0.365 C 
ATOM      5  O   UNL A   1      33.901  29.124  22.856  1.00  0.00    -0.245 OA
BRANCH   4   6
ATOM      6  C   UNL A   1      31.501  28.845  23.227  1.00  0.00     0.295 C 
ATOM      7  C   UNL A   1      30.033  26.982  23.789  1.00  0.00     0.170 C 
ATOM      8  C   UNL A   1      30.749  26.763  22.456  1.00  0.00     0.289 C 
ATOM      9  C   UNL A   1      30.609  28.289  24.335  1.00  0.00     0.110 C 
ATOM     10  N   UNL A   1      31.171  28.089  22.001  1.00  0.00    -0.333 N 
ATOM     11  H   UNL A   1      30.415  28.549  21.493  1.00  0.00     0.347 HD
ATOM     12  H   UNL A   1      31.967  28.035  21.366  1.00  0.00     0.347 HD
BRANCH   7  13
ATOM     13  N   UNL A   1      30.224  25.879  24.702  1.00  0.00    -0.243 N 
ATOM     14  C   UNL A   1      30.647  23.946  25.565  1.00  0.00     0.102 A 
ATOM     15  C   UNL A   1      30.666  24.639  24.379  1.00  0.00     0.137 A 
ATOM     16  N   UNL A   1      30.283  24.798  26.572  1.00  0.00    -0.134 NA
ATOM     17  N   UNL A   1      30.034  25.991  26.029  1.00  0.00    -0.067 NA
BRANCH  14  18
ATOM     18  C   UNL A   1      31.017  22.528  25.696  1.00  0.00     0.178 C 
BRANCH  18  19
ATOM     19  N   UNL A   1      31.666  22.154  26.916  1.00  0.00    -0.332 N 
ATOM     20  N   UNL A   1      33.855  23.154  27.082  1.00  0.00    -0.308 N 
ATOM     21  C   UNL A   1      32.759  22.545  27.567  1.00  0.00     0.319 C 
ATOM     22  H   UNL A   1      34.498  23.334  27.805  1.00  0.00     0.171 HD
ATOM     23  O   UNL A   1      32.811  22.229  28.766  1.00  0.00    -0.248 OA
ATOM     24  H   UNL A   1      31.189  21.433  27.388  1.00  0.00     0.165 HD
BRANCH  20  25
ATOM     25  C   UNL A   1      34.359  23.610  25.846  1.00  0.00     0.047 A 
ATOM     26  C   UNL A   1      36.125  21.739  25.835  1.00  0.00     0.048 C 
ATOM     27  C   UNL A   1      35.367  22.869  25.181  1.00  0.00    -0.009 A 
ATOM     28  C   UNL A   1      35.732  23.248  23.866  1.00  0.00     0.046 A 
ATOM     29  Cl  UNL A   1      36.953  22.406  22.974  1.00  0.00    -0.084 Cl
ATOM     30  C   UNL A   1      35.139  24.342  23.237  1.00  0.00     0.021 A 
ATOM     31  C   UNL A   1      33.971  24.822  25.279  1.00  0.00     0.026 A 
ATOM     32  C   UNL A   1      34.288  25.159  23.961  1.00  0.00     0.004 A 
ENDBRANCH  20  25
ENDBRANCH  18  19
ENDBRANCH  14  18
ENDBRANCH   7  13
ENDBRANCH   4   6
ENDBRANCH   3   4
ENDBRANCH   2   3
ENDBRANCH   1   2
BRANCH   1  33
ATOM     33  O   UNL A   1      32.627  29.625  27.546  1.00  0.00    -0.374 OA
BRANCH  33  34
ATOM     34  C   UNL A   1      32.174  30.631  26.643  1.00  0.00     0.202 C 
BRANCH  34  35
ATOM     35  C   UNL A   1      32.155  32.088  27.087  1.00  0.00     0.261 C 
BRANCH  35  36
ATOM     36  O   UNL A   1      33.337  32.440  27.779  1.00  0.00    -0.460 OA
BRANCH  36  37
ATOM     37  C   UNL A   1      33.302  33.681  28.305  1.00  0.00     0.338 C 
ATOM     38  O   UNL A   1      32.555  34.599  27.983  1.00  0.00    -0.246 OA
BRANCH  37  39
ATOM     39  C   UNL A   1      34.400  33.821  29.262  1.00  0.00     0.060 A 
ATOM     40  C   UNL A   1      35.480  34.564  28.782  1.00  0.00     0.016 A 
ATOM     41  C   UNL A   1      34.527  32.854  30.269  1.00  0.00     0.016 A 
ATOM     42  C   UNL A   1      36.732  34.076  29.036  1.00  0.00     0.010 A 
ATOM     43  C   UNL A   1      35.777  32.350  30.498  1.00  0.00     0.010 A 
ATOM     44  C   UNL A   1      36.838  32.904  29.789  1.00  0.00    -0.014 A 
BRANCH  44  45
ATOM     45  C   UNL A   1      38.140  32.301  29.889  1.00  0.00     0.031 A 
ATOM     46  C   UNL A   1      38.137  30.924  29.367  1.00  0.00     0.074 A 
ATOM     47  C   UNL A   1      39.204  32.987  30.341  1.00  0.00     0.049 A 
ATOM     48  N   UNL A   1      38.253  29.834  30.048  1.00  0.00    -0.248 NA
ATOM     49  C   UNL A   1      37.707  30.727  27.973  1.00  0.00     0.031 C 
ATOM     50  C   UNL A   1      39.309  34.421  30.623  1.00  0.00     0.029 A 
ATOM     51  N   UNL A   1      40.480  32.549  30.489  1.00  0.00    -0.354 N 
ATOM     52  C   UNL A   1      38.155  28.818  29.106  1.00  0.00     0.074 A 
ATOM     53  C   UNL A   1      37.569  29.402  27.934  1.00  0.00     0.031 C 
ATOM     54  C   UNL A   1      40.618  34.768  30.629  1.00  0.00     0.029 A 
ATOM     55  C   UNL A   1      41.422  33.568  30.458  1.00  0.00     0.049 A 
ATOM     56  H   UNL A   1      40.714  31.600  30.607  1.00  0.00     0.167 HD
ATOM     57  C   UNL A   1      38.840  27.656  29.264  1.00  0.00     0.034 A 
ATOM     58  C   UNL A   1      42.741  33.421  30.177  1.00  0.00     0.034 A 
ATOM     59  C   UNL A   1      39.310  27.508  30.618  1.00  0.00     0.049 A 
ATOM     60  C   UNL A   1      43.077  31.986  30.373  1.00  0.00     0.074 A 
ATOM     61  C   UNL A   1      38.701  27.445  31.855  1.00  0.00     0.029 A 
ATOM     62  N   UNL A   1      40.631  27.815  30.850  1.00  0.00    -0.354 N 
ATOM     63  N   UNL A   1      43.062  31.404  31.539  1.00  0.00    -0.248 NA
ATOM     64  C   UNL A   1      42.958  31.092  29.229  1.00  0.00     0.031 C 
ATOM     65  C   UNL A   1      39.570  28.158  32.729  1.00  0.00     0.029 A 
ATOM     66  C   UNL A   1      40.692  28.559  31.999  1.00  0.00     0.049 A 
ATOM     67  H   UNL A   1      41.396  27.548  30.290  1.00  0.00     0.167 HD
ATOM     68  C   UNL A   1      42.468  30.170  31.302  1.00  0.00     0.074 A 
ATOM     69  C   UNL A   1      42.533  29.987  29.853  1.00  0.00     0.031 C 
ATOM     70  C   UNL A   1      41.701  29.563  32.256  1.00  0.00     0.034 A 
BRANCH  57  71
ATOM     71  C   UNL A   1      39.435  26.856  28.130  1.00  0.00     0.023 A 
ATOM     72  C   UNL A   1      39.040  25.505  28.036  1.00  0.00     0.012 A 
ATOM     73  C   UNL A   1      40.544  27.257  27.350  1.00  0.00     0.148 A 
ATOM     74  C   UNL A   1      39.756  24.588  27.262  1.00  0.00     0.002 A 
ATOM     75  C   UNL A   1      41.204  26.360  26.522  1.00  0.00     0.091 A 
ATOM     76  F   UNL A   1      41.071  28.474  27.493  1.00  0.00    -0.205 F 
ATOM     77  C   UNL A   1      40.837  25.015  26.502  1.00  0.00     0.022 A 
BRANCH  75  78
ATOM     78  S   UNL A   1      42.585  26.877  25.493  1.00  0.00     0.127 S 
ATOM     79  O   UNL A   1      43.632  27.079  26.490  1.00  0.00    -0.237 OA
ATOM     80  O   UNL A   1      42.765  25.711  24.629  1.00  0.00    -0.237 OA
ATOM     81  O   UNL A   1      42.128  28.072  24.794  1.00  0.00    -0.744 OA
ENDBRANCH  75  78
ENDBRANCH  57  71
BRANCH  58  82
ATOM     82  C   UNL A   1      43.645  34.359  29.471  1.00  0.00     0.023 A 
ATOM     83  C   UNL A   1      44.310  35.372  30.190  1.00  0.00     0.012 A 
ATOM     84  C   UNL A   1      44.058  34.113  28.141  1.00  0.00     0.148 A 
ATOM     85  C   UNL A   1      45.358  36.101  29.610  1.00  0.00     0.002 A 
ATOM     86  C   UNL A   1      45.087  34.849  27.563  1.00  0.00     0.091 A 
ATOM     87  F   UNL A   1      43.511  33.090  27.471  1.00  0.00    -0.205 F 
ATOM     88  C   UNL A   1      45.747  35.839  28.299  1.00  0.00     0.022 A 
BRANCH  86  89
ATOM     89  S   UNL A   1      45.643  34.543  25.880  1.00  0.00     0.127 S 
ATOM     90  O   UNL A   1      46.612  35.620  25.678  1.00  0.00    -0.237 OA
ATOM     91  O   UNL A   1      46.223  33.208  25.992  1.00  0.00    -0.237 OA
ATOM     92  O   UNL A   1      44.454  34.647  25.043  1.00  0.00    -0.744 OA
ENDBRANCH  86  89
ENDBRANCH  58  82
BRANCH  70  93
ATOM     93  C   UNL A   1      41.700  30.152  33.646  1.00  0.00     0.023 A 
ATOM     94  C   UNL A   1      42.728  29.887  34.577  1.00  0.00     0.012 A 
ATOM     95  C   UNL A   1      40.760  31.152  33.941  1.00  0.00     0.148 A 
ATOM     96  C   UNL A   1      42.803  30.590  35.781  1.00  0.00     0.002 A 
ATOM     97  C   UNL A   1      40.870  31.885  35.115  1.00  0.00     0.091 A 
ATOM     98  F   UNL A   1      39.793  31.396  33.043  1.00  0.00    -0.205 F 
ATOM     99  C   UNL A   1      41.884  31.601  36.044  1.00  0.00     0.022 A 
BRANCH  97 100
ATOM    100  S   UNL A   1      39.805  33.292  35.437  1.00  0.00     0.127 S 
ATOM    101  O   UNL A   1      38.503  32.655  35.620  1.00  0.00    -0.237 OA
ATOM    102  O   UNL A   1      40.387  33.856  36.656  1.00  0.00    -0.237 OA
ATOM    103  O   UNL A   1      39.924  34.159  34.270  1.00  0.00    -0.744 OA
ENDBRANCH  97 100
ENDBRANCH  70  93
ENDBRANCH  44  45
ENDBRANCH  37  39
ENDBRANCH  36  37
ENDBRANCH  35  36
ENDBRANCH  34  35
ENDBRANCH  33  34
ENDBRANCH   1  33
TORSDOF 21
ENDMDL
