MODEL 1
REMARK VINA RESULT:      -9.9      0.000      0.000
REMARK SMILES CC(C)[C@H](NC(=O)[C@H](C)NC(=O)C[NH3+])C(=O)OCCOCCOC(=O)c1ccc(-c2c3nc(c(-c4cccc(S(=O)(=O)[O-])c4F)c4ccc([nH]4)c(-c4cccc(S(=O)(=O)[O-])c4F)c4nc(c(-c5cccc(S(=O)(=O)[O-])c5F)c5ccc2[nH]5)C=C4)C=C3)cc1
REMARK SMILES IDX 19 1 18 2 17 3 15 4 16 5 4 6 2 7 1 8 3 9 5 10 6 11 7 13 8 14
REMARK SMILES IDX 9 15 10 16 11 17 12 19 13 20 14 21 20 25 21 26 22 27 23 28
REMARK SMILES IDX 24 29 25 30 26 31 27 32 88 33 28 34 87 35 29 36 30 37 31 38
REMARK SMILES IDX 81 39 32 40 86 41 80 42 82 43 33 44 85 45 79 46 78 47 34 49
REMARK SMILES IDX 66 50 46 51 65 52 47 53 50 54 64 55 83 56 48 57 49 58 63 60
REMARK SMILES IDX 84 61 51 62 35 63 36 64 44 65 37 66 39 67 45 68 38 69 40 70
REMARK SMILES IDX 41 71 42 72 43 73 67 74 68 75 76 76 69 77 71 78 77 79 70 80
REMARK SMILES IDX 72 81 73 82 74 83 75 84 52 85 53 86 61 87 54 88 56 89 62 90
REMARK SMILES IDX 55 91 57 92 58 93 59 94 60 95
REMARK H PARENT 5 12 10 18 14 22 14 23 14 24 82 48 50 59
REMARK Flexibility Score: inf
ROOT
ATOM      1  C   UNL A   1      32.983  29.992  26.087  1.00  0.00     0.202 C 
ENDROOT
BRANCH   1   2
ATOM      2  C   UNL A   1      33.472  28.561  25.846  1.00  0.00     0.261 C 
BRANCH   2   3
ATOM      3  O   UNL A   1      32.876  27.957  24.685  1.00  0.00    -0.462 OA
BRANCH   3   4
ATOM      4  C   UNL A   1      33.050  26.611  24.616  1.00  0.00     0.328 C 
ATOM      5  O   UNL A   1      33.918  25.998  25.230  1.00  0.00    -0.250 OA
BRANCH   4   6
ATOM      6  C   UNL A   1      32.003  25.894  23.736  1.00  0.00     0.194 C 
BRANCH   6   7
ATOM      7  C   UNL A   1      30.752  25.456  24.517  1.00  0.00     0.017 C 
ATOM      8  C   UNL A   1      30.694  25.925  25.975  1.00  0.00     0.010 C 
ATOM      9  C   UNL A   1      29.471  25.898  23.806  1.00  0.00     0.010 C 
ENDBRANCH   6   7
BRANCH   6  10
ATOM     10  N   UNL A   1      32.520  24.914  22.745  1.00  0.00    -0.341 N 
ATOM     11  C   UNL A   1      33.088  23.688  22.670  1.00  0.00     0.243 C 
ATOM     12  H   UNL A   1      32.415  25.282  21.838  1.00  0.00     0.164 HD
ATOM     13  O   UNL A   1      33.431  23.385  21.517  1.00  0.00    -0.273 OA
BRANCH  11  14
ATOM     14  C   UNL A   1      33.452  22.761  23.857  1.00  0.00     0.168 C 
ATOM     15  C   UNL A   1      32.190  22.478  24.690  1.00  0.00     0.041 C 
BRANCH  14  16
ATOM     16  N   UNL A   1      34.449  23.289  24.780  1.00  0.00    -0.340 N 
ATOM     17  C   UNL A   1      35.519  22.630  25.323  1.00  0.00     0.275 C 
ATOM     18  H   UNL A   1      34.339  24.230  25.046  1.00  0.00     0.164 HD
ATOM     19  O   UNL A   1      36.154  23.172  26.230  1.00  0.00    -0.268 OA
BRANCH  17  20
ATOM     20  C   UNL A   1      35.953  21.290  24.722  1.00  0.00     0.360 C 
BRANCH  20  21
ATOM     21  N   UNL A   1      35.174  20.201  25.303  1.00  0.00    -0.350 N 
ATOM     22  H   UNL A   1      35.608  19.308  25.067  1.00  0.00     0.344 HD
ATOM     23  H   UNL A   1      34.225  20.225  24.932  1.00  0.00     0.344 HD
ATOM     24  H   UNL A   1      35.145  20.307  26.318  1.00  0.00     0.344 HD
ENDBRANCH  20  21
ENDBRANCH  17  20
ENDBRANCH  14  16
ENDBRANCH  11  14
ENDBRANCH   6  10
ENDBRANCH   4   6
ENDBRANCH   3   4
ENDBRANCH   2   3
ENDBRANCH   1   2
BRANCH   1  25
ATOM     25  O   UNL A   1      31.637  30.298  25.729  1.00  0.00    -0.374 OA
BRANCH  25  26
ATOM     26  C   UNL A   1      31.163  31.623  25.973  1.00  0.00     0.202 C 
BRANCH  26  27
ATOM     27  C   UNL A   1      31.546  32.293  27.296  1.00  0.00     0.261 C 
BRANCH  27  28
ATOM     28  O   UNL A   1      32.523  33.330  27.113  1.00  0.00    -0.460 OA
BRANCH  28  29
ATOM     29  C   UNL A   1      33.213  33.646  28.231  1.00  0.00     0.338 C 
ATOM     30  O   UNL A   1      32.807  34.310  29.181  1.00  0.00    -0.246 OA
BRANCH  29  31
ATOM     31  C   UNL A   1      34.491  32.915  28.284  1.00  0.00     0.060 A 
ATOM     32  C   UNL A   1      34.449  31.610  28.795  1.00  0.00     0.016 A 
ATOM     33  C   UNL A   1      35.710  33.513  27.957  1.00  0.00     0.016 A 
ATOM     34  C   UNL A   1      35.630  30.941  29.089  1.00  0.00     0.010 A 
ATOM     35  C   UNL A   1      36.899  32.839  28.259  1.00  0.00     0.010 A 
ATOM     36  C   UNL A   1      36.858  31.583  28.891  1.00  0.00    -0.014 A 
BRANCH  36  37
ATOM     37  C   UNL A   1      38.051  31.029  29.577  1.00  0.00     0.031 A 
ATOM     38  C   UNL A   1      38.315  31.443  31.002  1.00  0.00     0.074 A 
ATOM     39  C   UNL A   1      38.835  30.115  28.980  1.00  0.00     0.049 A 
ATOM     40  N   UNL A   1      39.239  31.029  31.829  1.00  0.00    -0.248 NA
ATOM     41  C   UNL A   1      37.411  32.457  31.575  1.00  0.00     0.031 C 
ATOM     42  C   UNL A   1      38.673  29.628  27.612  1.00  0.00     0.029 A 
ATOM     43  N   UNL A   1      39.929  29.437  29.455  1.00  0.00    -0.354 N 
ATOM     44  C   UNL A   1      39.044  31.745  33.005  1.00  0.00     0.074 A 
ATOM     45  C   UNL A   1      37.927  32.635  32.781  1.00  0.00     0.031 C 
ATOM     46  C   UNL A   1      39.646  28.737  27.351  1.00  0.00     0.029 A 
ATOM     47  C   UNL A   1      40.501  28.599  28.529  1.00  0.00     0.049 A 
ATOM     48  H   UNL A   1      40.270  29.540  30.372  1.00  0.00     0.167 HD
ATOM     49  C   UNL A   1      39.717  31.654  34.176  1.00  0.00     0.034 A 
ATOM     50  C   UNL A   1      41.593  27.814  28.623  1.00  0.00     0.034 A 
ATOM     51  C   UNL A   1      40.808  30.749  34.408  1.00  0.00     0.049 A 
ATOM     52  C   UNL A   1      42.324  27.729  29.939  1.00  0.00     0.074 A 
ATOM     53  C   UNL A   1      41.537  30.557  35.568  1.00  0.00     0.029 A 
ATOM     54  N   UNL A   1      41.329  29.884  33.458  1.00  0.00    -0.354 N 
ATOM     55  N   UNL A   1      42.054  28.328  31.075  1.00  0.00    -0.248 NA
ATOM     56  C   UNL A   1      43.482  26.825  29.999  1.00  0.00     0.031 C 
ATOM     57  C   UNL A   1      42.512  29.587  35.314  1.00  0.00     0.029 A 
ATOM     58  C   UNL A   1      42.372  29.156  34.004  1.00  0.00     0.049 A 
ATOM     59  H   UNL A   1      41.006  29.800  32.532  1.00  0.00     0.167 HD
ATOM     60  C   UNL A   1      42.978  27.839  31.993  1.00  0.00     0.074 A 
ATOM     61  C   UNL A   1      43.804  26.883  31.284  1.00  0.00     0.031 C 
ATOM     62  C   UNL A   1      43.138  28.160  33.302  1.00  0.00     0.034 A 
BRANCH  49  63
ATOM     63  C   UNL A   1      39.267  32.540  35.308  1.00  0.00     0.023 A 
ATOM     64  C   UNL A   1      38.306  32.068  36.224  1.00  0.00     0.012 A 
ATOM     65  C   UNL A   1      39.827  33.819  35.492  1.00  0.00     0.148 A 
ATOM     66  C   UNL A   1      37.884  32.867  37.287  1.00  0.00     0.002 A 
ATOM     67  C   UNL A   1      39.435  34.592  36.578  1.00  0.00     0.091 A 
ATOM     68  F   UNL A   1      40.720  34.261  34.595  1.00  0.00    -0.205 F 
ATOM     69  C   UNL A   1      38.456  34.123  37.470  1.00  0.00     0.022 A 
BRANCH  67  70
ATOM     70  S   UNL A   1      40.168  36.192  36.941  1.00  0.00     0.127 S 
ATOM     71  O   UNL A   1      41.554  35.823  37.226  1.00  0.00    -0.237 OA
ATOM     72  O   UNL A   1      39.976  36.913  35.683  1.00  0.00    -0.237 OA
ATOM     73  O   UNL A   1      39.419  36.729  38.068  1.00  0.00    -0.744 OA
ENDBRANCH  67  70
ENDBRANCH  49  63
BRANCH  50  74
ATOM     74  C   UNL A   1      42.026  26.998  27.454  1.00  0.00     0.023 A 
ATOM     75  C   UNL A   1      42.716  27.611  26.391  1.00  0.00     0.012 A 
ATOM     76  C   UNL A   1      41.769  25.615  27.398  1.00  0.00     0.148 A 
ATOM     77  C   UNL A   1      43.115  26.869  25.279  1.00  0.00     0.002 A 
ATOM     78  C   UNL A   1      42.218  24.870  26.313  1.00  0.00     0.091 A 
ATOM     79  F   UNL A   1      41.094  25.051  28.410  1.00  0.00    -0.205 F 
ATOM     80  C   UNL A   1      42.875  25.498  25.244  1.00  0.00     0.022 A 
BRANCH  78  81
ATOM     81  S   UNL A   1      42.072  23.081  26.251  1.00  0.00     0.127 S 
ATOM     82  O   UNL A   1      42.833  22.677  27.429  1.00  0.00    -0.237 OA
ATOM     83  O   UNL A   1      40.624  22.891  26.355  1.00  0.00    -0.237 OA
ATOM     84  O   UNL A   1      42.633  22.688  24.966  1.00  0.00    -0.744 OA
ENDBRANCH  78  81
ENDBRANCH  50  74
BRANCH  62  85
ATOM     85  C   UNL A   1      44.211  27.438  34.073  1.00  0.00     0.023 A 
ATOM     86  C   UNL A   1      45.488  28.015  34.216  1.00  0.00     0.012 A 
ATOM     87  C   UNL A   1      43.930  26.217  34.719  1.00  0.00     0.148 A 
ATOM     88  C   UNL A   1      46.479  27.372  34.956  1.00  0.00     0.002 A 
ATOM     89  C   UNL A   1      44.907  25.605  35.496  1.00  0.00     0.091 A 
ATOM     90  F   UNL A   1      42.715  25.670  34.557  1.00  0.00    -0.205 F 
ATOM     91  C   UNL A   1      46.186  26.174  35.605  1.00  0.00     0.022 A 
BRANCH  89  92
ATOM     92  S   UNL A   1      44.578  24.114  36.442  1.00  0.00     0.127 S 
ATOM     93  O   UNL A   1      43.885  24.650  37.612  1.00  0.00    -0.237 OA
ATOM     94  O   UNL A   1      43.731  23.343  35.531  1.00  0.00    -0.237 OA
ATOM     95  O   UNL A   1      45.880  23.514  36.700  1.00  0.00    -0.744 OA
ENDBRANCH  89  92
ENDBRANCH  62  85
ENDBRANCH  36  37
ENDBRANCH  29  31
ENDBRANCH  28  29
ENDBRANCH  27  28
ENDBRANCH  26  27
ENDBRANCH  25  26
ENDBRANCH   1  25
TORSDOF 23
ENDMDL
MODEL 2
REMARK VINA RESULT:      -9.9      1.137      7.895
REMARK SMILES CC(C)[C@H](NC(=O)[C@H](C)NC(=O)C[NH3+])C(=O)OCCOCCOC(=O)c1ccc(-c2c3nc(c(-c4cccc(S(=O)(=O)[O-])c4F)c4ccc([nH]4)c(-c4cccc(S(=O)(=O)[O-])c4F)c4nc(c(-c5cccc(S(=O)(=O)[O-])c5F)c5ccc2[nH]5)C=C4)C=C3)cc1
REMARK SMILES IDX 19 1 18 2 17 3 15 4 16 5 4 6 2 7 1 8 3 9 5 10 6 11 7 13 8 14
REMARK SMILES IDX 9 15 10 16 11 17 12 19 13 20 14 21 20 25 21 26 22 27 23 28
REMARK SMILES IDX 24 29 25 30 26 31 27 32 88 33 28 34 87 35 29 36 30 37 31 38
REMARK SMILES IDX 81 39 32 40 86 41 80 42 82 43 33 44 85 45 79 46 78 47 34 49
REMARK SMILES IDX 66 50 46 51 65 52 47 53 50 54 64 55 83 56 48 57 49 58 63 60
REMARK SMILES IDX 84 61 51 62 35 63 36 64 44 65 37 66 39 67 45 68 38 69 40 70
REMARK SMILES IDX 41 71 42 72 43 73 67 74 68 75 76 76 69 77 71 78 77 79 70 80
REMARK SMILES IDX 72 81 73 82 74 83 75 84 52 85 53 86 61 87 54 88 56 89 62 90
REMARK SMILES IDX 55 91 57 92 58 93 59 94 60 95
REMARK H PARENT 5 12 10 18 14 22 14 23 14 24 82 48 50 59
REMARK Flexibility Score: inf
ROOT
ATOM      1  C   UNL A   1      32.753  29.175  27.126  1.00  0.00     0.202 C 
ENDROOT
BRANCH   1   2
ATOM      2  C   UNL A   1      32.438  27.680  27.238  1.00  0.00     0.261 C 
BRANCH   2   3
ATOM      3  O   UNL A   1      31.038  27.392  27.077  1.00  0.00    -0.462 OA
BRANCH   3   4
ATOM      4  C   UNL A   1      30.783  26.369  26.219  1.00  0.00     0.328 C 
ATOM      5  O   UNL A   1      30.105  25.387  26.505  1.00  0.00    -0.250 OA
BRANCH   4   6
ATOM      6  C   UNL A   1      31.375  26.580  24.809  1.00  0.00     0.194 C 
BRANCH   6   7
ATOM      7  C   UNL A   1      30.803  27.813  24.089  1.00  0.00     0.017 C 
ATOM      8  C   UNL A   1      31.815  28.619  23.269  1.00  0.00     0.010 C 
ATOM      9  C   UNL A   1      29.628  27.431  23.184  1.00  0.00     0.010 C 
ENDBRANCH   6   7
BRANCH   6  10
ATOM     10  N   UNL A   1      31.550  25.366  23.969  1.00  0.00    -0.341 N 
ATOM     11  C   UNL A   1      32.278  24.227  23.897  1.00  0.00     0.243 C 
ATOM     12  H   UNL A   1      30.927  25.404  23.207  1.00  0.00     0.164 HD
ATOM     13  O   UNL A   1      32.067  23.585  22.856  1.00  0.00    -0.273 OA
BRANCH  11  14
ATOM     14  C   UNL A   1      33.388  23.773  24.877  1.00  0.00     0.168 C 
ATOM     15  C   UNL A   1      34.340  24.949  25.151  1.00  0.00     0.041 C 
BRANCH  14  16
ATOM     16  N   UNL A   1      34.217  22.667  24.415  1.00  0.00    -0.340 N 
ATOM     17  C   UNL A   1      34.772  21.666  25.166  1.00  0.00     0.275 C 
ATOM     18  H   UNL A   1      34.400  22.636  23.448  1.00  0.00     0.164 HD
ATOM     19  O   UNL A   1      35.599  20.917  24.641  1.00  0.00    -0.268 OA
BRANCH  17  20
ATOM     20  C   UNL A   1      34.278  21.446  26.599  1.00  0.00     0.360 C 
BRANCH  20  21
ATOM     21  N   UNL A   1      33.281  20.381  26.630  1.00  0.00    -0.350 N 
ATOM     22  H   UNL A   1      32.373  20.755  26.353  1.00  0.00     0.344 HD
ATOM     23  H   UNL A   1      33.217  20.002  27.575  1.00  0.00     0.344 HD
ATOM     24  H   UNL A   1      33.554  19.639  25.985  1.00  0.00     0.344 HD
ENDBRANCH  20  21
ENDBRANCH  17  20
ENDBRANCH  14  16
ENDBRANCH  11  14
ENDBRANCH   6  10
ENDBRANCH   4   6
ENDBRANCH   3   4
ENDBRANCH   2   3
ENDBRANCH   1   2
BRANCH   1  25
ATOM     25  O   UNL A   1      31.662  30.088  27.226  1.00  0.00    -0.374 OA
BRANCH  25  26
ATOM     26  C   UNL A   1      31.623  31.189  26.317  1.00  0.00     0.202 C 
BRANCH  26  27
ATOM     27  C   UNL A   1      31.502  32.601  26.902  1.00  0.00     0.261 C 
BRANCH  27  28
ATOM     28  O   UNL A   1      32.727  33.342  26.780  1.00  0.00    -0.460 OA
BRANCH  28  29
ATOM     29  C   UNL A   1      33.275  33.705  27.960  1.00  0.00     0.338 C 
ATOM     30  O   UNL A   1      32.759  34.412  28.822  1.00  0.00    -0.246 OA
BRANCH  29  31
ATOM     31  C   UNL A   1      34.531  32.974  28.204  1.00  0.00     0.060 A 
ATOM     32  C   UNL A   1      34.414  31.623  28.557  1.00  0.00     0.016 A 
ATOM     33  C   UNL A   1      35.776  33.605  28.203  1.00  0.00     0.016 A 
ATOM     34  C   UNL A   1      35.524  30.928  29.022  1.00  0.00     0.010 A 
ATOM     35  C   UNL A   1      36.892  32.905  28.676  1.00  0.00     0.010 A 
ATOM     36  C   UNL A   1      36.751  31.589  29.153  1.00  0.00    -0.014 A 
BRANCH  36  37
ATOM     37  C   UNL A   1      37.788  30.967  30.012  1.00  0.00     0.031 A 
ATOM     38  C   UNL A   1      38.714  29.951  29.394  1.00  0.00     0.074 A 
ATOM     39  C   UNL A   1      37.960  31.356  31.286  1.00  0.00     0.049 A 
ATOM     40  N   UNL A   1      39.744  29.341  29.919  1.00  0.00    -0.248 NA
ATOM     41  C   UNL A   1      38.447  29.577  27.995  1.00  0.00     0.031 C 
ATOM     42  C   UNL A   1      37.136  32.338  31.989  1.00  0.00     0.029 A 
ATOM     43  N   UNL A   1      38.889  30.965  32.217  1.00  0.00    -0.354 N 
ATOM     44  C   UNL A   1      40.231  28.497  28.927  1.00  0.00     0.074 A 
ATOM     45  C   UNL A   1      39.374  28.657  27.774  1.00  0.00     0.031 C 
ATOM     46  C   UNL A   1      37.588  32.461  33.250  1.00  0.00     0.029 A 
ATOM     47  C   UNL A   1      38.725  31.563  33.443  1.00  0.00     0.049 A 
ATOM     48  H   UNL A   1      39.606  30.318  32.024  1.00  0.00     0.167 HD
ATOM     49  C   UNL A   1      41.310  27.680  28.961  1.00  0.00     0.034 A 
ATOM     50  C   UNL A   1      39.415  31.399  34.590  1.00  0.00     0.034 A 
ATOM     51  C   UNL A   1      42.179  27.543  30.097  1.00  0.00     0.049 A 
ATOM     52  C   UNL A   1      40.613  30.484  34.601  1.00  0.00     0.074 A 
ATOM     53  C   UNL A   1      43.316  26.765  30.223  1.00  0.00     0.029 A 
ATOM     54  N   UNL A   1      42.005  28.199  31.305  1.00  0.00    -0.354 N 
ATOM     55  N   UNL A   1      41.126  29.782  33.619  1.00  0.00    -0.248 NA
ATOM     56  C   UNL A   1      41.354  30.375  35.866  1.00  0.00     0.031 C 
ATOM     57  C   UNL A   1      43.821  26.939  31.516  1.00  0.00     0.029 A 
ATOM     58  C   UNL A   1      43.013  27.845  32.185  1.00  0.00     0.049 A 
ATOM     59  H   UNL A   1      41.273  28.826  31.508  1.00  0.00     0.167 HD
ATOM     60  C   UNL A   1      42.274  29.186  34.134  1.00  0.00     0.074 A 
ATOM     61  C   UNL A   1      42.387  29.623  35.511  1.00  0.00     0.031 C 
ATOM     62  C   UNL A   1      43.148  28.343  33.528  1.00  0.00     0.034 A 
BRANCH  49  63
ATOM     63  C   UNL A   1      41.626  26.892  27.717  1.00  0.00     0.023 A 
ATOM     64  C   UNL A   1      42.154  27.551  26.589  1.00  0.00     0.012 A 
ATOM     65  C   UNL A   1      41.443  25.496  27.679  1.00  0.00     0.148 A 
ATOM     66  C   UNL A   1      42.465  26.839  25.431  1.00  0.00     0.002 A 
ATOM     67  C   UNL A   1      41.797  24.787  26.537  1.00  0.00     0.091 A 
ATOM     68  F   UNL A   1      40.915  24.890  28.752  1.00  0.00    -0.205 F 
ATOM     69  C   UNL A   1      42.298  25.458  25.409  1.00  0.00     0.022 A 
BRANCH  67  70
ATOM     70  S   UNL A   1      41.689  22.996  26.439  1.00  0.00     0.127 S 
ATOM     71  O   UNL A   1      40.243  22.785  26.489  1.00  0.00    -0.237 OA
ATOM     72  O   UNL A   1      42.301  22.720  25.139  1.00  0.00    -0.237 OA
ATOM     73  O   UNL A   1      42.436  22.487  27.581  1.00  0.00    -0.744 OA
ENDBRANCH  67  70
ENDBRANCH  49  63
BRANCH  50  74
ATOM     74  C   UNL A   1      39.025  32.164  35.808  1.00  0.00     0.023 A 
ATOM     75  C   UNL A   1      38.163  31.578  36.755  1.00  0.00     0.012 A 
ATOM     76  C   UNL A   1      39.517  33.463  36.038  1.00  0.00     0.148 A 
ATOM     77  C   UNL A   1      37.772  32.284  37.893  1.00  0.00     0.002 A 
ATOM     78  C   UNL A   1      39.168  34.139  37.201  1.00  0.00     0.091 A 
ATOM     79  F   UNL A   1      40.321  34.011  35.117  1.00  0.00    -0.205 F 
ATOM     80  C   UNL A   1      38.281  33.559  38.121  1.00  0.00     0.022 A 
BRANCH  78  81
ATOM     81  S   UNL A   1      39.885  35.727  37.639  1.00  0.00     0.127 S 
ATOM     82  O   UNL A   1      39.122  36.081  38.833  1.00  0.00    -0.237 OA
ATOM     83  O   UNL A   1      41.283  35.371  37.883  1.00  0.00    -0.237 OA
ATOM     84  O   UNL A   1      39.681  36.581  36.478  1.00  0.00    -0.744 OA
ENDBRANCH  78  81
ENDBRANCH  50  74
BRANCH  62  85
ATOM     85  C   UNL A   1      44.336  27.876  34.327  1.00  0.00     0.023 A 
ATOM     86  C   UNL A   1      45.515  28.646  34.353  1.00  0.00     0.012 A 
ATOM     87  C   UNL A   1      44.258  26.707  35.111  1.00  0.00     0.148 A 
ATOM     88  C   UNL A   1      46.610  28.240  35.116  1.00  0.00     0.002 A 
ATOM     89  C   UNL A   1      45.335  26.335  35.906  1.00  0.00     0.091 A 
ATOM     90  F   UNL A   1      43.135  25.974  35.059  1.00  0.00    -0.205 F 
ATOM     91  C   UNL A   1      46.517  27.093  35.900  1.00  0.00     0.022 A 
BRANCH  89  92
ATOM     92  S   UNL A   1      45.257  24.926  37.019  1.00  0.00     0.127 S 
ATOM     93  O   UNL A   1      46.515  25.056  37.753  1.00  0.00    -0.237 OA
ATOM     94  O   UNL A   1      44.058  25.213  37.807  1.00  0.00    -0.237 OA
ATOM     95  O   UNL A   1      45.145  23.753  36.163  1.00  0.00    -0.744 OA
ENDBRANCH  89  92
ENDBRANCH  62  85
ENDBRANCH  36  37
ENDBRANCH  29  31
ENDBRANCH  28  29
ENDBRANCH  27  28
ENDBRANCH  26  27
ENDBRANCH  25  26
ENDBRANCH   1  25
TORSDOF 23
ENDMDL
MODEL 3
REMARK VINA RESULT:      -9.8      2.276      2.713
REMARK SMILES CC(C)[C@H](NC(=O)[C@H](C)NC(=O)C[NH3+])C(=O)OCCOCCOC(=O)c1ccc(-c2c3nc(c(-c4cccc(S(=O)(=O)[O-])c4F)c4ccc([nH]4)c(-c4cccc(S(=O)(=O)[O-])c4F)c4nc(c(-c5cccc(S(=O)(=O)[O-])c5F)c5ccc2[nH]5)C=C4)C=C3)cc1
REMARK SMILES IDX 19 1 18 2 17 3 15 4 16 5 4 6 2 7 1 8 3 9 5 10 6 11 7 13 8 14
REMARK SMILES IDX 9 15 10 16 11 17 12 19 13 20 14 21 20 25 21 26 22 27 23 28
REMARK SMILES IDX 24 29 25 30 26 31 27 32 88 33 28 34 87 35 29 36 30 37 31 38
REMARK SMILES IDX 81 39 32 40 86 41 80 42 82 43 33 44 85 45 79 46 78 47 34 49
REMARK SMILES IDX 66 50 46 51 65 52 47 53 50 54 64 55 83 56 48 57 49 58 63 60
REMARK SMILES IDX 84 61 51 62 35 63 36 64 44 65 37 66 39 67 45 68 38 69 40 70
REMARK SMILES IDX 41 71 42 72 43 73 67 74 68 75 76 76 69 77 71 78 77 79 70 80
REMARK SMILES IDX 72 81 73 82 74 83 75 84 52 85 53 86 61 87 54 88 56 89 62 90
REMARK SMILES IDX 55 91 57 92 58 93 59 94 60 95
REMARK H PARENT 5 12 10 18 14 22 14 23 14 24 82 48 50 59
REMARK Flexibility Score: inf
ROOT
ATOM      1  C   UNL A   1      33.605  28.786  23.807  1.00  0.00     0.202 C 
ENDROOT
BRANCH   1   2
ATOM      2  C   UNL A   1      32.424  28.669  22.838  1.00  0.00     0.261 C 
BRANCH   2   3
ATOM      3  O   UNL A   1      32.097  27.305  22.521  1.00  0.00    -0.462 OA
BRANCH   3   4
ATOM      4  C   UNL A   1      31.332  26.691  23.462  1.00  0.00     0.328 C 
ATOM      5  O   UNL A   1      30.177  27.013  23.725  1.00  0.00    -0.250 OA
BRANCH   4   6
ATOM      6  C   UNL A   1      32.027  25.492  24.140  1.00  0.00     0.194 C 
BRANCH   6   7
ATOM      7  C   UNL A   1      32.298  25.716  25.638  1.00  0.00     0.017 C 
ATOM      8  C   UNL A   1      31.670  24.680  26.578  1.00  0.00     0.010 C 
ATOM      9  C   UNL A   1      33.800  25.794  25.925  1.00  0.00     0.010 C 
ENDBRANCH   6   7
BRANCH   6  10
ATOM     10  N   UNL A   1      33.122  24.834  23.379  1.00  0.00    -0.341 N 
ATOM     11  C   UNL A   1      33.696  23.624  23.188  1.00  0.00     0.243 C 
ATOM     12  H   UNL A   1      33.587  25.506  22.830  1.00  0.00     0.164 HD
ATOM     13  O   UNL A   1      34.711  23.677  22.475  1.00  0.00    -0.273 OA
BRANCH  11  14
ATOM     14  C   UNL A   1      33.295  22.290  23.868  1.00  0.00     0.168 C 
ATOM     15  C   UNL A   1      31.772  22.103  23.766  1.00  0.00     0.041 C 
BRANCH  14  16
ATOM     16  N   UNL A   1      33.634  22.182  25.281  1.00  0.00    -0.340 N 
ATOM     17  C   UNL A   1      33.553  21.072  26.079  1.00  0.00     0.275 C 
ATOM     18  H   UNL A   1      33.957  23.004  25.714  1.00  0.00     0.164 HD
ATOM     19  O   UNL A   1      33.701  21.202  27.296  1.00  0.00    -0.268 OA
BRANCH  17  20
ATOM     20  C   UNL A   1      33.381  19.696  25.428  1.00  0.00     0.360 C 
BRANCH  20  21
ATOM     21  N   UNL A   1      32.887  18.733  26.407  1.00  0.00    -0.350 N 
ATOM     22  H   UNL A   1      32.048  19.103  26.855  1.00  0.00     0.344 HD
ATOM     23  H   UNL A   1      33.603  18.568  27.114  1.00  0.00     0.344 HD
ATOM     24  H   UNL A   1      32.664  17.855  25.938  1.00  0.00     0.344 HD
ENDBRANCH  20  21
ENDBRANCH  17  20
ENDBRANCH  14  16
ENDBRANCH  11  14
ENDBRANCH   6  10
ENDBRANCH   4   6
ENDBRANCH   3   4
ENDBRANCH   2   3
ENDBRANCH   1   2
BRANCH   1  25
ATOM     25  O   UNL A   1      33.329  29.248  25.128  1.00  0.00    -0.374 OA
BRANCH  25  26
ATOM     26  C   UNL A   1      32.125  29.984  25.343  1.00  0.00     0.202 C 
BRANCH  26  27
ATOM     27  C   UNL A   1      31.887  30.584  26.733  1.00  0.00     0.261 C 
BRANCH  27  28
ATOM     28  O   UNL A   1      33.039  30.454  27.582  1.00  0.00    -0.460 OA
BRANCH  28  29
ATOM     29  C   UNL A   1      33.782  31.578  27.684  1.00  0.00     0.338 C 
ATOM     30  O   UNL A   1      33.363  32.724  27.826  1.00  0.00    -0.246 OA
BRANCH  29  31
ATOM     31  C   UNL A   1      35.213  31.253  27.812  1.00  0.00     0.060 A 
ATOM     32  C   UNL A   1      35.564  29.900  27.700  1.00  0.00     0.016 A 
ATOM     33  C   UNL A   1      36.172  32.212  28.144  1.00  0.00     0.016 A 
ATOM     34  C   UNL A   1      36.848  29.485  28.031  1.00  0.00     0.010 A 
ATOM     35  C   UNL A   1      37.463  31.792  28.482  1.00  0.00     0.010 A 
ATOM     36  C   UNL A   1      37.780  30.421  28.495  1.00  0.00    -0.014 A 
BRANCH  36  37
ATOM     37  C   UNL A   1      38.975  29.915  29.214  1.00  0.00     0.031 A 
ATOM     38  C   UNL A   1      39.250  30.439  30.601  1.00  0.00     0.074 A 
ATOM     39  C   UNL A   1      39.749  28.953  28.686  1.00  0.00     0.049 A 
ATOM     40  N   UNL A   1      40.178  30.085  31.451  1.00  0.00    -0.248 NA
ATOM     41  C   UNL A   1      38.357  31.499  31.097  1.00  0.00     0.031 C 
ATOM     42  C   UNL A   1      39.574  28.360  27.362  1.00  0.00     0.029 A 
ATOM     43  N   UNL A   1      40.842  28.306  29.206  1.00  0.00    -0.354 N 
ATOM     44  C   UNL A   1      39.996  30.892  32.569  1.00  0.00     0.074 A 
ATOM     45  C   UNL A   1      38.882  31.768  32.283  1.00  0.00     0.031 C 
ATOM     46  C   UNL A   1      40.540  27.445  27.165  1.00  0.00     0.029 A 
ATOM     47  C   UNL A   1      41.403  27.395  28.344  1.00  0.00     0.049 A 
ATOM     48  H   UNL A   1      41.190  28.479  30.110  1.00  0.00     0.167 HD
ATOM     49  C   UNL A   1      40.676  30.890  33.739  1.00  0.00     0.034 A 
ATOM     50  C   UNL A   1      42.491  26.613  28.493  1.00  0.00     0.034 A 
ATOM     51  C   UNL A   1      41.764  29.998  34.034  1.00  0.00     0.049 A 
ATOM     52  C   UNL A   1      43.230  26.627  29.807  1.00  0.00     0.074 A 
ATOM     53  C   UNL A   1      42.499  29.894  35.200  1.00  0.00     0.029 A 
ATOM     54  N   UNL A   1      42.273  29.059  33.152  1.00  0.00    -0.354 N 
ATOM     55  N   UNL A   1      42.972  27.315  30.894  1.00  0.00    -0.248 NA
ATOM     56  C   UNL A   1      44.383  25.723  29.930  1.00  0.00     0.031 C 
ATOM     57  C   UNL A   1      43.467  28.901  35.017  1.00  0.00     0.029 A 
ATOM     58  C   UNL A   1      43.315  28.369  33.747  1.00  0.00     0.049 A 
ATOM     59  H   UNL A   1      41.942  28.904  32.237  1.00  0.00     0.167 HD
ATOM     60  C   UNL A   1      43.900  26.894  31.842  1.00  0.00     0.074 A 
ATOM     61  C   UNL A   1      44.715  25.880  31.204  1.00  0.00     0.031 C 
ATOM     62  C   UNL A   1      44.071  27.316  33.120  1.00  0.00     0.034 A 
BRANCH  49  63
ATOM     63  C   UNL A   1      40.239  31.865  34.800  1.00  0.00     0.023 A 
ATOM     64  C   UNL A   1      40.723  33.189  34.772  1.00  0.00     0.012 A 
ATOM     65  C   UNL A   1      39.319  31.486  35.796  1.00  0.00     0.148 A 
ATOM     66  C   UNL A   1      40.323  34.112  35.738  1.00  0.00     0.002 A 
ATOM     67  C   UNL A   1      38.890  32.423  36.729  1.00  0.00     0.091 A 
ATOM     68  F   UNL A   1      38.890  30.216  35.822  1.00  0.00    -0.205 F 
ATOM     69  C   UNL A   1      39.399  33.733  36.708  1.00  0.00     0.022 A 
BRANCH  67  70
ATOM     70  S   UNL A   1      37.646  32.052  37.971  1.00  0.00     0.127 S 
ATOM     71  O   UNL A   1      37.372  30.642  37.701  1.00  0.00    -0.237 OA
ATOM     72  O   UNL A   1      38.369  32.305  39.218  1.00  0.00    -0.237 OA
ATOM     73  O   UNL A   1      36.541  32.966  37.716  1.00  0.00    -0.744 OA
ENDBRANCH  67  70
ENDBRANCH  49  63
BRANCH  50  74
ATOM     74  C   UNL A   1      42.911  25.705  27.389  1.00  0.00     0.023 A 
ATOM     75  C   UNL A   1      43.839  26.154  26.429  1.00  0.00     0.012 A 
ATOM     76  C   UNL A   1      42.405  24.394  27.294  1.00  0.00     0.148 A 
ATOM     77  C   UNL A   1      44.232  25.326  25.377  1.00  0.00     0.002 A 
ATOM     78  C   UNL A   1      42.844  23.555  26.276  1.00  0.00     0.091 A 
ATOM     79  F   UNL A   1      41.509  23.990  28.205  1.00  0.00    -0.205 F 
ATOM     80  C   UNL A   1      43.743  24.024  25.306  1.00  0.00     0.022 A 
BRANCH  78  81
ATOM     81  S   UNL A   1      42.370  21.824  26.188  1.00  0.00     0.127 S 
ATOM     82  O   UNL A   1      42.705  21.354  27.529  1.00  0.00    -0.237 OA
ATOM     83  O   UNL A   1      40.937  21.916  25.905  1.00  0.00    -0.237 OA
ATOM     84  O   UNL A   1      43.157  21.259  25.101  1.00  0.00    -0.744 OA
ENDBRANCH  78  81
ENDBRANCH  50  74
BRANCH  62  85
ATOM     85  C   UNL A   1      45.145  26.650  33.939  1.00  0.00     0.023 A 
ATOM     86  C   UNL A   1      44.843  25.503  34.699  1.00  0.00     0.012 A 
ATOM     87  C   UNL A   1      46.473  27.120  33.897  1.00  0.00     0.148 A 
ATOM     88  C   UNL A   1      45.837  24.858  35.435  1.00  0.00     0.002 A 
ATOM     89  C   UNL A   1      47.468  26.443  34.593  1.00  0.00     0.091 A 
ATOM     90  F   UNL A   1      46.740  28.225  33.184  1.00  0.00    -0.205 F 
ATOM     91  C   UNL A   1      47.149  25.320  35.373  1.00  0.00     0.022 A 
BRANCH  89  92
ATOM     92  S   UNL A   1      49.197  26.917  34.485  1.00  0.00     0.127 S 
ATOM     93  O   UNL A   1      49.445  26.816  33.048  1.00  0.00    -0.237 OA
ATOM     94  O   UNL A   1      49.183  28.284  35.008  1.00  0.00    -0.237 OA
ATOM     95  O   UNL A   1      49.920  25.965  35.318  1.00  0.00    -0.744 OA
ENDBRANCH  89  92
ENDBRANCH  62  85
ENDBRANCH  36  37
ENDBRANCH  29  31
ENDBRANCH  28  29
ENDBRANCH  27  28
ENDBRANCH  26  27
ENDBRANCH  25  26
ENDBRANCH   1  25
TORSDOF 23
ENDMDL
