MODEL 1
REMARK VINA RESULT:     -11.4      0.000      0.000
REMARK SMILES O=C1CC2(CC[NH+](CC(=O)OCCOCCOC(=O)c3ccc(-c4c5nc(c(-c6cccc(S(=O)(=O)[O-])c6F)c6ccc([nH]6)c(-c6cccc(S(=O)(=O)[O-])c6F)c6nc(c(-c7cccc(S(=O)(=O)[O-])c7F)c7ccc4[nH]7)C=C6)C=C5)cc3)CC2)N1
REMARK SMILES IDX 15 1 14 2 13 3 12 4 11 5 9 6 10 7 8 8 7 9 1 10 2 11 3 12
REMARK SMILES IDX 85 13 4 14 5 16 84 17 6 18 83 19 16 21 17 22 18 23 19 24
REMARK SMILES IDX 20 25 21 26 82 27 22 28 81 29 23 30 24 31 25 32 75 33 26 34
REMARK SMILES IDX 80 35 74 36 76 37 27 38 79 39 73 40 72 41 28 43 60 44 40 45
REMARK SMILES IDX 59 46 41 47 44 48 58 49 77 50 42 51 43 52 57 54 78 55 45 56
REMARK SMILES IDX 29 57 30 58 38 59 31 60 33 61 39 62 32 63 34 64 35 65 36 66
REMARK SMILES IDX 37 67 61 68 62 69 70 70 63 71 65 72 71 73 64 74 66 75 67 76
REMARK SMILES IDX 68 77 69 78 46 79 47 80 55 81 48 82 50 83 56 84 49 85 51 86
REMARK SMILES IDX 52 87 53 88 54 89
REMARK H PARENT 85 15 7 20 76 42 44 53
REMARK Flexibility Score: inf
ROOT
ATOM      1  C   UNL A   1      35.111  20.928  24.866  1.00  0.00     0.202 C 
ENDROOT
BRANCH   1   2
ATOM      2  O   UNL A   1      34.192  19.867  24.624  1.00  0.00    -0.374 OA
BRANCH   2   3
ATOM      3  C   UNL A   1      32.903  20.051  25.226  1.00  0.00     0.202 C 
BRANCH   3   4
ATOM      4  C   UNL A   1      32.804  21.366  26.005  1.00  0.00     0.261 C 
BRANCH   4   5
ATOM      5  O   UNL A   1      31.494  21.968  25.912  1.00  0.00    -0.459 OA
BRANCH   5   6
ATOM      6  C   UNL A   1      31.235  23.033  26.716  1.00  0.00     0.361 C 
ATOM      7  O   UNL A   1      30.264  23.126  27.460  1.00  0.00    -0.245 OA
BRANCH   6   8
ATOM      8  C   UNL A   1      32.246  24.156  26.512  1.00  0.00     0.386 C 
BRANCH   8   9
ATOM      9  N   UNL A   1      31.918  25.212  25.544  1.00  0.00    -0.326 N 
ATOM     10  O   UNL A   1      33.021  25.607  19.528  1.00  0.00    -0.275 OA
ATOM     11  C   UNL A   1      32.582  25.456  20.643  1.00  0.00     0.222 C 
ATOM     12  C   UNL A   1      31.879  26.290  21.732  1.00  0.00     0.128 C 
ATOM     13  N   UNL A   1      32.645  24.383  21.462  1.00  0.00    -0.350 N 
ATOM     14  C   UNL A   1      32.222  25.089  22.668  1.00  0.00     0.059 C 
ATOM     15  H   UNL A   1      32.891  23.443  21.301  1.00  0.00     0.164 HD
ATOM     16  C   UNL A   1      31.062  24.359  23.330  1.00  0.00     0.090 C 
ATOM     17  C   UNL A   1      33.433  25.238  23.580  1.00  0.00     0.090 C 
ATOM     18  C   UNL A   1      30.756  24.989  24.689  1.00  0.00     0.265 C 
ATOM     19  C   UNL A   1      33.035  25.882  24.895  1.00  0.00     0.265 C 
ATOM     20  H   UNL A   1      31.580  25.924  26.191  1.00  0.00     0.348 HD
ENDBRANCH   8   9
ENDBRANCH   6   8
ENDBRANCH   5   6
ENDBRANCH   4   5
ENDBRANCH   3   4
ENDBRANCH   2   3
ENDBRANCH   1   2
BRANCH   1  21
ATOM     21  C   UNL A   1      36.559  20.450  25.046  1.00  0.00     0.261 C 
BRANCH  21  22
ATOM     22  O   UNL A   1      37.466  21.550  25.257  1.00  0.00    -0.460 OA
BRANCH  22  23
ATOM     23  C   UNL A   1      38.666  21.205  25.800  1.00  0.00     0.338 C 
ATOM     24  O   UNL A   1      39.229  20.128  25.709  1.00  0.00    -0.246 OA
BRANCH  23  25
ATOM     25  C   UNL A   1      39.292  22.394  26.424  1.00  0.00     0.060 A 
ATOM     26  C   UNL A   1      38.796  23.657  26.087  1.00  0.00     0.016 A 
ATOM     27  C   UNL A   1      40.358  22.286  27.319  1.00  0.00     0.016 A 
ATOM     28  C   UNL A   1      39.380  24.804  26.631  1.00  0.00     0.010 A 
ATOM     29  C   UNL A   1      40.889  23.431  27.921  1.00  0.00     0.010 A 
ATOM     30  C   UNL A   1      40.443  24.706  27.546  1.00  0.00    -0.014 A 
BRANCH  30  31
ATOM     31  C   UNL A   1      41.145  25.937  28.007  1.00  0.00     0.031 A 
ATOM     32  C   UNL A   1      42.574  26.196  27.592  1.00  0.00     0.074 A 
ATOM     33  C   UNL A   1      40.516  26.841  28.785  1.00  0.00     0.049 A 
ATOM     34  N   UNL A   1      43.304  27.266  27.781  1.00  0.00    -0.248 NA
ATOM     35  C   UNL A   1      43.281  25.110  26.893  1.00  0.00     0.031 C 
ATOM     36  C   UNL A   1      39.172  26.690  29.347  1.00  0.00     0.029 A 
ATOM     37  N   UNL A   1      40.929  28.070  29.240  1.00  0.00    -0.354 N 
ATOM     38  C   UNL A   1      44.556  26.970  27.252  1.00  0.00     0.074 A 
ATOM     39  C   UNL A   1      44.503  25.606  26.779  1.00  0.00     0.031 C 
ATOM     40  C   UNL A   1      38.868  27.792  30.055  1.00  0.00     0.029 A 
ATOM     41  C   UNL A   1      39.987  28.731  29.992  1.00  0.00     0.049 A 
ATOM     42  H   UNL A   1      41.819  28.444  29.045  1.00  0.00     0.167 HD
ATOM     43  C   UNL A   1      45.641  27.771  27.118  1.00  0.00     0.034 A 
ATOM     44  C   UNL A   1      40.006  29.962  30.542  1.00  0.00     0.034 A 
ATOM     45  C   UNL A   1      45.681  29.152  27.507  1.00  0.00     0.049 A 
ATOM     46  C   UNL A   1      41.189  30.866  30.306  1.00  0.00     0.074 A 
ATOM     47  C   UNL A   1      46.692  30.075  27.300  1.00  0.00     0.029 A 
ATOM     48  N   UNL A   1      44.667  29.812  28.180  1.00  0.00    -0.354 N 
ATOM     49  N   UNL A   1      42.275  30.639  29.609  1.00  0.00    -0.248 NA
ATOM     50  C   UNL A   1      41.124  32.216  30.889  1.00  0.00     0.031 C 
ATOM     51  C   UNL A   1      46.286  31.296  27.849  1.00  0.00     0.029 A 
ATOM     52  C   UNL A   1      45.026  31.130  28.398  1.00  0.00     0.049 A 
ATOM     53  H   UNL A   1      43.817  29.403  28.461  1.00  0.00     0.167 HD
ATOM     54  C   UNL A   1      43.003  31.826  29.638  1.00  0.00     0.074 A 
ATOM     55  C   UNL A   1      42.225  32.777  30.404  1.00  0.00     0.031 C 
ATOM     56  C   UNL A   1      44.215  32.094  29.094  1.00  0.00     0.034 A 
BRANCH  43  57
ATOM     57  C   UNL A   1      46.847  27.193  26.427  1.00  0.00     0.023 A 
ATOM     58  C   UNL A   1      46.972  27.345  25.031  1.00  0.00     0.012 A 
ATOM     59  C   UNL A   1      47.870  26.551  27.149  1.00  0.00     0.148 A 
ATOM     60  C   UNL A   1      48.081  26.838  24.358  1.00  0.00     0.002 A 
ATOM     61  C   UNL A   1      48.992  26.082  26.475  1.00  0.00     0.091 A 
ATOM     62  F   UNL A   1      47.721  26.394  28.472  1.00  0.00    -0.205 F 
ATOM     63  C   UNL A   1      49.094  26.216  25.080  1.00  0.00     0.022 A 
BRANCH  61  64
ATOM     64  S   UNL A   1      50.383  25.333  27.332  1.00  0.00     0.127 S 
ATOM     65  O   UNL A   1      50.781  26.404  28.243  1.00  0.00    -0.237 OA
ATOM     66  O   UNL A   1      49.763  24.178  27.984  1.00  0.00    -0.237 OA
ATOM     67  O   UNL A   1      51.347  24.991  26.296  1.00  0.00    -0.744 OA
ENDBRANCH  61  64
ENDBRANCH  43  57
BRANCH  44  68
ATOM     68  C   UNL A   1      38.812  30.465  31.278  1.00  0.00     0.023 A 
ATOM     69  C   UNL A   1      38.756  30.316  32.678  1.00  0.00     0.012 A 
ATOM     70  C   UNL A   1      37.745  31.095  30.611  1.00  0.00     0.148 A 
ATOM     71  C   UNL A   1      37.645  30.758  33.397  1.00  0.00     0.002 A 
ATOM     72  C   UNL A   1      36.661  31.574  31.339  1.00  0.00     0.091 A 
ATOM     73  F   UNL A   1      37.806  31.209  29.277  1.00  0.00    -0.205 F 
ATOM     74  C   UNL A   1      36.603  31.395  32.730  1.00  0.00     0.022 A 
BRANCH  72  75
ATOM     75  S   UNL A   1      35.336  32.511  30.569  1.00  0.00     0.127 S 
ATOM     76  O   UNL A   1      34.357  32.591  31.649  1.00  0.00    -0.237 OA
ATOM     77  O   UNL A   1      36.000  33.775  30.242  1.00  0.00    -0.237 OA
ATOM     78  O   UNL A   1      34.942  31.730  29.403  1.00  0.00    -0.744 OA
ENDBRANCH  72  75
ENDBRANCH  44  68
BRANCH  56  79
ATOM     79  C   UNL A   1      44.784  33.476  29.276  1.00  0.00     0.023 A 
ATOM     80  C   UNL A   1      45.506  33.777  30.447  1.00  0.00     0.012 A 
ATOM     81  C   UNL A   1      44.695  34.440  28.252  1.00  0.00     0.148 A 
ATOM     82  C   UNL A   1      46.114  35.023  30.605  1.00  0.00     0.002 A 
ATOM     83  C   UNL A   1      45.336  35.665  28.400  1.00  0.00     0.091 A 
ATOM     84  F   UNL A   1      43.985  34.145  27.153  1.00  0.00    -0.205 F 
ATOM     85  C   UNL A   1      46.040  35.960  29.578  1.00  0.00     0.022 A 
BRANCH  83  86
ATOM     86  S   UNL A   1      45.364  36.891  27.085  1.00  0.00     0.127 S 
ATOM     87  O   UNL A   1      45.984  36.143  25.992  1.00  0.00    -0.237 OA
ATOM     88  O   UNL A   1      43.943  37.183  26.893  1.00  0.00    -0.237 OA
ATOM     89  O   UNL A   1      46.140  38.009  27.606  1.00  0.00    -0.744 OA
ENDBRANCH  83  86
ENDBRANCH  56  79
ENDBRANCH  30  31
ENDBRANCH  23  25
ENDBRANCH  22  23
ENDBRANCH  21  22
ENDBRANCH   1  21
TORSDOF 18
ENDMDL
MODEL 2
REMARK VINA RESULT:     -11.2      4.784     10.179
REMARK SMILES O=C1CC2(CC[NH+](CC(=O)OCCOCCOC(=O)c3ccc(-c4c5nc(c(-c6cccc(S(=O)(=O)[O-])c6F)c6ccc([nH]6)c(-c6cccc(S(=O)(=O)[O-])c6F)c6nc(c(-c7cccc(S(=O)(=O)[O-])c7F)c7ccc4[nH]7)C=C6)C=C5)cc3)CC2)N1
REMARK SMILES IDX 15 1 14 2 13 3 12 4 11 5 9 6 10 7 8 8 7 9 1 10 2 11 3 12
REMARK SMILES IDX 85 13 4 14 5 16 84 17 6 18 83 19 16 21 17 22 18 23 19 24
REMARK SMILES IDX 20 25 21 26 82 27 22 28 81 29 23 30 24 31 25 32 75 33 26 34
REMARK SMILES IDX 80 35 74 36 76 37 27 38 79 39 73 40 72 41 28 43 60 44 40 45
REMARK SMILES IDX 59 46 41 47 44 48 58 49 77 50 42 51 43 52 57 54 78 55 45 56
REMARK SMILES IDX 29 57 30 58 38 59 31 60 33 61 39 62 32 63 34 64 35 65 36 66
REMARK SMILES IDX 37 67 61 68 62 69 70 70 63 71 65 72 71 73 64 74 66 75 67 76
REMARK SMILES IDX 68 77 69 78 46 79 47 80 55 81 48 82 50 83 56 84 49 85 51 86
REMARK SMILES IDX 52 87 53 88 54 89
REMARK H PARENT 85 15 7 20 76 42 44 53
REMARK Flexibility Score: inf
ROOT
ATOM      1  C   UNL A   1      31.596  29.867  24.945  1.00  0.00     0.202 C 
ENDROOT
BRANCH   1   2
ATOM      2  O   UNL A   1      30.418  29.651  24.174  1.00  0.00    -0.374 OA
BRANCH   2   3
ATOM      3  C   UNL A   1      30.649  29.032  22.901  1.00  0.00     0.202 C 
BRANCH   3   4
ATOM      4  C   UNL A   1      31.438  27.725  23.021  1.00  0.00     0.261 C 
BRANCH   4   5
ATOM      5  O   UNL A   1      32.610  27.704  22.176  1.00  0.00    -0.459 OA
BRANCH   5   6
ATOM      6  C   UNL A   1      33.253  26.516  22.025  1.00  0.00     0.361 C 
ATOM      7  O   UNL A   1      33.393  25.928  20.958  1.00  0.00    -0.245 OA
BRANCH   6   8
ATOM      8  C   UNL A   1      33.700  25.941  23.365  1.00  0.00     0.386 C 
BRANCH   8   9
ATOM      9  N   UNL A   1      33.239  24.592  23.724  1.00  0.00    -0.326 N 
ATOM     10  O   UNL A   1      29.252  22.734  27.993  1.00  0.00    -0.275 OA
ATOM     11  C   UNL A   1      29.847  23.078  27.000  1.00  0.00     0.222 C 
ATOM     12  C   UNL A   1      30.714  22.444  25.893  1.00  0.00     0.128 C 
ATOM     13  N   UNL A   1      30.062  24.315  26.500  1.00  0.00    -0.350 N 
ATOM     14  C   UNL A   1      31.096  23.918  25.550  1.00  0.00     0.059 C 
ATOM     15  H   UNL A   1      29.657  25.189  26.707  1.00  0.00     0.164 HD
ATOM     16  C   UNL A   1      30.759  24.426  24.156  1.00  0.00     0.090 C 
ATOM     17  C   UNL A   1      32.435  24.429  26.066  1.00  0.00     0.090 C 
ATOM     18  C   UNL A   1      31.935  24.179  23.211  1.00  0.00     0.265 C 
ATOM     19  C   UNL A   1      33.541  24.128  25.070  1.00  0.00     0.265 C 
ATOM     20  H   UNL A   1      33.881  24.044  23.153  1.00  0.00     0.348 HD
ENDBRANCH   8   9
ENDBRANCH   6   8
ENDBRANCH   5   6
ENDBRANCH   4   5
ENDBRANCH   3   4
ENDBRANCH   2   3
ENDBRANCH   1   2
BRANCH   1  21
ATOM     21  C   UNL A   1      31.407  30.893  26.071  1.00  0.00     0.261 C 
BRANCH  21  22
ATOM     22  O   UNL A   1      32.408  30.754  27.099  1.00  0.00    -0.460 OA
BRANCH  22  23
ATOM     23  C   UNL A   1      33.118  31.886  27.362  1.00  0.00     0.338 C 
ATOM     24  O   UNL A   1      32.712  33.034  27.312  1.00  0.00    -0.246 OA
BRANCH  23  25
ATOM     25  C   UNL A   1      34.462  31.525  27.870  1.00  0.00     0.060 A 
ATOM     26  C   UNL A   1      34.705  30.191  28.210  1.00  0.00     0.016 A 
ATOM     27  C   UNL A   1      35.474  32.474  28.027  1.00  0.00     0.016 A 
ATOM     28  C   UNL A   1      35.951  29.817  28.723  1.00  0.00     0.010 A 
ATOM     29  C   UNL A   1      36.743  32.083  28.466  1.00  0.00     0.010 A 
ATOM     30  C   UNL A   1      36.981  30.761  28.869  1.00  0.00    -0.014 A 
BRANCH  30  31
ATOM     31  C   UNL A   1      38.252  30.377  29.546  1.00  0.00     0.031 A 
ATOM     32  C   UNL A   1      38.537  30.853  30.951  1.00  0.00     0.074 A 
ATOM     33  C   UNL A   1      39.156  29.593  28.925  1.00  0.00     0.049 A 
ATOM     34  N   UNL A   1      39.519  30.518  31.749  1.00  0.00    -0.248 NA
ATOM     35  C   UNL A   1      37.615  31.846  31.528  1.00  0.00     0.031 C 
ATOM     36  C   UNL A   1      39.071  29.132  27.538  1.00  0.00     0.029 A 
ATOM     37  N   UNL A   1      40.330  29.045  29.385  1.00  0.00    -0.354 N 
ATOM     38  C   UNL A   1      39.347  31.276  32.902  1.00  0.00     0.074 A 
ATOM     39  C   UNL A   1      38.197  32.124  32.683  1.00  0.00     0.031 C 
ATOM     40  C   UNL A   1      40.137  28.358  27.268  1.00  0.00     0.029 A 
ATOM     41  C   UNL A   1      40.976  28.259  28.461  1.00  0.00     0.049 A 
ATOM     42  H   UNL A   1      40.676  29.201  30.293  1.00  0.00     0.167 HD
ATOM     43  C   UNL A   1      40.043  31.239  34.064  1.00  0.00     0.034 A 
ATOM     44  C   UNL A   1      42.098  27.518  28.568  1.00  0.00     0.034 A 
ATOM     45  C   UNL A   1      41.134  30.344  34.326  1.00  0.00     0.049 A 
ATOM     46  C   UNL A   1      42.807  27.425  29.895  1.00  0.00     0.074 A 
ATOM     47  C   UNL A   1      41.821  30.149  35.513  1.00  0.00     0.029 A 
ATOM     48  N   UNL A   1      41.698  29.492  33.392  1.00  0.00    -0.354 N 
ATOM     49  N   UNL A   1      42.493  27.983  31.040  1.00  0.00    -0.248 NA
ATOM     50  C   UNL A   1      43.995  26.558  29.959  1.00  0.00     0.031 C 
ATOM     51  C   UNL A   1      42.802  29.175  35.294  1.00  0.00     0.029 A 
ATOM     52  C   UNL A   1      42.724  28.768  33.972  1.00  0.00     0.049 A 
ATOM     53  H   UNL A   1      41.410  29.413  32.454  1.00  0.00     0.167 HD
ATOM     54  C   UNL A   1      43.418  27.505  31.964  1.00  0.00     0.074 A 
ATOM     55  C   UNL A   1      44.293  26.597  31.251  1.00  0.00     0.031 C 
ATOM     56  C   UNL A   1      43.542  27.808  33.279  1.00  0.00     0.034 A 
BRANCH  43  57
ATOM     57  C   UNL A   1      39.574  32.131  35.182  1.00  0.00     0.023 A 
ATOM     58  C   UNL A   1      38.635  31.631  36.107  1.00  0.00     0.012 A 
ATOM     59  C   UNL A   1      40.088  33.431  35.349  1.00  0.00     0.148 A 
ATOM     60  C   UNL A   1      38.188  32.421  37.163  1.00  0.00     0.002 A 
ATOM     61  C   UNL A   1      39.665  34.199  36.428  1.00  0.00     0.091 A 
ATOM     62  F   UNL A   1      40.960  33.898  34.446  1.00  0.00    -0.205 F 
ATOM     63  C   UNL A   1      38.710  33.700  37.330  1.00  0.00     0.022 A 
BRANCH  61  64
ATOM     64  S   UNL A   1      40.338  35.831  36.766  1.00  0.00     0.127 S 
ATOM     65  O   UNL A   1      39.722  36.630  35.710  1.00  0.00    -0.237 OA
ATOM     66  O   UNL A   1      39.831  36.105  38.112  1.00  0.00    -0.237 OA
ATOM     67  O   UNL A   1      41.785  35.685  36.689  1.00  0.00    -0.744 OA
ENDBRANCH  61  64
ENDBRANCH  43  57
BRANCH  44  68
ATOM     68  C   UNL A   1      42.564  26.704  27.410  1.00  0.00     0.023 A 
ATOM     69  C   UNL A   1      43.365  27.310  26.423  1.00  0.00     0.012 A 
ATOM     70  C   UNL A   1      42.232  25.342  27.284  1.00  0.00     0.148 A 
ATOM     71  C   UNL A   1      43.803  26.584  25.316  1.00  0.00     0.002 A 
ATOM     72  C   UNL A   1      42.709  24.611  26.202  1.00  0.00     0.091 A 
ATOM     73  F   UNL A   1      41.451  24.788  28.223  1.00  0.00    -0.205 F 
ATOM     74  C   UNL A   1      43.483  25.233  25.209  1.00  0.00     0.022 A 
BRANCH  72  75
ATOM     75  S   UNL A   1      42.442  22.841  26.055  1.00  0.00     0.127 S 
ATOM     76  O   UNL A   1      43.084  22.545  24.778  1.00  0.00    -0.237 OA
ATOM     77  O   UNL A   1      43.142  22.324  27.233  1.00  0.00    -0.237 OA
ATOM     78  O   UNL A   1      40.996  22.666  26.101  1.00  0.00    -0.744 OA
ENDBRANCH  72  75
ENDBRANCH  44  68
BRANCH  56  79
ATOM     79  C   UNL A   1      44.644  27.144  34.060  1.00  0.00     0.023 A 
ATOM     80  C   UNL A   1      45.954  27.656  33.980  1.00  0.00     0.012 A 
ATOM     81  C   UNL A   1      44.369  26.084  34.947  1.00  0.00     0.148 A 
ATOM     82  C   UNL A   1      46.977  27.111  34.756  1.00  0.00     0.002 A 
ATOM     83  C   UNL A   1      45.386  25.572  35.746  1.00  0.00     0.091 A 
ATOM     84  F   UNL A   1      43.122  25.593  34.994  1.00  0.00    -0.205 F 
ATOM     85  C   UNL A   1      46.691  26.080  35.647  1.00  0.00     0.022 A 
BRANCH  83  86
ATOM     86  S   UNL A   1      45.079  24.305  36.983  1.00  0.00     0.127 S 
ATOM     87  O   UNL A   1      44.716  23.157  36.153  1.00  0.00    -0.237 OA
ATOM     88  O   UNL A   1      46.377  24.188  37.648  1.00  0.00    -0.237 OA
ATOM     89  O   UNL A   1      44.018  24.831  37.831  1.00  0.00    -0.744 OA
ENDBRANCH  83  86
ENDBRANCH  56  79
ENDBRANCH  30  31
ENDBRANCH  23  25
ENDBRANCH  22  23
ENDBRANCH  21  22
ENDBRANCH   1  21
TORSDOF 18
ENDMDL
MODEL 3
REMARK VINA RESULT:     -11.1      4.832     10.237
REMARK SMILES O=C1CC2(CC[NH+](CC(=O)OCCOCCOC(=O)c3ccc(-c4c5nc(c(-c6cccc(S(=O)(=O)[O-])c6F)c6ccc([nH]6)c(-c6cccc(S(=O)(=O)[O-])c6F)c6nc(c(-c7cccc(S(=O)(=O)[O-])c7F)c7ccc4[nH]7)C=C6)C=C5)cc3)CC2)N1
REMARK SMILES IDX 15 1 14 2 13 3 12 4 11 5 9 6 10 7 8 8 7 9 1 10 2 11 3 12
REMARK SMILES IDX 85 13 4 14 5 16 84 17 6 18 83 19 16 21 17 22 18 23 19 24
REMARK SMILES IDX 20 25 21 26 82 27 22 28 81 29 23 30 24 31 25 32 75 33 26 34
REMARK SMILES IDX 80 35 74 36 76 37 27 38 79 39 73 40 72 41 28 43 60 44 40 45
REMARK SMILES IDX 59 46 41 47 44 48 58 49 77 50 42 51 43 52 57 54 78 55 45 56
REMARK SMILES IDX 29 57 30 58 38 59 31 60 33 61 39 62 32 63 34 64 35 65 36 66
REMARK SMILES IDX 37 67 61 68 62 69 70 70 63 71 65 72 71 73 64 74 66 75 67 76
REMARK SMILES IDX 68 77 69 78 46 79 47 80 55 81 48 82 50 83 56 84 49 85 51 86
REMARK SMILES IDX 52 87 53 88 54 89
REMARK H PARENT 85 15 7 20 76 42 44 53
REMARK Flexibility Score: inf
ROOT
ATOM      1  C   UNL A   1      31.733  29.483  24.970  1.00  0.00     0.202 C 
ENDROOT
BRANCH   1   2
ATOM      2  O   UNL A   1      33.096  29.287  24.609  1.00  0.00    -0.374 OA
BRANCH   2   3
ATOM      3  C   UNL A   1      33.298  28.921  23.237  1.00  0.00     0.202 C 
BRANCH   3   4
ATOM      4  C   UNL A   1      32.374  27.783  22.793  1.00  0.00     0.261 C 
BRANCH   4   5
ATOM      5  O   UNL A   1      32.709  26.522  23.412  1.00  0.00    -0.459 OA
BRANCH   5   6
ATOM      6  C   UNL A   1      33.513  25.676  22.717  1.00  0.00     0.361 C 
ATOM      7  O   UNL A   1      33.655  25.690  21.498  1.00  0.00    -0.245 OA
BRANCH   6   8
ATOM      8  C   UNL A   1      34.150  24.627  23.622  1.00  0.00     0.386 C 
BRANCH   8   9
ATOM      9  N   UNL A   1      34.157  23.231  23.162  1.00  0.00    -0.326 N 
ATOM     10  O   UNL A   1      32.530  18.065  26.032  1.00  0.00    -0.275 OA
ATOM     11  C   UNL A   1      32.627  19.070  25.368  1.00  0.00     0.222 C 
ATOM     12  C   UNL A   1      33.139  19.490  23.975  1.00  0.00     0.128 C 
ATOM     13  N   UNL A   1      32.370  20.355  25.695  1.00  0.00    -0.350 N 
ATOM     14  C   UNL A   1      33.040  20.943  24.538  1.00  0.00     0.059 C 
ATOM     15  H   UNL A   1      31.891  20.760  26.455  1.00  0.00     0.164 HD
ATOM     16  C   UNL A   1      32.110  21.912  23.823  1.00  0.00     0.090 C 
ATOM     17  C   UNL A   1      34.330  21.594  25.018  1.00  0.00     0.090 C 
ATOM     18  C   UNL A   1      32.878  22.667  22.738  1.00  0.00     0.265 C 
ATOM     19  C   UNL A   1      35.027  22.306  23.873  1.00  0.00     0.265 C 
ATOM     20  H   UNL A   1      34.645  23.355  22.275  1.00  0.00     0.348 HD
ENDBRANCH   8   9
ENDBRANCH   6   8
ENDBRANCH   5   6
ENDBRANCH   4   5
ENDBRANCH   3   4
ENDBRANCH   2   3
ENDBRANCH   1   2
BRANCH   1  21
ATOM     21  C   UNL A   1      31.510  30.712  25.864  1.00  0.00     0.261 C 
BRANCH  21  22
ATOM     22  O   UNL A   1      32.320  30.665  27.055  1.00  0.00    -0.460 OA
BRANCH  22  23
ATOM     23  C   UNL A   1      33.037  31.796  27.304  1.00  0.00     0.338 C 
ATOM     24  O   UNL A   1      32.639  32.946  27.232  1.00  0.00    -0.246 OA
BRANCH  23  25
ATOM     25  C   UNL A   1      34.374  31.434  27.828  1.00  0.00     0.060 A 
ATOM     26  C   UNL A   1      34.622  30.095  28.143  1.00  0.00     0.016 A 
ATOM     27  C   UNL A   1      35.375  32.387  28.025  1.00  0.00     0.016 A 
ATOM     28  C   UNL A   1      35.861  29.719  28.670  1.00  0.00     0.010 A 
ATOM     29  C   UNL A   1      36.639  31.997  28.478  1.00  0.00     0.010 A 
ATOM     30  C   UNL A   1      36.881  30.668  28.856  1.00  0.00    -0.014 A 
BRANCH  30  31
ATOM     31  C   UNL A   1      38.143  30.279  29.547  1.00  0.00     0.031 A 
ATOM     32  C   UNL A   1      38.401  30.730  30.966  1.00  0.00     0.074 A 
ATOM     33  C   UNL A   1      39.062  29.511  28.927  1.00  0.00     0.049 A 
ATOM     34  N   UNL A   1      39.371  30.386  31.774  1.00  0.00    -0.248 NA
ATOM     35  C   UNL A   1      37.463  31.706  31.545  1.00  0.00     0.031 C 
ATOM     36  C   UNL A   1      39.004  29.076  27.531  1.00  0.00     0.029 A 
ATOM     37  N   UNL A   1      40.231  28.963  29.397  1.00  0.00    -0.354 N 
ATOM     38  C   UNL A   1      39.175  31.121  32.938  1.00  0.00     0.074 A 
ATOM     39  C   UNL A   1      38.024  31.966  32.715  1.00  0.00     0.031 C 
ATOM     40  C   UNL A   1      40.079  28.314  27.265  1.00  0.00     0.029 A 
ATOM     41  C   UNL A   1      40.898  28.197  28.469  1.00  0.00     0.049 A 
ATOM     42  H   UNL A   1      40.561  29.103  30.314  1.00  0.00     0.167 HD
ATOM     43  C   UNL A   1      39.851  31.067  34.110  1.00  0.00     0.034 A 
ATOM     44  C   UNL A   1      42.023  27.462  28.582  1.00  0.00     0.034 A 
ATOM     45  C   UNL A   1      40.944  30.173  34.375  1.00  0.00     0.049 A 
ATOM     46  C   UNL A   1      42.709  27.347  29.919  1.00  0.00     0.074 A 
ATOM     47  C   UNL A   1      41.611  29.960  35.569  1.00  0.00     0.029 A 
ATOM     48  N   UNL A   1      41.528  29.342  33.435  1.00  0.00    -0.354 N 
ATOM     49  N   UNL A   1      42.373  27.882  31.068  1.00  0.00    -0.248 NA
ATOM     50  C   UNL A   1      43.901  26.486  29.987  1.00  0.00     0.031 C 
ATOM     51  C   UNL A   1      42.601  28.996  35.349  1.00  0.00     0.029 A 
ATOM     52  C   UNL A   1      42.549  28.613  34.019  1.00  0.00     0.049 A 
ATOM     53  H   UNL A   1      41.257  29.278  32.490  1.00  0.00     0.167 HD
ATOM     54  C   UNL A   1      43.285  27.392  31.999  1.00  0.00     0.074 A 
ATOM     55  C   UNL A   1      44.177  26.503  31.285  1.00  0.00     0.031 C 
ATOM     56  C   UNL A   1      43.384  27.671  33.322  1.00  0.00     0.034 A 
BRANCH  43  57
ATOM     57  C   UNL A   1      39.357  31.935  35.236  1.00  0.00     0.023 A 
ATOM     58  C   UNL A   1      38.444  31.395  36.166  1.00  0.00     0.012 A 
ATOM     59  C   UNL A   1      39.824  33.251  35.408  1.00  0.00     0.148 A 
ATOM     60  C   UNL A   1      37.976  32.162  37.230  1.00  0.00     0.002 A 
ATOM     61  C   UNL A   1      39.381  33.998  36.494  1.00  0.00     0.091 A 
ATOM     62  F   UNL A   1      40.671  33.756  34.500  1.00  0.00    -0.205 F 
ATOM     63  C   UNL A   1      38.451  33.459  37.399  1.00  0.00     0.022 A 
BRANCH  61  64
ATOM     64  S   UNL A   1      39.995  35.652  36.836  1.00  0.00     0.127 S 
ATOM     65  O   UNL A   1      39.280  35.985  38.066  1.00  0.00    -0.237 OA
ATOM     66  O   UNL A   1      41.431  35.422  37.010  1.00  0.00    -0.237 OA
ATOM     67  O   UNL A   1      39.653  36.450  35.667  1.00  0.00    -0.744 OA
ENDBRANCH  61  64
ENDBRANCH  43  57
BRANCH  44  68
ATOM     68  C   UNL A   1      42.513  26.672  27.417  1.00  0.00     0.023 A 
ATOM     69  C   UNL A   1      43.324  27.303  26.453  1.00  0.00     0.012 A 
ATOM     70  C   UNL A   1      42.195  25.310  27.263  1.00  0.00     0.148 A 
ATOM     71  C   UNL A   1      43.785  26.599  25.340  1.00  0.00     0.002 A 
ATOM     72  C   UNL A   1      42.695  24.602  26.175  1.00  0.00     0.091 A 
ATOM     73  F   UNL A   1      41.405  24.732  28.179  1.00  0.00    -0.205 F 
ATOM     74  C   UNL A   1      43.479  25.248  25.205  1.00  0.00     0.022 A 
BRANCH  72  75
ATOM     75  S   UNL A   1      42.446  22.832  25.993  1.00  0.00     0.127 S 
ATOM     76  O   UNL A   1      40.991  22.726  26.054  1.00  0.00    -0.237 OA
ATOM     77  O   UNL A   1      43.030  22.572  24.676  1.00  0.00    -0.237 OA
ATOM     78  O   UNL A   1      43.180  22.226  27.097  1.00  0.00    -0.744 OA
ENDBRANCH  72  75
ENDBRANCH  44  68
BRANCH  56  79
ATOM     79  C   UNL A   1      44.477  26.999  34.109  1.00  0.00     0.023 A 
ATOM     80  C   UNL A   1      45.630  27.731  34.456  1.00  0.00     0.012 A 
ATOM     81  C   UNL A   1      44.322  25.685  34.591  1.00  0.00     0.148 A 
ATOM     82  C   UNL A   1      46.620  27.158  35.254  1.00  0.00     0.002 A 
ATOM     83  C   UNL A   1      45.295  25.133  35.419  1.00  0.00     0.091 A 
ATOM     84  F   UNL A   1      43.229  24.994  34.233  1.00  0.00    -0.205 F 
ATOM     85  C   UNL A   1      46.446  25.867  35.746  1.00  0.00     0.022 A 
BRANCH  83  86
ATOM     86  S   UNL A   1      45.103  23.510  36.166  1.00  0.00     0.127 S 
ATOM     87  O   UNL A   1      45.251  23.815  37.588  1.00  0.00    -0.237 OA
ATOM     88  O   UNL A   1      43.748  23.133  35.762  1.00  0.00    -0.237 OA
ATOM     89  O   UNL A   1      46.152  22.683  35.585  1.00  0.00    -0.744 OA
ENDBRANCH  83  86
ENDBRANCH  56  79
ENDBRANCH  30  31
ENDBRANCH  23  25
ENDBRANCH  22  23
ENDBRANCH  21  22
ENDBRANCH   1  21
TORSDOF 18
ENDMDL
