MODEL 1
REMARK VINA RESULT:     -10.3      0.000      0.000
REMARK SMILES CCn1cc(Br)cc1C(=O)N[C@@H]1C=C[C@@H](C(=O)OCCOCCOC(=O)c2ccc(-c3c4nc(c(-c5cccc(S(=O)(=O)[O-])c5F)c5ccc([nH]5)c(-c5cccc(S(=O)(=O)[O-])c5F)c5nc(c(-c6cccc(S(=O)(=O)[O-])c6F)c6ccc3[nH]6)C=C5)C=C4)cc2)C1
REMARK SMILES IDX 21 1 20 2 19 3 18 4 16 5 17 6 15 7 12 8 13 9 90 10 14 11
REMARK SMILES IDX 11 12 9 13 10 14 8 16 3 17 4 18 5 19 7 20 6 21 2 22 1 23
REMARK SMILES IDX 22 24 23 25 24 26 25 27 26 28 27 29 28 30 89 31 29 32 88 33
REMARK SMILES IDX 30 34 31 35 32 36 82 37 33 38 87 39 81 40 83 41 34 42 86 43
REMARK SMILES IDX 80 44 79 45 35 47 67 48 47 49 66 50 48 51 51 52 65 53 84 54
REMARK SMILES IDX 49 55 50 56 64 58 85 59 52 60 36 61 37 62 45 63 38 64 40 65
REMARK SMILES IDX 46 66 39 67 41 68 42 69 43 70 44 71 68 72 69 73 77 74 70 75
REMARK SMILES IDX 72 76 78 77 71 78 73 79 74 80 75 81 76 82 53 83 54 84 62 85
REMARK SMILES IDX 55 86 57 87 63 88 56 89 58 90 59 91 60 92 61 93
REMARK H PARENT 11 15 83 46 51 57
REMARK Flexibility Score: inf
ROOT
ATOM      1  O   UNL A   1      33.816  30.080  26.885  1.00  0.00    -0.374 OA
ENDROOT
BRANCH   1   2
ATOM      2  C   UNL A   1      32.679  30.086  26.020  1.00  0.00     0.202 C 
BRANCH   2   3
ATOM      3  C   UNL A   1      31.964  28.760  25.753  1.00  0.00     0.261 C 
BRANCH   3   4
ATOM      4  O   UNL A   1      31.395  28.696  24.431  1.00  0.00    -0.463 OA
BRANCH   4   5
ATOM      5  C   UNL A   1      32.152  28.013  23.531  1.00  0.00     0.312 C 
ATOM      6  O   UNL A   1      33.381  28.000  23.540  1.00  0.00    -0.252 OA
BRANCH   5   7
ATOM      7  C   UNL A   1      31.340  27.123  22.578  1.00  0.00     0.124 C 
ATOM      8  C   UNL A   1      31.770  24.772  22.875  1.00  0.00     0.106 C 
ATOM      9  C   UNL A   1      30.523  25.174  23.583  1.00  0.00    -0.006 C 
ATOM     10  C   UNL A   1      31.987  25.906  21.879  1.00  0.00     0.048 C 
ATOM     11  C   UNL A   1      30.289  26.477  23.430  1.00  0.00    -0.014 C 
BRANCH   8  12
ATOM     12  N   UNL A   1      31.701  23.413  22.435  1.00  0.00    -0.345 N 
ATOM     13  C   UNL A   1      32.466  22.384  22.961  1.00  0.00     0.268 C 
ATOM     14  O   UNL A   1      32.212  21.229  22.626  1.00  0.00    -0.268 OA
ATOM     15  H   UNL A   1      31.068  23.195  21.714  1.00  0.00     0.164 HD
BRANCH  13  16
ATOM     16  C   UNL A   1      33.406  22.702  24.033  1.00  0.00     0.108 A 
ATOM     17  N   UNL A   1      33.237  22.653  25.414  1.00  0.00    -0.343 N 
ATOM     18  C   UNL A   1      34.470  22.736  26.026  1.00  0.00     0.102 A 
ATOM     19  C   UNL A   1      35.392  23.029  25.059  1.00  0.00     0.036 A 
ATOM     20  C   UNL A   1      34.733  23.075  23.822  1.00  0.00     0.049 A 
ATOM     21  Br  UNL A   1      37.228  23.294  25.296  1.00  0.00    -0.049 Br
BRANCH  17  22
ATOM     22  C   UNL A   1      31.990  22.655  26.179  1.00  0.00     0.119 C 
ATOM     23  C   UNL A   1      31.669  23.961  26.917  1.00  0.00     0.027 C 
ENDBRANCH  17  22
ENDBRANCH  13  16
ENDBRANCH   8  12
ENDBRANCH   5   7
ENDBRANCH   4   5
ENDBRANCH   3   4
ENDBRANCH   2   3
ENDBRANCH   1   2
BRANCH   1  24
ATOM     24  C   UNL A   1      34.135  31.238  27.649  1.00  0.00     0.202 C 
BRANCH  24  25
ATOM     25  C   UNL A   1      33.292  32.491  27.491  1.00  0.00     0.261 C 
BRANCH  25  26
ATOM     26  O   UNL A   1      32.849  32.993  28.739  1.00  0.00    -0.460 OA
BRANCH  26  27
ATOM     27  C   UNL A   1      33.277  34.256  28.985  1.00  0.00     0.338 C 
ATOM     28  O   UNL A   1      32.741  35.290  28.647  1.00  0.00    -0.246 OA
BRANCH  27  29
ATOM     29  C   UNL A   1      34.621  34.171  29.560  1.00  0.00     0.060 A 
ATOM     30  C   UNL A   1      35.642  34.595  28.714  1.00  0.00     0.016 A 
ATOM     31  C   UNL A   1      34.855  33.370  30.691  1.00  0.00     0.016 A 
ATOM     32  C   UNL A   1      36.864  33.990  28.845  1.00  0.00     0.010 A 
ATOM     33  C   UNL A   1      36.079  32.763  30.817  1.00  0.00     0.010 A 
ATOM     34  C   UNL A   1      37.030  33.011  29.834  1.00  0.00    -0.014 A 
BRANCH  34  35
ATOM     35  C   UNL A   1      38.319  32.369  29.904  1.00  0.00     0.031 A 
ATOM     36  C   UNL A   1      38.236  30.983  29.400  1.00  0.00     0.074 A 
ATOM     37  C   UNL A   1      39.429  32.992  30.338  1.00  0.00     0.049 A 
ATOM     38  N   UNL A   1      38.260  29.902  30.105  1.00  0.00    -0.248 NA
ATOM     39  C   UNL A   1      37.811  30.786  28.005  1.00  0.00     0.031 C 
ATOM     40  C   UNL A   1      39.623  34.419  30.609  1.00  0.00     0.029 A 
ATOM     41  N   UNL A   1      40.674  32.479  30.506  1.00  0.00    -0.354 N 
ATOM     42  C   UNL A   1      38.136  28.875  29.178  1.00  0.00     0.074 A 
ATOM     43  C   UNL A   1      37.607  29.468  27.982  1.00  0.00     0.031 C 
ATOM     44  C   UNL A   1      40.950  34.684  30.638  1.00  0.00     0.029 A 
ATOM     45  C   UNL A   1      41.685  33.435  30.517  1.00  0.00     0.049 A 
ATOM     46  H   UNL A   1      40.849  31.515  30.611  1.00  0.00     0.167 HD
ATOM     47  C   UNL A   1      38.802  27.706  29.365  1.00  0.00     0.034 A 
ATOM     48  C   UNL A   1      43.010  33.203  30.333  1.00  0.00     0.034 A 
ATOM     49  C   UNL A   1      39.195  27.545  30.744  1.00  0.00     0.049 A 
ATOM     50  C   UNL A   1      43.246  31.763  30.608  1.00  0.00     0.074 A 
ATOM     51  C   UNL A   1      38.523  27.524  31.950  1.00  0.00     0.029 A 
ATOM     52  N   UNL A   1      40.512  27.798  31.045  1.00  0.00    -0.354 N 
ATOM     53  N   UNL A   1      43.115  31.233  31.790  1.00  0.00    -0.248 NA
ATOM     54  C   UNL A   1      43.161  30.838  29.490  1.00  0.00     0.031 C 
ATOM     55  C   UNL A   1      39.373  28.221  32.858  1.00  0.00     0.029 A 
ATOM     56  C   UNL A   1      40.548  28.558  32.183  1.00  0.00     0.049 A 
ATOM     57  H   UNL A   1      41.292  27.487  30.531  1.00  0.00     0.167 HD
ATOM     58  C   UNL A   1      42.457  30.033  31.552  1.00  0.00     0.074 A 
ATOM     59  C   UNL A   1      42.605  29.795  30.115  1.00  0.00     0.031 C 
ATOM     60  C   UNL A   1      41.597  29.511  32.475  1.00  0.00     0.034 A 
BRANCH  47  61
ATOM     61  C   UNL A   1      39.480  26.945  28.248  1.00  0.00     0.023 A 
ATOM     62  C   UNL A   1      39.263  25.551  28.204  1.00  0.00     0.012 A 
ATOM     63  C   UNL A   1      40.524  27.455  27.439  1.00  0.00     0.148 A 
ATOM     64  C   UNL A   1      40.082  24.707  27.447  1.00  0.00     0.002 A 
ATOM     65  C   UNL A   1      41.281  26.624  26.626  1.00  0.00     0.091 A 
ATOM     66  F   UNL A   1      40.900  28.731  27.540  1.00  0.00    -0.205 F 
ATOM     67  C   UNL A   1      41.089  25.243  26.653  1.00  0.00     0.022 A 
BRANCH  65  68
ATOM     68  S   UNL A   1      42.566  27.279  25.552  1.00  0.00     0.127 S 
ATOM     69  O   UNL A   1      43.637  27.545  26.507  1.00  0.00    -0.237 OA
ATOM     70  O   UNL A   1      42.799  26.150  24.651  1.00  0.00    -0.237 OA
ATOM     71  O   UNL A   1      41.983  28.447  24.902  1.00  0.00    -0.744 OA
ENDBRANCH  65  68
ENDBRANCH  47  61
BRANCH  48  72
ATOM     72  C   UNL A   1      44.027  34.031  29.639  1.00  0.00     0.023 A 
ATOM     73  C   UNL A   1      44.966  34.767  30.393  1.00  0.00     0.012 A 
ATOM     74  C   UNL A   1      44.267  33.873  28.256  1.00  0.00     0.148 A 
ATOM     75  C   UNL A   1      46.119  35.294  29.796  1.00  0.00     0.002 A 
ATOM     76  C   UNL A   1      45.410  34.405  27.667  1.00  0.00     0.091 A 
ATOM     77  F   UNL A   1      43.427  33.118  27.538  1.00  0.00    -0.205 F 
ATOM     78  C   UNL A   1      46.346  35.107  28.435  1.00  0.00     0.022 A 
BRANCH  76  79
ATOM     79  S   UNL A   1      45.778  34.172  25.921  1.00  0.00     0.127 S 
ATOM     80  O   UNL A   1      46.027  32.731  25.857  1.00  0.00    -0.237 OA
ATOM     81  O   UNL A   1      44.537  34.609  25.291  1.00  0.00    -0.237 OA
ATOM     82  O   UNL A   1      46.950  34.994  25.648  1.00  0.00    -0.744 OA
ENDBRANCH  76  79
ENDBRANCH  48  72
BRANCH  60  83
ATOM     83  C   UNL A   1      41.580  30.121  33.854  1.00  0.00     0.023 A 
ATOM     84  C   UNL A   1      42.520  29.789  34.853  1.00  0.00     0.012 A 
ATOM     85  C   UNL A   1      40.687  31.178  34.088  1.00  0.00     0.148 A 
ATOM     86  C   UNL A   1      42.549  30.483  36.067  1.00  0.00     0.002 A 
ATOM     87  C   UNL A   1      40.751  31.897  35.273  1.00  0.00     0.091 A 
ATOM     88  F   UNL A   1      39.803  31.483  33.126  1.00  0.00    -0.205 F 
ATOM     89  C   UNL A   1      41.673  31.547  36.272  1.00  0.00     0.022 A 
BRANCH  87  90
ATOM     90  S   UNL A   1      39.733  33.350  35.537  1.00  0.00     0.127 S 
ATOM     91  O   UNL A   1      38.396  32.770  35.640  1.00  0.00    -0.237 OA
ATOM     92  O   UNL A   1      40.267  33.883  36.791  1.00  0.00    -0.237 OA
ATOM     93  O   UNL A   1      39.957  34.212  34.383  1.00  0.00    -0.744 OA
ENDBRANCH  87  90
ENDBRANCH  60  83
ENDBRANCH  34  35
ENDBRANCH  27  29
ENDBRANCH  26  27
ENDBRANCH  25  26
ENDBRANCH  24  25
ENDBRANCH   1  24
TORSDOF 20
ENDMDL
MODEL 2
REMARK VINA RESULT:     -10.3      4.919      9.625
REMARK SMILES CCn1cc(Br)cc1C(=O)N[C@@H]1C=C[C@@H](C(=O)OCCOCCOC(=O)c2ccc(-c3c4nc(c(-c5cccc(S(=O)(=O)[O-])c5F)c5ccc([nH]5)c(-c5cccc(S(=O)(=O)[O-])c5F)c5nc(c(-c6cccc(S(=O)(=O)[O-])c6F)c6ccc3[nH]6)C=C5)C=C4)cc2)C1
REMARK SMILES IDX 21 1 20 2 19 3 18 4 16 5 17 6 15 7 12 8 13 9 90 10 14 11
REMARK SMILES IDX 11 12 9 13 10 14 8 16 3 17 4 18 5 19 7 20 6 21 2 22 1 23
REMARK SMILES IDX 22 24 23 25 24 26 25 27 26 28 27 29 28 30 89 31 29 32 88 33
REMARK SMILES IDX 30 34 31 35 32 36 82 37 33 38 87 39 81 40 83 41 34 42 86 43
REMARK SMILES IDX 80 44 79 45 35 47 67 48 47 49 66 50 48 51 51 52 65 53 84 54
REMARK SMILES IDX 49 55 50 56 64 58 85 59 52 60 36 61 37 62 45 63 38 64 40 65
REMARK SMILES IDX 46 66 39 67 41 68 42 69 43 70 44 71 68 72 69 73 77 74 70 75
REMARK SMILES IDX 72 76 78 77 71 78 73 79 74 80 75 81 76 82 53 83 54 84 62 85
REMARK SMILES IDX 55 86 57 87 63 88 56 89 58 90 59 91 60 92 61 93
REMARK H PARENT 11 15 83 46 51 57
REMARK Flexibility Score: inf
ROOT
ATOM      1  O   UNL A   1      41.751  20.969  26.520  1.00  0.00    -0.374 OA
ENDROOT
BRANCH   1   2
ATOM      2  C   UNL A   1      40.470  21.367  27.011  1.00  0.00     0.202 C 
BRANCH   2   3
ATOM      3  C   UNL A   1      39.246  21.127  26.123  1.00  0.00     0.261 C 
BRANCH   3   4
ATOM      4  O   UNL A   1      38.842  22.311  25.409  1.00  0.00    -0.463 OA
BRANCH   4   5
ATOM      5  C   UNL A   1      37.680  22.860  25.855  1.00  0.00     0.312 C 
ATOM      6  O   UNL A   1      37.550  24.048  26.141  1.00  0.00    -0.252 OA
BRANCH   5   7
ATOM      7  C   UNL A   1      36.483  21.897  25.830  1.00  0.00     0.124 C 
ATOM      8  C   UNL A   1      34.393  22.991  25.347  1.00  0.00     0.106 C 
ATOM      9  C   UNL A   1      34.949  22.352  24.123  1.00  0.00    -0.006 C 
ATOM     10  C   UNL A   1      35.135  22.285  26.477  1.00  0.00     0.048 C 
ATOM     11  C   UNL A   1      36.112  21.755  24.384  1.00  0.00    -0.014 C 
BRANCH   8  12
ATOM     12  N   UNL A   1      32.964  23.019  25.313  1.00  0.00    -0.345 N 
ATOM     13  C   UNL A   1      32.210  24.173  25.174  1.00  0.00     0.268 C 
ATOM     14  O   UNL A   1      30.998  24.069  24.992  1.00  0.00    -0.268 OA
ATOM     15  H   UNL A   1      32.485  22.162  25.392  1.00  0.00     0.164 HD
BRANCH  13  16
ATOM     16  C   UNL A   1      32.915  25.447  25.054  1.00  0.00     0.108 A 
ATOM     17  N   UNL A   1      33.365  26.117  23.920  1.00  0.00    -0.343 N 
ATOM     18  C   UNL A   1      33.692  27.413  24.258  1.00  0.00     0.102 A 
ATOM     19  C   UNL A   1      33.636  27.512  25.621  1.00  0.00     0.036 A 
ATOM     20  C   UNL A   1      33.217  26.276  26.134  1.00  0.00     0.049 A 
ATOM     21  Br  UNL A   1      34.009  29.023  26.657  1.00  0.00    -0.049 Br
BRANCH  17  22
ATOM     22  C   UNL A   1      33.615  25.577  22.584  1.00  0.00     0.119 C 
ATOM     23  C   UNL A   1      32.756  26.169  21.460  1.00  0.00     0.027 C 
ENDBRANCH  17  22
ENDBRANCH  13  16
ENDBRANCH   8  12
ENDBRANCH   5   7
ENDBRANCH   4   5
ENDBRANCH   3   4
ENDBRANCH   2   3
ENDBRANCH   1   2
BRANCH   1  24
ATOM     24  C   UNL A   1      42.217  19.642  26.739  1.00  0.00     0.202 C 
BRANCH  24  25
ATOM     25  C   UNL A   1      43.012  18.942  25.651  1.00  0.00     0.261 C 
BRANCH  25  26
ATOM     26  O   UNL A   1      44.295  19.516  25.479  1.00  0.00    -0.460 OA
BRANCH  26  27
ATOM     27  C   UNL A   1      44.436  20.153  24.291  1.00  0.00     0.338 C 
ATOM     28  O   UNL A   1      44.454  19.651  23.187  1.00  0.00    -0.246 OA
BRANCH  27  29
ATOM     29  C   UNL A   1      44.775  21.551  24.569  1.00  0.00     0.060 A 
ATOM     30  C   UNL A   1      45.791  21.727  25.505  1.00  0.00     0.016 A 
ATOM     31  C   UNL A   1      43.883  22.577  24.214  1.00  0.00     0.016 A 
ATOM     32  C   UNL A   1      45.740  22.850  26.288  1.00  0.00     0.010 A 
ATOM     33  C   UNL A   1      43.833  23.698  25.002  1.00  0.00     0.010 A 
ATOM     34  C   UNL A   1      44.701  23.768  26.086  1.00  0.00    -0.014 A 
BRANCH  34  35
ATOM     35  C   UNL A   1      44.662  24.910  26.964  1.00  0.00     0.031 A 
ATOM     36  C   UNL A   1      45.841  25.772  26.748  1.00  0.00     0.074 A 
ATOM     37  C   UNL A   1      43.652  25.145  27.820  1.00  0.00     0.049 A 
ATOM     38  N   UNL A   1      46.866  25.889  27.525  1.00  0.00    -0.248 NA
ATOM     39  C   UNL A   1      46.030  26.353  25.409  1.00  0.00     0.031 C 
ATOM     40  C   UNL A   1      42.353  24.473  27.900  1.00  0.00     0.029 A 
ATOM     41  N   UNL A   1      43.533  26.144  28.732  1.00  0.00    -0.354 N 
ATOM     42  C   UNL A   1      47.696  26.795  26.879  1.00  0.00     0.074 A 
ATOM     43  C   UNL A   1      47.271  26.830  25.507  1.00  0.00     0.031 C 
ATOM     44  C   UNL A   1      41.498  25.249  28.608  1.00  0.00     0.029 A 
ATOM     45  C   UNL A   1      42.223  26.395  29.130  1.00  0.00     0.049 A 
ATOM     46  H   UNL A   1      44.304  26.648  29.081  1.00  0.00     0.167 HD
ATOM     47  C   UNL A   1      48.425  27.685  27.601  1.00  0.00     0.034 A 
ATOM     48  C   UNL A   1      41.776  27.518  29.750  1.00  0.00     0.034 A 
ATOM     49  C   UNL A   1      48.562  27.255  28.972  1.00  0.00     0.049 A 
ATOM     50  C   UNL A   1      42.955  28.186  30.354  1.00  0.00     0.074 A 
ATOM     51  C   UNL A   1      49.058  26.124  29.590  1.00  0.00     0.029 A 
ATOM     52  N   UNL A   1      47.759  27.877  29.898  1.00  0.00    -0.354 N 
ATOM     53  N   UNL A   1      43.636  27.675  31.340  1.00  0.00    -0.248 NA
ATOM     54  C   UNL A   1      43.654  29.180  29.556  1.00  0.00     0.031 C 
ATOM     55  C   UNL A   1      48.169  25.881  30.678  1.00  0.00     0.029 A 
ATOM     56  C   UNL A   1      47.231  26.914  30.715  1.00  0.00     0.049 A 
ATOM     57  H   UNL A   1      47.594  28.845  29.961  1.00  0.00     0.167 HD
ATOM     58  C   UNL A   1      44.960  27.907  30.992  1.00  0.00     0.074 A 
ATOM     59  C   UNL A   1      44.907  28.924  29.942  1.00  0.00     0.031 C 
ATOM     60  C   UNL A   1      45.944  27.036  31.364  1.00  0.00     0.034 A 
BRANCH  47  61
ATOM     61  C   UNL A   1      48.620  29.128  27.194  1.00  0.00     0.023 A 
ATOM     62  C   UNL A   1      49.927  29.650  27.305  1.00  0.00     0.012 A 
ATOM     63  C   UNL A   1      47.574  30.061  26.996  1.00  0.00     0.148 A 
ATOM     64  C   UNL A   1      50.168  31.028  27.286  1.00  0.00     0.002 A 
ATOM     65  C   UNL A   1      47.827  31.422  26.894  1.00  0.00     0.091 A 
ATOM     66  F   UNL A   1      46.299  29.671  27.039  1.00  0.00    -0.205 F 
ATOM     67  C   UNL A   1      49.119  31.915  27.075  1.00  0.00     0.022 A 
BRANCH  65  68
ATOM     68  S   UNL A   1      46.506  32.601  26.581  1.00  0.00     0.127 S 
ATOM     69  O   UNL A   1      46.001  32.837  27.929  1.00  0.00    -0.237 OA
ATOM     70  O   UNL A   1      47.244  33.716  25.986  1.00  0.00    -0.237 OA
ATOM     71  O   UNL A   1      45.591  31.936  25.661  1.00  0.00    -0.744 OA
ENDBRANCH  65  68
ENDBRANCH  47  61
BRANCH  48  72
ATOM     72  C   UNL A   1      40.481  28.228  29.598  1.00  0.00     0.023 A 
ATOM     73  C   UNL A   1      39.862  28.295  28.333  1.00  0.00     0.012 A 
ATOM     74  C   UNL A   1      39.713  28.581  30.731  1.00  0.00     0.148 A 
ATOM     75  C   UNL A   1      38.516  28.666  28.204  1.00  0.00     0.002 A 
ATOM     76  C   UNL A   1      38.380  28.955  30.597  1.00  0.00     0.091 A 
ATOM     77  F   UNL A   1      40.260  28.454  31.946  1.00  0.00    -0.205 F 
ATOM     78  C   UNL A   1      37.773  28.988  29.336  1.00  0.00     0.022 A 
BRANCH  76  79
ATOM     79  S   UNL A   1      37.354  29.352  32.021  1.00  0.00     0.127 S 
ATOM     80  O   UNL A   1      37.991  30.573  32.518  1.00  0.00    -0.237 OA
ATOM     81  O   UNL A   1      36.046  29.549  31.404  1.00  0.00    -0.237 OA
ATOM     82  O   UNL A   1      37.464  28.211  32.921  1.00  0.00    -0.744 OA
ENDBRANCH  76  79
ENDBRANCH  48  72
BRANCH  60  83
ATOM     83  C   UNL A   1      45.603  25.969  32.376  1.00  0.00     0.023 A 
ATOM     84  C   UNL A   1      45.005  24.740  32.024  1.00  0.00     0.012 A 
ATOM     85  C   UNL A   1      46.050  26.154  33.693  1.00  0.00     0.148 A 
ATOM     86  C   UNL A   1      44.837  23.728  32.975  1.00  0.00     0.002 A 
ATOM     87  C   UNL A   1      45.926  25.130  34.622  1.00  0.00     0.091 A 
ATOM     88  F   UNL A   1      46.619  27.327  34.008  1.00  0.00    -0.205 F 
ATOM     89  C   UNL A   1      45.310  23.919  34.272  1.00  0.00     0.022 A 
BRANCH  87  90
ATOM     90  S   UNL A   1      46.628  25.275  36.266  1.00  0.00     0.127 S 
ATOM     91  O   UNL A   1      45.780  26.300  36.870  1.00  0.00    -0.237 OA
ATOM     92  O   UNL A   1      46.440  23.928  36.806  1.00  0.00    -0.237 OA
ATOM     93  O   UNL A   1      48.024  25.648  36.075  1.00  0.00    -0.744 OA
ENDBRANCH  87  90
ENDBRANCH  60  83
ENDBRANCH  34  35
ENDBRANCH  27  29
ENDBRANCH  26  27
ENDBRANCH  25  26
ENDBRANCH  24  25
ENDBRANCH   1  24
TORSDOF 20
ENDMDL
MODEL 3
REMARK VINA RESULT:      -9.9      3.612      8.579
REMARK SMILES CCn1cc(Br)cc1C(=O)N[C@@H]1C=C[C@@H](C(=O)OCCOCCOC(=O)c2ccc(-c3c4nc(c(-c5cccc(S(=O)(=O)[O-])c5F)c5ccc([nH]5)c(-c5cccc(S(=O)(=O)[O-])c5F)c5nc(c(-c6cccc(S(=O)(=O)[O-])c6F)c6ccc3[nH]6)C=C5)C=C4)cc2)C1
REMARK SMILES IDX 21 1 20 2 19 3 18 4 16 5 17 6 15 7 12 8 13 9 90 10 14 11
REMARK SMILES IDX 11 12 9 13 10 14 8 16 3 17 4 18 5 19 7 20 6 21 2 22 1 23
REMARK SMILES IDX 22 24 23 25 24 26 25 27 26 28 27 29 28 30 89 31 29 32 88 33
REMARK SMILES IDX 30 34 31 35 32 36 82 37 33 38 87 39 81 40 83 41 34 42 86 43
REMARK SMILES IDX 80 44 79 45 35 47 67 48 47 49 66 50 48 51 51 52 65 53 84 54
REMARK SMILES IDX 49 55 50 56 64 58 85 59 52 60 36 61 37 62 45 63 38 64 40 65
REMARK SMILES IDX 46 66 39 67 41 68 42 69 43 70 44 71 68 72 69 73 77 74 70 75
REMARK SMILES IDX 72 76 78 77 71 78 73 79 74 80 75 81 76 82 53 83 54 84 62 85
REMARK SMILES IDX 55 86 57 87 63 88 56 89 58 90 59 91 60 92 61 93
REMARK H PARENT 11 15 83 46 51 57
REMARK Flexibility Score: inf
ROOT
ATOM      1  O   UNL A   1      40.705  22.513  27.422  1.00  0.00    -0.374 OA
ENDROOT
BRANCH   1   2
ATOM      2  C   UNL A   1      39.659  23.026  26.597  1.00  0.00     0.202 C 
BRANCH   2   3
ATOM      3  C   UNL A   1      38.677  22.033  25.970  1.00  0.00     0.261 C 
BRANCH   3   4
ATOM      4  O   UNL A   1      37.308  22.466  26.083  1.00  0.00    -0.463 OA
BRANCH   4   5
ATOM      5  C   UNL A   1      36.471  21.909  25.166  1.00  0.00     0.312 C 
ATOM      6  O   UNL A   1      36.706  21.868  23.961  1.00  0.00    -0.252 OA
BRANCH   5   7
ATOM      7  C   UNL A   1      35.259  21.191  25.780  1.00  0.00     0.124 C 
ATOM      8  C   UNL A   1      33.276  22.557  25.840  1.00  0.00     0.106 C 
ATOM      9  C   UNL A   1      33.247  21.634  24.672  1.00  0.00    -0.006 C 
ATOM     10  C   UNL A   1      34.314  21.922  26.760  1.00  0.00     0.048 C 
ATOM     11  C   UNL A   1      34.348  20.885  24.629  1.00  0.00    -0.014 C 
BRANCH   8  12
ATOM     12  N   UNL A   1      31.956  22.841  26.310  1.00  0.00    -0.345 N 
ATOM     13  C   UNL A   1      31.367  24.095  26.268  1.00  0.00     0.268 C 
ATOM     14  O   UNL A   1      30.173  24.196  26.545  1.00  0.00    -0.268 OA
ATOM     15  H   UNL A   1      31.431  22.097  26.685  1.00  0.00     0.164 HD
BRANCH  13  16
ATOM     16  C   UNL A   1      32.140  25.201  25.710  1.00  0.00     0.108 A 
ATOM     17  N   UNL A   1      32.317  25.590  24.385  1.00  0.00    -0.343 N 
ATOM     18  C   UNL A   1      32.862  26.857  24.352  1.00  0.00     0.102 A 
ATOM     19  C   UNL A   1      33.207  27.191  25.633  1.00  0.00     0.036 A 
ATOM     20  C   UNL A   1      32.822  26.142  26.481  1.00  0.00     0.049 A 
ATOM     21  Br  UNL A   1      34.018  28.777  26.203  1.00  0.00    -0.049 Br
BRANCH  17  22
ATOM     22  C   UNL A   1      32.118  24.800  23.171  1.00  0.00     0.119 C 
ATOM     23  C   UNL A   1      31.779  25.601  21.908  1.00  0.00     0.027 C 
ENDBRANCH  17  22
ENDBRANCH  13  16
ENDBRANCH   8  12
ENDBRANCH   5   7
ENDBRANCH   4   5
ENDBRANCH   3   4
ENDBRANCH   2   3
ENDBRANCH   1   2
BRANCH   1  24
ATOM     24  C   UNL A   1      40.815  21.112  27.644  1.00  0.00     0.202 C 
BRANCH  24  25
ATOM     25  C   UNL A   1      41.941  20.338  26.982  1.00  0.00     0.261 C 
BRANCH  25  26
ATOM     26  O   UNL A   1      42.248  20.845  25.696  1.00  0.00    -0.460 OA
BRANCH  26  27
ATOM     27  C   UNL A   1      43.581  20.962  25.475  1.00  0.00     0.338 C 
ATOM     28  O   UNL A   1      44.390  20.064  25.379  1.00  0.00    -0.246 OA
BRANCH  27  29
ATOM     29  C   UNL A   1      43.928  22.382  25.576  1.00  0.00     0.060 A 
ATOM     30  C   UNL A   1      44.822  22.690  26.598  1.00  0.00     0.016 A 
ATOM     31  C   UNL A   1      43.124  23.351  24.953  1.00  0.00     0.016 A 
ATOM     32  C   UNL A   1      44.711  23.922  27.186  1.00  0.00     0.010 A 
ATOM     33  C   UNL A   1      43.013  24.583  25.546  1.00  0.00     0.010 A 
ATOM     34  C   UNL A   1      43.737  24.811  26.710  1.00  0.00    -0.014 A 
BRANCH  34  35
ATOM     35  C   UNL A   1      43.626  26.078  27.388  1.00  0.00     0.031 A 
ATOM     36  C   UNL A   1      44.814  26.914  27.125  1.00  0.00     0.074 A 
ATOM     37  C   UNL A   1      42.552  26.429  28.118  1.00  0.00     0.049 A 
ATOM     38  N   UNL A   1      45.776  27.171  27.947  1.00  0.00    -0.248 NA
ATOM     39  C   UNL A   1      45.101  27.278  25.728  1.00  0.00     0.031 C 
ATOM     40  C   UNL A   1      41.254  25.755  28.207  1.00  0.00     0.029 A 
ATOM     41  N   UNL A   1      42.359  27.559  28.847  1.00  0.00    -0.354 N 
ATOM     42  C   UNL A   1      46.648  27.977  27.228  1.00  0.00     0.074 A 
ATOM     43  C   UNL A   1      46.328  27.785  25.840  1.00  0.00     0.031 C 
ATOM     44  C   UNL A   1      40.344  26.620  28.716  1.00  0.00     0.029 A 
ATOM     45  C   UNL A   1      41.022  27.847  29.101  1.00  0.00     0.049 A 
ATOM     46  H   UNL A   1      43.099  28.124  29.167  1.00  0.00     0.167 HD
ATOM     47  C   UNL A   1      47.315  28.983  27.850  1.00  0.00     0.034 A 
ATOM     48  C   UNL A   1      40.523  29.046  29.497  1.00  0.00     0.034 A 
ATOM     49  C   UNL A   1      47.350  28.779  29.279  1.00  0.00     0.049 A 
ATOM     50  C   UNL A   1      41.649  29.823  30.073  1.00  0.00     0.074 A 
ATOM     51  C   UNL A   1      47.802  27.770  30.106  1.00  0.00     0.029 A 
ATOM     52  N   UNL A   1      46.476  29.527  30.031  1.00  0.00    -0.354 N 
ATOM     53  N   UNL A   1      42.255  29.487  31.176  1.00  0.00    -0.248 NA
ATOM     54  C   UNL A   1      42.402  30.688  29.179  1.00  0.00     0.031 C 
ATOM     55  C   UNL A   1      46.834  27.688  31.149  1.00  0.00     0.029 A 
ATOM     56  C   UNL A   1      45.891  28.698  30.950  1.00  0.00     0.049 A 
ATOM     57  H   UNL A   1      46.301  30.490  29.926  1.00  0.00     0.167 HD
ATOM     58  C   UNL A   1      43.601  29.683  30.895  1.00  0.00     0.074 A 
ATOM     59  C   UNL A   1      43.623  30.519  29.694  1.00  0.00     0.031 C 
ATOM     60  C   UNL A   1      44.558  28.899  31.474  1.00  0.00     0.034 A 
BRANCH  47  61
ATOM     61  C   UNL A   1      47.534  30.346  27.233  1.00  0.00     0.023 A 
ATOM     62  C   UNL A   1      48.823  30.906  27.366  1.00  0.00     0.012 A 
ATOM     63  C   UNL A   1      46.501  31.213  26.802  1.00  0.00     0.148 A 
ATOM     64  C   UNL A   1      49.054  32.267  27.144  1.00  0.00     0.002 A 
ATOM     65  C   UNL A   1      46.753  32.544  26.502  1.00  0.00     0.091 A 
ATOM     66  F   UNL A   1      45.230  30.808  26.801  1.00  0.00    -0.205 F 
ATOM     67  C   UNL A   1      48.020  33.087  26.706  1.00  0.00     0.022 A 
BRANCH  65  68
ATOM     68  S   UNL A   1      45.455  33.630  25.894  1.00  0.00     0.127 S 
ATOM     69  O   UNL A   1      46.225  34.604  25.127  1.00  0.00    -0.237 OA
ATOM     70  O   UNL A   1      44.647  32.705  25.099  1.00  0.00    -0.237 OA
ATOM     71  O   UNL A   1      44.778  34.141  27.080  1.00  0.00    -0.744 OA
ENDBRANCH  65  68
ENDBRANCH  47  61
BRANCH  48  72
ATOM     72  C   UNL A   1      39.240  29.701  29.138  1.00  0.00     0.023 A 
ATOM     73  C   UNL A   1      38.590  29.358  27.934  1.00  0.00     0.012 A 
ATOM     74  C   UNL A   1      38.509  30.434  30.099  1.00  0.00     0.148 A 
ATOM     75  C   UNL A   1      37.250  29.701  27.711  1.00  0.00     0.002 A 
ATOM     76  C   UNL A   1      37.180  30.780  29.869  1.00  0.00     0.091 A 
ATOM     77  F   UNL A   1      39.083  30.707  31.276  1.00  0.00    -0.205 F 
ATOM     78  C   UNL A   1      36.542  30.405  28.681  1.00  0.00     0.022 A 
BRANCH  76  79
ATOM     79  S   UNL A   1      36.200  31.660  31.094  1.00  0.00     0.127 S 
ATOM     80  O   UNL A   1      36.062  30.653  32.148  1.00  0.00    -0.237 OA
ATOM     81  O   UNL A   1      37.073  32.782  31.428  1.00  0.00    -0.237 OA
ATOM     82  O   UNL A   1      34.950  32.007  30.430  1.00  0.00    -0.744 OA
ENDBRANCH  76  79
ENDBRANCH  48  72
BRANCH  60  83
ATOM     83  C   UNL A   1      44.146  28.002  32.615  1.00  0.00     0.023 A 
ATOM     84  C   UNL A   1      44.024  26.602  32.485  1.00  0.00     0.012 A 
ATOM     85  C   UNL A   1      44.039  28.577  33.890  1.00  0.00     0.148 A 
ATOM     86  C   UNL A   1      43.776  25.799  33.604  1.00  0.00     0.002 A 
ATOM     87  C   UNL A   1      43.843  27.773  35.004  1.00  0.00     0.091 A 
ATOM     88  F   UNL A   1      44.162  29.909  33.995  1.00  0.00    -0.205 F 
ATOM     89  C   UNL A   1      43.699  26.384  34.866  1.00  0.00     0.022 A 
BRANCH  87  90
ATOM     90  S   UNL A   1      43.860  28.459  36.662  1.00  0.00     0.127 S 
ATOM     91  O   UNL A   1      45.152  29.140  36.696  1.00  0.00    -0.237 OA
ATOM     92  O   UNL A   1      42.698  29.349  36.644  1.00  0.00    -0.237 OA
ATOM     93  O   UNL A   1      43.724  27.324  37.566  1.00  0.00    -0.744 OA
ENDBRANCH  87  90
ENDBRANCH  60  83
ENDBRANCH  34  35
ENDBRANCH  27  29
ENDBRANCH  26  27
ENDBRANCH  25  26
ENDBRANCH  24  25
ENDBRANCH   1  24
TORSDOF 20
ENDMDL
