MODEL 1
REMARK VINA RESULT:     -12.7      0.000      0.000
REMARK SMILES C[C@]1(C(=O)OCCOCCOC(=O)c2ccc(-c3c4nc(c(-c5cccc(S(=O)(=O)[O-])c5F)c5ccc([nH]5)c(-c5cccc(S(=O)(=O)[O-])c5F)c5nc(c(-c6cccc(S(=O)(=O)[O-])c6F)c6ccc3[nH]6)C=C5)C=C4)cc2)[NH2+]C2(C(=O)c3ccccc3C2=O)[C@@H]2C(=O)N(c3ccccc3)C(=O)[C@H]21
REMARK SMILES IDX 9 1 8 2 7 3 6 4 5 5 3 6 4 7 2 8 1 9 77 10 101 11 78 12 89 15
REMARK SMILES IDX 99 16 79 17 87 18 90 19 92 20 100 21 80 22 81 23 86 24 88 25
REMARK SMILES IDX 91 26 82 27 85 28 83 29 84 30 93 31 94 32 98 33 95 34 97 35
REMARK SMILES IDX 96 36 10 37 11 38 12 39 13 40 14 41 15 42 76 43 16 44 75 45
REMARK SMILES IDX 17 46 18 47 19 48 69 49 20 50 74 51 68 52 70 53 21 54 73 55
REMARK SMILES IDX 67 56 66 57 22 59 54 60 34 61 53 62 35 63 38 64 52 65 71 66
REMARK SMILES IDX 36 67 37 68 51 70 72 71 39 72 23 73 24 74 32 75 25 76 27 77
REMARK SMILES IDX 33 78 26 79 28 80 29 81 30 82 31 83 55 84 56 85 64 86 57 87
REMARK SMILES IDX 59 88 65 89 58 90 60 91 61 92 62 93 63 94 40 95 41 96 49 97
REMARK SMILES IDX 42 98 44 99 50 100 43 101 45 102 46 103 47 104 48 105
REMARK H PARENT 77 13 77 14 70 58 38 69
REMARK Flexibility Score: inf
ROOT
ATOM      1  C   UNL A   1      42.240  21.068  26.216  1.00  0.00     0.202 C 
ENDROOT
BRANCH   1   2
ATOM      2  O   UNL A   1      40.977  20.895  25.575  1.00  0.00    -0.374 OA
BRANCH   2   3
ATOM      3  C   UNL A   1      39.818  21.394  26.240  1.00  0.00     0.202 C 
BRANCH   3   4
ATOM      4  C   UNL A   1      38.509  21.418  25.450  1.00  0.00     0.261 C 
BRANCH   4   5
ATOM      5  O   UNL A   1      38.153  22.750  25.054  1.00  0.00    -0.459 OA
BRANCH   5   6
ATOM      6  C   UNL A   1      36.983  22.880  24.373  1.00  0.00     0.368 C 
ATOM      7  O   UNL A   1      36.826  22.551  23.202  1.00  0.00    -0.245 OA
BRANCH   6   8
ATOM      8  C   UNL A   1      35.858  23.502  25.249  1.00  0.00     0.205 C 
ATOM      9  C   UNL A   1      36.507  23.977  26.551  1.00  0.00     0.093 C 
ATOM     10  N   UNL A   1      35.130  24.683  24.602  1.00  0.00    -0.313 N 
ATOM     11  C   UNL A   1      34.739  22.520  25.455  1.00  0.00     0.172 C 
ATOM     12  C   UNL A   1      33.724  24.216  24.232  1.00  0.00     0.237 C 
ATOM     13  H   UNL A   1      35.629  24.982  23.764  1.00  0.00     0.348 HD
ATOM     14  H   UNL A   1      35.085  25.472  25.247  1.00  0.00     0.348 HD
ATOM     15  C   UNL A   1      33.906  22.740  24.205  1.00  0.00     0.177 C 
ATOM     16  C   UNL A   1      34.883  21.040  25.431  1.00  0.00     0.244 C 
ATOM     17  C   UNL A   1      32.681  24.770  25.201  1.00  0.00     0.232 C 
ATOM     18  C   UNL A   1      33.294  24.807  22.894  1.00  0.00     0.232 C 
ATOM     19  C   UNL A   1      32.943  21.619  24.331  1.00  0.00     0.245 C 
ATOM     20  N   UNL A   1      33.726  20.572  24.815  1.00  0.00    -0.250 N 
ATOM     21  O   UNL A   1      35.821  20.437  25.922  1.00  0.00    -0.273 OA
ATOM     22  O   UNL A   1      32.655  24.636  26.413  1.00  0.00    -0.286 OA
ATOM     23  C   UNL A   1      31.746  25.608  24.452  1.00  0.00     0.036 A 
ATOM     24  C   UNL A   1      32.114  25.648  23.113  1.00  0.00     0.036 A 
ATOM     25  O   UNL A   1      33.801  24.628  21.800  1.00  0.00    -0.286 OA
ATOM     26  O   UNL A   1      31.780  21.657  23.979  1.00  0.00    -0.273 OA
ATOM     27  C   UNL A   1      30.659  26.320  24.931  1.00  0.00     0.013 A 
ATOM     28  C   UNL A   1      31.411  26.407  22.194  1.00  0.00     0.013 A 
ATOM     29  C   UNL A   1      29.933  27.088  24.015  1.00  0.00     0.001 A 
ATOM     30  C   UNL A   1      30.309  27.133  22.659  1.00  0.00     0.001 A 
BRANCH  20  31
ATOM     31  C   UNL A   1      33.506  19.202  24.564  1.00  0.00     0.052 A 
ATOM     32  C   UNL A   1      32.368  18.560  25.070  1.00  0.00     0.027 A 
ATOM     33  C   UNL A   1      34.500  18.436  23.942  1.00  0.00     0.027 A 
ATOM     34  C   UNL A   1      32.230  17.176  24.970  1.00  0.00     0.002 A 
ATOM     35  C   UNL A   1      34.379  17.045  23.884  1.00  0.00     0.002 A 
ATOM     36  C   UNL A   1      33.245  16.417  24.395  1.00  0.00     0.000 A 
ENDBRANCH  20  31
ENDBRANCH   6   8
ENDBRANCH   5   6
ENDBRANCH   4   5
ENDBRANCH   3   4
ENDBRANCH   2   3
ENDBRANCH   1   2
BRANCH   1  37
ATOM     37  C   UNL A   1      43.320  21.877  25.490  1.00  0.00     0.261 C 
BRANCH  37  38
ATOM     38  O   UNL A   1      42.855  23.151  25.024  1.00  0.00    -0.460 OA
BRANCH  38  39
ATOM     39  C   UNL A   1      43.746  24.168  25.145  1.00  0.00     0.338 C 
ATOM     40  O   UNL A   1      44.603  24.488  24.339  1.00  0.00    -0.246 OA
BRANCH  39  41
ATOM     41  C   UNL A   1      43.407  24.981  26.332  1.00  0.00     0.060 A 
ATOM     42  C   UNL A   1      43.890  26.280  26.484  1.00  0.00     0.016 A 
ATOM     43  C   UNL A   1      42.558  24.423  27.297  1.00  0.00     0.016 A 
ATOM     44  C   UNL A   1      43.507  27.027  27.601  1.00  0.00     0.010 A 
ATOM     45  C   UNL A   1      42.169  25.173  28.406  1.00  0.00     0.010 A 
ATOM     46  C   UNL A   1      42.625  26.490  28.557  1.00  0.00    -0.014 A 
BRANCH  46  47
ATOM     47  C   UNL A   1      42.060  27.362  29.615  1.00  0.00     0.031 A 
ATOM     48  C   UNL A   1      40.760  28.089  29.441  1.00  0.00     0.074 A 
ATOM     49  C   UNL A   1      42.773  27.523  30.747  1.00  0.00     0.049 A 
ATOM     50  N   UNL A   1      40.122  28.835  30.305  1.00  0.00    -0.248 NA
ATOM     51  C   UNL A   1      40.090  27.974  28.136  1.00  0.00     0.031 C 
ATOM     52  C   UNL A   1      44.086  26.926  31.001  1.00  0.00     0.029 A 
ATOM     53  N   UNL A   1      42.505  28.234  31.889  1.00  0.00    -0.354 N 
ATOM     54  C   UNL A   1      38.985  29.291  29.653  1.00  0.00     0.074 A 
ATOM     55  C   UNL A   1      39.026  28.750  28.311  1.00  0.00     0.031 C 
ATOM     56  C   UNL A   1      44.499  27.277  32.227  1.00  0.00     0.029 A 
ATOM     57  C   UNL A   1      43.495  28.145  32.837  1.00  0.00     0.049 A 
ATOM     58  H   UNL A   1      41.682  28.759  32.017  1.00  0.00     0.167 HD
ATOM     59  C   UNL A   1      37.992  30.073  30.140  1.00  0.00     0.034 A 
ATOM     60  C   UNL A   1      43.593  28.696  34.062  1.00  0.00     0.034 A 
ATOM     61  C   UNL A   1      37.949  30.594  31.481  1.00  0.00     0.049 A 
ATOM     62  C   UNL A   1      42.470  29.543  34.582  1.00  0.00     0.074 A 
ATOM     63  C   UNL A   1      36.940  31.330  32.079  1.00  0.00     0.029 A 
ATOM     64  N   UNL A   1      38.955  30.457  32.423  1.00  0.00    -0.354 N 
ATOM     65  N   UNL A   1      41.335  29.842  34.001  1.00  0.00    -0.248 NA
ATOM     66  C   UNL A   1      42.625  30.106  35.931  1.00  0.00     0.031 C 
ATOM     67  C   UNL A   1      37.346  31.659  33.375  1.00  0.00     0.029 A 
ATOM     68  C   UNL A   1      38.598  31.106  33.592  1.00  0.00     0.049 A 
ATOM     69  H   UNL A   1      39.799  29.970  32.282  1.00  0.00     0.167 HD
ATOM     70  C   UNL A   1      40.631  30.613  34.917  1.00  0.00     0.074 A 
ATOM     71  C   UNL A   1      41.461  30.724  36.098  1.00  0.00     0.031 C 
ATOM     72  C   UNL A   1      39.410  31.183  34.779  1.00  0.00     0.034 A 
BRANCH  59  73
ATOM     73  C   UNL A   1      36.822  30.381  29.246  1.00  0.00     0.023 A 
ATOM     74  C   UNL A   1      36.113  29.317  28.654  1.00  0.00     0.012 A 
ATOM     75  C   UNL A   1      36.345  31.699  29.105  1.00  0.00     0.148 A 
ATOM     76  C   UNL A   1      34.946  29.560  27.931  1.00  0.00     0.002 A 
ATOM     77  C   UNL A   1      35.167  31.930  28.407  1.00  0.00     0.091 A 
ATOM     78  F   UNL A   1      37.040  32.693  29.675  1.00  0.00    -0.205 F 
ATOM     79  C   UNL A   1      34.468  30.863  27.818  1.00  0.00     0.022 A 
BRANCH  77  80
ATOM     80  S   UNL A   1      34.436  33.562  28.240  1.00  0.00     0.127 S 
ATOM     81  O   UNL A   1      33.122  33.239  27.681  1.00  0.00    -0.237 OA
ATOM     82  O   UNL A   1      34.409  34.029  29.625  1.00  0.00    -0.237 OA
ATOM     83  O   UNL A   1      35.315  34.312  27.354  1.00  0.00    -0.744 OA
ENDBRANCH  77  80
ENDBRANCH  59  73
BRANCH  60  84
ATOM     84  C   UNL A   1      44.788  28.394  34.893  1.00  0.00     0.023 A 
ATOM     85  C   UNL A   1      45.914  29.234  34.812  1.00  0.00     0.012 A 
ATOM     86  C   UNL A   1      44.773  27.338  35.824  1.00  0.00     0.148 A 
ATOM     87  C   UNL A   1      47.012  29.024  35.646  1.00  0.00     0.002 A 
ATOM     88  C   UNL A   1      45.855  27.159  36.677  1.00  0.00     0.091 A 
ATOM     89  F   UNL A   1      43.684  26.560  35.882  1.00  0.00    -0.205 F 
ATOM     90  C   UNL A   1      46.978  27.995  36.585  1.00  0.00     0.022 A 
BRANCH  88  91
ATOM     91  S   UNL A   1      45.867  25.923  37.981  1.00  0.00     0.127 S 
ATOM     92  O   UNL A   1      45.222  24.790  37.322  1.00  0.00    -0.237 OA
ATOM     93  O   UNL A   1      47.301  25.762  38.223  1.00  0.00    -0.237 OA
ATOM     94  O   UNL A   1      45.123  26.505  39.089  1.00  0.00    -0.744 OA
ENDBRANCH  88  91
ENDBRANCH  60  84
BRANCH  72  95
ATOM     95  C   UNL A   1      38.863  31.981  35.931  1.00  0.00     0.023 A 
ATOM     96  C   UNL A   1      38.918  33.387  35.886  1.00  0.00     0.012 A 
ATOM     97  C   UNL A   1      38.175  31.343  36.981  1.00  0.00     0.148 A 
ATOM     98  C   UNL A   1      38.296  34.149  36.876  1.00  0.00     0.002 A 
ATOM     99  C   UNL A   1      37.528  32.108  37.944  1.00  0.00     0.091 A 
ATOM    100  F   UNL A   1      38.143  30.003  37.000  1.00  0.00    -0.205 F 
ATOM    101  C   UNL A   1      37.591  33.511  37.894  1.00  0.00     0.022 A 
BRANCH  99 102
ATOM    102  S   UNL A   1      36.540  31.384  39.256  1.00  0.00     0.127 S 
ATOM    103  O   UNL A   1      35.460  32.361  39.390  1.00  0.00    -0.237 OA
ATOM    104  O   UNL A   1      36.137  30.105  38.669  1.00  0.00    -0.237 OA
ATOM    105  O   UNL A   1      37.417  31.275  40.413  1.00  0.00    -0.744 OA
ENDBRANCH  99 102
ENDBRANCH  72  95
ENDBRANCH  46  47
ENDBRANCH  39  41
ENDBRANCH  38  39
ENDBRANCH  37  38
ENDBRANCH   1  37
TORSDOF 18
ENDMDL
MODEL 2
REMARK VINA RESULT:     -12.5      4.871     13.502
REMARK SMILES C[C@]1(C(=O)OCCOCCOC(=O)c2ccc(-c3c4nc(c(-c5cccc(S(=O)(=O)[O-])c5F)c5ccc([nH]5)c(-c5cccc(S(=O)(=O)[O-])c5F)c5nc(c(-c6cccc(S(=O)(=O)[O-])c6F)c6ccc3[nH]6)C=C5)C=C4)cc2)[NH2+]C2(C(=O)c3ccccc3C2=O)[C@@H]2C(=O)N(c3ccccc3)C(=O)[C@H]21
REMARK SMILES IDX 9 1 8 2 7 3 6 4 5 5 3 6 4 7 2 8 1 9 77 10 101 11 78 12 89 15
REMARK SMILES IDX 99 16 79 17 87 18 90 19 92 20 100 21 80 22 81 23 86 24 88 25
REMARK SMILES IDX 91 26 82 27 85 28 83 29 84 30 93 31 94 32 98 33 95 34 97 35
REMARK SMILES IDX 96 36 10 37 11 38 12 39 13 40 14 41 15 42 76 43 16 44 75 45
REMARK SMILES IDX 17 46 18 47 19 48 69 49 20 50 74 51 68 52 70 53 21 54 73 55
REMARK SMILES IDX 67 56 66 57 22 59 54 60 34 61 53 62 35 63 38 64 52 65 71 66
REMARK SMILES IDX 36 67 37 68 51 70 72 71 39 72 23 73 24 74 32 75 25 76 27 77
REMARK SMILES IDX 33 78 26 79 28 80 29 81 30 82 31 83 55 84 56 85 64 86 57 87
REMARK SMILES IDX 59 88 65 89 58 90 60 91 61 92 62 93 63 94 40 95 41 96 49 97
REMARK SMILES IDX 42 98 44 99 50 100 43 101 45 102 46 103 47 104 48 105
REMARK H PARENT 77 13 77 14 70 58 38 69
REMARK Flexibility Score: inf
ROOT
ATOM      1  C   UNL A   1      50.362  26.029  37.809  1.00  0.00     0.202 C 
ENDROOT
BRANCH   1   2
ATOM      2  O   UNL A   1      50.260  24.905  38.681  1.00  0.00    -0.374 OA
BRANCH   2   3
ATOM      3  C   UNL A   1      49.681  23.709  38.163  1.00  0.00     0.202 C 
BRANCH   3   4
ATOM      4  C   UNL A   1      49.914  23.397  36.684  1.00  0.00     0.261 C 
BRANCH   4   5
ATOM      5  O   UNL A   1      49.674  22.014  36.390  1.00  0.00    -0.459 OA
BRANCH   5   6
ATOM      6  C   UNL A   1      48.919  21.760  35.287  1.00  0.00     0.368 C 
ATOM      7  O   UNL A   1      49.094  22.286  34.194  1.00  0.00    -0.245 OA
BRANCH   6   8
ATOM      8  C   UNL A   1      47.796  20.722  35.571  1.00  0.00     0.205 C 
ATOM      9  C   UNL A   1      47.414  20.087  34.231  1.00  0.00     0.093 C 
ATOM     10  N   UNL A   1      48.191  19.610  36.547  1.00  0.00    -0.313 N 
ATOM     11  C   UNL A   1      46.641  21.368  36.284  1.00  0.00     0.172 C 
ATOM     12  C   UNL A   1      47.439  19.850  37.854  1.00  0.00     0.237 C 
ATOM     13  H   UNL A   1      49.197  19.636  36.714  1.00  0.00     0.348 HD
ATOM     14  H   UNL A   1      47.954  18.695  36.162  1.00  0.00     0.348 HD
ATOM     15  C   UNL A   1      47.096  21.292  37.731  1.00  0.00     0.177 C 
ATOM     16  C   UNL A   1      46.271  22.805  36.188  1.00  0.00     0.244 C 
ATOM     17  C   UNL A   1      46.277  18.870  38.015  1.00  0.00     0.232 C 
ATOM     18  C   UNL A   1      48.324  19.528  39.053  1.00  0.00     0.232 C 
ATOM     19  C   UNL A   1      46.050  22.122  38.377  1.00  0.00     0.245 C 
ATOM     20  N   UNL A   1      45.849  23.158  37.467  1.00  0.00    -0.250 N 
ATOM     21  O   UNL A   1      46.304  23.451  35.156  1.00  0.00    -0.273 OA
ATOM     22  O   UNL A   1      45.347  18.695  37.245  1.00  0.00    -0.286 OA
ATOM     23  C   UNL A   1      46.508  18.066  39.214  1.00  0.00     0.036 A 
ATOM     24  C   UNL A   1      47.709  18.433  39.807  1.00  0.00     0.036 A 
ATOM     25  O   UNL A   1      49.365  20.072  39.380  1.00  0.00    -0.286 OA
ATOM     26  O   UNL A   1      45.597  21.930  39.490  1.00  0.00    -0.273 OA
ATOM     27  C   UNL A   1      45.722  17.048  39.727  1.00  0.00     0.013 A 
ATOM     28  C   UNL A   1      48.179  17.793  40.940  1.00  0.00     0.013 A 
ATOM     29  C   UNL A   1      46.179  16.394  40.876  1.00  0.00     0.001 A 
ATOM     30  C   UNL A   1      47.399  16.762  41.475  1.00  0.00     0.001 A 
BRANCH  20  31
ATOM     31  C   UNL A   1      45.453  24.470  37.795  1.00  0.00     0.052 A 
ATOM     32  C   UNL A   1      46.229  25.252  38.662  1.00  0.00     0.027 A 
ATOM     33  C   UNL A   1      44.202  24.948  37.384  1.00  0.00     0.027 A 
ATOM     34  C   UNL A   1      45.760  26.482  39.122  1.00  0.00     0.002 A 
ATOM     35  C   UNL A   1      43.716  26.159  37.884  1.00  0.00     0.002 A 
ATOM     36  C   UNL A   1      44.495  26.926  38.749  1.00  0.00     0.000 A 
ENDBRANCH  20  31
ENDBRANCH   6   8
ENDBRANCH   5   6
ENDBRANCH   4   5
ENDBRANCH   3   4
ENDBRANCH   2   3
ENDBRANCH   1   2
BRANCH   1  37
ATOM     37  C   UNL A   1      49.259  27.093  37.858  1.00  0.00     0.261 C 
BRANCH  37  38
ATOM     38  O   UNL A   1      48.377  27.045  36.728  1.00  0.00    -0.460 OA
BRANCH  38  39
ATOM     39  C   UNL A   1      48.485  28.092  35.870  1.00  0.00     0.338 C 
ATOM     40  O   UNL A   1      49.482  28.762  35.658  1.00  0.00    -0.246 OA
BRANCH  39  41
ATOM     41  C   UNL A   1      47.253  28.197  35.063  1.00  0.00     0.060 A 
ATOM     42  C   UNL A   1      46.172  27.341  35.272  1.00  0.00     0.016 A 
ATOM     43  C   UNL A   1      47.180  29.205  34.092  1.00  0.00     0.016 A 
ATOM     44  C   UNL A   1      45.010  27.506  34.516  1.00  0.00     0.010 A 
ATOM     45  C   UNL A   1      46.015  29.375  33.343  1.00  0.00     0.010 A 
ATOM     46  C   UNL A   1      44.913  28.538  33.564  1.00  0.00    -0.014 A 
BRANCH  46  47
ATOM     47  C   UNL A   1      43.606  28.836  32.926  1.00  0.00     0.031 A 
ATOM     48  C   UNL A   1      42.545  29.636  33.618  1.00  0.00     0.074 A 
ATOM     49  C   UNL A   1      43.374  28.329  31.699  1.00  0.00     0.049 A 
ATOM     50  N   UNL A   1      41.383  30.020  33.155  1.00  0.00    -0.248 NA
ATOM     51  C   UNL A   1      42.807  30.055  35.003  1.00  0.00     0.031 C 
ATOM     52  C   UNL A   1      44.303  27.473  30.957  1.00  0.00     0.029 A 
ATOM     53  N   UNL A   1      42.293  28.449  30.864  1.00  0.00    -0.354 N 
ATOM     54  C   UNL A   1      40.768  30.714  34.188  1.00  0.00     0.074 A 
ATOM     55  C   UNL A   1      41.679  30.685  35.313  1.00  0.00     0.031 C 
ATOM     56  C   UNL A   1      43.763  27.164  29.770  1.00  0.00     0.029 A 
ATOM     57  C   UNL A   1      42.440  27.775  29.675  1.00  0.00     0.049 A 
ATOM     58  H   UNL A   1      41.488  28.968  31.094  1.00  0.00     0.167 HD
ATOM     59  C   UNL A   1      39.563  31.331  34.187  1.00  0.00     0.034 A 
ATOM     60  C   UNL A   1      41.608  27.657  28.623  1.00  0.00     0.034 A 
ATOM     61  C   UNL A   1      38.669  31.370  33.059  1.00  0.00     0.049 A 
ATOM     62  C   UNL A   1      40.288  28.366  28.642  1.00  0.00     0.074 A 
ATOM     63  C   UNL A   1      37.462  32.042  32.949  1.00  0.00     0.029 A 
ATOM     64  N   UNL A   1      38.864  30.702  31.862  1.00  0.00    -0.354 N 
ATOM     65  N   UNL A   1      39.788  29.139  29.574  1.00  0.00    -0.248 NA
ATOM     66  C   UNL A   1      39.427  28.213  27.459  1.00  0.00     0.031 C 
ATOM     67  C   UNL A   1      36.917  31.759  31.694  1.00  0.00     0.029 A 
ATOM     68  C   UNL A   1      37.797  30.933  31.012  1.00  0.00     0.049 A 
ATOM     69  H   UNL A   1      39.648  30.147  31.647  1.00  0.00     0.167 HD
ATOM     70  C   UNL A   1      38.564  29.579  29.087  1.00  0.00     0.074 A 
ATOM     71  C   UNL A   1      38.403  28.999  27.770  1.00  0.00     0.031 C 
ATOM     72  C   UNL A   1      37.656  30.384  29.688  1.00  0.00     0.034 A 
BRANCH  59  73
ATOM     73  C   UNL A   1      39.141  32.077  35.423  1.00  0.00     0.023 A 
ATOM     74  C   UNL A   1      39.274  33.480  35.456  1.00  0.00     0.012 A 
ATOM     75  C   UNL A   1      38.494  31.414  36.484  1.00  0.00     0.148 A 
ATOM     76  C   UNL A   1      38.770  34.213  36.529  1.00  0.00     0.002 A 
ATOM     77  C   UNL A   1      37.970  32.155  37.537  1.00  0.00     0.091 A 
ATOM     78  F   UNL A   1      38.384  30.080  36.429  1.00  0.00    -0.205 F 
ATOM     79  C   UNL A   1      38.109  33.553  37.562  1.00  0.00     0.022 A 
BRANCH  77  80
ATOM     80  S   UNL A   1      37.059  31.411  38.894  1.00  0.00     0.127 S 
ATOM     81  O   UNL A   1      35.846  32.229  38.916  1.00  0.00    -0.237 OA
ATOM     82  O   UNL A   1      36.862  30.042  38.417  1.00  0.00    -0.237 OA
ATOM     83  O   UNL A   1      37.908  31.536  40.070  1.00  0.00    -0.744 OA
ENDBRANCH  77  80
ENDBRANCH  59  73
BRANCH  60  84
ATOM     84  C   UNL A   1      42.054  26.875  27.439  1.00  0.00     0.023 A 
ATOM     85  C   UNL A   1      42.776  27.522  26.418  1.00  0.00     0.012 A 
ATOM     86  C   UNL A   1      41.846  25.485  27.369  1.00  0.00     0.148 A 
ATOM     87  C   UNL A   1      43.282  26.794  25.342  1.00  0.00     0.002 A 
ATOM     88  C   UNL A   1      42.385  24.761  26.314  1.00  0.00     0.091 A 
ATOM     89  F   UNL A   1      41.160  24.898  28.359  1.00  0.00    -0.205 F 
ATOM     90  C   UNL A   1      43.096  25.414  25.295  1.00  0.00     0.022 A 
BRANCH  88  91
ATOM     91  S   UNL A   1      42.281  22.970  26.213  1.00  0.00     0.127 S 
ATOM     92  O   UNL A   1      43.036  22.562  27.395  1.00  0.00    -0.237 OA
ATOM     93  O   UNL A   1      40.837  22.752  26.297  1.00  0.00    -0.237 OA
ATOM     94  O   UNL A   1      42.879  22.608  24.935  1.00  0.00    -0.744 OA
ENDBRANCH  88  91
ENDBRANCH  60  84
BRANCH  72  95
ATOM     95  C   UNL A   1      36.392  30.715  28.942  1.00  0.00     0.023 A 
ATOM     96  C   UNL A   1      35.576  29.671  28.469  1.00  0.00     0.012 A 
ATOM     97  C   UNL A   1      35.951  32.048  28.837  1.00  0.00     0.148 A 
ATOM     98  C   UNL A   1      34.335  29.950  27.897  1.00  0.00     0.002 A 
ATOM     99  C   UNL A   1      34.699  32.317  28.298  1.00  0.00     0.091 A 
ATOM    100  F   UNL A   1      36.752  33.022  29.293  1.00  0.00    -0.205 F 
ATOM    101  C   UNL A   1      33.891  31.270  27.824  1.00  0.00     0.022 A 
BRANCH  99 102
ATOM    102  S   UNL A   1      34.011  33.974  28.222  1.00  0.00     0.127 S 
ATOM    103  O   UNL A   1      34.965  34.653  27.345  1.00  0.00    -0.237 OA
ATOM    104  O   UNL A   1      32.696  33.734  27.625  1.00  0.00    -0.237 OA
ATOM    105  O   UNL A   1      33.979  34.464  29.593  1.00  0.00    -0.744 OA
ENDBRANCH  99 102
ENDBRANCH  72  95
ENDBRANCH  46  47
ENDBRANCH  39  41
ENDBRANCH  38  39
ENDBRANCH  37  38
ENDBRANCH   1  37
TORSDOF 18
ENDMDL
MODEL 3
REMARK VINA RESULT:     -12.3      4.734      5.700
REMARK SMILES C[C@]1(C(=O)OCCOCCOC(=O)c2ccc(-c3c4nc(c(-c5cccc(S(=O)(=O)[O-])c5F)c5ccc([nH]5)c(-c5cccc(S(=O)(=O)[O-])c5F)c5nc(c(-c6cccc(S(=O)(=O)[O-])c6F)c6ccc3[nH]6)C=C5)C=C4)cc2)[NH2+]C2(C(=O)c3ccccc3C2=O)[C@@H]2C(=O)N(c3ccccc3)C(=O)[C@H]21
REMARK SMILES IDX 9 1 8 2 7 3 6 4 5 5 3 6 4 7 2 8 1 9 77 10 101 11 78 12 89 15
REMARK SMILES IDX 99 16 79 17 87 18 90 19 92 20 100 21 80 22 81 23 86 24 88 25
REMARK SMILES IDX 91 26 82 27 85 28 83 29 84 30 93 31 94 32 98 33 95 34 97 35
REMARK SMILES IDX 96 36 10 37 11 38 12 39 13 40 14 41 15 42 76 43 16 44 75 45
REMARK SMILES IDX 17 46 18 47 19 48 69 49 20 50 74 51 68 52 70 53 21 54 73 55
REMARK SMILES IDX 67 56 66 57 22 59 54 60 34 61 53 62 35 63 38 64 52 65 71 66
REMARK SMILES IDX 36 67 37 68 51 70 72 71 39 72 23 73 24 74 32 75 25 76 27 77
REMARK SMILES IDX 33 78 26 79 28 80 29 81 30 82 31 83 55 84 56 85 64 86 57 87
REMARK SMILES IDX 59 88 65 89 58 90 60 91 61 92 62 93 63 94 40 95 41 96 49 97
REMARK SMILES IDX 42 98 44 99 50 100 43 101 45 102 46 103 47 104 48 105
REMARK H PARENT 77 13 77 14 70 58 38 69
REMARK Flexibility Score: inf
ROOT
ATOM      1  C   UNL A   1      41.684  20.974  26.908  1.00  0.00     0.202 C 
ENDROOT
BRANCH   1   2
ATOM      2  O   UNL A   1      40.420  20.662  26.327  1.00  0.00    -0.374 OA
BRANCH   2   3
ATOM      3  C   UNL A   1      39.402  21.660  26.369  1.00  0.00     0.202 C 
BRANCH   3   4
ATOM      4  C   UNL A   1      38.294  21.581  25.318  1.00  0.00     0.261 C 
BRANCH   4   5
ATOM      5  O   UNL A   1      37.918  22.883  24.846  1.00  0.00    -0.459 OA
BRANCH   5   6
ATOM      6  C   UNL A   1      36.709  22.968  24.226  1.00  0.00     0.368 C 
ATOM      7  O   UNL A   1      36.480  22.542  23.100  1.00  0.00    -0.245 OA
BRANCH   6   8
ATOM      8  C   UNL A   1      35.644  23.676  25.111  1.00  0.00     0.205 C 
ATOM      9  C   UNL A   1      36.349  24.138  26.389  1.00  0.00     0.093 C 
ATOM     10  N   UNL A   1      34.976  24.886  24.453  1.00  0.00    -0.313 N 
ATOM     11  C   UNL A   1      34.471  22.769  25.361  1.00  0.00     0.172 C 
ATOM     12  C   UNL A   1      33.536  24.499  24.122  1.00  0.00     0.237 C 
ATOM     13  H   UNL A   1      35.474  25.137  23.599  1.00  0.00     0.348 HD
ATOM     14  H   UNL A   1      34.993  25.690  25.081  1.00  0.00     0.348 HD
ATOM     15  C   UNL A   1      33.627  23.015  24.123  1.00  0.00     0.177 C 
ATOM     16  C   UNL A   1      34.524  21.283  25.366  1.00  0.00     0.244 C 
ATOM     17  C   UNL A   1      32.550  25.137  25.099  1.00  0.00     0.232 C 
ATOM     18  C   UNL A   1      33.114  25.088  22.780  1.00  0.00     0.232 C 
ATOM     19  C   UNL A   1      32.600  21.959  24.294  1.00  0.00     0.245 C 
ATOM     20  N   UNL A   1      33.327  20.875  24.785  1.00  0.00    -0.250 N 
ATOM     21  O   UNL A   1      35.434  20.634  25.852  1.00  0.00    -0.273 OA
ATOM     22  O   UNL A   1      32.542  25.030  26.315  1.00  0.00    -0.286 OA
ATOM     23  C   UNL A   1      31.652  26.016  24.351  1.00  0.00     0.036 A 
ATOM     24  C   UNL A   1      31.993  26.005  23.005  1.00  0.00     0.036 A 
ATOM     25  O   UNL A   1      33.586  24.855  21.680  1.00  0.00    -0.286 OA
ATOM     26  O   UNL A   1      31.434  22.061  23.964  1.00  0.00    -0.273 OA
ATOM     27  C   UNL A   1      30.622  26.803  24.836  1.00  0.00     0.013 A 
ATOM     28  C   UNL A   1      31.319  26.786  22.083  1.00  0.00     0.013 A 
ATOM     29  C   UNL A   1      29.925  27.595  23.918  1.00  0.00     0.001 A 
ATOM     30  C   UNL A   1      30.273  27.588  22.553  1.00  0.00     0.001 A 
BRANCH  20  31
ATOM     31  C   UNL A   1      33.019  19.517  24.568  1.00  0.00     0.052 A 
ATOM     32  C   UNL A   1      32.776  18.661  25.651  1.00  0.00     0.027 A 
ATOM     33  C   UNL A   1      33.108  18.975  23.280  1.00  0.00     0.027 A 
ATOM     34  C   UNL A   1      32.638  17.287  25.455  1.00  0.00     0.002 A 
ATOM     35  C   UNL A   1      33.015  17.593  23.093  1.00  0.00     0.002 A 
ATOM     36  C   UNL A   1      32.777  16.752  24.178  1.00  0.00     0.000 A 
ENDBRANCH  20  31
ENDBRANCH   6   8
ENDBRANCH   5   6
ENDBRANCH   4   5
ENDBRANCH   3   4
ENDBRANCH   2   3
ENDBRANCH   1   2
BRANCH   1  37
ATOM     37  C   UNL A   1      42.931  20.912  26.018  1.00  0.00     0.261 C 
BRANCH  37  38
ATOM     38  O   UNL A   1      43.764  22.074  26.131  1.00  0.00    -0.460 OA
BRANCH  38  39
ATOM     39  C   UNL A   1      43.498  23.061  25.237  1.00  0.00     0.338 C 
ATOM     40  O   UNL A   1      43.268  22.926  24.048  1.00  0.00    -0.246 OA
BRANCH  39  41
ATOM     41  C   UNL A   1      43.331  24.343  25.953  1.00  0.00     0.060 A 
ATOM     42  C   UNL A   1      43.503  24.431  27.334  1.00  0.00     0.016 A 
ATOM     43  C   UNL A   1      43.023  25.486  25.203  1.00  0.00     0.016 A 
ATOM     44  C   UNL A   1      43.379  25.673  27.962  1.00  0.00     0.010 A 
ATOM     45  C   UNL A   1      42.909  26.726  25.831  1.00  0.00     0.010 A 
ATOM     46  C   UNL A   1      43.106  26.833  27.214  1.00  0.00    -0.014 A 
BRANCH  46  47
ATOM     47  C   UNL A   1      43.191  28.166  27.859  1.00  0.00     0.031 A 
ATOM     48  C   UNL A   1      41.995  28.839  28.460  1.00  0.00     0.074 A 
ATOM     49  C   UNL A   1      44.385  28.791  27.859  1.00  0.00     0.049 A 
ATOM     50  N   UNL A   1      41.939  29.976  29.106  1.00  0.00    -0.248 NA
ATOM     51  C   UNL A   1      40.695  28.165  28.318  1.00  0.00     0.031 C 
ATOM     52  C   UNL A   1      45.604  28.268  27.238  1.00  0.00     0.029 A 
ATOM     53  N   UNL A   1      44.772  29.996  28.387  1.00  0.00    -0.354 N 
ATOM     54  C   UNL A   1      40.605  30.163  29.439  1.00  0.00     0.074 A 
ATOM     55  C   UNL A   1      39.877  29.029  28.908  1.00  0.00     0.031 C 
ATOM     56  C   UNL A   1      46.607  29.134  27.439  1.00  0.00     0.029 A 
ATOM     57  C   UNL A   1      46.099  30.286  28.179  1.00  0.00     0.049 A 
ATOM     58  H   UNL A   1      44.158  30.596  28.869  1.00  0.00     0.167 HD
ATOM     59  C   UNL A   1      40.046  31.180  30.138  1.00  0.00     0.034 A 
ATOM     60  C   UNL A   1      46.833  31.357  28.539  1.00  0.00     0.034 A 
ATOM     61  C   UNL A   1      40.778  32.296  30.678  1.00  0.00     0.049 A 
ATOM     62  C   UNL A   1      46.192  32.459  29.328  1.00  0.00     0.074 A 
ATOM     63  C   UNL A   1      40.300  33.329  31.466  1.00  0.00     0.029 A 
ATOM     64  N   UNL A   1      42.125  32.540  30.472  1.00  0.00    -0.354 N 
ATOM     65  N   UNL A   1      44.958  32.546  29.758  1.00  0.00    -0.248 NA
ATOM     66  C   UNL A   1      47.044  33.596  29.706  1.00  0.00     0.031 C 
ATOM     67  C   UNL A   1      41.354  34.211  31.718  1.00  0.00     0.029 A 
ATOM     68  C   UNL A   1      42.494  33.714  31.107  1.00  0.00     0.049 A 
ATOM     69  H   UNL A   1      42.732  31.964  29.954  1.00  0.00     0.167 HD
ATOM     70  C   UNL A   1      44.887  33.736  30.471  1.00  0.00     0.074 A 
ATOM     71  C   UNL A   1      46.207  34.330  30.429  1.00  0.00     0.031 C 
ATOM     72  C   UNL A   1      43.817  34.284  31.094  1.00  0.00     0.034 A 
BRANCH  59  73
ATOM     73  C   UNL A   1      38.570  31.123  30.425  1.00  0.00     0.023 A 
ATOM     74  C   UNL A   1      38.116  30.392  31.540  1.00  0.00     0.012 A 
ATOM     75  C   UNL A   1      37.658  31.898  29.682  1.00  0.00     0.148 A 
ATOM     76  C   UNL A   1      36.774  30.429  31.912  1.00  0.00     0.002 A 
ATOM     77  C   UNL A   1      36.326  31.952  30.075  1.00  0.00     0.091 A 
ATOM     78  F   UNL A   1      38.115  32.581  28.624  1.00  0.00    -0.205 F 
ATOM     79  C   UNL A   1      35.882  31.217  31.187  1.00  0.00     0.022 A 
BRANCH  77  80
ATOM     80  S   UNL A   1      35.104  32.971  29.242  1.00  0.00     0.127 S 
ATOM     81  O   UNL A   1      33.911  32.714  30.048  1.00  0.00    -0.237 OA
ATOM     82  O   UNL A   1      35.667  34.312  29.397  1.00  0.00    -0.237 OA
ATOM     83  O   UNL A   1      35.038  32.487  27.871  1.00  0.00    -0.744 OA
ENDBRANCH  77  80
ENDBRANCH  59  73
BRANCH  60  84
ATOM     84  C   UNL A   1      48.279  31.385  28.198  1.00  0.00     0.023 A 
ATOM     85  C   UNL A   1      48.704  32.078  27.049  1.00  0.00     0.012 A 
ATOM     86  C   UNL A   1      49.236  30.808  29.055  1.00  0.00     0.148 A 
ATOM     87  C   UNL A   1      50.063  32.195  26.757  1.00  0.00     0.002 A 
ATOM     88  C   UNL A   1      50.589  30.961  28.777  1.00  0.00     0.091 A 
ATOM     89  F   UNL A   1      48.801  30.160  30.143  1.00  0.00    -0.205 F 
ATOM     90  C   UNL A   1      51.004  31.646  27.625  1.00  0.00     0.022 A 
BRANCH  88  91
ATOM     91  S   UNL A   1      51.878  30.373  29.882  1.00  0.00     0.127 S 
ATOM     92  O   UNL A   1      51.679  28.927  29.827  1.00  0.00    -0.237 OA
ATOM     93  O   UNL A   1      53.085  30.856  29.211  1.00  0.00    -0.237 OA
ATOM     94  O   UNL A   1      51.609  30.991  31.173  1.00  0.00    -0.744 OA
ENDBRANCH  88  91
ENDBRANCH  60  84
BRANCH  72  95
ATOM     95  C   UNL A   1      44.001  35.597  31.804  1.00  0.00     0.023 A 
ATOM     96  C   UNL A   1      44.351  35.604  33.167  1.00  0.00     0.012 A 
ATOM     97  C   UNL A   1      43.966  36.809  31.087  1.00  0.00     0.148 A 
ATOM     98  C   UNL A   1      44.661  36.802  33.810  1.00  0.00     0.002 A 
ATOM     99  C   UNL A   1      44.310  37.995  31.725  1.00  0.00     0.091 A 
ATOM    100  F   UNL A   1      43.625  36.773  29.791  1.00  0.00    -0.205 F 
ATOM    101  C   UNL A   1      44.654  37.993  33.086  1.00  0.00     0.022 A 
BRANCH  99 102
ATOM    102  S   UNL A   1      44.396  39.569  30.865  1.00  0.00     0.127 S 
ATOM    103  O   UNL A   1      43.113  39.597  30.164  1.00  0.00    -0.237 OA
ATOM    104  O   UNL A   1      44.507  40.519  31.973  1.00  0.00    -0.237 OA
ATOM    105  O   UNL A   1      45.566  39.498  30.002  1.00  0.00    -0.744 OA
ENDBRANCH  99 102
ENDBRANCH  72  95
ENDBRANCH  46  47
ENDBRANCH  39  41
ENDBRANCH  38  39
ENDBRANCH  37  38
ENDBRANCH   1  37
TORSDOF 18
ENDMDL
