MODEL 1
REMARK VINA RESULT:     -10.1      0.000      0.000
REMARK SMILES Cn1ncc2c(NCCC3=CCCCC3)c(C(=O)OCCOCCOC(=O)c3ccc(-c4c5nc(c(-c6cccc(S(=O)(=O)[O-])c6F)c6ccc([nH]6)c(-c6cccc(S(=O)(=O)[O-])c6F)c6nc(c(-c7cccc(S(=O)(=O)[O-])c7F)c7ccc4[nH]7)C=C6)C=C5)cc3)cnc21
REMARK SMILES IDX 21 1 20 2 19 3 17 4 18 5 16 6 1 7 2 8 3 9 93 10 4 11 5 12
REMARK SMILES IDX 92 13 6 14 91 15 7 16 8 18 9 19 10 20 11 21 15 22 12 23
REMARK SMILES IDX 14 24 13 25 22 26 23 27 24 28 25 29 26 30 27 31 28 32 29 33
REMARK SMILES IDX 90 34 30 35 89 36 31 37 32 38 33 39 83 40 34 41 88 42 82 43
REMARK SMILES IDX 84 44 35 45 87 46 81 47 80 48 36 50 68 51 48 52 67 53 49 54
REMARK SMILES IDX 52 55 66 56 85 57 50 58 51 59 65 61 86 62 53 63 37 64 38 65
REMARK SMILES IDX 46 66 39 67 41 68 47 69 40 70 42 71 43 72 44 73 45 74 69 75
REMARK SMILES IDX 70 76 78 77 71 78 73 79 79 80 72 81 74 82 75 83 76 84 77 85
REMARK SMILES IDX 54 86 55 87 63 88 56 89 58 90 64 91 57 92 59 93 60 94 61 95
REMARK SMILES IDX 62 96
REMARK H PARENT 7 17 84 49 52 60
REMARK Flexibility Score: inf
ROOT
ATOM      1  C   UNL A   1      39.956  20.282  26.126  1.00  0.00     0.202 C 
ENDROOT
BRANCH   1   2
ATOM      2  C   UNL A   1      39.399  21.664  25.751  1.00  0.00     0.261 C 
BRANCH   2   3
ATOM      3  O   UNL A   1      38.104  21.966  26.330  1.00  0.00    -0.460 OA
BRANCH   3   4
ATOM      4  C   UNL A   1      37.231  22.569  25.474  1.00  0.00     0.341 C 
ATOM      5  O   UNL A   1      37.441  23.650  24.946  1.00  0.00    -0.246 OA
BRANCH   4   6
ATOM      6  C   UNL A   1      36.070  21.700  25.082  1.00  0.00     0.102 A 
ATOM      7  C   UNL A   1      32.684  17.792  25.032  1.00  0.00     0.176 C 
ATOM      8  N   UNL A   1      32.879  19.215  24.956  1.00  0.00    -0.250 N 
ATOM      9  N   UNL A   1      31.784  19.997  25.001  1.00  0.00    -0.179 NA
ATOM     10  C   UNL A   1      34.061  19.910  24.908  1.00  0.00     0.159 A 
ATOM     11  C   UNL A   1      32.296  21.225  24.977  1.00  0.00     0.147 A 
ATOM     12  C   UNL A   1      33.713  21.257  24.946  1.00  0.00     0.063 A 
ATOM     13  N   UNL A   1      35.306  19.392  24.845  1.00  0.00    -0.236 NA
ATOM     14  C   UNL A   1      34.742  22.233  24.954  1.00  0.00     0.063 A 
ATOM     15  C   UNL A   1      36.279  20.333  24.940  1.00  0.00     0.131 A 
BRANCH  14  16
ATOM     16  N   UNL A   1      34.518  23.591  24.786  1.00  0.00    -0.383 N 
ATOM     17  H   UNL A   1      34.881  23.979  23.957  1.00  0.00     0.160 HD
BRANCH  16  18
ATOM     18  C   UNL A   1      33.820  24.527  25.662  1.00  0.00     0.117 C 
BRANCH  18  19
ATOM     19  C   UNL A   1      34.427  25.935  25.545  1.00  0.00     0.052 C 
BRANCH  19  20
ATOM     20  C   UNL A   1      33.344  26.943  25.246  1.00  0.00    -0.072 C 
ATOM     21  C   UNL A   1      33.654  28.240  25.081  1.00  0.00    -0.028 C 
ATOM     22  C   UNL A   1      31.947  26.424  25.045  1.00  0.00     0.031 C 
ATOM     23  C   UNL A   1      32.712  29.269  24.555  1.00  0.00     0.027 C 
ATOM     24  C   UNL A   1      31.031  27.411  24.317  1.00  0.00     0.005 C 
ATOM     25  C   UNL A   1      31.265  28.851  24.771  1.00  0.00     0.004 C 
ENDBRANCH  19  20
ENDBRANCH  18  19
ENDBRANCH  16  18
ENDBRANCH  14  16
ENDBRANCH   4   6
ENDBRANCH   3   4
ENDBRANCH   2   3
ENDBRANCH   1   2
BRANCH   1  26
ATOM     26  O   UNL A   1      40.853  20.101  27.220  1.00  0.00    -0.374 OA
BRANCH  26  27
ATOM     27  C   UNL A   1      42.241  19.923  26.970  1.00  0.00     0.202 C 
BRANCH  27  28
ATOM     28  C   UNL A   1      43.017  20.762  25.968  1.00  0.00     0.261 C 
BRANCH  28  29
ATOM     29  O   UNL A   1      42.716  22.136  26.082  1.00  0.00    -0.460 OA
BRANCH  29  30
ATOM     30  C   UNL A   1      43.487  22.783  26.979  1.00  0.00     0.338 C 
ATOM     31  O   UNL A   1      44.694  23.049  26.888  1.00  0.00    -0.246 OA
BRANCH  30  32
ATOM     32  C   UNL A   1      42.643  23.131  28.112  1.00  0.00     0.060 A 
ATOM     33  C   UNL A   1      41.331  23.528  27.874  1.00  0.00     0.016 A 
ATOM     34  C   UNL A   1      43.369  23.772  29.096  1.00  0.00     0.016 A 
ATOM     35  C   UNL A   1      41.042  24.873  28.169  1.00  0.00     0.010 A 
ATOM     36  C   UNL A   1      42.865  24.970  29.509  1.00  0.00     0.010 A 
ATOM     37  C   UNL A   1      42.102  25.720  28.612  1.00  0.00    -0.014 A 
BRANCH  37  38
ATOM     38  C   UNL A   1      42.064  27.214  29.064  1.00  0.00     0.031 A 
ATOM     39  C   UNL A   1      43.466  27.680  28.242  1.00  0.00     0.074 A 
ATOM     40  C   UNL A   1      41.071  27.947  29.887  1.00  0.00     0.049 A 
ATOM     41  N   UNL A   1      44.657  27.508  28.763  1.00  0.00    -0.248 NA
ATOM     42  C   UNL A   1      43.731  27.724  26.719  1.00  0.00     0.031 C 
ATOM     43  C   UNL A   1      39.731  27.677  30.687  1.00  0.00     0.029 A 
ATOM     44  N   UNL A   1      41.073  29.313  30.302  1.00  0.00    -0.354 N 
ATOM     45  C   UNL A   1      45.560  28.122  27.885  1.00  0.00     0.074 A 
ATOM     46  C   UNL A   1      45.055  27.909  26.590  1.00  0.00     0.031 C 
ATOM     47  C   UNL A   1      39.030  28.833  31.022  1.00  0.00     0.029 A 
ATOM     48  C   UNL A   1      39.828  29.995  30.687  1.00  0.00     0.049 A 
ATOM     49  H   UNL A   1      41.924  29.807  30.330  1.00  0.00     0.167 HD
ATOM     50  C   UNL A   1      46.317  29.150  28.343  1.00  0.00     0.034 A 
ATOM     51  C   UNL A   1      39.640  31.339  31.087  1.00  0.00     0.034 A 
ATOM     52  C   UNL A   1      46.255  29.110  29.780  1.00  0.00     0.049 A 
ATOM     53  C   UNL A   1      41.029  31.854  31.236  1.00  0.00     0.074 A 
ATOM     54  C   UNL A   1      46.561  28.136  30.712  1.00  0.00     0.029 A 
ATOM     55  N   UNL A   1      45.171  29.799  30.249  1.00  0.00    -0.354 N 
ATOM     56  N   UNL A   1      41.778  31.430  32.221  1.00  0.00    -0.248 NA
ATOM     57  C   UNL A   1      41.674  32.153  29.956  1.00  0.00     0.031 C 
ATOM     58  C   UNL A   1      45.470  28.113  31.628  1.00  0.00     0.029 A 
ATOM     59  C   UNL A   1      44.650  29.201  31.357  1.00  0.00     0.049 A 
ATOM     60  H   UNL A   1      44.813  30.620  29.840  1.00  0.00     0.167 HD
ATOM     61  C   UNL A   1      42.879  30.899  31.573  1.00  0.00     0.074 A 
ATOM     62  C   UNL A   1      42.761  31.390  30.156  1.00  0.00     0.031 C 
ATOM     63  C   UNL A   1      43.507  29.754  32.022  1.00  0.00     0.034 A 
BRANCH  50  64
ATOM     64  C   UNL A   1      46.614  30.431  27.588  1.00  0.00     0.023 A 
ATOM     65  C   UNL A   1      47.935  30.904  27.690  1.00  0.00     0.012 A 
ATOM     66  C   UNL A   1      45.660  31.302  26.993  1.00  0.00     0.148 A 
ATOM     67  C   UNL A   1      48.318  32.135  27.151  1.00  0.00     0.002 A 
ATOM     68  C   UNL A   1      46.035  32.554  26.502  1.00  0.00     0.091 A 
ATOM     69  F   UNL A   1      44.370  30.954  26.953  1.00  0.00    -0.205 F 
ATOM     70  C   UNL A   1      47.371  32.960  26.557  1.00  0.00     0.022 A 
BRANCH  68  71
ATOM     71  S   UNL A   1      44.846  33.753  25.858  1.00  0.00     0.127 S 
ATOM     72  O   UNL A   1      44.244  33.008  24.755  1.00  0.00    -0.237 OA
ATOM     73  O   UNL A   1      43.972  33.957  27.013  1.00  0.00    -0.237 OA
ATOM     74  O   UNL A   1      45.626  34.921  25.473  1.00  0.00    -0.744 OA
ENDBRANCH  68  71
ENDBRANCH  50  64
BRANCH  51  75
ATOM     75  C   UNL A   1      38.547  32.367  30.680  1.00  0.00     0.023 A 
ATOM     76  C   UNL A   1      38.033  32.647  29.363  1.00  0.00     0.012 A 
ATOM     77  C   UNL A   1      37.763  32.841  31.736  1.00  0.00     0.148 A 
ATOM     78  C   UNL A   1      36.743  33.233  29.167  1.00  0.00     0.002 A 
ATOM     79  C   UNL A   1      36.519  33.443  31.542  1.00  0.00     0.091 A 
ATOM     80  F   UNL A   1      38.207  32.613  32.973  1.00  0.00    -0.205 F 
ATOM     81  C   UNL A   1      35.970  33.596  30.266  1.00  0.00     0.022 A 
BRANCH  79  82
ATOM     82  S   UNL A   1      35.579  34.032  32.953  1.00  0.00     0.127 S 
ATOM     83  O   UNL A   1      34.293  34.358  32.337  1.00  0.00    -0.237 OA
ATOM     84  O   UNL A   1      35.569  32.862  33.826  1.00  0.00    -0.237 OA
ATOM     85  O   UNL A   1      36.307  35.187  33.462  1.00  0.00    -0.744 OA
ENDBRANCH  79  82
ENDBRANCH  51  75
BRANCH  63  86
ATOM     86  C   UNL A   1      43.124  29.031  33.317  1.00  0.00     0.023 A 
ATOM     87  C   UNL A   1      42.314  27.867  33.449  1.00  0.00     0.012 A 
ATOM     88  C   UNL A   1      43.892  29.394  34.424  1.00  0.00     0.148 A 
ATOM     89  C   UNL A   1      42.231  27.150  34.663  1.00  0.00     0.002 A 
ATOM     90  C   UNL A   1      43.792  28.706  35.626  1.00  0.00     0.091 A 
ATOM     91  F   UNL A   1      44.816  30.348  34.241  1.00  0.00    -0.205 F 
ATOM     92  C   UNL A   1      42.963  27.583  35.760  1.00  0.00     0.022 A 
BRANCH  90  93
ATOM     93  S   UNL A   1      44.694  29.261  37.063  1.00  0.00     0.127 S 
ATOM     94  O   UNL A   1      44.295  28.262  38.053  1.00  0.00    -0.237 OA
ATOM     95  O   UNL A   1      46.083  29.167  36.614  1.00  0.00    -0.237 OA
ATOM     96  O   UNL A   1      44.233  30.616  37.335  1.00  0.00    -0.744 OA
ENDBRANCH  90  93
ENDBRANCH  63  86
ENDBRANCH  37  38
ENDBRANCH  30  32
ENDBRANCH  29  30
ENDBRANCH  28  29
ENDBRANCH  27  28
ENDBRANCH  26  27
ENDBRANCH   1  26
TORSDOF 21
ENDMDL
MODEL 2
REMARK VINA RESULT:     -10.1      4.274      6.497
REMARK SMILES Cn1ncc2c(NCCC3=CCCCC3)c(C(=O)OCCOCCOC(=O)c3ccc(-c4c5nc(c(-c6cccc(S(=O)(=O)[O-])c6F)c6ccc([nH]6)c(-c6cccc(S(=O)(=O)[O-])c6F)c6nc(c(-c7cccc(S(=O)(=O)[O-])c7F)c7ccc4[nH]7)C=C6)C=C5)cc3)cnc21
REMARK SMILES IDX 21 1 20 2 19 3 17 4 18 5 16 6 1 7 2 8 3 9 93 10 4 11 5 12
REMARK SMILES IDX 92 13 6 14 91 15 7 16 8 18 9 19 10 20 11 21 15 22 12 23
REMARK SMILES IDX 14 24 13 25 22 26 23 27 24 28 25 29 26 30 27 31 28 32 29 33
REMARK SMILES IDX 90 34 30 35 89 36 31 37 32 38 33 39 83 40 34 41 88 42 82 43
REMARK SMILES IDX 84 44 35 45 87 46 81 47 80 48 36 50 68 51 48 52 67 53 49 54
REMARK SMILES IDX 52 55 66 56 85 57 50 58 51 59 65 61 86 62 53 63 37 64 38 65
REMARK SMILES IDX 46 66 39 67 41 68 47 69 40 70 42 71 43 72 44 73 45 74 69 75
REMARK SMILES IDX 70 76 78 77 71 78 73 79 79 80 72 81 74 82 75 83 76 84 77 85
REMARK SMILES IDX 54 86 55 87 63 88 56 89 58 90 64 91 57 92 59 93 60 94 61 95
REMARK SMILES IDX 62 96
REMARK H PARENT 7 17 84 49 52 60
REMARK Flexibility Score: inf
ROOT
ATOM      1  C   UNL A   1      47.973  24.811  27.848  1.00  0.00     0.202 C 
ENDROOT
BRANCH   1   2
ATOM      2  C   UNL A   1      46.619  24.324  27.307  1.00  0.00     0.261 C 
BRANCH   2   3
ATOM      3  O   UNL A   1      46.694  23.647  26.027  1.00  0.00    -0.460 OA
BRANCH   3   4
ATOM      4  C   UNL A   1      45.594  23.810  25.238  1.00  0.00     0.341 C 
ATOM      5  O   UNL A   1      45.440  24.757  24.482  1.00  0.00    -0.246 OA
BRANCH   4   6
ATOM      6  C   UNL A   1      44.672  22.625  25.233  1.00  0.00     0.102 A 
ATOM      7  C   UNL A   1      42.648  17.997  26.342  1.00  0.00     0.176 C 
ATOM      8  N   UNL A   1      42.401  19.399  26.135  1.00  0.00    -0.250 N 
ATOM      9  N   UNL A   1      41.176  19.867  26.438  1.00  0.00    -0.179 NA
ATOM     10  C   UNL A   1      43.284  20.366  25.723  1.00  0.00     0.159 A 
ATOM     11  C   UNL A   1      41.291  21.172  26.204  1.00  0.00     0.147 A 
ATOM     12  C   UNL A   1      42.585  21.569  25.780  1.00  0.00     0.063 A 
ATOM     13  N   UNL A   1      44.567  20.187  25.346  1.00  0.00    -0.236 NA
ATOM     14  C   UNL A   1      43.259  22.771  25.448  1.00  0.00     0.063 A 
ATOM     15  C   UNL A   1      45.221  21.353  25.115  1.00  0.00     0.131 A 
BRANCH  14  16
ATOM     16  N   UNL A   1      42.620  23.990  25.272  1.00  0.00    -0.383 N 
ATOM     17  H   UNL A   1      42.207  24.125  24.389  1.00  0.00     0.160 HD
BRANCH  16  18
ATOM     18  C   UNL A   1      42.472  25.098  26.210  1.00  0.00     0.117 C 
BRANCH  18  19
ATOM     19  C   UNL A   1      41.705  24.647  27.465  1.00  0.00     0.052 C 
BRANCH  19  20
ATOM     20  C   UNL A   1      42.642  24.565  28.645  1.00  0.00    -0.072 C 
ATOM     21  C   UNL A   1      43.048  23.370  29.105  1.00  0.00    -0.028 C 
ATOM     22  C   UNL A   1      43.170  25.857  29.204  1.00  0.00     0.031 C 
ATOM     23  C   UNL A   1      44.144  23.179  30.097  1.00  0.00     0.027 C 
ATOM     24  C   UNL A   1      44.425  25.679  30.063  1.00  0.00     0.005 C 
ATOM     25  C   UNL A   1      44.347  24.430  30.939  1.00  0.00     0.004 C 
ENDBRANCH  19  20
ENDBRANCH  18  19
ENDBRANCH  16  18
ENDBRANCH  14  16
ENDBRANCH   4   6
ENDBRANCH   3   4
ENDBRANCH   2   3
ENDBRANCH   1   2
BRANCH   1  26
ATOM     26  O   UNL A   1      49.100  25.004  26.996  1.00  0.00    -0.374 OA
BRANCH  26  27
ATOM     27  C   UNL A   1      49.431  26.315  26.553  1.00  0.00     0.202 C 
BRANCH  27  28
ATOM     28  C   UNL A   1      48.876  26.921  25.274  1.00  0.00     0.261 C 
BRANCH  28  29
ATOM     29  O   UNL A   1      47.481  27.123  25.346  1.00  0.00    -0.460 OA
BRANCH  29  30
ATOM     30  C   UNL A   1      47.132  28.231  26.029  1.00  0.00     0.338 C 
ATOM     31  O   UNL A   1      47.617  29.367  25.928  1.00  0.00    -0.246 OA
BRANCH  30  32
ATOM     32  C   UNL A   1      46.054  27.866  26.934  1.00  0.00     0.060 A 
ATOM     33  C   UNL A   1      44.763  27.750  26.429  1.00  0.00     0.016 A 
ATOM     34  C   UNL A   1      46.237  28.431  28.181  1.00  0.00     0.016 A 
ATOM     35  C   UNL A   1      43.846  28.717  26.881  1.00  0.00     0.010 A 
ATOM     36  C   UNL A   1      45.180  29.150  28.659  1.00  0.00     0.010 A 
ATOM     37  C   UNL A   1      44.313  29.752  27.746  1.00  0.00    -0.014 A 
BRANCH  37  38
ATOM     38  C   UNL A   1      43.522  30.904  28.443  1.00  0.00     0.031 A 
ATOM     39  C   UNL A   1      44.495  32.159  27.864  1.00  0.00     0.074 A 
ATOM     40  C   UNL A   1      42.293  30.863  29.274  1.00  0.00     0.049 A 
ATOM     41  N   UNL A   1      45.608  32.500  28.468  1.00  0.00    -0.248 NA
ATOM     42  C   UNL A   1      44.704  32.634  26.407  1.00  0.00     0.031 C 
ATOM     43  C   UNL A   1      41.274  29.809  29.872  1.00  0.00     0.029 A 
ATOM     44  N   UNL A   1      41.601  31.934  29.916  1.00  0.00    -0.354 N 
ATOM     45  C   UNL A   1      46.076  33.644  27.807  1.00  0.00     0.074 A 
ATOM     46  C   UNL A   1      45.751  33.474  26.449  1.00  0.00     0.031 C 
ATOM     47  C   UNL A   1      40.083  30.370  30.327  1.00  0.00     0.029 A 
ATOM     48  C   UNL A   1      40.182  31.815  30.282  1.00  0.00     0.049 A 
ATOM     49  H   UNL A   1      42.084  32.769  30.117  1.00  0.00     0.167 HD
ATOM     50  C   UNL A   1      46.206  34.795  28.512  1.00  0.00     0.034 A 
ATOM     51  C   UNL A   1      39.338  32.775  30.887  1.00  0.00     0.034 A 
ATOM     52  C   UNL A   1      46.171  34.441  29.906  1.00  0.00     0.049 A 
ATOM     53  C   UNL A   1      40.274  33.870  31.266  1.00  0.00     0.074 A 
ATOM     54  C   UNL A   1      46.928  33.583  30.682  1.00  0.00     0.029 A 
ATOM     55  N   UNL A   1      44.886  34.390  30.372  1.00  0.00    -0.354 N 
ATOM     56  N   UNL A   1      41.132  33.686  32.235  1.00  0.00    -0.248 NA
ATOM     57  C   UNL A   1      40.679  34.701  30.131  1.00  0.00     0.031 C 
ATOM     58  C   UNL A   1      45.997  32.837  31.463  1.00  0.00     0.029 A 
ATOM     59  C   UNL A   1      44.739  33.404  31.300  1.00  0.00     0.049 A 
ATOM     60  H   UNL A   1      44.162  34.988  30.076  1.00  0.00     0.167 HD
ATOM     61  C   UNL A   1      42.352  33.914  31.622  1.00  0.00     0.074 A 
ATOM     62  C   UNL A   1      42.003  34.555  30.307  1.00  0.00     0.031 C 
ATOM     63  C   UNL A   1      43.473  33.169  31.929  1.00  0.00     0.034 A 
BRANCH  50  64
ATOM     64  C   UNL A   1      45.814  36.176  28.025  1.00  0.00     0.023 A 
ATOM     65  C   UNL A   1      46.820  37.157  28.103  1.00  0.00     0.012 A 
ATOM     66  C   UNL A   1      44.499  36.623  27.720  1.00  0.00     0.148 A 
ATOM     67  C   UNL A   1      46.562  38.498  27.807  1.00  0.00     0.002 A 
ATOM     68  C   UNL A   1      44.234  37.972  27.476  1.00  0.00     0.091 A 
ATOM     69  F   UNL A   1      43.480  35.757  27.725  1.00  0.00    -0.205 F 
ATOM     70  C   UNL A   1      45.272  38.907  27.493  1.00  0.00     0.022 A 
BRANCH  68  71
ATOM     71  S   UNL A   1      42.565  38.614  27.215  1.00  0.00     0.127 S 
ATOM     72  O   UNL A   1      42.172  38.976  28.575  1.00  0.00    -0.237 OA
ATOM     73  O   UNL A   1      42.817  39.746  26.324  1.00  0.00    -0.237 OA
ATOM     74  O   UNL A   1      41.808  37.525  26.613  1.00  0.00    -0.744 OA
ENDBRANCH  68  71
ENDBRANCH  50  64
BRANCH  51  75
ATOM     75  C   UNL A   1      37.874  33.183  30.553  1.00  0.00     0.023 A 
ATOM     76  C   UNL A   1      37.119  32.894  29.361  1.00  0.00     0.012 A 
ATOM     77  C   UNL A   1      37.115  33.599  31.650  1.00  0.00     0.148 A 
ATOM     78  C   UNL A   1      35.689  32.890  29.358  1.00  0.00     0.002 A 
ATOM     79  C   UNL A   1      35.720  33.628  31.636  1.00  0.00     0.091 A 
ATOM     80  F   UNL A   1      37.775  33.888  32.772  1.00  0.00    -0.205 F 
ATOM     81  C   UNL A   1      34.990  33.223  30.514  1.00  0.00     0.022 A 
BRANCH  79  82
ATOM     82  S   UNL A   1      34.820  34.183  33.086  1.00  0.00     0.127 S 
ATOM     83  O   UNL A   1      35.106  33.112  34.040  1.00  0.00    -0.237 OA
ATOM     84  O   UNL A   1      35.463  35.461  33.377  1.00  0.00    -0.237 OA
ATOM     85  O   UNL A   1      33.422  34.263  32.680  1.00  0.00    -0.744 OA
ENDBRANCH  79  82
ENDBRANCH  51  75
BRANCH  63  86
ATOM     86  C   UNL A   1      43.507  32.107  33.033  1.00  0.00     0.023 A 
ATOM     87  C   UNL A   1      43.487  30.693  32.872  1.00  0.00     0.012 A 
ATOM     88  C   UNL A   1      43.890  32.595  34.284  1.00  0.00     0.148 A 
ATOM     89  C   UNL A   1      43.769  29.815  33.942  1.00  0.00     0.002 A 
ATOM     90  C   UNL A   1      44.143  31.734  35.344  1.00  0.00     0.091 A 
ATOM     91  F   UNL A   1      44.125  33.911  34.382  1.00  0.00    -0.205 F 
ATOM     92  C   UNL A   1      44.084  30.342  35.187  1.00  0.00     0.022 A 
BRANCH  90  93
ATOM     93  S   UNL A   1      44.514  32.383  36.965  1.00  0.00     0.127 S 
ATOM     94  O   UNL A   1      43.314  33.172  37.237  1.00  0.00    -0.237 OA
ATOM     95  O   UNL A   1      44.649  31.166  37.764  1.00  0.00    -0.237 OA
ATOM     96  O   UNL A   1      45.740  33.157  36.823  1.00  0.00    -0.744 OA
ENDBRANCH  90  93
ENDBRANCH  63  86
ENDBRANCH  37  38
ENDBRANCH  30  32
ENDBRANCH  29  30
ENDBRANCH  28  29
ENDBRANCH  27  28
ENDBRANCH  26  27
ENDBRANCH   1  26
TORSDOF 21
ENDMDL
MODEL 3
REMARK VINA RESULT:     -10.0      3.604      5.369
REMARK SMILES Cn1ncc2c(NCCC3=CCCCC3)c(C(=O)OCCOCCOC(=O)c3ccc(-c4c5nc(c(-c6cccc(S(=O)(=O)[O-])c6F)c6ccc([nH]6)c(-c6cccc(S(=O)(=O)[O-])c6F)c6nc(c(-c7cccc(S(=O)(=O)[O-])c7F)c7ccc4[nH]7)C=C6)C=C5)cc3)cnc21
REMARK SMILES IDX 21 1 20 2 19 3 17 4 18 5 16 6 1 7 2 8 3 9 93 10 4 11 5 12
REMARK SMILES IDX 92 13 6 14 91 15 7 16 8 18 9 19 10 20 11 21 15 22 12 23
REMARK SMILES IDX 14 24 13 25 22 26 23 27 24 28 25 29 26 30 27 31 28 32 29 33
REMARK SMILES IDX 90 34 30 35 89 36 31 37 32 38 33 39 83 40 34 41 88 42 82 43
REMARK SMILES IDX 84 44 35 45 87 46 81 47 80 48 36 50 68 51 48 52 67 53 49 54
REMARK SMILES IDX 52 55 66 56 85 57 50 58 51 59 65 61 86 62 53 63 37 64 38 65
REMARK SMILES IDX 46 66 39 67 41 68 47 69 40 70 42 71 43 72 44 73 45 74 69 75
REMARK SMILES IDX 70 76 78 77 71 78 73 79 79 80 72 81 74 82 75 83 76 84 77 85
REMARK SMILES IDX 54 86 55 87 63 88 56 89 58 90 64 91 57 92 59 93 60 94 61 95
REMARK SMILES IDX 62 96
REMARK H PARENT 7 17 84 49 52 60
REMARK Flexibility Score: inf
ROOT
ATOM      1  C   UNL A   1      43.044  27.635  25.199  1.00  0.00     0.202 C 
ENDROOT
BRANCH   1   2
ATOM      2  C   UNL A   1      42.432  26.286  25.610  1.00  0.00     0.261 C 
BRANCH   2   3
ATOM      3  O   UNL A   1      42.628  25.220  24.647  1.00  0.00    -0.460 OA
BRANCH   3   4
ATOM      4  C   UNL A   1      43.607  24.332  24.980  1.00  0.00     0.341 C 
ATOM      5  O   UNL A   1      44.766  24.653  25.191  1.00  0.00    -0.246 OA
BRANCH   4   6
ATOM      6  C   UNL A   1      43.099  22.946  25.255  1.00  0.00     0.102 A 
ATOM      7  C   UNL A   1      43.003  17.939  26.544  1.00  0.00     0.176 C 
ATOM      8  N   UNL A   1      42.380  19.228  26.681  1.00  0.00    -0.250 N 
ATOM      9  N   UNL A   1      41.405  19.353  27.601  1.00  0.00    -0.179 NA
ATOM     10  C   UNL A   1      42.692  20.397  26.033  1.00  0.00     0.159 A 
ATOM     11  C   UNL A   1      41.092  20.645  27.526  1.00  0.00     0.147 A 
ATOM     12  C   UNL A   1      41.869  21.372  26.590  1.00  0.00     0.063 A 
ATOM     13  N   UNL A   1      43.613  20.566  25.062  1.00  0.00    -0.236 NA
ATOM     14  C   UNL A   1      41.996  22.713  26.145  1.00  0.00     0.063 A 
ATOM     15  C   UNL A   1      43.782  21.865  24.709  1.00  0.00     0.131 A 
BRANCH  14  16
ATOM     16  N   UNL A   1      41.102  23.721  26.474  1.00  0.00    -0.383 N 
ATOM     17  H   UNL A   1      41.389  24.633  26.235  1.00  0.00     0.160 HD
BRANCH  16  18
ATOM     18  C   UNL A   1      39.798  23.625  27.121  1.00  0.00     0.117 C 
BRANCH  18  19
ATOM     19  C   UNL A   1      38.729  24.365  26.300  1.00  0.00     0.052 C 
BRANCH  19  20
ATOM     20  C   UNL A   1      37.749  23.379  25.714  1.00  0.00    -0.072 C 
ATOM     21  C   UNL A   1      36.601  23.810  25.164  1.00  0.00    -0.028 C 
ATOM     22  C   UNL A   1      38.155  21.932  25.682  1.00  0.00     0.031 C 
ATOM     23  C   UNL A   1      35.684  22.958  24.354  1.00  0.00     0.027 C 
ATOM     24  C   UNL A   1      37.341  21.094  24.691  1.00  0.00     0.005 C 
ATOM     25  C   UNL A   1      35.864  21.485  24.689  1.00  0.00     0.004 C 
ENDBRANCH  19  20
ENDBRANCH  18  19
ENDBRANCH  16  18
ENDBRANCH  14  16
ENDBRANCH   4   6
ENDBRANCH   3   4
ENDBRANCH   2   3
ENDBRANCH   1   2
BRANCH   1  26
ATOM     26  O   UNL A   1      44.445  27.794  24.989  1.00  0.00    -0.374 OA
BRANCH  26  27
ATOM     27  C   UNL A   1      45.285  28.150  26.080  1.00  0.00     0.202 C 
BRANCH  27  28
ATOM     28  C   UNL A   1      45.659  27.180  27.188  1.00  0.00     0.261 C 
BRANCH  28  29
ATOM     29  O   UNL A   1      44.729  27.205  28.249  1.00  0.00    -0.460 OA
BRANCH  29  30
ATOM     30  C   UNL A   1      44.362  25.979  28.673  1.00  0.00     0.338 C 
ATOM     31  O   UNL A   1      44.905  24.895  28.415  1.00  0.00    -0.246 OA
BRANCH  30  32
ATOM     32  C   UNL A   1      43.185  26.139  29.511  1.00  0.00     0.060 A 
ATOM     33  C   UNL A   1      41.927  26.106  28.914  1.00  0.00     0.016 A 
ATOM     34  C   UNL A   1      43.418  27.037  30.534  1.00  0.00     0.016 A 
ATOM     35  C   UNL A   1      41.217  27.321  28.932  1.00  0.00     0.010 A 
ATOM     36  C   UNL A   1      42.516  28.055  30.635  1.00  0.00     0.010 A 
ATOM     37  C   UNL A   1      41.849  28.476  29.484  1.00  0.00    -0.014 A 
BRANCH  37  38
ATOM     38  C   UNL A   1      41.287  29.918  29.690  1.00  0.00     0.031 A 
ATOM     39  C   UNL A   1      42.623  30.720  29.033  1.00  0.00     0.074 A 
ATOM     40  C   UNL A   1      39.983  30.377  30.228  1.00  0.00     0.049 A 
ATOM     41  N   UNL A   1      43.687  30.985  29.752  1.00  0.00    -0.248 NA
ATOM     42  C   UNL A   1      43.154  30.696  27.581  1.00  0.00     0.031 C 
ATOM     43  C   UNL A   1      38.652  29.778  30.843  1.00  0.00     0.029 A 
ATOM     44  N   UNL A   1      39.504  31.707  30.423  1.00  0.00    -0.354 N 
ATOM     45  C   UNL A   1      44.523  31.763  28.940  1.00  0.00     0.074 A 
ATOM     46  C   UNL A   1      44.365  31.275  27.631  1.00  0.00     0.031 C 
ATOM     47  C   UNL A   1      37.592  30.680  30.884  1.00  0.00     0.029 A 
ATOM     48  C   UNL A   1      38.064  31.996  30.502  1.00  0.00     0.049 A 
ATOM     49  H   UNL A   1      40.150  32.446  30.506  1.00  0.00     0.167 HD
ATOM     50  C   UNL A   1      44.841  33.017  29.347  1.00  0.00     0.034 A 
ATOM     51  C   UNL A   1      37.416  33.244  30.657  1.00  0.00     0.034 A 
ATOM     52  C   UNL A   1      44.516  33.102  30.746  1.00  0.00     0.049 A 
ATOM     53  C   UNL A   1      38.537  34.183  30.939  1.00  0.00     0.074 A 
ATOM     54  C   UNL A   1      44.907  32.370  31.853  1.00  0.00     0.029 A 
ATOM     55  N   UNL A   1      43.208  33.455  30.930  1.00  0.00    -0.354 N 
ATOM     56  N   UNL A   1      39.170  34.117  32.080  1.00  0.00    -0.248 NA
ATOM     57  C   UNL A   1      39.301  34.544  29.743  1.00  0.00     0.031 C 
ATOM     58  C   UNL A   1      43.714  32.094  32.581  1.00  0.00     0.029 A 
ATOM     59  C   UNL A   1      42.680  32.835  32.023  1.00  0.00     0.049 A 
ATOM     60  H   UNL A   1      42.712  34.077  30.350  1.00  0.00     0.167 HD
ATOM     61  C   UNL A   1      40.483  33.900  31.700  1.00  0.00     0.074 A 
ATOM     62  C   UNL A   1      40.504  34.186  30.223  1.00  0.00     0.031 C 
ATOM     63  C   UNL A   1      41.319  33.062  32.410  1.00  0.00     0.034 A 
BRANCH  50  64
ATOM     64  C   UNL A   1      44.891  34.246  28.460  1.00  0.00     0.023 A 
ATOM     65  C   UNL A   1      46.122  34.487  27.823  1.00  0.00     0.012 A 
ATOM     66  C   UNL A   1      43.915  35.278  28.389  1.00  0.00     0.148 A 
ATOM     67  C   UNL A   1      46.350  35.647  27.078  1.00  0.00     0.002 A 
ATOM     68  C   UNL A   1      44.164  36.459  27.688  1.00  0.00     0.091 A 
ATOM     69  F   UNL A   1      42.761  35.154  29.053  1.00  0.00    -0.205 F 
ATOM     70  C   UNL A   1      45.373  36.633  27.009  1.00  0.00     0.022 A 
BRANCH  68  71
ATOM     71  S   UNL A   1      43.017  37.855  27.676  1.00  0.00     0.127 S 
ATOM     72  O   UNL A   1      42.941  38.188  29.097  1.00  0.00    -0.237 OA
ATOM     73  O   UNL A   1      43.737  38.827  26.854  1.00  0.00    -0.237 OA
ATOM     74  O   UNL A   1      41.785  37.354  27.083  1.00  0.00    -0.744 OA
ENDBRANCH  68  71
ENDBRANCH  50  64
BRANCH  51  75
ATOM     75  C   UNL A   1      36.171  33.830  29.933  1.00  0.00     0.023 A 
ATOM     76  C   UNL A   1      35.598  33.422  28.675  1.00  0.00     0.012 A 
ATOM     77  C   UNL A   1      35.341  34.617  30.735  1.00  0.00     0.148 A 
ATOM     78  C   UNL A   1      34.229  33.684  28.351  1.00  0.00     0.002 A 
ATOM     79  C   UNL A   1      34.015  34.901  30.402  1.00  0.00     0.091 A 
ATOM     80  F   UNL A   1      35.835  35.026  31.905  1.00  0.00    -0.205 F 
ATOM     81  C   UNL A   1      33.428  34.394  29.239  1.00  0.00     0.022 A 
BRANCH  79  82
ATOM     82  S   UNL A   1      33.019  35.928  31.485  1.00  0.00     0.127 S 
ATOM     83  O   UNL A   1      32.235  36.700  30.522  1.00  0.00    -0.237 OA
ATOM     84  O   UNL A   1      32.265  34.935  32.244  1.00  0.00    -0.237 OA
ATOM     85  O   UNL A   1      33.964  36.723  32.259  1.00  0.00    -0.744 OA
ENDBRANCH  79  82
ENDBRANCH  51  75
BRANCH  63  86
ATOM     86  C   UNL A   1      40.920  32.385  33.726  1.00  0.00     0.023 A 
ATOM     87  C   UNL A   1      40.506  31.036  33.913  1.00  0.00     0.012 A 
ATOM     88  C   UNL A   1      41.289  33.097  34.870  1.00  0.00     0.148 A 
ATOM     89  C   UNL A   1      40.401  30.458  35.197  1.00  0.00     0.002 A 
ATOM     90  C   UNL A   1      41.161  32.539  36.135  1.00  0.00     0.091 A 
ATOM     91  F   UNL A   1      41.886  34.283  34.687  1.00  0.00    -0.205 F 
ATOM     92  C   UNL A   1      40.716  31.222  36.313  1.00  0.00     0.022 A 
BRANCH  90  93
ATOM     93  S   UNL A   1      41.525  33.508  37.589  1.00  0.00     0.127 S 
ATOM     94  O   UNL A   1      40.521  34.566  37.484  1.00  0.00    -0.237 OA
ATOM     95  O   UNL A   1      41.301  32.547  38.668  1.00  0.00    -0.237 OA
ATOM     96  O   UNL A   1      42.905  33.953  37.448  1.00  0.00    -0.744 OA
ENDBRANCH  90  93
ENDBRANCH  63  86
ENDBRANCH  37  38
ENDBRANCH  30  32
ENDBRANCH  29  30
ENDBRANCH  28  29
ENDBRANCH  27  28
ENDBRANCH  26  27
ENDBRANCH   1  26
TORSDOF 21
ENDMDL
