MODEL 1
REMARK VINA RESULT:     -10.3      0.000      0.000
REMARK SMILES CC[C@H](C)CN(CC)c1nc(C(=O)OCCOCCOC(=O)c2ccc(-c3c4nc(c(-c5cccc(S(=O)(=O)[O-])c5F)c5ccc([nH]5)c(-c5cccc(S(=O)(=O)[O-])c5F)c5nc(c(-c6cccc(S(=O)(=O)[O-])c6F)c6ccc3[nH]6)C=C5)C=C4)cc2)cc2ccccc12
REMARK SMILES IDX 16 1 15 2 14 3 12 4 13 5 11 6 9 7 10 8 92 9 87 10 91 11
REMARK SMILES IDX 86 12 88 13 90 14 89 15 6 16 5 17 3 18 4 19 2 20 1 21 7 22
REMARK SMILES IDX 8 23 17 24 18 25 19 26 20 27 21 28 22 29 23 30 24 31 85 32
REMARK SMILES IDX 25 33 84 34 26 35 27 36 28 37 78 38 29 39 83 40 77 41 79 42
REMARK SMILES IDX 30 43 82 44 76 45 75 46 31 48 63 49 43 50 62 51 44 52 47 53
REMARK SMILES IDX 61 54 80 55 45 56 46 57 60 59 81 60 48 61 32 62 33 63 41 64
REMARK SMILES IDX 34 65 36 66 42 67 35 68 37 69 38 70 39 71 40 72 64 73 65 74
REMARK SMILES IDX 73 75 66 76 68 77 74 78 67 79 69 80 70 81 71 82 72 83 49 84
REMARK SMILES IDX 50 85 58 86 51 87 53 88 59 89 52 90 54 91 55 92 56 93 57 94
REMARK H PARENT 79 47 47 58
REMARK Flexibility Score: inf
ROOT
ATOM      1  C   UNL A   1      31.959  29.689  25.086  1.00  0.00     0.202 C 
ENDROOT
BRANCH   1   2
ATOM      2  C   UNL A   1      33.083  29.221  24.155  1.00  0.00     0.261 C 
BRANCH   2   3
ATOM      3  O   UNL A   1      33.570  27.912  24.483  1.00  0.00    -0.459 OA
BRANCH   3   4
ATOM      4  C   UNL A   1      32.902  26.910  23.860  1.00  0.00     0.357 C 
ATOM      5  O   UNL A   1      32.073  27.049  22.966  1.00  0.00    -0.244 OA
BRANCH   4   6
ATOM      6  C   UNL A   1      33.373  25.558  24.265  1.00  0.00     0.151 A 
ATOM      7  C   UNL A   1      33.202  23.245  24.193  1.00  0.00     0.137 A 
ATOM      8  N   UNL A   1      32.624  24.457  24.007  1.00  0.00    -0.223 NA
ATOM      9  C   UNL A   1      34.581  23.134  24.536  1.00  0.00     0.024 A 
ATOM     10  C   UNL A   1      35.243  24.288  25.000  1.00  0.00    -0.012 A 
ATOM     11  C   UNL A   1      35.344  21.948  24.463  1.00  0.00     0.012 A 
ATOM     12  C   UNL A   1      34.623  25.517  24.858  1.00  0.00     0.045 A 
ATOM     13  C   UNL A   1      36.520  24.199  25.574  1.00  0.00     0.009 A 
ATOM     14  C   UNL A   1      36.631  21.868  24.998  1.00  0.00     0.001 A 
ATOM     15  C   UNL A   1      37.199  22.985  25.597  1.00  0.00     0.001 A 
BRANCH   7  16
ATOM     16  N   UNL A   1      32.407  22.087  24.106  1.00  0.00    -0.356 N 
BRANCH  16  17
ATOM     17  C   UNL A   1      31.686  21.642  25.335  1.00  0.00     0.121 C 
BRANCH  17  18
ATOM     18  C   UNL A   1      31.369  22.755  26.374  1.00  0.00     0.005 C 
ATOM     19  C   UNL A   1      29.945  22.615  26.927  1.00  0.00     0.009 C 
BRANCH  18  20
ATOM     20  C   UNL A   1      32.448  22.870  27.493  1.00  0.00     0.002 C 
ATOM     21  C   UNL A   1      33.461  21.735  27.599  1.00  0.00     0.004 C 
ENDBRANCH  18  20
ENDBRANCH  17  18
ENDBRANCH  16  17
BRANCH  16  22
ATOM     22  C   UNL A   1      31.665  21.931  22.838  1.00  0.00     0.114 C 
ATOM     23  C   UNL A   1      31.973  20.648  22.072  1.00  0.00     0.027 C 
ENDBRANCH  16  22
ENDBRANCH   7  16
ENDBRANCH   4   6
ENDBRANCH   3   4
ENDBRANCH   2   3
ENDBRANCH   1   2
BRANCH   1  24
ATOM     24  O   UNL A   1      32.316  30.555  26.163  1.00  0.00    -0.374 OA
BRANCH  24  25
ATOM     25  C   UNL A   1      31.407  31.610  26.482  1.00  0.00     0.202 C 
BRANCH  25  26
ATOM     26  C   UNL A   1      32.013  32.962  26.879  1.00  0.00     0.261 C 
BRANCH  26  27
ATOM     27  O   UNL A   1      32.877  32.853  28.024  1.00  0.00    -0.460 OA
BRANCH  27  28
ATOM     28  C   UNL A   1      33.955  33.669  28.007  1.00  0.00     0.338 C 
ATOM     29  O   UNL A   1      33.952  34.890  27.900  1.00  0.00    -0.246 OA
BRANCH  28  30
ATOM     30  C   UNL A   1      35.174  32.907  28.332  1.00  0.00     0.060 A 
ATOM     31  C   UNL A   1      35.018  31.567  28.712  1.00  0.00     0.016 A 
ATOM     32  C   UNL A   1      36.438  33.502  28.332  1.00  0.00     0.016 A 
ATOM     33  C   UNL A   1      36.117  30.833  29.152  1.00  0.00     0.010 A 
ATOM     34  C   UNL A   1      37.538  32.765  28.782  1.00  0.00     0.010 A 
ATOM     35  C   UNL A   1      37.374  31.441  29.232  1.00  0.00    -0.014 A 
BRANCH  35  36
ATOM     36  C   UNL A   1      38.484  30.738  29.918  1.00  0.00     0.031 A 
ATOM     37  C   UNL A   1      38.809  31.099  31.343  1.00  0.00     0.074 A 
ATOM     38  C   UNL A   1      39.190  29.784  29.284  1.00  0.00     0.049 A 
ATOM     39  N   UNL A   1      39.739  30.621  32.126  1.00  0.00    -0.248 NA
ATOM     40  C   UNL A   1      37.975  32.142  31.964  1.00  0.00     0.031 C 
ATOM     41  C   UNL A   1      38.971  29.348  27.906  1.00  0.00     0.029 A 
ATOM     42  N   UNL A   1      40.251  29.028  29.714  1.00  0.00    -0.354 N 
ATOM     43  C   UNL A   1      39.622  31.319  33.323  1.00  0.00     0.074 A 
ATOM     44  C   UNL A   1      38.539  32.265  33.157  1.00  0.00     0.031 C 
ATOM     45  C   UNL A   1      39.889  28.419  27.593  1.00  0.00     0.029 A 
ATOM     46  C   UNL A   1      40.770  28.208  28.740  1.00  0.00     0.049 A 
ATOM     47  H   UNL A   1      40.605  29.066  30.631  1.00  0.00     0.167 HD
ATOM     48  C   UNL A   1      40.340  31.175  34.462  1.00  0.00     0.034 A 
ATOM     49  C   UNL A   1      41.846  27.396  28.767  1.00  0.00     0.034 A 
ATOM     50  C   UNL A   1      41.399  30.219  34.632  1.00  0.00     0.049 A 
ATOM     51  C   UNL A   1      42.636  27.263  30.044  1.00  0.00     0.074 A 
ATOM     52  C   UNL A   1      42.152  29.960  35.764  1.00  0.00     0.029 A 
ATOM     53  N   UNL A   1      41.866  29.371  33.639  1.00  0.00    -0.354 N 
ATOM     54  N   UNL A   1      42.433  27.837  31.204  1.00  0.00    -0.248 NA
ATOM     55  C   UNL A   1      43.783  26.342  30.024  1.00  0.00     0.031 C 
ATOM     56  C   UNL A   1      43.089  28.971  35.449  1.00  0.00     0.029 A 
ATOM     57  C   UNL A   1      42.904  28.596  34.128  1.00  0.00     0.049 A 
ATOM     58  H   UNL A   1      41.512  29.327  32.722  1.00  0.00     0.167 HD
ATOM     59  C   UNL A   1      43.400  27.321  32.061  1.00  0.00     0.074 A 
ATOM     60  C   UNL A   1      44.177  26.374  31.290  1.00  0.00     0.031 C 
ATOM     61  C   UNL A   1      43.632  27.615  33.365  1.00  0.00     0.034 A 
BRANCH  48  62
ATOM     62  C   UNL A   1      39.981  32.055  35.629  1.00  0.00     0.023 A 
ATOM     63  C   UNL A   1      40.662  33.274  35.819  1.00  0.00     0.012 A 
ATOM     64  C   UNL A   1      38.932  31.706  36.503  1.00  0.00     0.148 A 
ATOM     65  C   UNL A   1      40.328  34.118  36.877  1.00  0.00     0.002 A 
ATOM     66  C   UNL A   1      38.576  32.571  37.531  1.00  0.00     0.091 A 
ATOM     67  F   UNL A   1      38.313  30.531  36.322  1.00  0.00    -0.205 F 
ATOM     68  C   UNL A   1      39.280  33.773  37.726  1.00  0.00     0.022 A 
BRANCH  66  69
ATOM     69  S   UNL A   1      37.193  32.250  38.630  1.00  0.00     0.127 S 
ATOM     70  O   UNL A   1      37.138  30.789  38.617  1.00  0.00    -0.237 OA
ATOM     71  O   UNL A   1      37.658  32.831  39.891  1.00  0.00    -0.237 OA
ATOM     72  O   UNL A   1      36.046  32.925  38.040  1.00  0.00    -0.744 OA
ENDBRANCH  66  69
ENDBRANCH  48  62
BRANCH  49  73
ATOM     73  C   UNL A   1      42.216  26.612  27.555  1.00  0.00     0.023 A 
ATOM     74  C   UNL A   1      42.892  27.246  26.495  1.00  0.00     0.012 A 
ATOM     75  C   UNL A   1      41.920  25.238  27.457  1.00  0.00     0.148 A 
ATOM     76  C   UNL A   1      43.241  26.535  25.348  1.00  0.00     0.002 A 
ATOM     77  C   UNL A   1      42.318  24.522  26.334  1.00  0.00     0.091 A 
ATOM     78  F   UNL A   1      41.259  24.656  28.467  1.00  0.00    -0.205 F 
ATOM     79  C   UNL A   1      42.964  25.173  25.271  1.00  0.00     0.022 A 
BRANCH  77  80
ATOM     80  S   UNL A   1      42.116  22.742  26.205  1.00  0.00     0.127 S 
ATOM     81  O   UNL A   1      42.845  22.272  27.380  1.00  0.00    -0.237 OA
ATOM     82  O   UNL A   1      40.662  22.595  26.282  1.00  0.00    -0.237 OA
ATOM     83  O   UNL A   1      42.687  22.375  24.916  1.00  0.00    -0.744 OA
ENDBRANCH  77  80
ENDBRANCH  49  73
BRANCH  61  84
ATOM     84  C   UNL A   1      44.749  26.882  34.061  1.00  0.00     0.023 A 
ATOM     85  C   UNL A   1      44.490  25.655  34.704  1.00  0.00     0.012 A 
ATOM     86  C   UNL A   1      46.071  27.368  34.008  1.00  0.00     0.148 A 
ATOM     87  C   UNL A   1      45.522  24.940  35.309  1.00  0.00     0.002 A 
ATOM     88  C   UNL A   1      47.102  26.627  34.572  1.00  0.00     0.091 A 
ATOM     89  F   UNL A   1      46.296  28.547  33.408  1.00  0.00    -0.205 F 
ATOM     90  C   UNL A   1      46.829  25.418  35.233  1.00  0.00     0.022 A 
BRANCH  88  91
ATOM     91  S   UNL A   1      48.826  27.119  34.438  1.00  0.00     0.127 S 
ATOM     92  O   UNL A   1      49.196  26.555  33.141  1.00  0.00    -0.237 OA
ATOM     93  O   UNL A   1      48.737  28.578  34.467  1.00  0.00    -0.237 OA
ATOM     94  O   UNL A   1      49.499  26.534  35.591  1.00  0.00    -0.744 OA
ENDBRANCH  88  91
ENDBRANCH  61  84
ENDBRANCH  35  36
ENDBRANCH  28  30
ENDBRANCH  27  28
ENDBRANCH  26  27
ENDBRANCH  25  26
ENDBRANCH  24  25
ENDBRANCH   1  24
TORSDOF 22
ENDMDL
MODEL 2
REMARK VINA RESULT:     -10.2      2.738      8.747
REMARK SMILES CC[C@H](C)CN(CC)c1nc(C(=O)OCCOCCOC(=O)c2ccc(-c3c4nc(c(-c5cccc(S(=O)(=O)[O-])c5F)c5ccc([nH]5)c(-c5cccc(S(=O)(=O)[O-])c5F)c5nc(c(-c6cccc(S(=O)(=O)[O-])c6F)c6ccc3[nH]6)C=C5)C=C4)cc2)cc2ccccc12
REMARK SMILES IDX 16 1 15 2 14 3 12 4 13 5 11 6 9 7 10 8 92 9 87 10 91 11
REMARK SMILES IDX 86 12 88 13 90 14 89 15 6 16 5 17 3 18 4 19 2 20 1 21 7 22
REMARK SMILES IDX 8 23 17 24 18 25 19 26 20 27 21 28 22 29 23 30 24 31 85 32
REMARK SMILES IDX 25 33 84 34 26 35 27 36 28 37 78 38 29 39 83 40 77 41 79 42
REMARK SMILES IDX 30 43 82 44 76 45 75 46 31 48 63 49 43 50 62 51 44 52 47 53
REMARK SMILES IDX 61 54 80 55 45 56 46 57 60 59 81 60 48 61 32 62 33 63 41 64
REMARK SMILES IDX 34 65 36 66 42 67 35 68 37 69 38 70 39 71 40 72 64 73 65 74
REMARK SMILES IDX 73 75 66 76 68 77 74 78 67 79 69 80 70 81 71 82 72 83 49 84
REMARK SMILES IDX 50 85 58 86 51 87 53 88 59 89 52 90 54 91 55 92 56 93 57 94
REMARK H PARENT 79 47 47 58
REMARK Flexibility Score: inf
ROOT
ATOM      1  C   UNL A   1      39.547  21.847  26.025  1.00  0.00     0.202 C 
ENDROOT
BRANCH   1   2
ATOM      2  C   UNL A   1      38.081  21.594  25.656  1.00  0.00     0.261 C 
BRANCH   2   3
ATOM      3  O   UNL A   1      37.255  22.756  25.824  1.00  0.00    -0.459 OA
BRANCH   3   4
ATOM      4  C   UNL A   1      36.629  23.147  24.687  1.00  0.00     0.357 C 
ATOM      5  O   UNL A   1      37.017  22.930  23.544  1.00  0.00    -0.244 OA
BRANCH   4   6
ATOM      6  C   UNL A   1      35.301  23.770  24.940  1.00  0.00     0.151 A 
ATOM      7  C   UNL A   1      33.570  25.180  24.310  1.00  0.00     0.137 A 
ATOM      8  N   UNL A   1      34.868  24.808  24.182  1.00  0.00    -0.223 NA
ATOM      9  C   UNL A   1      32.669  24.435  25.125  1.00  0.00     0.024 A 
ATOM     10  C   UNL A   1      33.212  23.518  26.045  1.00  0.00    -0.012 A 
ATOM     11  C   UNL A   1      31.262  24.552  25.097  1.00  0.00     0.012 A 
ATOM     12  C   UNL A   1      34.551  23.183  25.944  1.00  0.00     0.045 A 
ATOM     13  C   UNL A   1      32.407  22.931  27.033  1.00  0.00     0.009 A 
ATOM     14  C   UNL A   1      30.455  23.936  26.056  1.00  0.00     0.001 A 
ATOM     15  C   UNL A   1      31.035  23.164  27.053  1.00  0.00     0.001 A 
BRANCH   7  16
ATOM     16  N   UNL A   1      33.130  26.358  23.676  1.00  0.00    -0.356 N 
BRANCH  16  17
ATOM     17  C   UNL A   1      33.265  27.643  24.423  1.00  0.00     0.121 C 
BRANCH  17  18
ATOM     18  C   UNL A   1      31.952  28.450  24.623  1.00  0.00     0.005 C 
ATOM     19  C   UNL A   1      30.799  27.858  23.801  1.00  0.00     0.009 C 
BRANCH  18  20
ATOM     20  C   UNL A   1      31.585  28.654  26.124  1.00  0.00     0.002 C 
ATOM     21  C   UNL A   1      31.839  27.482  27.066  1.00  0.00     0.004 C 
ENDBRANCH  18  20
ENDBRANCH  17  18
ENDBRANCH  16  17
BRANCH  16  22
ATOM     22  C   UNL A   1      33.406  26.428  22.227  1.00  0.00     0.114 C 
ATOM     23  C   UNL A   1      32.513  25.542  21.363  1.00  0.00     0.027 C 
ENDBRANCH  16  22
ENDBRANCH   7  16
ENDBRANCH   4   6
ENDBRANCH   3   4
ENDBRANCH   2   3
ENDBRANCH   1   2
BRANCH   1  24
ATOM     24  O   UNL A   1      40.429  20.726  26.014  1.00  0.00    -0.374 OA
BRANCH  24  25
ATOM     25  C   UNL A   1      41.710  20.897  26.625  1.00  0.00     0.202 C 
BRANCH  25  26
ATOM     26  C   UNL A   1      42.882  21.263  25.706  1.00  0.00     0.261 C 
BRANCH  26  27
ATOM     27  O   UNL A   1      43.691  22.319  26.255  1.00  0.00    -0.460 OA
BRANCH  27  28
ATOM     28  C   UNL A   1      43.641  23.489  25.579  1.00  0.00     0.338 C 
ATOM     29  O   UNL A   1      43.967  23.679  24.412  1.00  0.00    -0.246 OA
BRANCH  28  30
ATOM     30  C   UNL A   1      42.948  24.511  26.382  1.00  0.00     0.060 A 
ATOM     31  C   UNL A   1      43.608  25.731  26.585  1.00  0.00     0.016 A 
ATOM     32  C   UNL A   1      41.711  24.264  26.982  1.00  0.00     0.016 A 
ATOM     33  C   UNL A   1      43.061  26.687  27.438  1.00  0.00     0.010 A 
ATOM     34  C   UNL A   1      41.169  25.223  27.844  1.00  0.00     0.010 A 
ATOM     35  C   UNL A   1      41.861  26.420  28.107  1.00  0.00    -0.014 A 
BRANCH  35  36
ATOM     36  C   UNL A   1      41.407  27.329  29.186  1.00  0.00     0.031 A 
ATOM     37  C   UNL A   1      42.212  27.418  30.454  1.00  0.00     0.074 A 
ATOM     38  C   UNL A   1      40.297  28.074  29.035  1.00  0.00     0.049 A 
ATOM     39  N   UNL A   1      41.994  28.136  31.524  1.00  0.00    -0.248 NA
ATOM     40  C   UNL A   1      43.421  26.581  30.527  1.00  0.00     0.031 C 
ATOM     41  C   UNL A   1      39.435  28.074  27.854  1.00  0.00     0.029 A 
ATOM     42  N   UNL A   1      39.693  28.956  29.895  1.00  0.00    -0.354 N 
ATOM     43  C   UNL A   1      43.020  27.821  32.408  1.00  0.00     0.074 A 
ATOM     44  C   UNL A   1      43.854  26.836  31.753  1.00  0.00     0.031 C 
ATOM     45  C   UNL A   1      38.395  28.896  28.075  1.00  0.00     0.029 A 
ATOM     46  C   UNL A   1      38.509  29.466  29.416  1.00  0.00     0.049 A 
ATOM     47  H   UNL A   1      40.072  29.203  30.769  1.00  0.00     0.167 HD
ATOM     48  C   UNL A   1      43.257  28.319  33.644  1.00  0.00     0.034 A 
ATOM     49  C   UNL A   1      37.612  30.283  30.003  1.00  0.00     0.034 A 
ATOM     50  C   UNL A   1      42.441  29.316  34.282  1.00  0.00     0.049 A 
ATOM     51  C   UNL A   1      37.893  30.813  31.385  1.00  0.00     0.074 A 
ATOM     52  C   UNL A   1      42.627  29.923  35.511  1.00  0.00     0.029 A 
ATOM     53  N   UNL A   1      41.276  29.845  33.747  1.00  0.00    -0.354 N 
ATOM     54  N   UNL A   1      38.933  30.603  32.155  1.00  0.00    -0.248 NA
ATOM     55  C   UNL A   1      36.892  31.723  31.965  1.00  0.00     0.031 C 
ATOM     56  C   UNL A   1      41.562  30.802  35.730  1.00  0.00     0.029 A 
ATOM     57  C   UNL A   1      40.725  30.762  34.626  1.00  0.00     0.049 A 
ATOM     58  H   UNL A   1      40.897  29.603  32.872  1.00  0.00     0.167 HD
ATOM     59  C   UNL A   1      38.731  31.381  33.291  1.00  0.00     0.074 A 
ATOM     60  C   UNL A   1      37.478  32.080  33.101  1.00  0.00     0.031 C 
ATOM     61  C   UNL A   1      39.507  31.495  34.398  1.00  0.00     0.034 A 
BRANCH  48  62
ATOM     62  C   UNL A   1      44.470  27.815  34.380  1.00  0.00     0.023 A 
ATOM     63  C   UNL A   1      45.704  28.476  34.224  1.00  0.00     0.012 A 
ATOM     64  C   UNL A   1      44.377  26.725  35.266  1.00  0.00     0.148 A 
ATOM     65  C   UNL A   1      46.835  28.044  34.916  1.00  0.00     0.002 A 
ATOM     66  C   UNL A   1      45.498  26.324  35.985  1.00  0.00     0.091 A 
ATOM     67  F   UNL A   1      43.201  26.092  35.382  1.00  0.00    -0.205 F 
ATOM     68  C   UNL A   1      46.730  26.976  35.803  1.00  0.00     0.022 A 
BRANCH  66  69
ATOM     69  S   UNL A   1      45.445  25.008  37.205  1.00  0.00     0.127 S 
ATOM     70  O   UNL A   1      45.252  23.829  36.361  1.00  0.00    -0.237 OA
ATOM     71  O   UNL A   1      46.769  25.105  37.822  1.00  0.00    -0.237 OA
ATOM     72  O   UNL A   1      44.339  25.330  38.095  1.00  0.00    -0.744 OA
ENDBRANCH  66  69
ENDBRANCH  48  62
BRANCH  49  73
ATOM     73  C   UNL A   1      36.379  30.683  29.268  1.00  0.00     0.023 A 
ATOM     74  C   UNL A   1      35.532  29.691  28.738  1.00  0.00     0.012 A 
ATOM     75  C   UNL A   1      36.032  32.039  29.109  1.00  0.00     0.148 A 
ATOM     76  C   UNL A   1      34.377  30.041  28.039  1.00  0.00     0.002 A 
ATOM     77  C   UNL A   1      34.853  32.380  28.458  1.00  0.00     0.091 A 
ATOM     78  F   UNL A   1      36.861  32.969  29.603  1.00  0.00    -0.205 F 
ATOM     79  C   UNL A   1      34.032  31.383  27.908  1.00  0.00     0.022 A 
BRANCH  77  80
ATOM     80  S   UNL A   1      34.267  34.075  28.354  1.00  0.00     0.127 S 
ATOM     81  O   UNL A   1      34.557  34.576  29.695  1.00  0.00    -0.237 OA
ATOM     82  O   UNL A   1      35.112  34.624  27.293  1.00  0.00    -0.237 OA
ATOM     83  O   UNL A   1      32.855  33.981  28.005  1.00  0.00    -0.744 OA
ENDBRANCH  77  80
ENDBRANCH  49  73
BRANCH  61  84
ATOM     84  C   UNL A   1      39.049  32.436  35.482  1.00  0.00     0.023 A 
ATOM     85  C   UNL A   1      38.078  32.016  36.412  1.00  0.00     0.012 A 
ATOM     86  C   UNL A   1      39.640  33.708  35.626  1.00  0.00     0.148 A 
ATOM     87  C   UNL A   1      37.680  32.857  37.451  1.00  0.00     0.002 A 
ATOM     88  C   UNL A   1      39.273  34.522  36.691  1.00  0.00     0.091 A 
ATOM     89  F   UNL A   1      40.549  34.098  34.720  1.00  0.00    -0.205 F 
ATOM     90  C   UNL A   1      38.286  34.103  37.598  1.00  0.00     0.022 A 
BRANCH  88  91
ATOM     91  S   UNL A   1      40.068  36.102  37.013  1.00  0.00     0.127 S 
ATOM     92  O   UNL A   1      39.265  36.619  38.120  1.00  0.00    -0.237 OA
ATOM     93  O   UNL A   1      41.425  35.698  37.380  1.00  0.00    -0.237 OA
ATOM     94  O   UNL A   1      39.979  36.854  35.769  1.00  0.00    -0.744 OA
ENDBRANCH  88  91
ENDBRANCH  61  84
ENDBRANCH  35  36
ENDBRANCH  28  30
ENDBRANCH  27  28
ENDBRANCH  26  27
ENDBRANCH  25  26
ENDBRANCH  24  25
ENDBRANCH   1  24
TORSDOF 22
ENDMDL
MODEL 3
REMARK VINA RESULT:      -9.9      2.060      2.974
REMARK SMILES CC[C@H](C)CN(CC)c1nc(C(=O)OCCOCCOC(=O)c2ccc(-c3c4nc(c(-c5cccc(S(=O)(=O)[O-])c5F)c5ccc([nH]5)c(-c5cccc(S(=O)(=O)[O-])c5F)c5nc(c(-c6cccc(S(=O)(=O)[O-])c6F)c6ccc3[nH]6)C=C5)C=C4)cc2)cc2ccccc12
REMARK SMILES IDX 16 1 15 2 14 3 12 4 13 5 11 6 9 7 10 8 92 9 87 10 91 11
REMARK SMILES IDX 86 12 88 13 90 14 89 15 6 16 5 17 3 18 4 19 2 20 1 21 7 22
REMARK SMILES IDX 8 23 17 24 18 25 19 26 20 27 21 28 22 29 23 30 24 31 85 32
REMARK SMILES IDX 25 33 84 34 26 35 27 36 28 37 78 38 29 39 83 40 77 41 79 42
REMARK SMILES IDX 30 43 82 44 76 45 75 46 31 48 63 49 43 50 62 51 44 52 47 53
REMARK SMILES IDX 61 54 80 55 45 56 46 57 60 59 81 60 48 61 32 62 33 63 41 64
REMARK SMILES IDX 34 65 36 66 42 67 35 68 37 69 38 70 39 71 40 72 64 73 65 74
REMARK SMILES IDX 73 75 66 76 68 77 74 78 67 79 69 80 70 81 71 82 72 83 49 84
REMARK SMILES IDX 50 85 58 86 51 87 53 88 59 89 52 90 54 91 55 92 56 93 57 94
REMARK H PARENT 79 47 47 58
REMARK Flexibility Score: inf
ROOT
ATOM      1  C   UNL A   1      31.434  29.975  25.233  1.00  0.00     0.202 C 
ENDROOT
BRANCH   1   2
ATOM      2  C   UNL A   1      32.345  29.113  24.352  1.00  0.00     0.261 C 
BRANCH   2   3
ATOM      3  O   UNL A   1      33.648  28.917  24.921  1.00  0.00    -0.459 OA
BRANCH   3   4
ATOM      4  C   UNL A   1      33.674  28.003  25.922  1.00  0.00     0.357 C 
ATOM      5  O   UNL A   1      33.997  28.223  27.085  1.00  0.00    -0.244 OA
BRANCH   4   6
ATOM      6  C   UNL A   1      33.122  26.682  25.516  1.00  0.00     0.151 A 
ATOM      7  C   UNL A   1      33.344  24.631  24.454  1.00  0.00     0.137 A 
ATOM      8  N   UNL A   1      33.772  25.909  24.611  1.00  0.00    -0.223 NA
ATOM      9  C   UNL A   1      32.326  24.090  25.291  1.00  0.00     0.024 A 
ATOM     10  C   UNL A   1      31.547  24.984  26.051  1.00  0.00    -0.012 A 
ATOM     11  C   UNL A   1      32.021  22.716  25.414  1.00  0.00     0.012 A 
ATOM     12  C   UNL A   1      31.959  26.300  26.162  1.00  0.00     0.045 A 
ATOM     13  C   UNL A   1      30.388  24.545  26.707  1.00  0.00     0.009 A 
ATOM     14  C   UNL A   1      30.887  22.274  26.100  1.00  0.00     0.001 A 
ATOM     15  C   UNL A   1      30.045  23.197  26.706  1.00  0.00     0.001 A 
BRANCH   7  16
ATOM     16  N   UNL A   1      33.874  23.857  23.405  1.00  0.00    -0.356 N 
BRANCH  16  17
ATOM     17  C   UNL A   1      34.262  22.447  23.706  1.00  0.00     0.121 C 
BRANCH  17  18
ATOM     18  C   UNL A   1      35.748  22.225  24.105  1.00  0.00     0.005 C 
ATOM     19  C   UNL A   1      36.698  22.972  23.160  1.00  0.00     0.009 C 
BRANCH  18  20
ATOM     20  C   UNL A   1      36.027  22.523  25.609  1.00  0.00     0.002 C 
ATOM     21  C   UNL A   1      36.851  23.765  25.929  1.00  0.00     0.004 C 
ENDBRANCH  18  20
ENDBRANCH  17  18
ENDBRANCH  16  17
BRANCH  16  22
ATOM     22  C   UNL A   1      33.247  24.079  22.086  1.00  0.00     0.114 C 
ATOM     23  C   UNL A   1      32.106  25.091  22.083  1.00  0.00     0.027 C 
ENDBRANCH  16  22
ENDBRANCH   7  16
ENDBRANCH   4   6
ENDBRANCH   3   4
ENDBRANCH   2   3
ENDBRANCH   1   2
BRANCH   1  24
ATOM     24  O   UNL A   1      32.063  30.842  26.176  1.00  0.00    -0.374 OA
BRANCH  24  25
ATOM     25  C   UNL A   1      31.295  31.942  26.666  1.00  0.00     0.202 C 
BRANCH  25  26
ATOM     26  C   UNL A   1      32.006  33.296  26.787  1.00  0.00     0.261 C 
BRANCH  26  27
ATOM     27  O   UNL A   1      32.314  33.625  28.154  1.00  0.00    -0.460 OA
BRANCH  27  28
ATOM     28  C   UNL A   1      33.409  34.400  28.322  1.00  0.00     0.338 C 
ATOM     29  O   UNL A   1      33.443  35.625  28.372  1.00  0.00    -0.246 OA
BRANCH  28  30
ATOM     30  C   UNL A   1      34.580  33.564  28.639  1.00  0.00     0.060 A 
ATOM     31  C   UNL A   1      34.352  32.365  29.328  1.00  0.00     0.016 A 
ATOM     32  C   UNL A   1      35.881  33.969  28.331  1.00  0.00     0.016 A 
ATOM     33  C   UNL A   1      35.428  31.595  29.765  1.00  0.00     0.010 A 
ATOM     34  C   UNL A   1      36.959  33.199  28.778  1.00  0.00     0.010 A 
ATOM     35  C   UNL A   1      36.737  32.031  29.532  1.00  0.00    -0.014 A 
BRANCH  35  36
ATOM     36  C   UNL A   1      37.867  31.341  30.199  1.00  0.00     0.031 A 
ATOM     37  C   UNL A   1      38.202  31.694  31.623  1.00  0.00     0.074 A 
ATOM     38  C   UNL A   1      38.581  30.405  29.547  1.00  0.00     0.049 A 
ATOM     39  N   UNL A   1      39.149  31.225  32.391  1.00  0.00    -0.248 NA
ATOM     40  C   UNL A   1      37.358  32.716  32.264  1.00  0.00     0.031 C 
ATOM     41  C   UNL A   1      38.353  29.978  28.168  1.00  0.00     0.029 A 
ATOM     42  N   UNL A   1      39.659  29.662  29.958  1.00  0.00    -0.354 N 
ATOM     43  C   UNL A   1      39.035  31.910  33.595  1.00  0.00     0.074 A 
ATOM     44  C   UNL A   1      37.934  32.838  33.451  1.00  0.00     0.031 C 
ATOM     45  C   UNL A   1      39.283  29.067  27.835  1.00  0.00     0.029 A 
ATOM     46  C   UNL A   1      40.181  28.861  28.970  1.00  0.00     0.049 A 
ATOM     47  H   UNL A   1      40.024  29.699  30.871  1.00  0.00     0.167 HD
ATOM     48  C   UNL A   1      39.768  31.768  34.724  1.00  0.00     0.034 A 
ATOM     49  C   UNL A   1      41.271  28.067  28.977  1.00  0.00     0.034 A 
ATOM     50  C   UNL A   1      40.846  30.828  34.873  1.00  0.00     0.049 A 
ATOM     51  C   UNL A   1      42.078  27.936  30.243  1.00  0.00     0.074 A 
ATOM     52  C   UNL A   1      41.616  30.572  35.994  1.00  0.00     0.029 A 
ATOM     53  N   UNL A   1      41.315  29.997  33.867  1.00  0.00    -0.354 N 
ATOM     54  N   UNL A   1      41.879  28.496  31.411  1.00  0.00    -0.248 NA
ATOM     55  C   UNL A   1      43.240  27.034  30.201  1.00  0.00     0.031 C 
ATOM     56  C   UNL A   1      42.566  29.602  35.658  1.00  0.00     0.029 A 
ATOM     57  C   UNL A   1      42.372  29.236  34.336  1.00  0.00     0.049 A 
ATOM     58  H   UNL A   1      40.951  29.956  32.954  1.00  0.00     0.167 HD
ATOM     59  C   UNL A   1      42.865  27.989  32.252  1.00  0.00     0.074 A 
ATOM     60  C   UNL A   1      43.649  27.062  31.463  1.00  0.00     0.031 C 
ATOM     61  C   UNL A   1      43.107  28.274  33.556  1.00  0.00     0.034 A 
BRANCH  48  62
ATOM     62  C   UNL A   1      39.408  32.631  35.904  1.00  0.00     0.023 A 
ATOM     63  C   UNL A   1      38.439  32.184  36.824  1.00  0.00     0.012 A 
ATOM     64  C   UNL A   1      40.067  33.854  36.134  1.00  0.00     0.148 A 
ATOM     65  C   UNL A   1      38.109  32.953  37.939  1.00  0.00     0.002 A 
ATOM     66  C   UNL A   1      39.763  34.597  37.269  1.00  0.00     0.091 A 
ATOM     67  F   UNL A   1      40.968  34.275  35.235  1.00  0.00    -0.205 F 
ATOM     68  C   UNL A   1      38.777  34.153  38.167  1.00  0.00     0.022 A 
BRANCH  66  69
ATOM     69  S   UNL A   1      40.622  36.118  37.688  1.00  0.00     0.127 S 
ATOM     70  O   UNL A   1      39.738  36.685  38.706  1.00  0.00    -0.237 OA
ATOM     71  O   UNL A   1      41.900  35.620  38.201  1.00  0.00    -0.237 OA
ATOM     72  O   UNL A   1      40.721  36.877  36.451  1.00  0.00    -0.744 OA
ENDBRANCH  66  69
ENDBRANCH  48  62
BRANCH  49  73
ATOM     73  C   UNL A   1      41.639  27.300  27.754  1.00  0.00     0.023 A 
ATOM     74  C   UNL A   1      42.208  27.974  26.656  1.00  0.00     0.012 A 
ATOM     75  C   UNL A   1      41.449  25.906  27.682  1.00  0.00     0.148 A 
ATOM     76  C   UNL A   1      42.553  27.279  25.497  1.00  0.00     0.002 A 
ATOM     77  C   UNL A   1      41.845  25.212  26.545  1.00  0.00     0.091 A 
ATOM     78  F   UNL A   1      40.889  25.286  28.729  1.00  0.00    -0.205 F 
ATOM     79  C   UNL A   1      42.382  25.898  25.445  1.00  0.00     0.022 A 
BRANCH  77  80
ATOM     80  S   UNL A   1      41.779  23.420  26.441  1.00  0.00     0.127 S 
ATOM     81  O   UNL A   1      42.541  23.162  25.222  1.00  0.00    -0.237 OA
ATOM     82  O   UNL A   1      42.444  23.019  27.681  1.00  0.00    -0.237 OA
ATOM     83  O   UNL A   1      40.362  23.082  26.386  1.00  0.00    -0.744 OA
ENDBRANCH  77  80
ENDBRANCH  49  73
BRANCH  61  84
ATOM     84  C   UNL A   1      44.245  27.554  34.232  1.00  0.00     0.023 A 
ATOM     85  C   UNL A   1      45.541  28.106  34.203  1.00  0.00     0.012 A 
ATOM     86  C   UNL A   1      44.013  26.372  34.965  1.00  0.00     0.148 A 
ATOM     87  C   UNL A   1      46.594  27.477  34.866  1.00  0.00     0.002 A 
ATOM     88  C   UNL A   1      45.057  25.777  35.662  1.00  0.00     0.091 A 
ATOM     89  F   UNL A   1      42.777  25.852  34.965  1.00  0.00    -0.205 F 
ATOM     90  C   UNL A   1      46.350  26.321  35.605  1.00  0.00     0.022 A 
BRANCH  88  91
ATOM     91  S   UNL A   1      44.815  24.341  36.716  1.00  0.00     0.127 S 
ATOM     92  O   UNL A   1      43.882  24.860  37.716  1.00  0.00    -0.237 OA
ATOM     93  O   UNL A   1      44.238  23.368  35.790  1.00  0.00    -0.237 OA
ATOM     94  O   UNL A   1      46.137  23.987  37.217  1.00  0.00    -0.744 OA
ENDBRANCH  88  91
ENDBRANCH  61  84
ENDBRANCH  35  36
ENDBRANCH  28  30
ENDBRANCH  27  28
ENDBRANCH  26  27
ENDBRANCH  25  26
ENDBRANCH  24  25
ENDBRANCH   1  24
TORSDOF 22
ENDMDL
