MODEL 1
REMARK VINA RESULT:      -8.1      0.000      0.000
REMARK SMILES CCCCCCNC(=O)Oc1cccc(-c2ccc([C@@H](C)C(=O)OCCOCCOC(=O)c3ccc(-c4c5nc(c(-c6cccc(S(=O)(=O)[O-])c6F)c6ccc([nH]6)c(-c6cccc(S(=O)(=O)[O-])c6F)c6nc(c(-c7cccc(S(=O)(=O)[O-])c7F)c7ccc4[nH]7)C=C6)C=C5)cc3)cc2O)c1
REMARK SMILES IDX 24 1 22 2 23 3 20 4 21 5 19 6 16 7 17 8 97 9 18 10 96 11
REMARK SMILES IDX 15 12 11 13 12 14 99 15 13 16 14 17 10 18 8 19 7 20 9 22
REMARK SMILES IDX 6 23 5 24 4 25 3 26 2 27 1 28 98 29 25 31 26 32 27 33 28 34
REMARK SMILES IDX 29 35 30 36 31 37 32 38 33 39 34 40 95 41 35 42 94 43 36 44
REMARK SMILES IDX 37 45 38 46 88 47 39 48 93 49 87 50 89 51 40 52 92 53 86 54
REMARK SMILES IDX 85 55 41 57 73 58 53 59 72 60 54 61 57 62 71 63 90 64 55 65
REMARK SMILES IDX 56 66 70 68 91 69 58 70 42 71 43 72 51 73 44 74 46 75 52 76
REMARK SMILES IDX 45 77 47 78 48 79 49 80 50 81 74 82 75 83 83 84 76 85 78 86
REMARK SMILES IDX 84 87 77 88 79 89 80 90 81 91 82 92 59 93 60 94 68 95 61 96
REMARK SMILES IDX 63 97 69 98 62 99 64 100 65 101 66 102 67 103
REMARK H PARENT 7 21 98 30 89 56 57 67
REMARK Flexibility Score: inf
ROOT
ATOM      1  O   UNL A   1      36.063  31.999  31.505  1.00  0.00    -0.463 OA
ENDROOT
BRANCH   1   2
ATOM      2  C   UNL A   1      36.428  31.552  30.277  1.00  0.00     0.313 C 
ATOM      3  O   UNL A   1      35.638  31.231  29.392  1.00  0.00    -0.252 OA
BRANCH   2   4
ATOM      4  C   UNL A   1      37.930  31.444  30.085  1.00  0.00     0.126 C 
ATOM      5  C   UNL A   1      38.416  32.616  29.235  1.00  0.00     0.025 C 
BRANCH   4   6
ATOM      6  C   UNL A   1      38.501  30.116  29.600  1.00  0.00    -0.030 A 
ATOM      7  C   UNL A   1      39.773  27.634  28.957  1.00  0.00     0.024 A 
ATOM      8  C   UNL A   1      39.990  28.794  28.193  1.00  0.00     0.013 A 
ATOM      9  C   UNL A   1      38.862  27.739  30.022  1.00  0.00     0.123 A 
ATOM     10  C   UNL A   1      39.373  30.016  28.511  1.00  0.00     0.005 A 
ATOM     11  C   UNL A   1      38.225  28.947  30.327  1.00  0.00     0.051 A 
BRANCH   7  12
ATOM     12  C   UNL A   1      40.546  26.405  28.677  1.00  0.00    -0.011 A 
ATOM     13  C   UNL A   1      40.686  24.070  28.015  1.00  0.00     0.133 A 
ATOM     14  C   UNL A   1      42.041  24.030  28.338  1.00  0.00     0.047 A 
ATOM     15  C   UNL A   1      39.939  25.241  28.175  1.00  0.00     0.056 A 
ATOM     16  C   UNL A   1      42.664  25.181  28.807  1.00  0.00     0.004 A 
ATOM     17  C   UNL A   1      41.922  26.353  28.979  1.00  0.00     0.009 A 
BRANCH  13  18
ATOM     18  O   UNL A   1      40.091  22.845  27.665  1.00  0.00    -0.410 OA
BRANCH  18  19
ATOM     19  C   UNL A   1      40.250  22.359  26.378  1.00  0.00     0.412 C 
ATOM     20  N   UNL A   1      39.135  22.507  25.603  1.00  0.00    -0.321 N 
ATOM     21  H   UNL A   1      39.192  22.156  24.684  1.00  0.00     0.167 HD
ATOM     22  O   UNL A   1      41.267  21.841  25.923  1.00  0.00    -0.224 OA
BRANCH  20  23
ATOM     23  C   UNL A   1      37.879  23.123  25.982  1.00  0.00     0.119 C 
BRANCH  23  24
ATOM     24  C   UNL A   1      37.058  23.543  24.761  1.00  0.00     0.021 C 
BRANCH  24  25
ATOM     25  C   UNL A   1      35.579  23.138  24.805  1.00  0.00     0.002 C 
BRANCH  25  26
ATOM     26  C   UNL A   1      34.711  23.913  25.803  1.00  0.00    -0.000 C 
BRANCH  26  27
ATOM     27  C   UNL A   1      34.134  23.087  26.955  1.00  0.00    -0.003 C 
ATOM     28  C   UNL A   1      34.530  21.620  26.901  1.00  0.00     0.004 C 
ENDBRANCH  26  27
ENDBRANCH  25  26
ENDBRANCH  24  25
ENDBRANCH  23  24
ENDBRANCH  20  23
ENDBRANCH  18  19
ENDBRANCH  13  18
ENDBRANCH   7  12
BRANCH   9  29
ATOM     29  O   UNL A   1      38.584  26.702  30.875  1.00  0.00    -0.507 OA
ATOM     30  H   UNL A   1      39.172  26.501  31.576  1.00  0.00     0.293 HD
ENDBRANCH   9  29
ENDBRANCH   4   6
ENDBRANCH   2   4
ENDBRANCH   1   2
BRANCH   1  31
ATOM     31  C   UNL A   1      34.701  32.441  31.637  1.00  0.00     0.261 C 
BRANCH  31  32
ATOM     32  C   UNL A   1      34.571  33.537  32.697  1.00  0.00     0.202 C 
BRANCH  32  33
ATOM     33  O   UNL A   1      35.777  33.942  33.343  1.00  0.00    -0.374 OA
BRANCH  33  34
ATOM     34  C   UNL A   1      35.712  34.211  34.745  1.00  0.00     0.202 C 
BRANCH  34  35
ATOM     35  C   UNL A   1      36.834  33.636  35.618  1.00  0.00     0.261 C 
BRANCH  35  36
ATOM     36  O   UNL A   1      37.067  32.241  35.368  1.00  0.00    -0.460 OA
BRANCH  36  37
ATOM     37  C   UNL A   1      38.168  31.726  35.967  1.00  0.00     0.338 C 
ATOM     38  O   UNL A   1      38.255  31.293  37.105  1.00  0.00    -0.246 OA
BRANCH  37  39
ATOM     39  C   UNL A   1      39.246  31.569  34.972  1.00  0.00     0.060 A 
ATOM     40  C   UNL A   1      38.938  30.898  33.779  1.00  0.00     0.016 A 
ATOM     41  C   UNL A   1      40.546  32.004  35.227  1.00  0.00     0.016 A 
ATOM     42  C   UNL A   1      39.944  30.609  32.859  1.00  0.00     0.010 A 
ATOM     43  C   UNL A   1      41.554  31.706  34.307  1.00  0.00     0.010 A 
ATOM     44  C   UNL A   1      41.265  30.975  33.139  1.00  0.00    -0.014 A 
BRANCH  44  45
ATOM     45  C   UNL A   1      42.380  30.451  32.313  1.00  0.00     0.031 A 
ATOM     46  C   UNL A   1      42.831  31.258  31.127  1.00  0.00     0.074 A 
ATOM     47  C   UNL A   1      42.945  29.262  32.585  1.00  0.00     0.049 A 
ATOM     48  N   UNL A   1      43.671  30.938  30.180  1.00  0.00    -0.248 NA
ATOM     49  C   UNL A   1      42.250  32.605  30.988  1.00  0.00     0.031 C 
ATOM     50  C   UNL A   1      42.609  28.404  33.720  1.00  0.00     0.029 A 
ATOM     51  N   UNL A   1      43.896  28.551  31.893  1.00  0.00    -0.354 N 
ATOM     52  C   UNL A   1      43.682  32.019  29.306  1.00  0.00     0.074 A 
ATOM     53  C   UNL A   1      42.773  33.008  29.839  1.00  0.00     0.031 C 
ATOM     54  C   UNL A   1      43.305  27.259  33.620  1.00  0.00     0.029 A 
ATOM     55  C   UNL A   1      44.106  27.289  32.397  1.00  0.00     0.049 A 
ATOM     56  H   UNL A   1      44.379  28.910  31.114  1.00  0.00     0.167 HD
ATOM     57  C   UNL A   1      44.390  32.172  28.163  1.00  0.00     0.034 A 
ATOM     58  C   UNL A   1      44.825  26.261  31.901  1.00  0.00     0.034 A 
ATOM     59  C   UNL A   1      45.314  31.197  27.654  1.00  0.00     0.049 A 
ATOM     60  C   UNL A   1      45.586  26.449  30.613  1.00  0.00     0.074 A 
ATOM     61  C   UNL A   1      46.118  31.279  26.531  1.00  0.00     0.029 A 
ATOM     62  N   UNL A   1      45.550  29.959  28.229  1.00  0.00    -0.354 N 
ATOM     63  N   UNL A   1      45.666  27.511  29.849  1.00  0.00    -0.248 NA
ATOM     64  C   UNL A   1      46.375  25.306  30.128  1.00  0.00     0.031 C 
ATOM     65  C   UNL A   1      46.821  30.078  26.411  1.00  0.00     0.029 A 
ATOM     66  C   UNL A   1      46.480  29.262  27.478  1.00  0.00     0.049 A 
ATOM     67  H   UNL A   1      45.121  29.624  29.049  1.00  0.00     0.167 HD
ATOM     68  C   UNL A   1      46.549  27.183  28.825  1.00  0.00     0.074 A 
ATOM     69  C   UNL A   1      46.980  25.822  29.066  1.00  0.00     0.031 C 
ATOM     70  C   UNL A   1      46.957  27.936  27.776  1.00  0.00     0.034 A 
BRANCH  57  71
ATOM     71  C   UNL A   1      44.209  33.448  27.387  1.00  0.00     0.023 A 
ATOM     72  C   UNL A   1      43.471  33.439  26.186  1.00  0.00     0.012 A 
ATOM     73  C   UNL A   1      44.706  34.668  27.886  1.00  0.00     0.148 A 
ATOM     74  C   UNL A   1      43.252  34.622  25.481  1.00  0.00     0.002 A 
ATOM     75  C   UNL A   1      44.447  35.848  27.200  1.00  0.00     0.091 A 
ATOM     76  F   UNL A   1      45.424  34.651  29.018  1.00  0.00    -0.205 F 
ATOM     77  C   UNL A   1      43.729  35.826  25.993  1.00  0.00     0.022 A 
BRANCH  75  78
ATOM     78  S   UNL A   1      44.949  37.458  27.820  1.00  0.00     0.127 S 
ATOM     79  O   UNL A   1      44.240  37.519  29.097  1.00  0.00    -0.237 OA
ATOM     80  O   UNL A   1      46.399  37.304  27.936  1.00  0.00    -0.237 OA
ATOM     81  O   UNL A   1      44.521  38.426  26.821  1.00  0.00    -0.744 OA
ENDBRANCH  75  78
ENDBRANCH  57  71
BRANCH  58  82
ATOM     82  C   UNL A   1      44.871  24.962  32.631  1.00  0.00     0.023 A 
ATOM     83  C   UNL A   1      43.916  23.968  32.344  1.00  0.00     0.012 A 
ATOM     84  C   UNL A   1      45.862  24.703  33.598  1.00  0.00     0.148 A 
ATOM     85  C   UNL A   1      43.926  22.753  33.030  1.00  0.00     0.002 A 
ATOM     86  C   UNL A   1      45.900  23.469  34.237  1.00  0.00     0.091 A 
ATOM     87  F   UNL A   1      46.752  25.668  33.873  1.00  0.00    -0.205 F 
ATOM     88  C   UNL A   1      44.923  22.499  33.968  1.00  0.00     0.022 A 
BRANCH  86  89
ATOM     89  S   UNL A   1      47.223  23.011  35.363  1.00  0.00     0.127 S 
ATOM     90  O   UNL A   1      47.012  23.941  36.468  1.00  0.00    -0.237 OA
ATOM     91  O   UNL A   1      46.898  21.615  35.661  1.00  0.00    -0.237 OA
ATOM     92  O   UNL A   1      48.457  23.190  34.610  1.00  0.00    -0.744 OA
ENDBRANCH  86  89
ENDBRANCH  58  82
BRANCH  70  93
ATOM     93  C   UNL A   1      47.975  27.354  26.832  1.00  0.00     0.023 A 
ATOM     94  C   UNL A   1      47.555  26.690  25.664  1.00  0.00     0.012 A 
ATOM     95  C   UNL A   1      49.350  27.588  27.041  1.00  0.00     0.148 A 
ATOM     96  C   UNL A   1      48.489  26.253  24.725  1.00  0.00     0.002 A 
ATOM     97  C   UNL A   1      50.270  27.193  26.079  1.00  0.00     0.091 A 
ATOM     98  F   UNL A   1      49.727  28.210  28.167  1.00  0.00    -0.205 F 
ATOM     99  C   UNL A   1      49.843  26.518  24.924  1.00  0.00     0.022 A 
BRANCH  97 100
ATOM    100  S   UNL A   1      52.020  27.582  26.199  1.00  0.00     0.127 S 
ATOM    101  O   UNL A   1      52.002  29.043  26.193  1.00  0.00    -0.237 OA
ATOM    102  O   UNL A   1      52.382  26.982  27.485  1.00  0.00    -0.237 OA
ATOM    103  O   UNL A   1      52.653  26.964  25.043  1.00  0.00    -0.744 OA
ENDBRANCH  97 100
ENDBRANCH  70  93
ENDBRANCH  44  45
ENDBRANCH  37  39
ENDBRANCH  36  37
ENDBRANCH  35  36
ENDBRANCH  34  35
ENDBRANCH  33  34
ENDBRANCH  32  33
ENDBRANCH  31  32
ENDBRANCH   1  31
TORSDOF 27
ENDMDL
MODEL 2
REMARK VINA RESULT:      -7.5      2.458      8.731
REMARK SMILES CCCCCCNC(=O)Oc1cccc(-c2ccc([C@@H](C)C(=O)OCCOCCOC(=O)c3ccc(-c4c5nc(c(-c6cccc(S(=O)(=O)[O-])c6F)c6ccc([nH]6)c(-c6cccc(S(=O)(=O)[O-])c6F)c6nc(c(-c7cccc(S(=O)(=O)[O-])c7F)c7ccc4[nH]7)C=C6)C=C5)cc3)cc2O)c1
REMARK SMILES IDX 24 1 22 2 23 3 20 4 21 5 19 6 16 7 17 8 97 9 18 10 96 11
REMARK SMILES IDX 15 12 11 13 12 14 99 15 13 16 14 17 10 18 8 19 7 20 9 22
REMARK SMILES IDX 6 23 5 24 4 25 3 26 2 27 1 28 98 29 25 31 26 32 27 33 28 34
REMARK SMILES IDX 29 35 30 36 31 37 32 38 33 39 34 40 95 41 35 42 94 43 36 44
REMARK SMILES IDX 37 45 38 46 88 47 39 48 93 49 87 50 89 51 40 52 92 53 86 54
REMARK SMILES IDX 85 55 41 57 73 58 53 59 72 60 54 61 57 62 71 63 90 64 55 65
REMARK SMILES IDX 56 66 70 68 91 69 58 70 42 71 43 72 51 73 44 74 46 75 52 76
REMARK SMILES IDX 45 77 47 78 48 79 49 80 50 81 74 82 75 83 83 84 76 85 78 86
REMARK SMILES IDX 84 87 77 88 79 89 80 90 81 91 82 92 59 93 60 94 68 95 61 96
REMARK SMILES IDX 63 97 69 98 62 99 64 100 65 101 66 102 67 103
REMARK H PARENT 7 21 98 30 89 56 57 67
REMARK Flexibility Score: inf
ROOT
ATOM      1  O   UNL A   1      37.913  29.766  29.710  1.00  0.00    -0.463 OA
ENDROOT
BRANCH   1   2
ATOM      2  C   UNL A   1      38.459  29.178  28.617  1.00  0.00     0.313 C 
ATOM      3  O   UNL A   1      38.535  29.705  27.508  1.00  0.00    -0.252 OA
BRANCH   2   4
ATOM      4  C   UNL A   1      38.957  27.765  28.864  1.00  0.00     0.126 C 
ATOM      5  C   UNL A   1      38.899  27.464  30.360  1.00  0.00     0.025 C 
BRANCH   4   6
ATOM      6  C   UNL A   1      40.292  27.354  28.252  1.00  0.00    -0.030 A 
ATOM      7  C   UNL A   1      42.694  26.266  27.141  1.00  0.00     0.024 A 
ATOM      8  C   UNL A   1      42.680  26.884  28.404  1.00  0.00     0.013 A 
ATOM      9  C   UNL A   1      41.484  26.254  26.429  1.00  0.00     0.123 A 
ATOM     10  C   UNL A   1      41.500  27.412  28.956  1.00  0.00     0.005 A 
ATOM     11  C   UNL A   1      40.311  26.801  26.962  1.00  0.00     0.051 A 
BRANCH   7  12
ATOM     12  C   UNL A   1      43.922  25.600  26.655  1.00  0.00    -0.011 A 
ATOM     13  C   UNL A   1      45.909  25.533  25.257  1.00  0.00     0.133 A 
ATOM     14  C   UNL A   1      46.153  24.208  25.615  1.00  0.00     0.047 A 
ATOM     15  C   UNL A   1      44.811  26.231  25.769  1.00  0.00     0.056 A 
ATOM     16  C   UNL A   1      45.299  23.579  26.515  1.00  0.00     0.004 A 
ATOM     17  C   UNL A   1      44.193  24.267  27.023  1.00  0.00     0.009 A 
BRANCH  13  18
ATOM     18  O   UNL A   1      46.735  26.069  24.252  1.00  0.00    -0.410 OA
BRANCH  18  19
ATOM     19  C   UNL A   1      46.924  27.440  24.193  1.00  0.00     0.412 C 
ATOM     20  N   UNL A   1      48.091  27.799  23.582  1.00  0.00    -0.321 N 
ATOM     21  H   UNL A   1      48.281  28.764  23.535  1.00  0.00     0.167 HD
ATOM     22  O   UNL A   1      46.153  28.294  24.627  1.00  0.00    -0.224 OA
BRANCH  20  23
ATOM     23  C   UNL A   1      49.080  26.918  22.993  1.00  0.00     0.119 C 
BRANCH  23  24
ATOM     24  C   UNL A   1      49.069  26.987  21.465  1.00  0.00     0.021 C 
BRANCH  24  25
ATOM     25  C   UNL A   1      49.778  28.210  20.868  1.00  0.00     0.002 C 
BRANCH  25  26
ATOM     26  C   UNL A   1      50.916  27.901  19.889  1.00  0.00    -0.000 C 
BRANCH  26  27
ATOM     27  C   UNL A   1      52.326  27.954  20.481  1.00  0.00    -0.003 C 
ATOM     28  C   UNL A   1      52.690  26.715  21.284  1.00  0.00     0.004 C 
ENDBRANCH  26  27
ENDBRANCH  25  26
ENDBRANCH  24  25
ENDBRANCH  23  24
ENDBRANCH  20  23
ENDBRANCH  18  19
ENDBRANCH  13  18
ENDBRANCH   7  12
BRANCH   9  29
ATOM     29  O   UNL A   1      41.341  25.651  25.204  1.00  0.00    -0.507 OA
ATOM     30  H   UNL A   1      40.630  25.059  25.054  1.00  0.00     0.293 HD
ENDBRANCH   9  29
ENDBRANCH   4   6
ENDBRANCH   2   4
ENDBRANCH   1   2
BRANCH   1  31
ATOM     31  C   UNL A   1      37.098  30.925  29.462  1.00  0.00     0.261 C 
BRANCH  31  32
ATOM     32  C   UNL A   1      37.798  32.207  29.919  1.00  0.00     0.202 C 
BRANCH  32  33
ATOM     33  O   UNL A   1      36.965  33.218  30.485  1.00  0.00    -0.374 OA
BRANCH  33  34
ATOM     34  C   UNL A   1      35.802  32.789  31.195  1.00  0.00     0.202 C 
BRANCH  34  35
ATOM     35  C   UNL A   1      35.613  33.333  32.617  1.00  0.00     0.261 C 
BRANCH  35  36
ATOM     36  O   UNL A   1      35.807  32.326  33.622  1.00  0.00    -0.460 OA
BRANCH  36  37
ATOM     37  C   UNL A   1      36.854  32.541  34.455  1.00  0.00     0.338 C 
ATOM     38  O   UNL A   1      36.841  33.140  35.518  1.00  0.00    -0.246 OA
BRANCH  37  39
ATOM     39  C   UNL A   1      38.021  31.764  33.995  1.00  0.00     0.060 A 
ATOM     40  C   UNL A   1      39.295  32.307  34.220  1.00  0.00     0.016 A 
ATOM     41  C   UNL A   1      37.872  30.567  33.295  1.00  0.00     0.016 A 
ATOM     42  C   UNL A   1      40.425  31.681  33.697  1.00  0.00     0.010 A 
ATOM     43  C   UNL A   1      39.006  29.946  32.764  1.00  0.00     0.010 A 
ATOM     44  C   UNL A   1      40.281  30.520  32.929  1.00  0.00    -0.014 A 
BRANCH  44  45
ATOM     45  C   UNL A   1      41.424  29.990  32.149  1.00  0.00     0.031 A 
ATOM     46  C   UNL A   1      42.101  28.737  32.631  1.00  0.00     0.074 A 
ATOM     47  C   UNL A   1      41.881  30.636  31.062  1.00  0.00     0.049 A 
ATOM     48  N   UNL A   1      43.202  28.175  32.210  1.00  0.00    -0.248 NA
ATOM     49  C   UNL A   1      41.450  28.025  33.746  1.00  0.00     0.031 C 
ATOM     50  C   UNL A   1      41.293  31.843  30.485  1.00  0.00     0.029 A 
ATOM     51  N   UNL A   1      42.979  30.385  30.274  1.00  0.00    -0.354 N 
ATOM     52  C   UNL A   1      43.404  27.076  33.036  1.00  0.00     0.074 A 
ATOM     53  C   UNL A   1      42.309  27.043  33.979  1.00  0.00     0.031 C 
ATOM     54  C   UNL A   1      42.064  32.259  29.466  1.00  0.00     0.029 A 
ATOM     55  C   UNL A   1      43.217  31.369  29.343  1.00  0.00     0.049 A 
ATOM     56  H   UNL A   1      43.539  29.581  30.367  1.00  0.00     0.167 HD
ATOM     57  C   UNL A   1      44.413  26.174  33.008  1.00  0.00     0.034 A 
ATOM     58  C   UNL A   1      44.270  31.553  28.520  1.00  0.00     0.034 A 
ATOM     59  C   UNL A   1      45.483  26.196  32.051  1.00  0.00     0.049 A 
ATOM     60  C   UNL A   1      45.393  30.547  28.525  1.00  0.00     0.074 A 
ATOM     61  C   UNL A   1      46.525  25.298  31.907  1.00  0.00     0.029 A 
ATOM     62  N   UNL A   1      45.654  27.170  31.080  1.00  0.00    -0.354 N 
ATOM     63  N   UNL A   1      45.522  29.458  29.243  1.00  0.00    -0.248 NA
ATOM     64  C   UNL A   1      46.506  30.780  27.590  1.00  0.00     0.031 C 
ATOM     65  C   UNL A   1      47.344  25.744  30.866  1.00  0.00     0.029 A 
ATOM     66  C   UNL A   1      46.791  26.901  30.339  1.00  0.00     0.049 A 
ATOM     67  H   UNL A   1      45.055  27.938  30.938  1.00  0.00     0.167 HD
ATOM     68  C   UNL A   1      46.699  28.852  28.814  1.00  0.00     0.074 A 
ATOM     69  C   UNL A   1      47.246  29.694  27.772  1.00  0.00     0.031 C 
ATOM     70  C   UNL A   1      47.279  27.709  29.252  1.00  0.00     0.034 A 
BRANCH  57  71
ATOM     71  C   UNL A   1      44.403  25.073  34.035  1.00  0.00     0.023 A 
ATOM     72  C   UNL A   1      43.858  23.816  33.707  1.00  0.00     0.012 A 
ATOM     73  C   UNL A   1      45.002  25.263  35.295  1.00  0.00     0.148 A 
ATOM     74  C   UNL A   1      43.887  22.771  34.630  1.00  0.00     0.002 A 
ATOM     75  C   UNL A   1      45.065  24.204  36.193  1.00  0.00     0.091 A 
ATOM     76  F   UNL A   1      45.495  26.473  35.593  1.00  0.00    -0.205 F 
ATOM     77  C   UNL A   1      44.499  22.960  35.866  1.00  0.00     0.022 A 
BRANCH  75  78
ATOM     78  S   UNL A   1      45.904  24.326  37.776  1.00  0.00     0.127 S 
ATOM     79  O   UNL A   1      44.908  25.026  38.586  1.00  0.00    -0.237 OA
ATOM     80  O   UNL A   1      46.097  22.920  38.131  1.00  0.00    -0.237 OA
ATOM     81  O   UNL A   1      47.134  25.063  37.525  1.00  0.00    -0.744 OA
ENDBRANCH  75  78
ENDBRANCH  57  71
BRANCH  58  82
ATOM     82  C   UNL A   1      44.308  32.734  27.610  1.00  0.00     0.023 A 
ATOM     83  C   UNL A   1      43.937  32.584  26.260  1.00  0.00     0.012 A 
ATOM     84  C   UNL A   1      44.701  34.003  28.077  1.00  0.00     0.148 A 
ATOM     85  C   UNL A   1      43.986  33.669  25.385  1.00  0.00     0.002 A 
ATOM     86  C   UNL A   1      44.693  35.092  27.214  1.00  0.00     0.091 A 
ATOM     87  F   UNL A   1      45.070  34.122  29.361  1.00  0.00    -0.205 F 
ATOM     88  C   UNL A   1      44.354  34.925  25.863  1.00  0.00     0.022 A 
BRANCH  86  89
ATOM     89  S   UNL A   1      45.028  36.766  27.775  1.00  0.00     0.127 S 
ATOM     90  O   UNL A   1      46.468  36.872  27.558  1.00  0.00    -0.237 OA
ATOM     91  O   UNL A   1      44.206  37.561  26.862  1.00  0.00    -0.237 OA
ATOM     92  O   UNL A   1      44.591  36.807  29.164  1.00  0.00    -0.744 OA
ENDBRANCH  86  89
ENDBRANCH  58  82
BRANCH  70  93
ATOM     93  C   UNL A   1      48.537  27.240  28.571  1.00  0.00     0.023 A 
ATOM     94  C   UNL A   1      48.457  26.414  27.433  1.00  0.00     0.012 A 
ATOM     95  C   UNL A   1      49.792  27.734  28.984  1.00  0.00     0.148 A 
ATOM     96  C   UNL A   1      49.610  26.074  26.726  1.00  0.00     0.002 A 
ATOM     97  C   UNL A   1      50.928  27.431  28.245  1.00  0.00     0.091 A 
ATOM     98  F   UNL A   1      49.844  28.508  30.077  1.00  0.00    -0.205 F 
ATOM     99  C   UNL A   1      50.841  26.594  27.121  1.00  0.00     0.022 A 
BRANCH  97 100
ATOM    100  S   UNL A   1      52.538  28.137  28.618  1.00  0.00     0.127 S 
ATOM    101  O   UNL A   1      53.385  27.491  27.616  1.00  0.00    -0.237 OA
ATOM    102  O   UNL A   1      52.309  29.565  28.393  1.00  0.00    -0.237 OA
ATOM    103  O   UNL A   1      52.829  27.779  29.998  1.00  0.00    -0.744 OA
ENDBRANCH  97 100
ENDBRANCH  70  93
ENDBRANCH  44  45
ENDBRANCH  37  39
ENDBRANCH  36  37
ENDBRANCH  35  36
ENDBRANCH  34  35
ENDBRANCH  33  34
ENDBRANCH  32  33
ENDBRANCH  31  32
ENDBRANCH   1  31
TORSDOF 27
ENDMDL
MODEL 3
REMARK VINA RESULT:      -7.4      3.807      5.590
REMARK SMILES CCCCCCNC(=O)Oc1cccc(-c2ccc([C@@H](C)C(=O)OCCOCCOC(=O)c3ccc(-c4c5nc(c(-c6cccc(S(=O)(=O)[O-])c6F)c6ccc([nH]6)c(-c6cccc(S(=O)(=O)[O-])c6F)c6nc(c(-c7cccc(S(=O)(=O)[O-])c7F)c7ccc4[nH]7)C=C6)C=C5)cc3)cc2O)c1
REMARK SMILES IDX 24 1 22 2 23 3 20 4 21 5 19 6 16 7 17 8 97 9 18 10 96 11
REMARK SMILES IDX 15 12 11 13 12 14 99 15 13 16 14 17 10 18 8 19 7 20 9 22
REMARK SMILES IDX 6 23 5 24 4 25 3 26 2 27 1 28 98 29 25 31 26 32 27 33 28 34
REMARK SMILES IDX 29 35 30 36 31 37 32 38 33 39 34 40 95 41 35 42 94 43 36 44
REMARK SMILES IDX 37 45 38 46 88 47 39 48 93 49 87 50 89 51 40 52 92 53 86 54
REMARK SMILES IDX 85 55 41 57 73 58 53 59 72 60 54 61 57 62 71 63 90 64 55 65
REMARK SMILES IDX 56 66 70 68 91 69 58 70 42 71 43 72 51 73 44 74 46 75 52 76
REMARK SMILES IDX 45 77 47 78 48 79 49 80 50 81 74 82 75 83 83 84 76 85 78 86
REMARK SMILES IDX 84 87 77 88 79 89 80 90 81 91 82 92 59 93 60 94 68 95 61 96
REMARK SMILES IDX 63 97 69 98 62 99 64 100 65 101 66 102 67 103
REMARK H PARENT 7 21 98 30 89 56 57 67
REMARK Flexibility Score: inf
ROOT
ATOM      1  O   UNL A   1      36.167  32.651  30.976  1.00  0.00    -0.463 OA
ENDROOT
BRANCH   1   2
ATOM      2  C   UNL A   1      36.678  32.103  29.845  1.00  0.00     0.313 C 
ATOM      3  O   UNL A   1      36.051  31.956  28.798  1.00  0.00    -0.252 OA
BRANCH   2   4
ATOM      4  C   UNL A   1      38.117  31.639  29.985  1.00  0.00     0.126 C 
ATOM      5  C   UNL A   1      39.048  32.699  29.403  1.00  0.00     0.025 C 
BRANCH   4   6
ATOM      6  C   UNL A   1      38.473  30.239  29.496  1.00  0.00    -0.030 A 
ATOM      7  C   UNL A   1      39.407  27.630  28.779  1.00  0.00     0.024 A 
ATOM      8  C   UNL A   1      39.464  28.708  27.877  1.00  0.00     0.013 A 
ATOM      9  C   UNL A   1      38.823  27.884  30.031  1.00  0.00     0.123 A 
ATOM     10  C   UNL A   1      39.014  29.991  28.229  1.00  0.00     0.005 A 
ATOM     11  C   UNL A   1      38.349  29.154  30.378  1.00  0.00     0.051 A 
BRANCH   7  12
ATOM     12  C   UNL A   1      40.018  26.331  28.423  1.00  0.00    -0.011 A 
ATOM     13  C   UNL A   1      39.853  24.016  27.702  1.00  0.00     0.133 A 
ATOM     14  C   UNL A   1      41.211  23.815  27.937  1.00  0.00     0.047 A 
ATOM     15  C   UNL A   1      39.253  25.258  27.935  1.00  0.00     0.056 A 
ATOM     16  C   UNL A   1      41.987  24.875  28.391  1.00  0.00     0.004 A 
ATOM     17  C   UNL A   1      41.395  26.117  28.636  1.00  0.00     0.009 A 
BRANCH  13  18
ATOM     18  O   UNL A   1      39.102  22.875  27.364  1.00  0.00    -0.410 OA
BRANCH  18  19
ATOM     19  C   UNL A   1      39.427  22.168  26.219  1.00  0.00     0.412 C 
ATOM     20  N   UNL A   1      38.547  22.364  25.193  1.00  0.00    -0.321 N 
ATOM     21  H   UNL A   1      38.723  21.865  24.363  1.00  0.00     0.167 HD
ATOM     22  O   UNL A   1      40.397  21.426  26.079  1.00  0.00    -0.224 OA
BRANCH  20  23
ATOM     23  C   UNL A   1      37.382  23.228  25.191  1.00  0.00     0.119 C 
BRANCH  23  24
ATOM     24  C   UNL A   1      36.183  22.567  24.509  1.00  0.00     0.021 C 
BRANCH  24  25
ATOM     25  C   UNL A   1      35.129  21.996  25.467  1.00  0.00     0.002 C 
BRANCH  25  26
ATOM     26  C   UNL A   1      34.720  22.915  26.623  1.00  0.00    -0.000 C 
BRANCH  26  27
ATOM     27  C   UNL A   1      33.522  23.826  26.348  1.00  0.00    -0.003 C 
ATOM     28  C   UNL A   1      33.910  25.161  25.730  1.00  0.00     0.004 C 
ENDBRANCH  26  27
ENDBRANCH  25  26
ENDBRANCH  24  25
ENDBRANCH  23  24
ENDBRANCH  20  23
ENDBRANCH  18  19
ENDBRANCH  13  18
ENDBRANCH   7  12
BRANCH   9  29
ATOM     29  O   UNL A   1      38.736  26.939  31.023  1.00  0.00    -0.507 OA
ATOM     30  H   UNL A   1      38.123  27.050  31.723  1.00  0.00     0.293 HD
ENDBRANCH   9  29
ENDBRANCH   4   6
ENDBRANCH   2   4
ENDBRANCH   1   2
BRANCH   1  31
ATOM     31  C   UNL A   1      34.736  32.781  31.023  1.00  0.00     0.261 C 
BRANCH  31  32
ATOM     32  C   UNL A   1      34.303  33.809  32.071  1.00  0.00     0.202 C 
BRANCH  32  33
ATOM     33  O   UNL A   1      35.349  34.528  32.724  1.00  0.00    -0.374 OA
BRANCH  33  34
ATOM     34  C   UNL A   1      35.182  34.810  34.115  1.00  0.00     0.202 C 
BRANCH  34  35
ATOM     35  C   UNL A   1      35.922  33.901  35.104  1.00  0.00     0.261 C 
BRANCH  35  36
ATOM     36  O   UNL A   1      36.520  32.762  34.464  1.00  0.00    -0.460 OA
BRANCH  36  37
ATOM     37  C   UNL A   1      37.589  32.237  35.110  1.00  0.00     0.338 C 
ATOM     38  O   UNL A   1      37.579  31.387  35.986  1.00  0.00    -0.246 OA
BRANCH  37  39
ATOM     39  C   UNL A   1      38.834  32.696  34.463  1.00  0.00     0.060 A 
ATOM     40  C   UNL A   1      38.715  33.460  33.293  1.00  0.00     0.016 A 
ATOM     41  C   UNL A   1      40.089  32.329  34.949  1.00  0.00     0.016 A 
ATOM     42  C   UNL A   1      39.854  33.814  32.571  1.00  0.00     0.010 A 
ATOM     43  C   UNL A   1      41.227  32.678  34.219  1.00  0.00     0.010 A 
ATOM     44  C   UNL A   1      41.113  33.387  33.008  1.00  0.00    -0.014 A 
BRANCH  44  45
ATOM     45  C   UNL A   1      42.298  33.521  32.128  1.00  0.00     0.031 A 
ATOM     46  C   UNL A   1      43.112  34.782  32.211  1.00  0.00     0.074 A 
ATOM     47  C   UNL A   1      42.615  32.562  31.240  1.00  0.00     0.049 A 
ATOM     48  N   UNL A   1      44.089  35.190  31.445  1.00  0.00    -0.248 NA
ATOM     49  C   UNL A   1      42.774  35.713  33.302  1.00  0.00     0.031 C 
ATOM     50  C   UNL A   1      41.916  31.288  31.085  1.00  0.00     0.029 A 
ATOM     51  N   UNL A   1      43.585  32.536  30.268  1.00  0.00    -0.354 N 
ATOM     52  C   UNL A   1      44.447  36.443  31.927  1.00  0.00     0.074 A 
ATOM     53  C   UNL A   1      43.591  36.727  33.057  1.00  0.00     0.031 C 
ATOM     54  C   UNL A   1      42.448  30.624  30.045  1.00  0.00     0.029 A 
ATOM     55  C   UNL A   1      43.497  31.442  29.439  1.00  0.00     0.049 A 
ATOM     56  H   UNL A   1      44.276  33.231  30.174  1.00  0.00     0.167 HD
ATOM     57  C   UNL A   1      45.407  37.280  31.469  1.00  0.00     0.034 A 
ATOM     58  C   UNL A   1      44.156  31.159  28.296  1.00  0.00     0.034 A 
ATOM     59  C   UNL A   1      46.274  36.979  30.364  1.00  0.00     0.049 A 
ATOM     60  C   UNL A   1      45.204  32.119  27.793  1.00  0.00     0.074 A 
ATOM     61  C   UNL A   1      47.312  37.739  29.855  1.00  0.00     0.029 A 
ATOM     62  N   UNL A   1      46.198  35.831  29.592  1.00  0.00    -0.354 N 
ATOM     63  N   UNL A   1      45.602  33.254  28.316  1.00  0.00    -0.248 NA
ATOM     64  C   UNL A   1      45.912  31.751  26.557  1.00  0.00     0.031 C 
ATOM     65  C   UNL A   1      47.847  37.063  28.755  1.00  0.00     0.029 A 
ATOM     66  C   UNL A   1      47.164  35.866  28.602  1.00  0.00     0.049 A 
ATOM     67  H   UNL A   1      45.554  35.100  29.727  1.00  0.00     0.167 HD
ATOM     68  C   UNL A   1      46.636  33.709  27.503  1.00  0.00     0.074 A 
ATOM     69  C   UNL A   1      46.806  32.727  26.454  1.00  0.00     0.031 C 
ATOM     70  C   UNL A   1      47.370  34.842  27.611  1.00  0.00     0.034 A 
BRANCH  57  71
ATOM     71  C   UNL A   1      45.586  38.599  32.171  1.00  0.00     0.023 A 
ATOM     72  C   UNL A   1      44.848  39.723  31.748  1.00  0.00     0.012 A 
ATOM     73  C   UNL A   1      46.429  38.706  33.294  1.00  0.00     0.148 A 
ATOM     74  C   UNL A   1      44.965  40.939  32.419  1.00  0.00     0.002 A 
ATOM     75  C   UNL A   1      46.508  39.909  33.983  1.00  0.00     0.091 A 
ATOM     76  F   UNL A   1      47.139  37.631  33.665  1.00  0.00    -0.205 F 
ATOM     77  C   UNL A   1      45.785  41.030  33.541  1.00  0.00     0.022 A 
BRANCH  75  78
ATOM     78  S   UNL A   1      47.472  40.103  35.486  1.00  0.00     0.127 S 
ATOM     79  O   UNL A   1      47.320  41.532  35.754  1.00  0.00    -0.237 OA
ATOM     80  O   UNL A   1      46.761  39.230  36.422  1.00  0.00    -0.237 OA
ATOM     81  O   UNL A   1      48.822  39.669  35.159  1.00  0.00    -0.744 OA
ENDBRANCH  75  78
ENDBRANCH  57  71
BRANCH  58  82
ATOM     82  C   UNL A   1      43.854  29.902  27.553  1.00  0.00     0.023 A 
ATOM     83  C   UNL A   1      42.770  29.869  26.655  1.00  0.00     0.012 A 
ATOM     84  C   UNL A   1      44.641  28.746  27.723  1.00  0.00     0.148 A 
ATOM     85  C   UNL A   1      42.454  28.698  25.964  1.00  0.00     0.002 A 
ATOM     86  C   UNL A   1      44.356  27.601  26.990  1.00  0.00     0.091 A 
ATOM     87  F   UNL A   1      45.657  28.791  28.596  1.00  0.00    -0.205 F 
ATOM     88  C   UNL A   1      43.253  27.568  26.123  1.00  0.00     0.022 A 
BRANCH  86  89
ATOM     89  S   UNL A   1      45.407  26.144  27.035  1.00  0.00     0.127 S 
ATOM     90  O   UNL A   1      46.669  26.669  26.522  1.00  0.00    -0.237 OA
ATOM     91  O   UNL A   1      45.409  25.816  28.462  1.00  0.00    -0.237 OA
ATOM     92  O   UNL A   1      44.742  25.156  26.196  1.00  0.00    -0.744 OA
ENDBRANCH  86  89
ENDBRANCH  58  82
BRANCH  70  93
ATOM     93  C   UNL A   1      48.481  35.070  26.620  1.00  0.00     0.023 A 
ATOM     94  C   UNL A   1      48.267  35.897  25.500  1.00  0.00     0.012 A 
ATOM     95  C   UNL A   1      49.774  34.571  26.879  1.00  0.00     0.148 A 
ATOM     96  C   UNL A   1      49.322  36.210  24.643  1.00  0.00     0.002 A 
ATOM     97  C   UNL A   1      50.828  34.927  26.048  1.00  0.00     0.091 A 
ATOM     98  F   UNL A   1      49.949  33.776  27.944  1.00  0.00    -0.205 F 
ATOM     99  C   UNL A   1      50.603  35.740  24.925  1.00  0.00     0.022 A 
BRANCH  97 100
ATOM    100  S   UNL A   1      52.528  34.455  26.389  1.00  0.00     0.127 S 
ATOM    101  O   UNL A   1      52.590  34.594  27.843  1.00  0.00    -0.237 OA
ATOM    102  O   UNL A   1      52.567  33.073  25.907  1.00  0.00    -0.237 OA
ATOM    103  O   UNL A   1      53.365  35.383  25.641  1.00  0.00    -0.744 OA
ENDBRANCH  97 100
ENDBRANCH  70  93
ENDBRANCH  44  45
ENDBRANCH  37  39
ENDBRANCH  36  37
ENDBRANCH  35  36
ENDBRANCH  34  35
ENDBRANCH  33  34
ENDBRANCH  32  33
ENDBRANCH  31  32
ENDBRANCH   1  31
TORSDOF 27
ENDMDL
