MODEL 1
REMARK VINA RESULT:     -11.7      0.000      0.000
REMARK SMILES O=C(OCCOCCOC(=O)c1ccccc1-c1ccc(/C=C2/SC(=S)N(Cc3ccccc3)C2=O)o1)c1ccc(-c2c3nc(c(-c4cccc(S(=O)(=O)[O-])c4F)c4ccc([nH]4)c(-c4cccc(S(=O)(=O)[O-])c4F)c4nc(c(-c5cccc(S(=O)(=O)[O-])c5F)c5ccc2[nH]5)C=C4)C=C3)cc1
REMARK SMILES IDX 7 1 6 2 5 3 4 4 3 5 2 6 1 7 38 8 39 9 100 10 40 11 99 12
REMARK SMILES IDX 41 13 42 14 43 15 93 16 44 17 98 18 92 19 94 20 45 21 97 22
REMARK SMILES IDX 91 23 90 24 46 26 78 27 58 28 77 29 59 30 62 31 76 32 95 33
REMARK SMILES IDX 60 34 61 35 75 37 96 38 63 39 47 40 48 41 56 42 49 43 51 44
REMARK SMILES IDX 57 45 50 46 52 47 53 48 54 49 55 50 79 51 80 52 88 53 81 54
REMARK SMILES IDX 83 55 89 56 82 57 84 58 85 59 86 60 87 61 64 62 65 63 73 64
REMARK SMILES IDX 66 65 68 66 74 67 67 68 69 69 70 70 71 71 72 72 8 73 9 74
REMARK SMILES IDX 10 75 11 76 12 77 13 78 17 79 14 80 16 81 15 82 18 83 19 84
REMARK SMILES IDX 37 85 20 86 21 87 22 88 23 89 24 90 35 91 25 92 27 93 36 94
REMARK SMILES IDX 26 95 28 96 29 97 30 98 34 99 31 100 33 101 32 102
REMARK H PARENT 94 25 62 36
REMARK Flexibility Score: inf
ROOT
ATOM      1  C   UNL A   1      37.779  22.365  25.738  1.00  0.00     0.202 C 
ENDROOT
BRANCH   1   2
ATOM      2  O   UNL A   1      37.857  21.554  24.561  1.00  0.00    -0.374 OA
BRANCH   2   3
ATOM      3  C   UNL A   1      38.172  20.179  24.769  1.00  0.00     0.202 C 
BRANCH   3   4
ATOM      4  C   UNL A   1      38.997  19.939  26.037  1.00  0.00     0.261 C 
BRANCH   4   5
ATOM      5  O   UNL A   1      40.275  19.362  25.712  1.00  0.00    -0.460 OA
BRANCH   5   6
ATOM      6  C   UNL A   1      41.511  19.767  26.088  1.00  0.00     0.338 C 
ATOM      7  O   UNL A   1      42.401  18.918  26.142  1.00  0.00    -0.246 OA
BRANCH   6   8
ATOM      8  C   UNL A   1      41.867  21.176  26.453  1.00  0.00     0.060 A 
ATOM      9  C   UNL A   1      41.846  22.262  25.579  1.00  0.00     0.016 A 
ATOM     10  C   UNL A   1      42.156  21.438  27.805  1.00  0.00     0.016 A 
ATOM     11  C   UNL A   1      42.076  23.555  26.002  1.00  0.00     0.010 A 
ATOM     12  C   UNL A   1      42.408  22.741  28.248  1.00  0.00     0.010 A 
ATOM     13  C   UNL A   1      42.365  23.798  27.335  1.00  0.00    -0.014 A 
BRANCH  13  14
ATOM     14  C   UNL A   1      42.772  25.170  27.655  1.00  0.00     0.031 A 
ATOM     15  C   UNL A   1      44.085  25.642  27.120  1.00  0.00     0.074 A 
ATOM     16  C   UNL A   1      41.876  26.004  28.212  1.00  0.00     0.049 A 
ATOM     17  N   UNL A   1      44.647  26.812  27.228  1.00  0.00    -0.248 NA
ATOM     18  C   UNL A   1      44.860  24.669  26.325  1.00  0.00     0.031 C 
ATOM     19  C   UNL A   1      40.514  25.634  28.609  1.00  0.00     0.029 A 
ATOM     20  N   UNL A   1      41.961  27.335  28.508  1.00  0.00    -0.354 N 
ATOM     21  C   UNL A   1      45.855  26.706  26.555  1.00  0.00     0.074 A 
ATOM     22  C   UNL A   1      45.943  25.366  26.025  1.00  0.00     0.031 C 
ATOM     23  C   UNL A   1      39.894  26.715  29.108  1.00  0.00     0.029 A 
ATOM     24  C   UNL A   1      40.833  27.830  29.120  1.00  0.00     0.049 A 
ATOM     25  H   UNL A   1      42.751  27.885  28.305  1.00  0.00     0.167 HD
ATOM     26  C   UNL A   1      46.804  27.656  26.402  1.00  0.00     0.034 A 
ATOM     27  C   UNL A   1      40.619  29.041  29.664  1.00  0.00     0.034 A 
ATOM     28  C   UNL A   1      46.676  28.974  26.951  1.00  0.00     0.049 A 
ATOM     29  C   UNL A   1      41.734  30.048  29.566  1.00  0.00     0.074 A 
ATOM     30  C   UNL A   1      47.594  30.005  26.953  1.00  0.00     0.029 A 
ATOM     31  N   UNL A   1      45.542  29.439  27.607  1.00  0.00    -0.354 N 
ATOM     32  N   UNL A   1      42.891  29.938  28.955  1.00  0.00    -0.248 NA
ATOM     33  C   UNL A   1      41.516  31.346  30.214  1.00  0.00     0.031 C 
ATOM     34  C   UNL A   1      47.022  31.085  27.634  1.00  0.00     0.029 A 
ATOM     35  C   UNL A   1      45.734  30.741  28.021  1.00  0.00     0.049 A 
ATOM     36  H   UNL A   1      44.721  28.915  27.753  1.00  0.00     0.167 HD
ATOM     37  C   UNL A   1      43.530  31.158  29.122  1.00  0.00     0.074 A 
ATOM     38  C   UNL A   1      42.615  32.002  29.867  1.00  0.00     0.031 C 
ATOM     39  C   UNL A   1      44.765  31.549  28.720  1.00  0.00     0.034 A 
BRANCH  26  40
ATOM     40  C   UNL A   1      48.052  27.262  25.663  1.00  0.00     0.023 A 
ATOM     41  C   UNL A   1      49.143  26.707  26.361  1.00  0.00     0.012 A 
ATOM     42  C   UNL A   1      48.156  27.480  24.275  1.00  0.00     0.148 A 
ATOM     43  C   UNL A   1      50.333  26.410  25.695  1.00  0.00     0.002 A 
ATOM     44  C   UNL A   1      49.329  27.142  23.611  1.00  0.00     0.091 A 
ATOM     45  F   UNL A   1      47.117  28.038  23.638  1.00  0.00    -0.205 F 
ATOM     46  C   UNL A   1      50.423  26.620  24.322  1.00  0.00     0.022 A 
BRANCH  44  47
ATOM     47  S   UNL A   1      49.528  27.331  21.838  1.00  0.00     0.127 S 
ATOM     48  O   UNL A   1      48.403  26.548  21.329  1.00  0.00    -0.237 OA
ATOM     49  O   UNL A   1      49.389  28.777  21.670  1.00  0.00    -0.237 OA
ATOM     50  O   UNL A   1      50.846  26.802  21.519  1.00  0.00    -0.744 OA
ENDBRANCH  44  47
ENDBRANCH  26  40
BRANCH  27  51
ATOM     51  C   UNL A   1      39.339  29.348  30.369  1.00  0.00     0.023 A 
ATOM     52  C   UNL A   1      39.004  28.669  31.556  1.00  0.00     0.012 A 
ATOM     53  C   UNL A   1      38.443  30.310  29.859  1.00  0.00     0.148 A 
ATOM     54  C   UNL A   1      37.787  28.912  32.196  1.00  0.00     0.002 A 
ATOM     55  C   UNL A   1      37.260  30.589  30.533  1.00  0.00     0.091 A 
ATOM     56  F   UNL A   1      38.760  30.933  28.715  1.00  0.00    -0.205 F 
ATOM     57  C   UNL A   1      36.919  29.878  31.692  1.00  0.00     0.022 A 
BRANCH  55  58
ATOM     58  S   UNL A   1      36.152  31.906  30.014  1.00  0.00     0.127 S 
ATOM     59  O   UNL A   1      35.047  31.755  30.957  1.00  0.00    -0.237 OA
ATOM     60  O   UNL A   1      36.977  33.098  30.218  1.00  0.00    -0.237 OA
ATOM     61  O   UNL A   1      35.842  31.628  28.619  1.00  0.00    -0.744 OA
ENDBRANCH  55  58
ENDBRANCH  27  51
BRANCH  39  62
ATOM     62  C   UNL A   1      45.170  32.960  29.042  1.00  0.00     0.023 A 
ATOM     63  C   UNL A   1      45.818  33.243  30.260  1.00  0.00     0.012 A 
ATOM     64  C   UNL A   1      44.979  33.984  28.095  1.00  0.00     0.148 A 
ATOM     65  C   UNL A   1      46.243  34.539  30.544  1.00  0.00     0.002 A 
ATOM     66  C   UNL A   1      45.457  35.258  28.362  1.00  0.00     0.091 A 
ATOM     67  F   UNL A   1      44.341  33.689  26.954  1.00  0.00    -0.205 F 
ATOM     68  C   UNL A   1      46.076  35.541  29.590  1.00  0.00     0.022 A 
BRANCH  66  69
ATOM     69  S   UNL A   1      45.385  36.578  27.147  1.00  0.00     0.127 S 
ATOM     70  O   UNL A   1      46.103  35.985  26.021  1.00  0.00    -0.237 OA
ATOM     71  O   UNL A   1      43.945  36.730  26.942  1.00  0.00    -0.237 OA
ATOM     72  O   UNL A   1      46.031  37.727  27.767  1.00  0.00    -0.744 OA
ENDBRANCH  66  69
ENDBRANCH  39  62
ENDBRANCH  13  14
ENDBRANCH   6   8
ENDBRANCH   5   6
ENDBRANCH   4   5
ENDBRANCH   3   4
ENDBRANCH   2   3
ENDBRANCH   1   2
BRANCH   1  73
ATOM     73  C   UNL A   1      37.049  23.641  25.371  1.00  0.00     0.261 C 
BRANCH  73  74
ATOM     74  O   UNL A   1      35.680  23.405  25.700  1.00  0.00    -0.460 OA
BRANCH  74  75
ATOM     75  C   UNL A   1      34.751  23.548  24.728  1.00  0.00     0.338 C 
ATOM     76  O   UNL A   1      34.634  24.447  23.915  1.00  0.00    -0.246 OA
BRANCH  75  77
ATOM     77  C   UNL A   1      33.929  22.317  24.749  1.00  0.00     0.071 A 
ATOM     78  C   UNL A   1      34.593  21.099  24.567  1.00  0.00     0.016 A 
ATOM     79  C   UNL A   1      32.552  22.359  25.051  1.00  0.00     0.032 A 
ATOM     80  C   UNL A   1      33.896  19.905  24.738  1.00  0.00     0.001 A 
ATOM     81  C   UNL A   1      31.867  21.153  25.219  1.00  0.00     0.013 A 
ATOM     82  C   UNL A   1      32.539  19.933  25.068  1.00  0.00     0.001 A 
BRANCH  79  83
ATOM     83  C   UNL A   1      31.885  23.643  25.207  1.00  0.00     0.135 A 
ATOM     84  C   UNL A   1      31.951  24.595  26.204  1.00  0.00     0.051 A 
ATOM     85  O   UNL A   1      30.838  23.901  24.373  1.00  0.00    -0.457 OA
ATOM     86  C   UNL A   1      30.783  25.365  26.069  1.00  0.00     0.051 A 
ATOM     87  C   UNL A   1      30.179  25.000  24.870  1.00  0.00     0.128 A 
BRANCH  87  88
ATOM     88  C   UNL A   1      29.132  25.696  24.214  1.00  0.00     0.068 C 
ATOM     89  C   UNL A   1      29.448  26.829  23.571  1.00  0.00     0.084 C 
ATOM     90  S   UNL A   1      28.360  28.080  23.133  1.00  0.00    -0.054 SA
ATOM     91  C   UNL A   1      30.841  27.297  23.333  1.00  0.00     0.266 C 
ATOM     92  C   UNL A   1      29.659  29.290  23.140  1.00  0.00     0.148 C 
ATOM     93  N   UNL A   1      30.875  28.671  23.318  1.00  0.00    -0.288 N 
ATOM     94  O   UNL A   1      31.795  26.562  23.117  1.00  0.00    -0.268 OA
ATOM     95  S   UNL A   1      29.354  30.915  22.922  1.00  0.00    -0.052 S 
BRANCH  93  96
ATOM     96  C   UNL A   1      32.184  29.318  23.387  1.00  0.00     0.163 C 
BRANCH  96  97
ATOM     97  C   UNL A   1      32.772  29.322  24.787  1.00  0.00    -0.028 A 
ATOM     98  C   UNL A   1      33.889  28.532  25.090  1.00  0.00     0.005 A 
ATOM     99  C   UNL A   1      32.186  30.065  25.825  1.00  0.00     0.005 A 
ATOM    100  C   UNL A   1      34.404  28.491  26.390  1.00  0.00     0.000 A 
ATOM    101  C   UNL A   1      32.715  30.045  27.119  1.00  0.00     0.000 A 
ATOM    102  C   UNL A   1      33.823  29.251  27.402  1.00  0.00     0.000 A 
ENDBRANCH  96  97
ENDBRANCH  93  96
ENDBRANCH  87  88
ENDBRANCH  79  83
ENDBRANCH  75  77
ENDBRANCH  74  75
ENDBRANCH  73  74
ENDBRANCH   1  73
TORSDOF 21
ENDMDL
MODEL 2
REMARK VINA RESULT:     -11.2      1.583      7.409
REMARK SMILES O=C(OCCOCCOC(=O)c1ccccc1-c1ccc(/C=C2/SC(=S)N(Cc3ccccc3)C2=O)o1)c1ccc(-c2c3nc(c(-c4cccc(S(=O)(=O)[O-])c4F)c4ccc([nH]4)c(-c4cccc(S(=O)(=O)[O-])c4F)c4nc(c(-c5cccc(S(=O)(=O)[O-])c5F)c5ccc2[nH]5)C=C4)C=C3)cc1
REMARK SMILES IDX 7 1 6 2 5 3 4 4 3 5 2 6 1 7 38 8 39 9 100 10 40 11 99 12
REMARK SMILES IDX 41 13 42 14 43 15 93 16 44 17 98 18 92 19 94 20 45 21 97 22
REMARK SMILES IDX 91 23 90 24 46 26 78 27 58 28 77 29 59 30 62 31 76 32 95 33
REMARK SMILES IDX 60 34 61 35 75 37 96 38 63 39 47 40 48 41 56 42 49 43 51 44
REMARK SMILES IDX 57 45 50 46 52 47 53 48 54 49 55 50 79 51 80 52 88 53 81 54
REMARK SMILES IDX 83 55 89 56 82 57 84 58 85 59 86 60 87 61 64 62 65 63 73 64
REMARK SMILES IDX 66 65 68 66 74 67 67 68 69 69 70 70 71 71 72 72 8 73 9 74
REMARK SMILES IDX 10 75 11 76 12 77 13 78 17 79 14 80 16 81 15 82 18 83 19 84
REMARK SMILES IDX 37 85 20 86 21 87 22 88 23 89 24 90 35 91 25 92 27 93 36 94
REMARK SMILES IDX 26 95 28 96 29 97 30 98 34 99 31 100 33 101 32 102
REMARK H PARENT 94 25 62 36
REMARK Flexibility Score: inf
ROOT
ATOM      1  C   UNL A   1      38.219  22.398  25.497  1.00  0.00     0.202 C 
ENDROOT
BRANCH   1   2
ATOM      2  O   UNL A   1      37.677  21.320  24.729  1.00  0.00    -0.374 OA
BRANCH   2   3
ATOM      3  C   UNL A   1      38.305  20.051  24.900  1.00  0.00     0.202 C 
BRANCH   3   4
ATOM      4  C   UNL A   1      39.241  20.006  26.111  1.00  0.00     0.261 C 
BRANCH   4   5
ATOM      5  O   UNL A   1      40.411  19.219  25.822  1.00  0.00    -0.460 OA
BRANCH   5   6
ATOM      6  C   UNL A   1      41.705  19.473  26.129  1.00  0.00     0.338 C 
ATOM      7  O   UNL A   1      42.465  18.511  26.249  1.00  0.00    -0.246 OA
BRANCH   6   8
ATOM      8  C   UNL A   1      42.273  20.842  26.344  1.00  0.00     0.060 A 
ATOM      9  C   UNL A   1      42.643  21.374  27.578  1.00  0.00     0.016 A 
ATOM     10  C   UNL A   1      42.538  21.617  25.199  1.00  0.00     0.016 A 
ATOM     11  C   UNL A   1      43.265  22.600  27.698  1.00  0.00     0.010 A 
ATOM     12  C   UNL A   1      43.153  22.869  25.304  1.00  0.00     0.010 A 
ATOM     13  C   UNL A   1      43.515  23.355  26.563  1.00  0.00    -0.014 A 
BRANCH  13  14
ATOM     14  C   UNL A   1      44.011  24.714  26.803  1.00  0.00     0.031 A 
ATOM     15  C   UNL A   1      43.056  25.701  27.392  1.00  0.00     0.074 A 
ATOM     16  C   UNL A   1      45.329  24.956  26.697  1.00  0.00     0.049 A 
ATOM     17  N   UNL A   1      43.260  26.942  27.732  1.00  0.00    -0.248 NA
ATOM     18  C   UNL A   1      41.690  25.213  27.666  1.00  0.00     0.031 C 
ATOM     19  C   UNL A   1      46.335  23.976  26.277  1.00  0.00     0.029 A 
ATOM     20  N   UNL A   1      46.052  26.084  26.963  1.00  0.00    -0.354 N 
ATOM     21  C   UNL A   1      42.043  27.396  28.219  1.00  0.00     0.074 A 
ATOM     22  C   UNL A   1      41.108  26.298  28.150  1.00  0.00     0.031 C 
ATOM     23  C   UNL A   1      47.547  24.552  26.306  1.00  0.00     0.029 A 
ATOM     24  C   UNL A   1      47.392  25.951  26.685  1.00  0.00     0.049 A 
ATOM     25  H   UNL A   1      45.654  26.911  27.318  1.00  0.00     0.167 HD
ATOM     26  C   UNL A   1      41.744  28.630  28.681  1.00  0.00     0.034 A 
ATOM     27  C   UNL A   1      48.364  26.881  26.697  1.00  0.00     0.034 A 
ATOM     28  C   UNL A   1      42.704  29.694  28.727  1.00  0.00     0.049 A 
ATOM     29  C   UNL A   1      47.979  28.274  27.121  1.00  0.00     0.074 A 
ATOM     30  C   UNL A   1      42.519  31.015  29.081  1.00  0.00     0.029 A 
ATOM     31  N   UNL A   1      44.047  29.546  28.396  1.00  0.00    -0.354 N 
ATOM     32  N   UNL A   1      46.819  28.712  27.553  1.00  0.00    -0.248 NA
ATOM     33  C   UNL A   1      49.030  29.297  27.074  1.00  0.00     0.031 C 
ATOM     34  C   UNL A   1      43.746  31.671  28.941  1.00  0.00     0.029 A 
ATOM     35  C   UNL A   1      44.704  30.751  28.535  1.00  0.00     0.049 A 
ATOM     36  H   UNL A   1      44.466  28.704  28.105  1.00  0.00     0.167 HD
ATOM     37  C   UNL A   1      47.004  30.054  27.854  1.00  0.00     0.074 A 
ATOM     38  C   UNL A   1      48.399  30.346  27.582  1.00  0.00     0.031 C 
ATOM     39  C   UNL A   1      46.108  30.972  28.295  1.00  0.00     0.034 A 
BRANCH  26  40
ATOM     40  C   UNL A   1      40.324  28.875  29.108  1.00  0.00     0.023 A 
ATOM     41  C   UNL A   1      39.358  29.276  28.162  1.00  0.00     0.012 A 
ATOM     42  C   UNL A   1      39.955  28.743  30.460  1.00  0.00     0.148 A 
ATOM     43  C   UNL A   1      38.056  29.579  28.563  1.00  0.00     0.002 A 
ATOM     44  C   UNL A   1      38.646  29.006  30.846  1.00  0.00     0.091 A 
ATOM     45  F   UNL A   1      40.897  28.391  31.347  1.00  0.00    -0.205 F 
ATOM     46  C   UNL A   1      37.699  29.437  29.901  1.00  0.00     0.022 A 
BRANCH  44  47
ATOM     47  S   UNL A   1      38.074  28.808  32.536  1.00  0.00     0.127 S 
ATOM     48  O   UNL A   1      38.219  27.366  32.730  1.00  0.00    -0.237 OA
ATOM     49  O   UNL A   1      39.036  29.622  33.278  1.00  0.00    -0.237 OA
ATOM     50  O   UNL A   1      36.705  29.302  32.562  1.00  0.00    -0.744 OA
ENDBRANCH  44  47
ENDBRANCH  26  40
BRANCH  27  51
ATOM     51  C   UNL A   1      49.753  26.543  26.268  1.00  0.00     0.023 A 
ATOM     52  C   UNL A   1      50.603  25.819  27.125  1.00  0.00     0.012 A 
ATOM     53  C   UNL A   1      50.241  26.946  25.008  1.00  0.00     0.148 A 
ATOM     54  C   UNL A   1      51.920  25.541  26.753  1.00  0.00     0.002 A 
ATOM     55  C   UNL A   1      51.533  26.615  24.620  1.00  0.00     0.091 A 
ATOM     56  F   UNL A   1      49.431  27.657  24.209  1.00  0.00    -0.205 F 
ATOM     57  C   UNL A   1      52.383  25.930  25.499  1.00  0.00     0.022 A 
BRANCH  55  58
ATOM     58  S   UNL A   1      52.159  26.972  22.973  1.00  0.00     0.127 S 
ATOM     59  O   UNL A   1      50.958  26.815  22.157  1.00  0.00    -0.237 OA
ATOM     60  O   UNL A   1      52.631  28.350  23.117  1.00  0.00    -0.237 OA
ATOM     61  O   UNL A   1      53.220  26.001  22.740  1.00  0.00    -0.744 OA
ENDBRANCH  55  58
ENDBRANCH  27  51
BRANCH  39  62
ATOM     62  C   UNL A   1      46.627  32.360  28.549  1.00  0.00     0.023 A 
ATOM     63  C   UNL A   1      47.127  32.701  29.820  1.00  0.00     0.012 A 
ATOM     64  C   UNL A   1      46.691  33.293  27.497  1.00  0.00     0.148 A 
ATOM     65  C   UNL A   1      47.657  33.969  30.049  1.00  0.00     0.002 A 
ATOM     66  C   UNL A   1      47.273  34.532  27.718  1.00  0.00     0.091 A 
ATOM     67  F   UNL A   1      46.188  32.948  26.303  1.00  0.00    -0.205 F 
ATOM     68  C   UNL A   1      47.743  34.877  28.996  1.00  0.00     0.022 A 
BRANCH  66  69
ATOM     69  S   UNL A   1      47.526  35.718  26.395  1.00  0.00     0.127 S 
ATOM     70  O   UNL A   1      48.184  36.815  27.101  1.00  0.00    -0.237 OA
ATOM     71  O   UNL A   1      48.391  34.976  25.477  1.00  0.00    -0.237 OA
ATOM     72  O   UNL A   1      46.203  36.017  25.866  1.00  0.00    -0.744 OA
ENDBRANCH  66  69
ENDBRANCH  39  62
ENDBRANCH  13  14
ENDBRANCH   6   8
ENDBRANCH   5   6
ENDBRANCH   4   5
ENDBRANCH   3   4
ENDBRANCH   2   3
ENDBRANCH   1   2
BRANCH   1  73
ATOM     73  C   UNL A   1      37.211  23.529  25.481  1.00  0.00     0.261 C 
BRANCH  73  74
ATOM     74  O   UNL A   1      35.935  22.905  25.633  1.00  0.00    -0.460 OA
BRANCH  74  75
ATOM     75  C   UNL A   1      35.014  23.080  24.658  1.00  0.00     0.338 C 
ATOM     76  O   UNL A   1      34.951  23.963  23.822  1.00  0.00    -0.246 OA
BRANCH  75  77
ATOM     77  C   UNL A   1      34.119  21.902  24.712  1.00  0.00     0.071 A 
ATOM     78  C   UNL A   1      34.707  20.641  24.558  1.00  0.00     0.016 A 
ATOM     79  C   UNL A   1      32.749  22.035  25.018  1.00  0.00     0.032 A 
ATOM     80  C   UNL A   1      33.939  19.497  24.760  1.00  0.00     0.001 A 
ATOM     81  C   UNL A   1      31.992  20.878  25.218  1.00  0.00     0.013 A 
ATOM     82  C   UNL A   1      32.588  19.616  25.094  1.00  0.00     0.001 A 
BRANCH  79  83
ATOM     83  C   UNL A   1      32.162  23.361  25.145  1.00  0.00     0.135 A 
ATOM     84  C   UNL A   1      32.371  24.372  26.060  1.00  0.00     0.051 A 
ATOM     85  O   UNL A   1      31.051  23.619  24.398  1.00  0.00    -0.457 OA
ATOM     86  C   UNL A   1      31.234  25.194  25.983  1.00  0.00     0.051 A 
ATOM     87  C   UNL A   1      30.498  24.783  24.876  1.00  0.00     0.128 A 
BRANCH  87  88
ATOM     88  C   UNL A   1      29.425  25.490  24.275  1.00  0.00     0.068 C 
ATOM     89  C   UNL A   1      29.710  26.653  23.671  1.00  0.00     0.084 C 
ATOM     90  S   UNL A   1      28.594  27.904  23.312  1.00  0.00    -0.054 SA
ATOM     91  C   UNL A   1      31.089  27.150  23.418  1.00  0.00     0.266 C 
ATOM     92  C   UNL A   1      29.876  29.132  23.336  1.00  0.00     0.148 C 
ATOM     93  N   UNL A   1      31.105  28.524  23.458  1.00  0.00    -0.288 N 
ATOM     94  O   UNL A   1      32.047  26.438  23.148  1.00  0.00    -0.268 OA
ATOM     95  S   UNL A   1      29.544  30.760  23.192  1.00  0.00    -0.052 S 
BRANCH  93  96
ATOM     96  C   UNL A   1      32.406  29.186  23.521  1.00  0.00     0.163 C 
BRANCH  96  97
ATOM     97  C   UNL A   1      32.935  29.325  24.937  1.00  0.00    -0.028 A 
ATOM     98  C   UNL A   1      33.967  28.495  25.395  1.00  0.00     0.005 A 
ATOM     99  C   UNL A   1      32.373  30.242  25.842  1.00  0.00     0.005 A 
ATOM    100  C   UNL A   1      34.423  28.582  26.715  1.00  0.00     0.000 A 
ATOM    101  C   UNL A   1      32.846  30.348  27.153  1.00  0.00     0.000 A 
ATOM    102  C   UNL A   1      33.868  29.511  27.591  1.00  0.00     0.000 A 
ENDBRANCH  96  97
ENDBRANCH  93  96
ENDBRANCH  87  88
ENDBRANCH  79  83
ENDBRANCH  75  77
ENDBRANCH  74  75
ENDBRANCH  73  74
ENDBRANCH   1  73
TORSDOF 21
ENDMDL
MODEL 3
REMARK VINA RESULT:      -9.8      4.671     10.646
REMARK SMILES O=C(OCCOCCOC(=O)c1ccccc1-c1ccc(/C=C2/SC(=S)N(Cc3ccccc3)C2=O)o1)c1ccc(-c2c3nc(c(-c4cccc(S(=O)(=O)[O-])c4F)c4ccc([nH]4)c(-c4cccc(S(=O)(=O)[O-])c4F)c4nc(c(-c5cccc(S(=O)(=O)[O-])c5F)c5ccc2[nH]5)C=C4)C=C3)cc1
REMARK SMILES IDX 7 1 6 2 5 3 4 4 3 5 2 6 1 7 38 8 39 9 100 10 40 11 99 12
REMARK SMILES IDX 41 13 42 14 43 15 93 16 44 17 98 18 92 19 94 20 45 21 97 22
REMARK SMILES IDX 91 23 90 24 46 26 78 27 58 28 77 29 59 30 62 31 76 32 95 33
REMARK SMILES IDX 60 34 61 35 75 37 96 38 63 39 47 40 48 41 56 42 49 43 51 44
REMARK SMILES IDX 57 45 50 46 52 47 53 48 54 49 55 50 79 51 80 52 88 53 81 54
REMARK SMILES IDX 83 55 89 56 82 57 84 58 85 59 86 60 87 61 64 62 65 63 73 64
REMARK SMILES IDX 66 65 68 66 74 67 67 68 69 69 70 70 71 71 72 72 8 73 9 74
REMARK SMILES IDX 10 75 11 76 12 77 13 78 17 79 14 80 16 81 15 82 18 83 19 84
REMARK SMILES IDX 37 85 20 86 21 87 22 88 23 89 24 90 35 91 25 92 27 93 36 94
REMARK SMILES IDX 26 95 28 96 29 97 30 98 34 99 31 100 33 101 32 102
REMARK H PARENT 94 25 62 36
REMARK Flexibility Score: inf
ROOT
ATOM      1  C   UNL A   1      34.922  33.559  32.411  1.00  0.00     0.202 C 
ENDROOT
BRANCH   1   2
ATOM      2  O   UNL A   1      34.868  33.144  33.779  1.00  0.00    -0.374 OA
BRANCH   2   3
ATOM      3  C   UNL A   1      35.378  34.071  34.735  1.00  0.00     0.202 C 
BRANCH   3   4
ATOM      4  C   UNL A   1      36.844  33.812  35.097  1.00  0.00     0.261 C 
BRANCH   4   5
ATOM      5  O   UNL A   1      36.944  32.855  36.167  1.00  0.00    -0.460 OA
BRANCH   5   6
ATOM      6  C   UNL A   1      37.809  31.823  36.308  1.00  0.00     0.338 C 
ATOM      7  O   UNL A   1      37.710  31.127  37.319  1.00  0.00    -0.246 OA
BRANCH   6   8
ATOM      8  C   UNL A   1      38.884  31.478  35.324  1.00  0.00     0.060 A 
ATOM      9  C   UNL A   1      38.693  30.762  34.143  1.00  0.00     0.016 A 
ATOM     10  C   UNL A   1      40.170  31.997  35.567  1.00  0.00     0.016 A 
ATOM     11  C   UNL A   1      39.703  30.573  33.223  1.00  0.00     0.010 A 
ATOM     12  C   UNL A   1      41.210  31.800  34.651  1.00  0.00     0.010 A 
ATOM     13  C   UNL A   1      40.966  31.084  33.476  1.00  0.00    -0.014 A 
BRANCH  13  14
ATOM     14  C   UNL A   1      42.013  30.680  32.533  1.00  0.00     0.031 A 
ATOM     15  C   UNL A   1      42.425  31.672  31.494  1.00  0.00     0.074 A 
ATOM     16  C   UNL A   1      42.703  29.550  32.769  1.00  0.00     0.049 A 
ATOM     17  N   UNL A   1      43.346  31.571  30.578  1.00  0.00    -0.248 NA
ATOM     18  C   UNL A   1      41.722  32.970  31.507  1.00  0.00     0.031 C 
ATOM     19  C   UNL A   1      42.445  28.620  33.873  1.00  0.00     0.029 A 
ATOM     20  N   UNL A   1      43.777  29.010  32.120  1.00  0.00    -0.354 N 
ATOM     21  C   UNL A   1      43.307  32.770  29.881  1.00  0.00     0.074 A 
ATOM     22  C   UNL A   1      42.286  33.593  30.486  1.00  0.00     0.031 C 
ATOM     23  C   UNL A   1      43.334  27.616  33.816  1.00  0.00     0.029 A 
ATOM     24  C   UNL A   1      44.178  27.803  32.643  1.00  0.00     0.049 A 
ATOM     25  H   UNL A   1      44.220  29.441  31.354  1.00  0.00     0.167 HD
ATOM     26  C   UNL A   1      44.064  33.139  28.825  1.00  0.00     0.034 A 
ATOM     27  C   UNL A   1      45.099  26.936  32.183  1.00  0.00     0.034 A 
ATOM     28  C   UNL A   1      45.065  32.286  28.253  1.00  0.00     0.049 A 
ATOM     29  C   UNL A   1      45.858  27.331  30.944  1.00  0.00     0.074 A 
ATOM     30  C   UNL A   1      45.840  32.491  27.130  1.00  0.00     0.029 A 
ATOM     31  N   UNL A   1      45.422  31.047  28.773  1.00  0.00    -0.354 N 
ATOM     32  N   UNL A   1      45.800  28.454  30.265  1.00  0.00    -0.248 NA
ATOM     33  C   UNL A   1      46.817  26.356  30.413  1.00  0.00     0.031 C 
ATOM     34  C   UNL A   1      46.650  31.363  26.957  1.00  0.00     0.029 A 
ATOM     35  C   UNL A   1      46.406  30.472  27.995  1.00  0.00     0.049 A 
ATOM     36  H   UNL A   1      45.031  30.640  29.580  1.00  0.00     0.167 HD
ATOM     37  C   UNL A   1      46.730  28.332  29.243  1.00  0.00     0.074 A 
ATOM     38  C   UNL A   1      47.358  27.035  29.412  1.00  0.00     0.031 C 
ATOM     39  C   UNL A   1      47.030  29.196  28.240  1.00  0.00     0.034 A 
BRANCH  26  40
ATOM     40  C   UNL A   1      43.784  34.486  28.221  1.00  0.00     0.023 A 
ATOM     41  C   UNL A   1      42.944  34.596  27.094  1.00  0.00     0.012 A 
ATOM     42  C   UNL A   1      44.387  35.643  28.750  1.00  0.00     0.148 A 
ATOM     43  C   UNL A   1      42.739  35.832  26.480  1.00  0.00     0.002 A 
ATOM     44  C   UNL A   1      44.146  36.878  28.158  1.00  0.00     0.091 A 
ATOM     45  F   UNL A   1      45.207  35.511  29.802  1.00  0.00    -0.205 F 
ATOM     46  C   UNL A   1      43.333  36.972  27.016  1.00  0.00     0.022 A 
BRANCH  44  47
ATOM     47  S   UNL A   1      44.825  38.410  28.800  1.00  0.00     0.127 S 
ATOM     48  O   UNL A   1      44.782  39.270  27.619  1.00  0.00    -0.237 OA
ATOM     49  O   UNL A   1      43.858  38.757  29.842  1.00  0.00    -0.237 OA
ATOM     50  O   UNL A   1      46.159  38.090  29.286  1.00  0.00    -0.744 OA
ENDBRANCH  44  47
ENDBRANCH  26  40
BRANCH  27  51
ATOM     51  C   UNL A   1      45.319  25.623  32.858  1.00  0.00     0.023 A 
ATOM     52  C   UNL A   1      44.495  24.523  32.554  1.00  0.00     0.012 A 
ATOM     53  C   UNL A   1      46.344  25.462  33.813  1.00  0.00     0.148 A 
ATOM     54  C   UNL A   1      44.660  23.305  33.216  1.00  0.00     0.002 A 
ATOM     55  C   UNL A   1      46.541  24.230  34.425  1.00  0.00     0.091 A 
ATOM     56  F   UNL A   1      47.108  26.522  34.113  1.00  0.00    -0.205 F 
ATOM     57  C   UNL A   1      45.687  23.154  34.144  1.00  0.00     0.022 A 
BRANCH  55  58
ATOM     58  S   UNL A   1      47.920  23.924  35.537  1.00  0.00     0.127 S 
ATOM     59  O   UNL A   1      49.065  24.121  34.653  1.00  0.00    -0.237 OA
ATOM     60  O   UNL A   1      47.735  24.967  36.548  1.00  0.00    -0.237 OA
ATOM     61  O   UNL A   1      47.725  22.570  36.036  1.00  0.00    -0.744 OA
ENDBRANCH  55  58
ENDBRANCH  27  51
BRANCH  39  62
ATOM     62  C   UNL A   1      48.112  28.778  27.285  1.00  0.00     0.023 A 
ATOM     63  C   UNL A   1      49.459  28.802  27.695  1.00  0.00     0.012 A 
ATOM     64  C   UNL A   1      47.776  28.284  26.010  1.00  0.00     0.148 A 
ATOM     65  C   UNL A   1      50.463  28.367  26.833  1.00  0.00     0.002 A 
ATOM     66  C   UNL A   1      48.776  27.799  25.181  1.00  0.00     0.091 A 
ATOM     67  F   UNL A   1      46.488  28.293  25.639  1.00  0.00    -0.205 F 
ATOM     68  C   UNL A   1      50.121  27.853  25.584  1.00  0.00     0.022 A 
BRANCH  66  69
ATOM     69  S   UNL A   1      48.415  27.018  23.606  1.00  0.00     0.127 S 
ATOM     70  O   UNL A   1      49.738  26.975  22.985  1.00  0.00    -0.237 OA
ATOM     71  O   UNL A   1      47.891  25.716  24.020  1.00  0.00    -0.237 OA
ATOM     72  O   UNL A   1      47.442  27.878  22.946  1.00  0.00    -0.744 OA
ENDBRANCH  66  69
ENDBRANCH  39  62
ENDBRANCH  13  14
ENDBRANCH   6   8
ENDBRANCH   5   6
ENDBRANCH   4   5
ENDBRANCH   3   4
ENDBRANCH   2   3
ENDBRANCH   1   2
BRANCH   1  73
ATOM     73  C   UNL A   1      35.654  32.485  31.632  1.00  0.00     0.261 C 
BRANCH  73  74
ATOM     74  O   UNL A   1      34.878  32.275  30.451  1.00  0.00    -0.460 OA
BRANCH  74  75
ATOM     75  C   UNL A   1      35.505  32.319  29.254  1.00  0.00     0.338 C 
ATOM     76  O   UNL A   1      36.477  32.977  28.928  1.00  0.00    -0.246 OA
BRANCH  75  77
ATOM     77  C   UNL A   1      34.847  31.304  28.399  1.00  0.00     0.071 A 
ATOM     78  C   UNL A   1      33.652  31.671  27.772  1.00  0.00     0.016 A 
ATOM     79  C   UNL A   1      35.457  30.060  28.138  1.00  0.00     0.032 A 
ATOM     80  C   UNL A   1      33.080  30.815  26.834  1.00  0.00     0.001 A 
ATOM     81  C   UNL A   1      34.870  29.212  27.195  1.00  0.00     0.013 A 
ATOM     82  C   UNL A   1      33.690  29.593  26.543  1.00  0.00     0.001 A 
BRANCH  79  83
ATOM     83  C   UNL A   1      36.686  29.697  28.829  1.00  0.00     0.135 A 
ATOM     84  C   UNL A   1      36.921  29.273  30.121  1.00  0.00     0.051 A 
ATOM     85  O   UNL A   1      37.859  30.029  28.217  1.00  0.00    -0.457 OA
ATOM     86  C   UNL A   1      38.282  29.526  30.360  1.00  0.00     0.051 A 
ATOM     87  C   UNL A   1      38.862  29.875  29.145  1.00  0.00     0.128 A 
BRANCH  87  88
ATOM     88  C   UNL A   1      40.251  29.958  28.874  1.00  0.00     0.068 C 
ATOM     89  C   UNL A   1      40.877  28.836  28.490  1.00  0.00     0.084 C 
ATOM     90  S   UNL A   1      42.564  28.541  28.571  1.00  0.00    -0.054 SA
ATOM     91  C   UNL A   1      40.182  27.567  28.141  1.00  0.00     0.266 C 
ATOM     92  C   UNL A   1      42.310  26.786  28.658  1.00  0.00     0.148 C 
ATOM     93  N   UNL A   1      40.979  26.495  28.464  1.00  0.00    -0.288 N 
ATOM     94  O   UNL A   1      39.093  27.498  27.588  1.00  0.00    -0.268 OA
ATOM     95  S   UNL A   1      43.570  25.722  28.909  1.00  0.00    -0.052 S 
BRANCH  93  96
ATOM     96  C   UNL A   1      40.364  25.169  28.467  1.00  0.00     0.163 C 
BRANCH  96  97
ATOM     97  C   UNL A   1      41.197  24.125  27.744  1.00  0.00    -0.028 A 
ATOM     98  C   UNL A   1      41.570  24.316  26.406  1.00  0.00     0.005 A 
ATOM     99  C   UNL A   1      41.566  22.922  28.368  1.00  0.00     0.005 A 
ATOM    100  C   UNL A   1      42.292  23.336  25.718  1.00  0.00     0.000 A 
ATOM    101  C   UNL A   1      42.310  21.953  27.689  1.00  0.00     0.000 A 
ATOM    102  C   UNL A   1      42.668  22.158  26.360  1.00  0.00     0.000 A 
ENDBRANCH  96  97
ENDBRANCH  93  96
ENDBRANCH  87  88
ENDBRANCH  79  83
ENDBRANCH  75  77
ENDBRANCH  74  75
ENDBRANCH  73  74
ENDBRANCH   1  73
TORSDOF 21
ENDMDL
