MODEL 1
REMARK VINA RESULT:     -10.3      0.000      0.000
REMARK SMILES CC(C)(C(=O)OCCOCCOC(=O)c1ccc(-c2c3nc(c(-c4cccc(S(=O)(=O)[O-])c4F)c4ccc([nH]4)c(-c4cccc(S(=O)(=O)[O-])c4F)c4nc(c(-c5cccc(S(=O)(=O)[O-])c5F)c5ccc2[nH]5)C=C4)C=C3)cc1)n1cccc1
REMARK SMILES IDX 10 1 9 2 8 3 7 4 6 5 4 6 5 7 2 8 1 9 3 10 78 11 79 12 82 13
REMARK SMILES IDX 80 14 81 15 11 16 12 17 13 18 14 19 15 20 16 21 77 22 17 23
REMARK SMILES IDX 76 24 18 25 19 26 20 27 70 28 21 29 75 30 69 31 71 32 22 33
REMARK SMILES IDX 74 34 68 35 67 36 23 38 55 39 35 40 54 41 36 42 39 43 53 44
REMARK SMILES IDX 72 45 37 46 38 47 52 49 73 50 40 51 24 52 25 53 33 54 26 55
REMARK SMILES IDX 28 56 34 57 27 58 29 59 30 60 31 61 32 62 56 63 57 64 65 65
REMARK SMILES IDX 58 66 60 67 66 68 59 69 61 70 62 71 63 72 64 73 41 74 42 75
REMARK SMILES IDX 50 76 43 77 45 78 51 79 44 80 46 81 47 82 48 83 49 84
REMARK H PARENT 71 37 39 48
REMARK Flexibility Score: inf
ROOT
ATOM      1  C   UNL A   1      35.816  20.414  24.777  1.00  0.00     0.202 C 
ENDROOT
BRANCH   1   2
ATOM      2  O   UNL A   1      35.586  21.746  24.314  1.00  0.00    -0.374 OA
BRANCH   2   3
ATOM      3  C   UNL A   1      34.296  22.313  24.538  1.00  0.00     0.202 C 
BRANCH   3   4
ATOM      4  C   UNL A   1      33.330  22.318  23.349  1.00  0.00     0.261 C 
BRANCH   4   5
ATOM      5  O   UNL A   1      32.518  23.504  23.335  1.00  0.00    -0.461 OA
BRANCH   5   6
ATOM      6  C   UNL A   1      33.040  24.576  22.674  1.00  0.00     0.331 C 
ATOM      7  O   UNL A   1      33.560  24.499  21.564  1.00  0.00    -0.249 OA
BRANCH   6   8
ATOM      8  C   UNL A   1      32.888  25.898  23.461  1.00  0.00     0.136 C 
ATOM      9  C   UNL A   1      33.966  26.034  24.564  1.00  0.00     0.047 C 
ATOM     10  C   UNL A   1      33.130  27.041  22.457  1.00  0.00     0.047 C 
BRANCH   8  11
ATOM     11  N   UNL A   1      31.511  26.009  24.009  1.00  0.00    -0.338 N 
ATOM     12  C   UNL A   1      30.381  26.421  23.338  1.00  0.00     0.087 A 
ATOM     13  C   UNL A   1      31.132  25.659  25.289  1.00  0.00     0.087 A 
ATOM     14  C   UNL A   1      29.308  26.377  24.202  1.00  0.00     0.019 A 
ATOM     15  C   UNL A   1      29.785  25.898  25.439  1.00  0.00     0.019 A 
ENDBRANCH   8  11
ENDBRANCH   6   8
ENDBRANCH   5   6
ENDBRANCH   4   5
ENDBRANCH   3   4
ENDBRANCH   2   3
ENDBRANCH   1   2
BRANCH   1  16
ATOM     16  C   UNL A   1      37.273  20.002  25.032  1.00  0.00     0.261 C 
BRANCH  16  17
ATOM     17  O   UNL A   1      38.162  21.126  25.179  1.00  0.00    -0.460 OA
BRANCH  17  18
ATOM     18  C   UNL A   1      39.248  20.888  25.957  1.00  0.00     0.338 C 
ATOM     19  O   UNL A   1      39.905  19.855  26.003  1.00  0.00    -0.246 OA
BRANCH  18  20
ATOM     20  C   UNL A   1      39.682  22.114  26.650  1.00  0.00     0.060 A 
ATOM     21  C   UNL A   1      39.116  23.323  26.227  1.00  0.00     0.016 A 
ATOM     22  C   UNL A   1      40.698  22.106  27.609  1.00  0.00     0.016 A 
ATOM     23  C   UNL A   1      39.599  24.532  26.722  1.00  0.00     0.010 A 
ATOM     24  C   UNL A   1      41.187  23.326  28.100  1.00  0.00     0.010 A 
ATOM     25  C   UNL A   1      40.667  24.546  27.630  1.00  0.00    -0.014 A 
BRANCH  25  26
ATOM     26  C   UNL A   1      41.295  25.846  27.976  1.00  0.00     0.031 A 
ATOM     27  C   UNL A   1      42.711  26.127  27.544  1.00  0.00     0.074 A 
ATOM     28  C   UNL A   1      40.592  26.794  28.623  1.00  0.00     0.049 A 
ATOM     29  N   UNL A   1      43.411  27.225  27.671  1.00  0.00    -0.248 NA
ATOM     30  C   UNL A   1      43.430  25.029  26.876  1.00  0.00     0.031 C 
ATOM     31  C   UNL A   1      39.221  26.643  29.108  1.00  0.00     0.029 A 
ATOM     32  N   UNL A   1      40.940  28.070  28.991  1.00  0.00    -0.354 N 
ATOM     33  C   UNL A   1      44.652  26.953  27.106  1.00  0.00     0.074 A 
ATOM     34  C   UNL A   1      44.618  25.576  26.658  1.00  0.00     0.031 C 
ATOM     35  C   UNL A   1      38.851  27.777  29.728  1.00  0.00     0.029 A 
ATOM     36  C   UNL A   1      39.957  28.731  29.689  1.00  0.00     0.049 A 
ATOM     37  H   UNL A   1      41.812  28.473  28.775  1.00  0.00     0.167 HD
ATOM     38  C   UNL A   1      45.713  27.779  26.948  1.00  0.00     0.034 A 
ATOM     39  C   UNL A   1      39.953  29.962  30.239  1.00  0.00     0.034 A 
ATOM     40  C   UNL A   1      45.746  29.152  27.376  1.00  0.00     0.049 A 
ATOM     41  C   UNL A   1      41.149  30.859  30.051  1.00  0.00     0.074 A 
ATOM     42  C   UNL A   1      46.767  30.075  27.231  1.00  0.00     0.029 A 
ATOM     43  N   UNL A   1      44.715  29.799  28.038  1.00  0.00    -0.354 N 
ATOM     44  N   UNL A   1      42.261  30.627  29.396  1.00  0.00    -0.248 NA
ATOM     45  C   UNL A   1      41.072  32.203  30.642  1.00  0.00     0.031 C 
ATOM     46  C   UNL A   1      46.358  31.278  27.816  1.00  0.00     0.029 A 
ATOM     47  C   UNL A   1      45.076  31.108  28.312  1.00  0.00     0.049 A 
ATOM     48  H   UNL A   1      43.853  29.389  28.277  1.00  0.00     0.167 HD
ATOM     49  C   UNL A   1      43.003  31.802  29.475  1.00  0.00     0.074 A 
ATOM     50  C   UNL A   1      42.198  32.754  30.210  1.00  0.00     0.031 C 
ATOM     51  C   UNL A   1      44.247  32.062  29.003  1.00  0.00     0.034 A 
BRANCH  38  52
ATOM     52  C   UNL A   1      46.919  27.235  26.228  1.00  0.00     0.023 A 
ATOM     53  C   UNL A   1      47.022  27.406  24.832  1.00  0.00     0.012 A 
ATOM     54  C   UNL A   1      47.978  26.630  26.931  1.00  0.00     0.148 A 
ATOM     55  C   UNL A   1      48.150  26.964  24.143  1.00  0.00     0.002 A 
ATOM     56  C   UNL A   1      49.117  26.224  26.241  1.00  0.00     0.091 A 
ATOM     57  F   UNL A   1      47.853  26.459  28.254  1.00  0.00    -0.205 F 
ATOM     58  C   UNL A   1      49.200  26.383  24.848  1.00  0.00     0.022 A 
BRANCH  56  59
ATOM     59  S   UNL A   1      50.554  25.527  27.064  1.00  0.00     0.127 S 
ATOM     60  O   UNL A   1      49.989  24.324  27.674  1.00  0.00    -0.237 OA
ATOM     61  O   UNL A   1      51.459  25.276  25.943  1.00  0.00    -0.237 OA
ATOM     62  O   UNL A   1      51.014  26.543  28.001  1.00  0.00    -0.744 OA
ENDBRANCH  56  59
ENDBRANCH  38  52
BRANCH  39  63
ATOM     63  C   UNL A   1      38.755  30.439  30.985  1.00  0.00     0.023 A 
ATOM     64  C   UNL A   1      38.665  30.229  32.374  1.00  0.00     0.012 A 
ATOM     65  C   UNL A   1      37.707  31.107  30.322  1.00  0.00     0.148 A 
ATOM     66  C   UNL A   1      37.537  30.646  33.085  1.00  0.00     0.002 A 
ATOM     67  C   UNL A   1      36.614  31.571  31.046  1.00  0.00     0.091 A 
ATOM     68  F   UNL A   1      37.796  31.275  28.996  1.00  0.00    -0.205 F 
ATOM     69  C   UNL A   1      36.518  31.327  32.424  1.00  0.00     0.022 A 
BRANCH  67  70
ATOM     70  S   UNL A   1      35.334  32.576  30.284  1.00  0.00     0.127 S 
ATOM     71  O   UNL A   1      34.862  31.701  29.213  1.00  0.00    -0.237 OA
ATOM     72  O   UNL A   1      34.390  32.763  31.388  1.00  0.00    -0.237 OA
ATOM     73  O   UNL A   1      36.007  33.799  29.865  1.00  0.00    -0.744 OA
ENDBRANCH  67  70
ENDBRANCH  39  63
BRANCH  51  74
ATOM     74  C   UNL A   1      44.813  33.436  29.255  1.00  0.00     0.023 A 
ATOM     75  C   UNL A   1      45.503  33.691  30.457  1.00  0.00     0.012 A 
ATOM     76  C   UNL A   1      44.710  34.455  28.289  1.00  0.00     0.148 A 
ATOM     77  C   UNL A   1      46.046  34.950  30.710  1.00  0.00     0.002 A 
ATOM     78  C   UNL A   1      45.292  35.696  28.529  1.00  0.00     0.091 A 
ATOM     79  F   UNL A   1      44.033  34.204  27.159  1.00  0.00    -0.205 F 
ATOM     80  C   UNL A   1      45.950  35.949  29.744  1.00  0.00     0.022 A 
BRANCH  78  81
ATOM     81  S   UNL A   1      45.290  37.006  27.300  1.00  0.00     0.127 S 
ATOM     82  O   UNL A   1      45.934  38.098  28.027  1.00  0.00    -0.237 OA
ATOM     83  O   UNL A   1      46.097  36.431  26.223  1.00  0.00    -0.237 OA
ATOM     84  O   UNL A   1      43.890  37.216  26.953  1.00  0.00    -0.744 OA
ENDBRANCH  78  81
ENDBRANCH  51  74
ENDBRANCH  25  26
ENDBRANCH  18  20
ENDBRANCH  17  18
ENDBRANCH  16  17
ENDBRANCH   1  16
TORSDOF 18
ENDMDL
MODEL 2
REMARK VINA RESULT:     -10.2      0.987      1.615
REMARK SMILES CC(C)(C(=O)OCCOCCOC(=O)c1ccc(-c2c3nc(c(-c4cccc(S(=O)(=O)[O-])c4F)c4ccc([nH]4)c(-c4cccc(S(=O)(=O)[O-])c4F)c4nc(c(-c5cccc(S(=O)(=O)[O-])c5F)c5ccc2[nH]5)C=C4)C=C3)cc1)n1cccc1
REMARK SMILES IDX 10 1 9 2 8 3 7 4 6 5 4 6 5 7 2 8 1 9 3 10 78 11 79 12 82 13
REMARK SMILES IDX 80 14 81 15 11 16 12 17 13 18 14 19 15 20 16 21 77 22 17 23
REMARK SMILES IDX 76 24 18 25 19 26 20 27 70 28 21 29 75 30 69 31 71 32 22 33
REMARK SMILES IDX 74 34 68 35 67 36 23 38 55 39 35 40 54 41 36 42 39 43 53 44
REMARK SMILES IDX 72 45 37 46 38 47 52 49 73 50 40 51 24 52 25 53 33 54 26 55
REMARK SMILES IDX 28 56 34 57 27 58 29 59 30 60 31 61 32 62 56 63 57 64 65 65
REMARK SMILES IDX 58 66 60 67 66 68 59 69 61 70 62 71 63 72 64 73 41 74 42 75
REMARK SMILES IDX 50 76 43 77 45 78 51 79 44 80 46 81 47 82 48 83 49 84
REMARK H PARENT 71 37 39 48
REMARK Flexibility Score: inf
ROOT
ATOM      1  C   UNL A   1      35.621  21.418  25.947  1.00  0.00     0.202 C 
ENDROOT
BRANCH   1   2
ATOM      2  O   UNL A   1      34.361  20.748  25.989  1.00  0.00    -0.374 OA
BRANCH   2   3
ATOM      3  C   UNL A   1      34.034  19.878  24.906  1.00  0.00     0.202 C 
BRANCH   3   4
ATOM      4  C   UNL A   1      32.666  20.080  24.248  1.00  0.00     0.261 C 
BRANCH   4   5
ATOM      5  O   UNL A   1      32.039  21.292  24.699  1.00  0.00    -0.461 OA
BRANCH   5   6
ATOM      6  C   UNL A   1      32.039  22.328  23.813  1.00  0.00     0.331 C 
ATOM      7  O   UNL A   1      32.445  22.231  22.657  1.00  0.00    -0.249 OA
BRANCH   6   8
ATOM      8  C   UNL A   1      31.455  23.629  24.410  1.00  0.00     0.136 C 
ATOM      9  C   UNL A   1      30.509  24.343  23.414  1.00  0.00     0.047 C 
ATOM     10  C   UNL A   1      30.596  23.213  25.621  1.00  0.00     0.047 C 
BRANCH   8  11
ATOM     11  N   UNL A   1      32.555  24.516  24.871  1.00  0.00    -0.338 N 
ATOM     12  C   UNL A   1      33.907  24.261  24.812  1.00  0.00     0.087 A 
ATOM     13  C   UNL A   1      32.391  25.784  25.391  1.00  0.00     0.087 A 
ATOM     14  C   UNL A   1      34.587  25.339  25.338  1.00  0.00     0.019 A 
ATOM     15  C   UNL A   1      33.626  26.301  25.707  1.00  0.00     0.019 A 
ENDBRANCH   8  11
ENDBRANCH   6   8
ENDBRANCH   5   6
ENDBRANCH   4   5
ENDBRANCH   3   4
ENDBRANCH   2   3
ENDBRANCH   1   2
BRANCH   1  16
ATOM     16  C   UNL A   1      36.724  20.785  25.085  1.00  0.00     0.261 C 
BRANCH  16  17
ATOM     17  O   UNL A   1      37.903  21.605  24.982  1.00  0.00    -0.460 OA
BRANCH  17  18
ATOM     18  C   UNL A   1      38.899  21.268  25.841  1.00  0.00     0.338 C 
ATOM     19  O   UNL A   1      39.435  20.172  25.948  1.00  0.00    -0.246 OA
BRANCH  18  20
ATOM     20  C   UNL A   1      39.416  22.455  26.545  1.00  0.00     0.060 A 
ATOM     21  C   UNL A   1      38.874  23.697  26.189  1.00  0.00     0.016 A 
ATOM     22  C   UNL A   1      40.480  22.381  27.447  1.00  0.00     0.016 A 
ATOM     23  C   UNL A   1      39.428  24.872  26.692  1.00  0.00     0.010 A 
ATOM     24  C   UNL A   1      41.040  23.566  27.946  1.00  0.00     0.010 A 
ATOM     25  C   UNL A   1      40.542  24.818  27.541  1.00  0.00    -0.014 A 
BRANCH  25  26
ATOM     26  C   UNL A   1      41.236  26.083  27.891  1.00  0.00     0.031 A 
ATOM     27  C   UNL A   1      42.673  26.281  27.484  1.00  0.00     0.074 A 
ATOM     28  C   UNL A   1      40.576  27.074  28.519  1.00  0.00     0.049 A 
ATOM     29  N   UNL A   1      43.432  27.338  27.617  1.00  0.00    -0.248 NA
ATOM     30  C   UNL A   1      43.341  25.140  26.836  1.00  0.00     0.031 C 
ATOM     31  C   UNL A   1      39.190  27.004  28.979  1.00  0.00     0.029 A 
ATOM     32  N   UNL A   1      40.989  28.331  28.885  1.00  0.00    -0.354 N 
ATOM     33  C   UNL A   1      44.666  26.993  27.077  1.00  0.00     0.074 A 
ATOM     34  C   UNL A   1      44.562  25.617  26.638  1.00  0.00     0.031 C 
ATOM     35  C   UNL A   1      38.873  28.162  29.585  1.00  0.00     0.029 A 
ATOM     36  C   UNL A   1      40.033  29.051  29.561  1.00  0.00     0.049 A 
ATOM     37  H   UNL A   1      41.887  28.683  28.684  1.00  0.00     0.167 HD
ATOM     38  C   UNL A   1      45.775  27.756  26.934  1.00  0.00     0.034 A 
ATOM     39  C   UNL A   1      40.088  30.284  30.103  1.00  0.00     0.034 A 
ATOM     40  C   UNL A   1      45.877  29.128  27.354  1.00  0.00     0.049 A 
ATOM     41  C   UNL A   1      41.336  31.111  29.932  1.00  0.00     0.074 A 
ATOM     42  C   UNL A   1      46.951  29.991  27.222  1.00  0.00     0.029 A 
ATOM     43  N   UNL A   1      44.873  29.838  27.993  1.00  0.00    -0.354 N 
ATOM     44  N   UNL A   1      42.445  30.812  29.299  1.00  0.00    -0.248 NA
ATOM     45  C   UNL A   1      41.324  32.462  30.514  1.00  0.00     0.031 C 
ATOM     46  C   UNL A   1      46.600  31.219  27.792  1.00  0.00     0.029 A 
ATOM     47  C   UNL A   1      45.302  31.125  28.266  1.00  0.00     0.049 A 
ATOM     48  H   UNL A   1      43.984  29.479  28.219  1.00  0.00     0.167 HD
ATOM     49  C   UNL A   1      43.250  31.943  29.385  1.00  0.00     0.074 A 
ATOM     50  C   UNL A   1      42.487  32.945  30.100  1.00  0.00     0.031 C 
ATOM     51  C   UNL A   1      44.516  32.130  28.935  1.00  0.00     0.034 A 
BRANCH  38  52
ATOM     52  C   UNL A   1      46.961  27.140  26.240  1.00  0.00     0.023 A 
ATOM     53  C   UNL A   1      47.067  27.242  24.838  1.00  0.00     0.012 A 
ATOM     54  C   UNL A   1      48.001  26.534  26.970  1.00  0.00     0.148 A 
ATOM     55  C   UNL A   1      48.179  26.731  24.170  1.00  0.00     0.002 A 
ATOM     56  C   UNL A   1      49.125  26.060  26.300  1.00  0.00     0.091 A 
ATOM     57  F   UNL A   1      47.872  26.430  28.300  1.00  0.00    -0.205 F 
ATOM     58  C   UNL A   1      49.211  26.150  24.901  1.00  0.00     0.022 A 
BRANCH  56  59
ATOM     59  S   UNL A   1      50.539  25.356  27.155  1.00  0.00     0.127 S 
ATOM     60  O   UNL A   1      50.971  26.480  27.985  1.00  0.00    -0.237 OA
ATOM     61  O   UNL A   1      49.934  24.248  27.894  1.00  0.00    -0.237 OA
ATOM     62  O   UNL A   1      51.478  24.953  26.116  1.00  0.00    -0.744 OA
ENDBRANCH  56  59
ENDBRANCH  38  52
BRANCH  39  63
ATOM     63  C   UNL A   1      38.905  30.834  30.824  1.00  0.00     0.023 A 
ATOM     64  C   UNL A   1      38.767  30.621  32.208  1.00  0.00     0.012 A 
ATOM     65  C   UNL A   1      37.920  31.573  30.141  1.00  0.00     0.148 A 
ATOM     66  C   UNL A   1      37.651  31.105  32.895  1.00  0.00     0.002 A 
ATOM     67  C   UNL A   1      36.841  32.103  30.841  1.00  0.00     0.091 A 
ATOM     68  F   UNL A   1      38.053  31.745  28.819  1.00  0.00    -0.205 F 
ATOM     69  C   UNL A   1      36.695  31.856  32.215  1.00  0.00     0.022 A 
BRANCH  67  70
ATOM     70  S   UNL A   1      35.649  33.194  30.057  1.00  0.00     0.127 S 
ATOM     71  O   UNL A   1      36.516  34.090  29.297  1.00  0.00    -0.237 OA
ATOM     72  O   UNL A   1      34.863  32.262  29.247  1.00  0.00    -0.237 OA
ATOM     73  O   UNL A   1      34.905  33.799  31.155  1.00  0.00    -0.744 OA
ENDBRANCH  67  70
ENDBRANCH  39  63
BRANCH  51  74
ATOM     74  C   UNL A   1      45.153  33.472  29.189  1.00  0.00     0.023 A 
ATOM     75  C   UNL A   1      45.807  33.707  30.416  1.00  0.00     0.012 A 
ATOM     76  C   UNL A   1      45.154  34.477  28.203  1.00  0.00     0.148 A 
ATOM     77  C   UNL A   1      46.415  34.935  30.672  1.00  0.00     0.002 A 
ATOM     78  C   UNL A   1      45.800  35.684  28.449  1.00  0.00     0.091 A 
ATOM     79  F   UNL A   1      44.511  34.246  27.049  1.00  0.00    -0.205 F 
ATOM     80  C   UNL A   1      46.421  35.919  29.686  1.00  0.00     0.022 A 
BRANCH  78  81
ATOM     81  S   UNL A   1      45.930  36.969  27.200  1.00  0.00     0.127 S 
ATOM     82  O   UNL A   1      46.912  37.870  27.799  1.00  0.00    -0.237 OA
ATOM     83  O   UNL A   1      46.414  36.230  26.033  1.00  0.00    -0.237 OA
ATOM     84  O   UNL A   1      44.584  37.509  27.050  1.00  0.00    -0.744 OA
ENDBRANCH  78  81
ENDBRANCH  51  74
ENDBRANCH  25  26
ENDBRANCH  18  20
ENDBRANCH  17  18
ENDBRANCH  16  17
ENDBRANCH   1  16
TORSDOF 18
ENDMDL
MODEL 3
REMARK VINA RESULT:     -10.1      1.615      1.975
REMARK SMILES CC(C)(C(=O)OCCOCCOC(=O)c1ccc(-c2c3nc(c(-c4cccc(S(=O)(=O)[O-])c4F)c4ccc([nH]4)c(-c4cccc(S(=O)(=O)[O-])c4F)c4nc(c(-c5cccc(S(=O)(=O)[O-])c5F)c5ccc2[nH]5)C=C4)C=C3)cc1)n1cccc1
REMARK SMILES IDX 10 1 9 2 8 3 7 4 6 5 4 6 5 7 2 8 1 9 3 10 78 11 79 12 82 13
REMARK SMILES IDX 80 14 81 15 11 16 12 17 13 18 14 19 15 20 16 21 77 22 17 23
REMARK SMILES IDX 76 24 18 25 19 26 20 27 70 28 21 29 75 30 69 31 71 32 22 33
REMARK SMILES IDX 74 34 68 35 67 36 23 38 55 39 35 40 54 41 36 42 39 43 53 44
REMARK SMILES IDX 72 45 37 46 38 47 52 49 73 50 40 51 24 52 25 53 33 54 26 55
REMARK SMILES IDX 28 56 34 57 27 58 29 59 30 60 31 61 32 62 56 63 57 64 65 65
REMARK SMILES IDX 58 66 60 67 66 68 59 69 61 70 62 71 63 72 64 73 41 74 42 75
REMARK SMILES IDX 50 76 43 77 45 78 51 79 44 80 46 81 47 82 48 83 49 84
REMARK H PARENT 71 37 39 48
REMARK Flexibility Score: inf
ROOT
ATOM      1  C   UNL A   1      35.980  20.461  25.114  1.00  0.00     0.202 C 
ENDROOT
BRANCH   1   2
ATOM      2  O   UNL A   1      35.316  21.628  25.600  1.00  0.00    -0.374 OA
BRANCH   2   3
ATOM      3  C   UNL A   1      34.118  21.445  26.356  1.00  0.00     0.202 C 
BRANCH   3   4
ATOM      4  C   UNL A   1      32.930  22.340  25.991  1.00  0.00     0.261 C 
BRANCH   4   5
ATOM      5  O   UNL A   1      33.351  23.684  25.704  1.00  0.00    -0.461 OA
BRANCH   5   6
ATOM      6  C   UNL A   1      32.516  24.673  26.129  1.00  0.00     0.331 C 
ATOM      7  O   UNL A   1      31.635  24.502  26.969  1.00  0.00    -0.249 OA
BRANCH   6   8
ATOM      8  C   UNL A   1      32.809  26.035  25.459  1.00  0.00     0.136 C 
ATOM      9  C   UNL A   1      33.117  27.134  26.506  1.00  0.00     0.047 C 
ATOM     10  C   UNL A   1      34.086  25.849  24.618  1.00  0.00     0.047 C 
BRANCH   8  11
ATOM     11  N   UNL A   1      31.683  26.415  24.566  1.00  0.00    -0.338 N 
ATOM     12  C   UNL A   1      30.349  26.499  24.899  1.00  0.00     0.087 A 
ATOM     13  C   UNL A   1      31.809  26.803  23.247  1.00  0.00     0.087 A 
ATOM     14  C   UNL A   1      29.636  26.889  23.786  1.00  0.00     0.019 A 
ATOM     15  C   UNL A   1      30.559  27.077  22.740  1.00  0.00     0.019 A 
ENDBRANCH   8  11
ENDBRANCH   6   8
ENDBRANCH   5   6
ENDBRANCH   4   5
ENDBRANCH   3   4
ENDBRANCH   2   3
ENDBRANCH   1   2
BRANCH   1  16
ATOM     16  C   UNL A   1      37.495  20.560  24.887  1.00  0.00     0.261 C 
BRANCH  16  17
ATOM     17  O   UNL A   1      38.080  21.740  25.469  1.00  0.00    -0.460 OA
BRANCH  17  18
ATOM     18  C   UNL A   1      39.263  21.531  26.099  1.00  0.00     0.338 C 
ATOM     19  O   UNL A   1      39.991  20.552  25.986  1.00  0.00    -0.246 OA
BRANCH  18  20
ATOM     20  C   UNL A   1      39.691  22.733  26.837  1.00  0.00     0.060 A 
ATOM     21  C   UNL A   1      39.043  23.936  26.531  1.00  0.00     0.016 A 
ATOM     22  C   UNL A   1      40.771  22.718  27.722  1.00  0.00     0.016 A 
ATOM     23  C   UNL A   1      39.505  25.136  27.067  1.00  0.00     0.010 A 
ATOM     24  C   UNL A   1      41.239  23.929  28.254  1.00  0.00     0.010 A 
ATOM     25  C   UNL A   1      40.633  25.147  27.899  1.00  0.00    -0.014 A 
BRANCH  25  26
ATOM     26  C   UNL A   1      41.226  26.454  28.283  1.00  0.00     0.031 A 
ATOM     27  C   UNL A   1      42.655  26.758  27.918  1.00  0.00     0.074 A 
ATOM     28  C   UNL A   1      40.480  27.387  28.903  1.00  0.00     0.049 A 
ATOM     29  N   UNL A   1      43.333  27.864  28.085  1.00  0.00    -0.248 NA
ATOM     30  C   UNL A   1      43.421  25.676  27.277  1.00  0.00     0.031 C 
ATOM     31  C   UNL A   1      39.090  27.213  29.323  1.00  0.00     0.029 A 
ATOM     32  N   UNL A   1      40.792  28.664  29.295  1.00  0.00    -0.354 N 
ATOM     33  C   UNL A   1      44.603  27.614  27.576  1.00  0.00     0.074 A 
ATOM     34  C   UNL A   1      44.609  26.241  27.118  1.00  0.00     0.031 C 
ATOM     35  C   UNL A   1      38.675  28.337  29.933  1.00  0.00     0.029 A 
ATOM     36  C   UNL A   1      39.769  29.306  29.952  1.00  0.00     0.049 A 
ATOM     37  H   UNL A   1      41.668  29.082  29.123  1.00  0.00     0.167 HD
ATOM     38  C   UNL A   1      45.658  28.456  27.473  1.00  0.00     0.034 A 
ATOM     39  C   UNL A   1      39.721  30.533  30.509  1.00  0.00     0.034 A 
ATOM     40  C   UNL A   1      45.651  29.827  27.912  1.00  0.00     0.049 A 
ATOM     41  C   UNL A   1      40.912  31.448  30.383  1.00  0.00     0.074 A 
ATOM     42  C   UNL A   1      46.664  30.765  27.820  1.00  0.00     0.029 A 
ATOM     43  N   UNL A   1      44.582  30.454  28.530  1.00  0.00    -0.354 N 
ATOM     44  N   UNL A   1      42.056  31.237  29.778  1.00  0.00    -0.248 NA
ATOM     45  C   UNL A   1      40.788  32.787  30.980  1.00  0.00     0.031 C 
ATOM     46  C   UNL A   1      46.211  31.957  28.394  1.00  0.00     0.029 A 
ATOM     47  C   UNL A   1      44.910  31.766  28.830  1.00  0.00     0.049 A 
ATOM     48  H   UNL A   1      43.715  30.030  28.726  1.00  0.00     0.167 HD
ATOM     49  C   UNL A   1      42.776  32.421  29.900  1.00  0.00     0.074 A 
ATOM     50  C   UNL A   1      41.924  33.357  30.604  1.00  0.00     0.031 C 
ATOM     51  C   UNL A   1      44.037  32.703  29.488  1.00  0.00     0.034 A 
BRANCH  38  52
ATOM     52  C   UNL A   1      46.904  27.936  26.806  1.00  0.00     0.023 A 
ATOM     53  C   UNL A   1      47.883  27.288  27.587  1.00  0.00     0.012 A 
ATOM     54  C   UNL A   1      47.073  28.016  25.410  1.00  0.00     0.148 A 
ATOM     55  C   UNL A   1      49.021  26.746  26.992  1.00  0.00     0.002 A 
ATOM     56  C   UNL A   1      48.194  27.440  24.820  1.00  0.00     0.091 A 
ATOM     57  F   UNL A   1      46.141  28.653  24.689  1.00  0.00    -0.205 F 
ATOM     58  C   UNL A   1      49.172  26.813  25.610  1.00  0.00     0.022 A 
BRANCH  56  59
ATOM     59  S   UNL A   1      48.450  27.412  23.042  1.00  0.00     0.127 S 
ATOM     60  O   UNL A   1      48.371  25.980  22.756  1.00  0.00    -0.237 OA
ATOM     61  O   UNL A   1      47.314  28.195  22.555  1.00  0.00    -0.237 OA
ATOM     62  O   UNL A   1      49.753  28.022  22.813  1.00  0.00    -0.744 OA
ENDBRANCH  56  59
ENDBRANCH  38  52
BRANCH  39  63
ATOM     63  C   UNL A   1      38.483  30.987  31.202  1.00  0.00     0.023 A 
ATOM     64  C   UNL A   1      38.358  30.821  32.595  1.00  0.00     0.012 A 
ATOM     65  C   UNL A   1      37.431  31.591  30.486  1.00  0.00     0.148 A 
ATOM     66  C   UNL A   1      37.194  31.216  33.257  1.00  0.00     0.002 A 
ATOM     67  C   UNL A   1      36.299  32.035  31.160  1.00  0.00     0.091 A 
ATOM     68  F   UNL A   1      37.555  31.718  29.158  1.00  0.00    -0.205 F 
ATOM     69  C   UNL A   1      36.170  31.834  32.543  1.00  0.00     0.022 A 
BRANCH  67  70
ATOM     70  S   UNL A   1      35.005  32.962  30.326  1.00  0.00     0.127 S 
ATOM     71  O   UNL A   1      34.551  32.006  29.320  1.00  0.00    -0.237 OA
ATOM     72  O   UNL A   1      34.057  33.214  31.412  1.00  0.00    -0.237 OA
ATOM     73  O   UNL A   1      35.661  34.163  29.821  1.00  0.00    -0.744 OA
ENDBRANCH  67  70
ENDBRANCH  39  63
BRANCH  51  74
ATOM     74  C   UNL A   1      44.570  34.083  29.775  1.00  0.00     0.023 A 
ATOM     75  C   UNL A   1      45.283  34.315  30.969  1.00  0.00     0.012 A 
ATOM     76  C   UNL A   1      44.415  35.132  28.849  1.00  0.00     0.148 A 
ATOM     77  C   UNL A   1      45.797  35.580  31.254  1.00  0.00     0.002 A 
ATOM     78  C   UNL A   1      44.968  36.379  29.119  1.00  0.00     0.091 A 
ATOM     79  F   UNL A   1      43.718  34.901  27.727  1.00  0.00    -0.205 F 
ATOM     80  C   UNL A   1      45.649  36.608  30.326  1.00  0.00     0.022 A 
BRANCH  78  81
ATOM     81  S   UNL A   1      44.899  37.731  27.938  1.00  0.00     0.127 S 
ATOM     82  O   UNL A   1      43.461  37.970  27.842  1.00  0.00    -0.237 OA
ATOM     83  O   UNL A   1      45.648  38.787  28.621  1.00  0.00    -0.237 OA
ATOM     84  O   UNL A   1      45.539  37.229  26.729  1.00  0.00    -0.744 OA
ENDBRANCH  78  81
ENDBRANCH  51  74
ENDBRANCH  25  26
ENDBRANCH  18  20
ENDBRANCH  17  18
ENDBRANCH  16  17
ENDBRANCH   1  16
TORSDOF 18
ENDMDL
