MODEL 1
REMARK VINA RESULT:     -12.3      0.000      0.000
REMARK SMILES CC1(C)[C@@]2(C(=O)OCCOCCOC(=O)c3ccc(-c4c5nc(c(-c6cccc(S(=O)(=O)[O-])c6F)c6ccc([nH]6)c(-c6cccc(S(=O)(=O)[O-])c6F)c6nc(c(-c7cccc(S(=O)(=O)[O-])c7F)c7ccc4[nH]7)C=C6)C=C5)cc3)CC[C@]1(C)/C(=N/NC(=O)c1ccc(Cl)cc1)C2
REMARK SMILES IDX 11 1 10 2 9 3 8 4 7 5 5 6 6 7 4 8 1 9 2 10 3 11 81 12 79 13
REMARK SMILES IDX 95 14 80 15 82 16 83 17 84 18 85 19 86 20 87 22 88 23 89 24
REMARK SMILES IDX 94 25 90 26 93 27 91 28 92 29 12 30 13 31 14 32 15 33 16 34
REMARK SMILES IDX 17 35 78 36 18 37 77 38 19 39 20 40 21 41 71 42 22 43 76 44
REMARK SMILES IDX 70 45 72 46 23 47 75 48 69 49 68 50 24 52 56 53 36 54 55 55
REMARK SMILES IDX 37 56 40 57 54 58 73 59 38 60 39 61 53 63 74 64 41 65 25 66
REMARK SMILES IDX 26 67 34 68 27 69 29 70 35 71 28 72 30 73 31 74 32 75 33 76
REMARK SMILES IDX 57 77 58 78 66 79 59 80 61 81 67 82 60 83 62 84 63 85 64 86
REMARK SMILES IDX 65 87 42 88 43 89 51 90 44 91 46 92 52 93 45 94 47 95 48 96
REMARK SMILES IDX 49 97 50 98
REMARK H PARENT 85 21 72 51 40 62
REMARK Flexibility Score: inf
ROOT
ATOM      1  C   UNL A   1      31.178  30.284  25.076  1.00  0.00     0.202 C 
ENDROOT
BRANCH   1   2
ATOM      2  O   UNL A   1      30.686  29.114  24.426  1.00  0.00    -0.374 OA
BRANCH   2   3
ATOM      3  C   UNL A   1      30.642  29.173  22.996  1.00  0.00     0.202 C 
BRANCH   3   4
ATOM      4  C   UNL A   1      31.195  27.947  22.262  1.00  0.00     0.261 C 
BRANCH   4   5
ATOM      5  O   UNL A   1      32.548  27.655  22.660  1.00  0.00    -0.463 OA
BRANCH   5   6
ATOM      6  C   UNL A   1      32.943  26.358  22.534  1.00  0.00     0.313 C 
ATOM      7  O   UNL A   1      33.085  25.770  21.473  1.00  0.00    -0.252 OA
BRANCH   6   8
ATOM      8  C   UNL A   1      33.172  25.730  23.896  1.00  0.00     0.079 C 
ATOM      9  C   UNL A   1      30.664  25.518  24.545  1.00  0.00     0.013 C 
ATOM     10  C   UNL A   1      32.038  24.821  24.445  1.00  0.00    -0.008 C 
ATOM     11  C   UNL A   1      31.819  23.510  23.657  1.00  0.00     0.013 C 
ATOM     12  C   UNL A   1      32.773  24.631  25.815  1.00  0.00     0.014 C 
ATOM     13  C   UNL A   1      33.322  26.824  24.998  1.00  0.00     0.021 C 
ATOM     14  C   UNL A   1      34.412  24.804  23.985  1.00  0.00     0.073 C 
ATOM     15  C   UNL A   1      32.998  26.073  26.305  1.00  0.00     0.014 C 
ATOM     16  C   UNL A   1      32.117  23.696  26.805  1.00  0.00     0.018 C 
ATOM     17  C   UNL A   1      34.178  24.199  25.337  1.00  0.00     0.046 C 
ATOM     18  N   UNL A   1      34.905  23.409  26.062  1.00  0.00    -0.181 NA
BRANCH  18  19
ATOM     19  N   UNL A   1      36.104  22.869  25.715  1.00  0.00    -0.243 N 
ATOM     20  C   UNL A   1      36.556  21.622  25.335  1.00  0.00     0.271 C 
ATOM     21  H   UNL A   1      36.831  23.533  25.740  1.00  0.00     0.194 HD
ATOM     22  O   UNL A   1      37.764  21.433  25.186  1.00  0.00    -0.267 OA
BRANCH  20  23
ATOM     23  C   UNL A   1      35.651  20.493  25.091  1.00  0.00     0.041 A 
ATOM     24  C   UNL A   1      34.298  20.789  24.864  1.00  0.00     0.015 A 
ATOM     25  C   UNL A   1      36.120  19.179  25.001  1.00  0.00     0.015 A 
ATOM     26  C   UNL A   1      33.442  19.783  24.414  1.00  0.00     0.021 A 
ATOM     27  C   UNL A   1      35.245  18.171  24.581  1.00  0.00     0.021 A 
ATOM     28  C   UNL A   1      33.924  18.485  24.252  1.00  0.00     0.041 A 
ATOM     29  Cl  UNL A   1      32.903  17.292  23.555  1.00  0.00    -0.084 Cl
ENDBRANCH  20  23
ENDBRANCH  18  19
ENDBRANCH   6   8
ENDBRANCH   5   6
ENDBRANCH   4   5
ENDBRANCH   3   4
ENDBRANCH   2   3
ENDBRANCH   1   2
BRANCH   1  30
ATOM     30  C   UNL A   1      31.541  30.139  26.556  1.00  0.00     0.261 C 
BRANCH  30  31
ATOM     31  O   UNL A   1      32.964  30.081  26.741  1.00  0.00    -0.460 OA
BRANCH  31  32
ATOM     32  C   UNL A   1      33.491  31.202  27.296  1.00  0.00     0.338 C 
ATOM     33  O   UNL A   1      32.890  32.207  27.621  1.00  0.00    -0.246 OA
BRANCH  32  34
ATOM     34  C   UNL A   1      34.911  30.978  27.636  1.00  0.00     0.060 A 
ATOM     35  C   UNL A   1      35.351  29.651  27.642  1.00  0.00     0.016 A 
ATOM     36  C   UNL A   1      35.780  32.013  27.990  1.00  0.00     0.016 A 
ATOM     37  C   UNL A   1      36.632  29.347  28.091  1.00  0.00     0.010 A 
ATOM     38  C   UNL A   1      37.083  31.707  28.404  1.00  0.00     0.010 A 
ATOM     39  C   UNL A   1      37.491  30.367  28.524  1.00  0.00    -0.014 A 
BRANCH  39  40
ATOM     40  C   UNL A   1      38.725  29.981  29.256  1.00  0.00     0.031 A 
ATOM     41  C   UNL A   1      38.881  30.371  30.703  1.00  0.00     0.074 A 
ATOM     42  C   UNL A   1      39.649  29.191  28.675  1.00  0.00     0.049 A 
ATOM     43  N   UNL A   1      39.772  29.975  31.577  1.00  0.00    -0.248 NA
ATOM     44  C   UNL A   1      37.907  31.334  31.239  1.00  0.00     0.031 C 
ATOM     45  C   UNL A   1      39.624  28.749  27.282  1.00  0.00     0.029 A 
ATOM     46  N   UNL A   1      40.774  28.606  29.197  1.00  0.00    -0.354 N 
ATOM     47  C   UNL A   1      39.474  30.648  32.757  1.00  0.00     0.074 A 
ATOM     48  C   UNL A   1      38.347  31.509  32.475  1.00  0.00     0.031 C 
ATOM     49  C   UNL A   1      40.673  27.936  27.066  1.00  0.00     0.029 A 
ATOM     50  C   UNL A   1      41.449  27.815  28.299  1.00  0.00     0.049 A 
ATOM     51  H   UNL A   1      41.070  28.738  30.127  1.00  0.00     0.167 HD
ATOM     52  C   UNL A   1      40.061  30.544  33.973  1.00  0.00     0.034 A 
ATOM     53  C   UNL A   1      42.558  27.065  28.455  1.00  0.00     0.034 A 
ATOM     54  C   UNL A   1      41.181  29.687  34.258  1.00  0.00     0.049 A 
ATOM     55  C   UNL A   1      43.209  26.979  29.810  1.00  0.00     0.074 A 
ATOM     56  C   UNL A   1      41.822  29.478  35.467  1.00  0.00     0.029 A 
ATOM     57  N   UNL A   1      41.844  28.913  33.318  1.00  0.00    -0.354 N 
ATOM     58  N   UNL A   1      42.838  27.520  30.944  1.00  0.00    -0.248 NA
ATOM     59  C   UNL A   1      44.412  26.138  29.911  1.00  0.00     0.031 C 
ATOM     60  C   UNL A   1      42.899  28.612  35.247  1.00  0.00     0.029 A 
ATOM     61  C   UNL A   1      42.900  28.240  33.913  1.00  0.00     0.049 A 
ATOM     62  H   UNL A   1      41.601  28.850  32.366  1.00  0.00     0.167 HD
ATOM     63  C   UNL A   1      43.733  27.056  31.902  1.00  0.00     0.074 A 
ATOM     64  C   UNL A   1      44.653  26.172  31.214  1.00  0.00     0.031 C 
ATOM     65  C   UNL A   1      43.793  27.339  33.229  1.00  0.00     0.034 A 
BRANCH  52  66
ATOM     66  C   UNL A   1      39.487  31.383  35.089  1.00  0.00     0.023 A 
ATOM     67  C   UNL A   1      38.528  30.829  35.966  1.00  0.00     0.012 A 
ATOM     68  C   UNL A   1      39.897  32.717  35.275  1.00  0.00     0.148 A 
ATOM     69  C   UNL A   1      37.947  31.605  36.969  1.00  0.00     0.002 A 
ATOM     70  C   UNL A   1      39.353  33.468  36.311  1.00  0.00     0.091 A 
ATOM     71  F   UNL A   1      40.791  33.237  34.422  1.00  0.00    -0.205 F 
ATOM     72  C   UNL A   1      38.366  32.921  37.147  1.00  0.00     0.022 A 
BRANCH  70  73
ATOM     73  S   UNL A   1      39.891  35.143  36.673  1.00  0.00     0.127 S 
ATOM     74  O   UNL A   1      39.193  35.413  37.928  1.00  0.00    -0.237 OA
ATOM     75  O   UNL A   1      41.340  34.981  36.804  1.00  0.00    -0.237 OA
ATOM     76  O   UNL A   1      39.474  35.951  35.534  1.00  0.00    -0.744 OA
ENDBRANCH  70  73
ENDBRANCH  52  66
BRANCH  53  77
ATOM     77  C   UNL A   1      43.081  26.272  27.306  1.00  0.00     0.023 A 
ATOM     78  C   UNL A   1      44.046  26.838  26.449  1.00  0.00     0.012 A 
ATOM     79  C   UNL A   1      42.650  24.951  27.078  1.00  0.00     0.148 A 
ATOM     80  C   UNL A   1      44.555  26.110  25.374  1.00  0.00     0.002 A 
ATOM     81  C   UNL A   1      43.202  24.213  26.040  1.00  0.00     0.091 A 
ATOM     82  F   UNL A   1      41.723  24.438  27.899  1.00  0.00    -0.205 F 
ATOM     83  C   UNL A   1      44.143  24.796  25.175  1.00  0.00     0.022 A 
BRANCH  81  84
ATOM     84  S   UNL A   1      42.825  22.477  25.781  1.00  0.00     0.127 S 
ATOM     85  O   UNL A   1      43.411  21.862  26.970  1.00  0.00    -0.237 OA
ATOM     86  O   UNL A   1      41.363  22.492  25.751  1.00  0.00    -0.237 OA
ATOM     87  O   UNL A   1      43.453  22.118  24.517  1.00  0.00    -0.744 OA
ENDBRANCH  81  84
ENDBRANCH  53  77
BRANCH  65  88
ATOM     88  C   UNL A   1      44.869  26.655  34.039  1.00  0.00     0.023 A 
ATOM     89  C   UNL A   1      46.125  27.271  34.216  1.00  0.00     0.012 A 
ATOM     90  C   UNL A   1      44.621  25.410  34.653  1.00  0.00     0.148 A 
ATOM     91  C   UNL A   1      47.134  26.634  34.940  1.00  0.00     0.002 A 
ATOM     92  C   UNL A   1      45.613  24.809  35.420  1.00  0.00     0.091 A 
ATOM     93  F   UNL A   1      43.430  24.827  34.464  1.00  0.00    -0.205 F 
ATOM     94  C   UNL A   1      46.875  25.410  35.550  1.00  0.00     0.022 A 
BRANCH  92  95
ATOM     95  S   UNL A   1      45.332  23.281  36.323  1.00  0.00     0.127 S 
ATOM     96  O   UNL A   1      46.695  22.885  36.671  1.00  0.00    -0.237 OA
ATOM     97  O   UNL A   1      44.521  23.733  37.455  1.00  0.00    -0.237 OA
ATOM     98  O   UNL A   1      44.637  22.394  35.401  1.00  0.00    -0.744 OA
ENDBRANCH  92  95
ENDBRANCH  65  88
ENDBRANCH  39  40
ENDBRANCH  32  34
ENDBRANCH  31  32
ENDBRANCH  30  31
ENDBRANCH   1  30
TORSDOF 19
ENDMDL
MODEL 2
REMARK VINA RESULT:     -11.9      0.931      7.554
REMARK SMILES CC1(C)[C@@]2(C(=O)OCCOCCOC(=O)c3ccc(-c4c5nc(c(-c6cccc(S(=O)(=O)[O-])c6F)c6ccc([nH]6)c(-c6cccc(S(=O)(=O)[O-])c6F)c6nc(c(-c7cccc(S(=O)(=O)[O-])c7F)c7ccc4[nH]7)C=C6)C=C5)cc3)CC[C@]1(C)/C(=N/NC(=O)c1ccc(Cl)cc1)C2
REMARK SMILES IDX 11 1 10 2 9 3 8 4 7 5 5 6 6 7 4 8 1 9 2 10 3 11 81 12 79 13
REMARK SMILES IDX 95 14 80 15 82 16 83 17 84 18 85 19 86 20 87 22 88 23 89 24
REMARK SMILES IDX 94 25 90 26 93 27 91 28 92 29 12 30 13 31 14 32 15 33 16 34
REMARK SMILES IDX 17 35 78 36 18 37 77 38 19 39 20 40 21 41 71 42 22 43 76 44
REMARK SMILES IDX 70 45 72 46 23 47 75 48 69 49 68 50 24 52 56 53 36 54 55 55
REMARK SMILES IDX 37 56 40 57 54 58 73 59 38 60 39 61 53 63 74 64 41 65 25 66
REMARK SMILES IDX 26 67 34 68 27 69 29 70 35 71 28 72 30 73 31 74 32 75 33 76
REMARK SMILES IDX 57 77 58 78 66 79 59 80 61 81 67 82 60 83 62 84 63 85 64 86
REMARK SMILES IDX 65 87 42 88 43 89 51 90 44 91 46 92 52 93 45 94 47 95 48 96
REMARK SMILES IDX 49 97 50 98
REMARK H PARENT 85 21 72 51 40 62
REMARK Flexibility Score: inf
ROOT
ATOM      1  C   UNL A   1      30.968  30.457  24.938  1.00  0.00     0.202 C 
ENDROOT
BRANCH   1   2
ATOM      2  O   UNL A   1      30.805  29.172  24.341  1.00  0.00    -0.374 OA
BRANCH   2   3
ATOM      3  C   UNL A   1      30.779  29.153  22.910  1.00  0.00     0.202 C 
BRANCH   3   4
ATOM      4  C   UNL A   1      31.419  27.927  22.249  1.00  0.00     0.261 C 
BRANCH   4   5
ATOM      5  O   UNL A   1      32.751  27.690  22.745  1.00  0.00    -0.463 OA
BRANCH   5   6
ATOM      6  C   UNL A   1      33.204  26.410  22.657  1.00  0.00     0.313 C 
ATOM      7  O   UNL A   1      33.500  25.843  21.616  1.00  0.00    -0.252 OA
BRANCH   6   8
ATOM      8  C   UNL A   1      33.281  25.769  24.030  1.00  0.00     0.079 C 
ATOM      9  C   UNL A   1      30.715  25.571  24.402  1.00  0.00     0.013 C 
ATOM     10  C   UNL A   1      32.088  24.865  24.445  1.00  0.00    -0.008 C 
ATOM     11  C   UNL A   1      31.947  23.562  23.627  1.00  0.00     0.013 C 
ATOM     12  C   UNL A   1      32.669  24.658  25.885  1.00  0.00     0.014 C 
ATOM     13  C   UNL A   1      33.318  26.854  25.151  1.00  0.00     0.021 C 
ATOM     14  C   UNL A   1      34.498  24.833  24.244  1.00  0.00     0.073 C 
ATOM     15  C   UNL A   1      32.849  26.094  26.409  1.00  0.00     0.014 C 
ATOM     16  C   UNL A   1      31.904  23.720  26.790  1.00  0.00     0.018 C 
ATOM     17  C   UNL A   1      34.114  24.220  25.558  1.00  0.00     0.046 C 
ATOM     18  N   UNL A   1      34.753  23.418  26.350  1.00  0.00    -0.181 NA
BRANCH  18  19
ATOM     19  N   UNL A   1      35.979  22.872  26.130  1.00  0.00    -0.243 N 
ATOM     20  C   UNL A   1      36.457  21.663  25.666  1.00  0.00     0.271 C 
ATOM     21  H   UNL A   1      36.708  23.493  26.358  1.00  0.00     0.194 HD
ATOM     22  O   UNL A   1      37.667  21.440  25.688  1.00  0.00    -0.267 OA
BRANCH  20  23
ATOM     23  C   UNL A   1      35.576  20.617  25.135  1.00  0.00     0.041 A 
ATOM     24  C   UNL A   1      36.163  19.387  24.805  1.00  0.00     0.015 A 
ATOM     25  C   UNL A   1      34.193  20.799  25.035  1.00  0.00     0.015 A 
ATOM     26  C   UNL A   1      35.347  18.295  24.505  1.00  0.00     0.021 A 
ATOM     27  C   UNL A   1      33.385  19.707  24.700  1.00  0.00     0.021 A 
ATOM     28  C   UNL A   1      33.962  18.454  24.477  1.00  0.00     0.041 A 
ATOM     29  Cl  UNL A   1      32.964  17.073  24.256  1.00  0.00    -0.084 Cl
ENDBRANCH  20  23
ENDBRANCH  18  19
ENDBRANCH   6   8
ENDBRANCH   5   6
ENDBRANCH   4   5
ENDBRANCH   3   4
ENDBRANCH   2   3
ENDBRANCH   1   2
BRANCH   1  30
ATOM     30  C   UNL A   1      31.596  30.485  26.333  1.00  0.00     0.261 C 
BRANCH  30  31
ATOM     31  O   UNL A   1      33.023  30.642  26.261  1.00  0.00    -0.460 OA
BRANCH  31  32
ATOM     32  C   UNL A   1      33.510  31.611  27.076  1.00  0.00     0.338 C 
ATOM     33  O   UNL A   1      32.926  32.609  27.453  1.00  0.00    -0.246 OA
BRANCH  32  34
ATOM     34  C   UNL A   1      34.823  31.204  27.616  1.00  0.00     0.060 A 
ATOM     35  C   UNL A   1      35.010  29.838  27.843  1.00  0.00     0.016 A 
ATOM     36  C   UNL A   1      35.827  32.119  27.943  1.00  0.00     0.016 A 
ATOM     37  C   UNL A   1      36.161  29.392  28.483  1.00  0.00     0.010 A 
ATOM     38  C   UNL A   1      37.003  31.663  28.551  1.00  0.00     0.010 A 
ATOM     39  C   UNL A   1      37.145  30.306  28.888  1.00  0.00    -0.014 A 
BRANCH  39  40
ATOM     40  C   UNL A   1      38.207  29.828  29.811  1.00  0.00     0.031 A 
ATOM     41  C   UNL A   1      39.271  28.894  29.297  1.00  0.00     0.074 A 
ATOM     42  C   UNL A   1      38.293  30.311  31.066  1.00  0.00     0.049 A 
ATOM     43  N   UNL A   1      40.388  28.516  29.865  1.00  0.00    -0.248 NA
ATOM     44  C   UNL A   1      39.051  28.307  27.966  1.00  0.00     0.031 C 
ATOM     45  C   UNL A   1      37.327  31.212  31.691  1.00  0.00     0.029 A 
ATOM     46  N   UNL A   1      39.253  30.123  32.028  1.00  0.00    -0.354 N 
ATOM     47  C   UNL A   1      40.995  27.640  28.972  1.00  0.00     0.074 A 
ATOM     48  C   UNL A   1      40.101  27.511  27.841  1.00  0.00     0.031 C 
ATOM     49  C   UNL A   1      37.759  31.523  32.925  1.00  0.00     0.029 A 
ATOM     50  C   UNL A   1      39.020  30.831  33.182  1.00  0.00     0.049 A 
ATOM     51  H   UNL A   1      40.036  29.538  31.903  1.00  0.00     0.167 HD
ATOM     52  C   UNL A   1      42.195  27.020  29.062  1.00  0.00     0.034 A 
ATOM     53  C   UNL A   1      39.748  30.923  34.313  1.00  0.00     0.034 A 
ATOM     54  C   UNL A   1      43.087  27.147  30.184  1.00  0.00     0.049 A 
ATOM     55  C   UNL A   1      41.071  30.209  34.402  1.00  0.00     0.074 A 
ATOM     56  C   UNL A   1      44.343  26.594  30.354  1.00  0.00     0.029 A 
ATOM     57  N   UNL A   1      42.808  27.862  31.338  1.00  0.00    -0.354 N 
ATOM     58  N   UNL A   1      41.688  29.490  33.497  1.00  0.00    -0.248 NA
ATOM     59  C   UNL A   1      41.817  30.358  35.661  1.00  0.00     0.031 C 
ATOM     60  C   UNL A   1      44.805  26.938  31.630  1.00  0.00     0.029 A 
ATOM     61  C   UNL A   1      43.859  27.749  32.235  1.00  0.00     0.049 A 
ATOM     62  H   UNL A   1      41.984  28.376  31.499  1.00  0.00     0.167 HD
ATOM     63  C   UNL A   1      42.911  29.134  34.058  1.00  0.00     0.074 A 
ATOM     64  C   UNL A   1      42.952  29.736  35.375  1.00  0.00     0.031 C 
ATOM     65  C   UNL A   1      43.906  28.374  33.533  1.00  0.00     0.034 A 
BRANCH  52  66
ATOM     66  C   UNL A   1      42.608  26.148  27.901  1.00  0.00     0.023 A 
ATOM     67  C   UNL A   1      43.480  26.656  26.913  1.00  0.00     0.012 A 
ATOM     68  C   UNL A   1      42.141  24.824  27.789  1.00  0.00     0.148 A 
ATOM     69  C   UNL A   1      43.831  25.883  25.806  1.00  0.00     0.002 A 
ATOM     70  C   UNL A   1      42.538  24.042  26.710  1.00  0.00     0.091 A 
ATOM     71  F   UNL A   1      41.297  24.361  28.721  1.00  0.00    -0.205 F 
ATOM     72  C   UNL A   1      43.367  24.574  25.709  1.00  0.00     0.022 A 
BRANCH  70  73
ATOM     73  S   UNL A   1      42.061  22.318  26.543  1.00  0.00     0.127 S 
ATOM     74  O   UNL A   1      40.604  22.418  26.486  1.00  0.00    -0.237 OA
ATOM     75  O   UNL A   1      42.696  21.943  25.278  1.00  0.00    -0.237 OA
ATOM     76  O   UNL A   1      42.600  21.639  27.713  1.00  0.00    -0.744 OA
ENDBRANCH  70  73
ENDBRANCH  52  66
BRANCH  53  77
ATOM     77  C   UNL A   1      39.274  31.792  35.427  1.00  0.00     0.023 A 
ATOM     78  C   UNL A   1      38.401  31.264  36.399  1.00  0.00     0.012 A 
ATOM     79  C   UNL A   1      39.708  33.126  35.545  1.00  0.00     0.148 A 
ATOM     80  C   UNL A   1      37.952  32.056  37.456  1.00  0.00     0.002 A 
ATOM     81  C   UNL A   1      39.302  33.892  36.630  1.00  0.00     0.091 A 
ATOM     82  F   UNL A   1      40.529  33.610  34.602  1.00  0.00    -0.205 F 
ATOM     83  C   UNL A   1      38.409  33.365  37.578  1.00  0.00     0.022 A 
BRANCH  81  84
ATOM     84  S   UNL A   1      39.934  35.544  36.938  1.00  0.00     0.127 S 
ATOM     85  O   UNL A   1      39.523  36.253  35.729  1.00  0.00    -0.237 OA
ATOM     86  O   UNL A   1      39.206  35.919  38.151  1.00  0.00    -0.237 OA
ATOM     87  O   UNL A   1      41.371  35.393  37.118  1.00  0.00    -0.744 OA
ENDBRANCH  81  84
ENDBRANCH  53  77
BRANCH  65  88
ATOM     88  C   UNL A   1      45.148  28.179  34.370  1.00  0.00     0.023 A 
ATOM     89  C   UNL A   1      46.232  29.074  34.252  1.00  0.00     0.012 A 
ATOM     90  C   UNL A   1      45.229  27.122  35.298  1.00  0.00     0.148 A 
ATOM     91  C   UNL A   1      47.395  28.886  35.000  1.00  0.00     0.002 A 
ATOM     92  C   UNL A   1      46.369  26.975  36.081  1.00  0.00     0.091 A 
ATOM     93  F   UNL A   1      44.200  26.268  35.390  1.00  0.00    -0.205 F 
ATOM     94  C   UNL A   1      47.459  27.844  35.921  1.00  0.00     0.022 A 
BRANCH  92  95
ATOM     95  S   UNL A   1      46.498  25.722  37.363  1.00  0.00     0.127 S 
ATOM     96  O   UNL A   1      47.510  26.299  38.245  1.00  0.00    -0.237 OA
ATOM     97  O   UNL A   1      45.143  25.706  37.919  1.00  0.00    -0.237 OA
ATOM     98  O   UNL A   1      46.883  24.494  36.683  1.00  0.00    -0.744 OA
ENDBRANCH  92  95
ENDBRANCH  65  88
ENDBRANCH  39  40
ENDBRANCH  32  34
ENDBRANCH  31  32
ENDBRANCH  30  31
ENDBRANCH   1  30
TORSDOF 19
ENDMDL
MODEL 3
REMARK VINA RESULT:     -11.8      5.025      8.472
REMARK SMILES CC1(C)[C@@]2(C(=O)OCCOCCOC(=O)c3ccc(-c4c5nc(c(-c6cccc(S(=O)(=O)[O-])c6F)c6ccc([nH]6)c(-c6cccc(S(=O)(=O)[O-])c6F)c6nc(c(-c7cccc(S(=O)(=O)[O-])c7F)c7ccc4[nH]7)C=C6)C=C5)cc3)CC[C@]1(C)/C(=N/NC(=O)c1ccc(Cl)cc1)C2
REMARK SMILES IDX 11 1 10 2 9 3 8 4 7 5 5 6 6 7 4 8 1 9 2 10 3 11 81 12 79 13
REMARK SMILES IDX 95 14 80 15 82 16 83 17 84 18 85 19 86 20 87 22 88 23 89 24
REMARK SMILES IDX 94 25 90 26 93 27 91 28 92 29 12 30 13 31 14 32 15 33 16 34
REMARK SMILES IDX 17 35 78 36 18 37 77 38 19 39 20 40 21 41 71 42 22 43 76 44
REMARK SMILES IDX 70 45 72 46 23 47 75 48 69 49 68 50 24 52 56 53 36 54 55 55
REMARK SMILES IDX 37 56 40 57 54 58 73 59 38 60 39 61 53 63 74 64 41 65 25 66
REMARK SMILES IDX 26 67 34 68 27 69 29 70 35 71 28 72 30 73 31 74 32 75 33 76
REMARK SMILES IDX 57 77 58 78 66 79 59 80 61 81 67 82 60 83 62 84 63 85 64 86
REMARK SMILES IDX 65 87 42 88 43 89 51 90 44 91 46 92 52 93 45 94 47 95 48 96
REMARK SMILES IDX 49 97 50 98
REMARK H PARENT 85 21 72 51 40 62
REMARK Flexibility Score: inf
ROOT
ATOM      1  C   UNL A   1      37.841  20.139  24.928  1.00  0.00     0.202 C 
ENDROOT
BRANCH   1   2
ATOM      2  O   UNL A   1      36.980  21.002  25.668  1.00  0.00    -0.374 OA
BRANCH   2   3
ATOM      3  C   UNL A   1      37.193  22.404  25.472  1.00  0.00     0.202 C 
BRANCH   3   4
ATOM      4  C   UNL A   1      36.785  22.953  24.100  1.00  0.00     0.261 C 
BRANCH   4   5
ATOM      5  O   UNL A   1      35.694  23.887  24.205  1.00  0.00    -0.463 OA
BRANCH   5   6
ATOM      6  C   UNL A   1      34.636  23.669  23.376  1.00  0.00     0.313 C 
ATOM      7  O   UNL A   1      34.701  23.108  22.293  1.00  0.00    -0.252 OA
BRANCH   6   8
ATOM      8  C   UNL A   1      33.358  24.229  23.973  1.00  0.00     0.079 C 
ATOM      9  C   UNL A   1      32.460  21.975  24.905  1.00  0.00     0.013 C 
ATOM     10  C   UNL A   1      32.759  23.463  25.184  1.00  0.00    -0.008 C 
ATOM     11  C   UNL A   1      33.616  23.513  26.470  1.00  0.00     0.013 C 
ATOM     12  C   UNL A   1      31.496  24.387  25.219  1.00  0.00     0.014 C 
ATOM     13  C   UNL A   1      32.200  24.211  22.927  1.00  0.00     0.021 C 
ATOM     14  C   UNL A   1      33.474  25.675  24.518  1.00  0.00     0.073 C 
ATOM     15  C   UNL A   1      30.925  24.270  23.794  1.00  0.00     0.014 C 
ATOM     16  C   UNL A   1      30.514  24.140  26.342  1.00  0.00     0.018 C 
ATOM     17  C   UNL A   1      32.153  25.785  25.221  1.00  0.00     0.046 C 
ATOM     18  N   UNL A   1      31.574  26.785  25.806  1.00  0.00    -0.181 NA
BRANCH  18  19
ATOM     19  N   UNL A   1      32.088  28.032  25.974  1.00  0.00    -0.243 N 
ATOM     20  C   UNL A   1      31.918  29.263  25.375  1.00  0.00     0.271 C 
ATOM     21  H   UNL A   1      32.747  28.066  26.706  1.00  0.00     0.194 HD
ATOM     22  O   UNL A   1      32.639  30.205  25.706  1.00  0.00    -0.267 OA
BRANCH  20  23
ATOM     23  C   UNL A   1      30.896  29.509  24.351  1.00  0.00     0.041 A 
ATOM     24  C   UNL A   1      30.039  30.602  24.545  1.00  0.00     0.015 A 
ATOM     25  C   UNL A   1      30.825  28.743  23.183  1.00  0.00     0.015 A 
ATOM     26  C   UNL A   1      29.201  31.010  23.506  1.00  0.00     0.021 A 
ATOM     27  C   UNL A   1      29.957  29.140  22.161  1.00  0.00     0.021 A 
ATOM     28  C   UNL A   1      29.180  30.292  22.311  1.00  0.00     0.041 A 
ATOM     29  Cl  UNL A   1      28.260  30.889  20.989  1.00  0.00    -0.084 Cl
ENDBRANCH  20  23
ENDBRANCH  18  19
ENDBRANCH   6   8
ENDBRANCH   5   6
ENDBRANCH   4   5
ENDBRANCH   3   4
ENDBRANCH   2   3
ENDBRANCH   1   2
BRANCH   1  30
ATOM     30  C   UNL A   1      38.923  19.409  25.727  1.00  0.00     0.261 C 
BRANCH  30  31
ATOM     31  O   UNL A   1      40.177  20.109  25.669  1.00  0.00    -0.460 OA
BRANCH  31  32
ATOM     32  C   UNL A   1      40.814  20.195  26.863  1.00  0.00     0.338 C 
ATOM     33  O   UNL A   1      41.310  19.280  27.493  1.00  0.00    -0.246 OA
BRANCH  32  34
ATOM     34  C   UNL A   1      40.998  21.612  27.238  1.00  0.00     0.060 A 
ATOM     35  C   UNL A   1      40.483  22.564  26.354  1.00  0.00     0.016 A 
ATOM     36  C   UNL A   1      41.694  22.011  28.382  1.00  0.00     0.016 A 
ATOM     37  C   UNL A   1      40.742  23.915  26.562  1.00  0.00     0.010 A 
ATOM     38  C   UNL A   1      41.919  23.375  28.610  1.00  0.00     0.010 A 
ATOM     39  C   UNL A   1      41.505  24.328  27.664  1.00  0.00    -0.014 A 
BRANCH  39  40
ATOM     40  C   UNL A   1      41.995  25.731  27.691  1.00  0.00     0.031 A 
ATOM     41  C   UNL A   1      41.159  26.795  28.354  1.00  0.00     0.074 A 
ATOM     42  C   UNL A   1      43.223  26.037  27.231  1.00  0.00     0.049 A 
ATOM     43  N   UNL A   1      41.479  28.026  28.664  1.00  0.00    -0.248 NA
ATOM     44  C   UNL A   1      39.783  26.426  28.719  1.00  0.00     0.031 C 
ATOM     45  C   UNL A   1      44.129  25.106  26.560  1.00  0.00     0.029 A 
ATOM     46  N   UNL A   1      43.925  27.215  27.283  1.00  0.00    -0.354 N 
ATOM     47  C   UNL A   1      40.344  28.581  29.244  1.00  0.00     0.074 A 
ATOM     48  C   UNL A   1      39.315  27.564  29.206  1.00  0.00     0.031 C 
ATOM     49  C   UNL A   1      45.281  25.743  26.287  1.00  0.00     0.029 A 
ATOM     50  C   UNL A   1      45.187  27.127  26.748  1.00  0.00     0.049 A 
ATOM     51  H   UNL A   1      43.559  28.045  27.667  1.00  0.00     0.167 HD
ATOM     52  C   UNL A   1      40.173  29.810  29.787  1.00  0.00     0.034 A 
ATOM     53  C   UNL A   1      46.163  28.051  26.654  1.00  0.00     0.034 A 
ATOM     54  C   UNL A   1      41.194  30.823  29.828  1.00  0.00     0.049 A 
ATOM     55  C   UNL A   1      45.947  29.419  27.245  1.00  0.00     0.074 A 
ATOM     56  C   UNL A   1      41.134  32.084  30.393  1.00  0.00     0.029 A 
ATOM     57  N   UNL A   1      42.454  30.698  29.264  1.00  0.00    -0.354 N 
ATOM     58  N   UNL A   1      44.914  29.884  27.904  1.00  0.00    -0.248 NA
ATOM     59  C   UNL A   1      47.055  30.377  27.113  1.00  0.00     0.031 C 
ATOM     60  C   UNL A   1      42.344  32.739  30.130  1.00  0.00     0.029 A 
ATOM     61  C   UNL A   1      43.176  31.867  29.447  1.00  0.00     0.049 A 
ATOM     62  H   UNL A   1      42.788  29.897  28.800  1.00  0.00     0.167 HD
ATOM     63  C   UNL A   1      45.261  31.171  28.302  1.00  0.00     0.074 A 
ATOM     64  C   UNL A   1      46.609  31.403  27.824  1.00  0.00     0.031 C 
ATOM     65  C   UNL A   1      44.528  32.081  28.994  1.00  0.00     0.034 A 
BRANCH  52  66
ATOM     66  C   UNL A   1      38.822  30.116  30.385  1.00  0.00     0.023 A 
ATOM     67  C   UNL A   1      38.507  29.664  31.686  1.00  0.00     0.012 A 
ATOM     68  C   UNL A   1      37.863  30.857  29.667  1.00  0.00     0.148 A 
ATOM     69  C   UNL A   1      37.245  29.891  32.234  1.00  0.00     0.002 A 
ATOM     70  C   UNL A   1      36.627  31.126  30.242  1.00  0.00     0.091 A 
ATOM     71  F   UNL A   1      38.166  31.262  28.425  1.00  0.00    -0.205 F 
ATOM     72  C   UNL A   1      36.309  30.629  31.516  1.00  0.00     0.022 A 
BRANCH  70  73
ATOM     73  S   UNL A   1      35.387  32.141  29.430  1.00  0.00     0.127 S 
ATOM     74  O   UNL A   1      34.899  31.237  28.390  1.00  0.00    -0.237 OA
ATOM     75  O   UNL A   1      34.436  32.393  30.513  1.00  0.00    -0.237 OA
ATOM     76  O   UNL A   1      36.089  33.326  28.955  1.00  0.00    -0.744 OA
ENDBRANCH  70  73
ENDBRANCH  52  66
BRANCH  53  77
ATOM     77  C   UNL A   1      47.469  27.685  26.037  1.00  0.00     0.023 A 
ATOM     78  C   UNL A   1      48.510  27.192  26.849  1.00  0.00     0.012 A 
ATOM     79  C   UNL A   1      47.673  27.792  24.647  1.00  0.00     0.148 A 
ATOM     80  C   UNL A   1      49.737  26.834  26.291  1.00  0.00     0.002 A 
ATOM     81  C   UNL A   1      48.878  27.381  24.092  1.00  0.00     0.091 A 
ATOM     82  F   UNL A   1      46.673  28.274  23.897  1.00  0.00    -0.205 F 
ATOM     83  C   UNL A   1      49.918  26.918  24.913  1.00  0.00     0.022 A 
BRANCH  81  84
ATOM     84  S   UNL A   1      49.160  27.336  22.319  1.00  0.00     0.127 S 
ATOM     85  O   UNL A   1      48.431  26.131  21.930  1.00  0.00    -0.237 OA
ATOM     86  O   UNL A   1      48.546  28.593  21.889  1.00  0.00    -0.237 OA
ATOM     87  O   UNL A   1      50.604  27.277  22.147  1.00  0.00    -0.744 OA
ENDBRANCH  81  84
ENDBRANCH  53  77
BRANCH  65  88
ATOM     88  C   UNL A   1      45.183  33.404  29.315  1.00  0.00     0.023 A 
ATOM     89  C   UNL A   1      45.885  33.574  30.526  1.00  0.00     0.012 A 
ATOM     90  C   UNL A   1      45.128  34.472  28.397  1.00  0.00     0.148 A 
ATOM     91  C   UNL A   1      46.469  34.802  30.843  1.00  0.00     0.002 A 
ATOM     92  C   UNL A   1      45.762  35.673  28.695  1.00  0.00     0.091 A 
ATOM     93  F   UNL A   1      44.445  34.304  27.256  1.00  0.00    -0.205 F 
ATOM     94  C   UNL A   1      46.416  35.846  29.925  1.00  0.00     0.022 A 
BRANCH  92  95
ATOM     95  S   UNL A   1      45.829  37.038  27.528  1.00  0.00     0.127 S 
ATOM     96  O   UNL A   1      46.755  37.954  28.192  1.00  0.00    -0.237 OA
ATOM     97  O   UNL A   1      46.365  36.394  26.327  1.00  0.00    -0.237 OA
ATOM     98  O   UNL A   1      44.461  37.517  27.393  1.00  0.00    -0.744 OA
ENDBRANCH  92  95
ENDBRANCH  65  88
ENDBRANCH  39  40
ENDBRANCH  32  34
ENDBRANCH  31  32
ENDBRANCH  30  31
ENDBRANCH   1  30
TORSDOF 19
ENDMDL
