MODEL 1
REMARK VINA RESULT:     -13.0      0.000      0.000
REMARK SMILES Cc1cccc(-c2ncc(C[NH+]3CCC4(CC3)NC(=O)C[C@H]4C(=O)OCCOCCOC(=O)c3ccc(-c4c5nc(c(-c6cccc(S(=O)(=O)[O-])c6F)c6ccc([nH]6)c(-c6cccc(S(=O)(=O)[O-])c6F)c6nc(c(-c7cccc(S(=O)(=O)[O-])c7F)c7ccc4[nH]7)C=C6)C=C5)cc3)cn2)c1
REMARK SMILES IDX 28 1 27 2 26 3 25 4 23 5 24 6 22 7 12 8 13 9 17 10 14 12
REMARK SMILES IDX 16 13 15 14 18 15 19 16 21 18 20 19 11 20 10 21 7 22 8 23
REMARK SMILES IDX 98 24 9 25 97 26 6 27 1 28 2 29 3 30 99 31 4 32 5 33 29 34
REMARK SMILES IDX 30 35 31 36 32 37 33 38 34 39 35 40 96 41 36 42 95 43 37 44
REMARK SMILES IDX 38 45 39 46 89 47 40 48 94 49 88 50 90 51 41 52 93 53 87 54
REMARK SMILES IDX 86 55 42 57 74 58 54 59 73 60 55 61 58 62 72 63 91 64 56 65
REMARK SMILES IDX 57 66 71 68 92 69 59 70 43 71 44 72 52 73 45 74 47 75 53 76
REMARK SMILES IDX 46 77 48 78 49 79 50 80 51 81 75 82 76 83 84 84 77 85 79 86
REMARK SMILES IDX 85 87 78 88 80 89 81 90 82 91 83 92 60 93 61 94 69 95 62 96
REMARK SMILES IDX 64 97 70 98 63 99 65 100 66 101 67 102 68 103
REMARK H PARENT 12 11 18 17 90 56 58 67
REMARK Flexibility Score: inf
ROOT
ATOM      1  O   UNL A   1      33.322  29.356  26.559  1.00  0.00    -0.374 OA
ENDROOT
BRANCH   1   2
ATOM      2  C   UNL A   1      32.918  29.660  25.240  1.00  0.00     0.202 C 
BRANCH   2   3
ATOM      3  C   UNL A   1      31.422  29.407  25.173  1.00  0.00     0.261 C 
BRANCH   3   4
ATOM      4  O   UNL A   1      30.778  29.182  23.846  1.00  0.00    -0.463 OA
BRANCH   4   5
ATOM      5  C   UNL A   1      31.037  28.123  23.002  1.00  0.00     0.311 C 
ATOM      6  O   UNL A   1      30.282  27.696  22.143  1.00  0.00    -0.252 OA
BRANCH   5   7
ATOM      7  C   UNL A   1      32.473  27.554  23.181  1.00  0.00     0.134 C 
ATOM      8  N   UNL A   1      32.118  25.155  26.554  1.00  0.00    -0.331 N 
ATOM      9  C   UNL A   1      33.471  25.401  26.054  1.00  0.00     0.264 C 
ATOM     10  C   UNL A   1      31.198  26.011  25.853  1.00  0.00     0.264 C 
ATOM     11  H   UNL A   1      32.240  25.383  27.542  1.00  0.00     0.348 HD
ATOM     12  C   UNL A   1      33.696  25.563  24.522  1.00  0.00     0.091 C 
ATOM     13  C   UNL A   1      31.247  25.706  24.383  1.00  0.00     0.091 C 
ATOM     14  C   UNL A   1      32.508  26.084  23.665  1.00  0.00     0.064 C 
ATOM     15  N   UNL A   1      32.591  25.380  22.393  1.00  0.00    -0.349 N 
ATOM     16  C   UNL A   1      32.982  26.158  21.324  1.00  0.00     0.221 C 
ATOM     17  H   UNL A   1      32.383  24.423  22.303  1.00  0.00     0.164 HD
ATOM     18  C   UNL A   1      33.219  27.552  21.841  1.00  0.00     0.117 C 
ATOM     19  O   UNL A   1      33.169  25.748  20.204  1.00  0.00    -0.275 OA
BRANCH   8  20
ATOM     20  C   UNL A   1      31.575  23.797  26.799  1.00  0.00     0.302 C 
BRANCH  20  21
ATOM     21  C   UNL A   1      32.304  22.616  26.198  1.00  0.00     0.043 A 
ATOM     22  C   UNL A   1      33.011  20.095  25.407  1.00  0.00     0.159 A 
ATOM     23  N   UNL A   1      32.171  20.802  24.621  1.00  0.00    -0.236 NA
ATOM     24  N   UNL A   1      33.624  20.594  26.498  1.00  0.00    -0.236 NA
ATOM     25  C   UNL A   1      31.864  22.053  25.021  1.00  0.00     0.124 A 
ATOM     26  C   UNL A   1      33.257  21.851  26.871  1.00  0.00     0.124 A 
BRANCH  22  27
ATOM     27  C   UNL A   1      33.223  18.691  25.023  1.00  0.00     0.019 A 
ATOM     28  C   UNL A   1      32.116  15.168  26.106  1.00  0.00     0.044 C 
ATOM     29  C   UNL A   1      32.738  16.290  25.321  1.00  0.00    -0.050 A 
ATOM     30  C   UNL A   1      33.341  16.024  24.090  1.00  0.00     0.003 A 
ATOM     31  C   UNL A   1      32.695  17.619  25.778  1.00  0.00     0.015 A 
ATOM     32  C   UNL A   1      33.914  17.059  23.352  1.00  0.00     0.001 A 
ATOM     33  C   UNL A   1      33.862  18.377  23.817  1.00  0.00     0.012 A 
ENDBRANCH  22  27
ENDBRANCH  20  21
ENDBRANCH   8  20
ENDBRANCH   5   7
ENDBRANCH   4   5
ENDBRANCH   3   4
ENDBRANCH   2   3
ENDBRANCH   1   2
BRANCH   1  34
ATOM     34  C   UNL A   1      34.235  30.186  27.244  1.00  0.00     0.202 C 
BRANCH  34  35
ATOM     35  C   UNL A   1      33.713  31.514  27.779  1.00  0.00     0.261 C 
BRANCH  35  36
ATOM     36  O   UNL A   1      34.806  32.402  28.072  1.00  0.00    -0.460 OA
BRANCH  36  37
ATOM     37  C   UNL A   1      34.748  32.975  29.306  1.00  0.00     0.338 C 
ATOM     38  O   UNL A   1      33.806  33.650  29.684  1.00  0.00    -0.246 OA
BRANCH  37  39
ATOM     39  C   UNL A   1      36.062  32.835  29.997  1.00  0.00     0.060 A 
ATOM     40  C   UNL A   1      37.221  33.334  29.391  1.00  0.00     0.016 A 
ATOM     41  C   UNL A   1      36.168  31.928  31.047  1.00  0.00     0.016 A 
ATOM     42  C   UNL A   1      38.464  32.765  29.684  1.00  0.00     0.010 A 
ATOM     43  C   UNL A   1      37.359  31.255  31.206  1.00  0.00     0.010 A 
ATOM     44  C   UNL A   1      38.511  31.652  30.507  1.00  0.00    -0.014 A 
BRANCH  44  45
ATOM     45  C   UNL A   1      39.712  30.905  30.866  1.00  0.00     0.031 A 
ATOM     46  C   UNL A   1      39.784  29.561  30.265  1.00  0.00     0.074 A 
ATOM     47  C   UNL A   1      40.804  31.445  31.462  1.00  0.00     0.049 A 
ATOM     48  N   UNL A   1      40.735  28.741  30.510  1.00  0.00    -0.248 NA
ATOM     49  C   UNL A   1      38.770  29.000  29.365  1.00  0.00     0.031 C 
ATOM     50  C   UNL A   1      42.204  31.044  31.308  1.00  0.00     0.029 A 
ATOM     51  N   UNL A   1      40.911  32.518  32.351  1.00  0.00    -0.354 N 
ATOM     52  C   UNL A   1      40.694  27.794  29.522  1.00  0.00     0.074 A 
ATOM     53  C   UNL A   1      39.370  27.872  28.976  1.00  0.00     0.031 C 
ATOM     54  C   UNL A   1      42.954  31.658  32.239  1.00  0.00     0.029 A 
ATOM     55  C   UNL A   1      42.050  32.346  33.139  1.00  0.00     0.049 A 
ATOM     56  H   UNL A   1      40.284  33.274  32.411  1.00  0.00     0.167 HD
ATOM     57  C   UNL A   1      41.872  27.207  29.189  1.00  0.00     0.034 A 
ATOM     58  C   UNL A   1      41.941  32.261  34.490  1.00  0.00     0.034 A 
ATOM     59  C   UNL A   1      42.911  27.507  30.215  1.00  0.00     0.049 A 
ATOM     60  C   UNL A   1      42.357  30.874  34.914  1.00  0.00     0.074 A 
ATOM     61  C   UNL A   1      44.119  28.183  30.254  1.00  0.00     0.029 A 
ATOM     62  N   UNL A   1      42.570  27.318  31.561  1.00  0.00    -0.354 N 
ATOM     63  N   UNL A   1      42.954  30.028  34.115  1.00  0.00    -0.248 NA
ATOM     64  C   UNL A   1      42.092  30.294  36.218  1.00  0.00     0.031 C 
ATOM     65  C   UNL A   1      44.463  28.422  31.634  1.00  0.00     0.029 A 
ATOM     66  C   UNL A   1      43.496  27.852  32.447  1.00  0.00     0.049 A 
ATOM     67  H   UNL A   1      41.752  26.853  31.850  1.00  0.00     0.167 HD
ATOM     68  C   UNL A   1      42.935  28.775  34.643  1.00  0.00     0.074 A 
ATOM     69  C   UNL A   1      42.442  29.012  36.003  1.00  0.00     0.031 C 
ATOM     70  C   UNL A   1      43.264  27.667  33.894  1.00  0.00     0.034 A 
BRANCH  57  71
ATOM     71  C   UNL A   1      42.111  26.481  27.871  1.00  0.00     0.023 A 
ATOM     72  C   UNL A   1      42.082  27.265  26.702  1.00  0.00     0.012 A 
ATOM     73  C   UNL A   1      42.304  25.082  27.669  1.00  0.00     0.148 A 
ATOM     74  C   UNL A   1      42.256  26.715  25.424  1.00  0.00     0.002 A 
ATOM     75  C   UNL A   1      42.557  24.545  26.401  1.00  0.00     0.091 A 
ATOM     76  F   UNL A   1      42.146  24.221  28.676  1.00  0.00    -0.205 F 
ATOM     77  C   UNL A   1      42.521  25.361  25.272  1.00  0.00     0.022 A 
BRANCH  75  78
ATOM     78  S   UNL A   1      42.955  22.801  26.131  1.00  0.00     0.127 S 
ATOM     79  O   UNL A   1      41.776  22.127  26.678  1.00  0.00    -0.237 OA
ATOM     80  O   UNL A   1      43.070  22.728  24.674  1.00  0.00    -0.237 OA
ATOM     81  O   UNL A   1      44.197  22.542  26.849  1.00  0.00    -0.744 OA
ENDBRANCH  75  78
ENDBRANCH  57  71
BRANCH  58  82
ATOM     82  C   UNL A   1      40.841  33.151  35.013  1.00  0.00     0.023 A 
ATOM     83  C   UNL A   1      41.138  34.542  35.085  1.00  0.00     0.012 A 
ATOM     84  C   UNL A   1      39.483  32.771  34.988  1.00  0.00     0.148 A 
ATOM     85  C   UNL A   1      40.133  35.516  35.017  1.00  0.00     0.002 A 
ATOM     86  C   UNL A   1      38.486  33.750  34.895  1.00  0.00     0.091 A 
ATOM     87  F   UNL A   1      39.189  31.465  34.979  1.00  0.00    -0.205 F 
ATOM     88  C   UNL A   1      38.811  35.117  34.877  1.00  0.00     0.022 A 
BRANCH  86  89
ATOM     89  S   UNL A   1      36.749  33.356  34.631  1.00  0.00     0.127 S 
ATOM     90  O   UNL A   1      36.442  34.139  33.436  1.00  0.00    -0.237 OA
ATOM     91  O   UNL A   1      36.794  31.910  34.414  1.00  0.00    -0.237 OA
ATOM     92  O   UNL A   1      36.062  33.767  35.846  1.00  0.00    -0.744 OA
ENDBRANCH  86  89
ENDBRANCH  58  82
BRANCH  70  93
ATOM     93  C   UNL A   1      43.267  26.255  34.457  1.00  0.00     0.023 A 
ATOM     94  C   UNL A   1      42.120  25.680  35.029  1.00  0.00     0.012 A 
ATOM     95  C   UNL A   1      44.437  25.454  34.489  1.00  0.00     0.148 A 
ATOM     96  C   UNL A   1      42.068  24.331  35.393  1.00  0.00     0.002 A 
ATOM     97  C   UNL A   1      44.394  24.115  34.851  1.00  0.00     0.091 A 
ATOM     98  F   UNL A   1      45.636  25.995  34.257  1.00  0.00    -0.205 F 
ATOM     99  C   UNL A   1      43.197  23.537  35.263  1.00  0.00     0.022 A 
BRANCH  97 100
ATOM    100  S   UNL A   1      45.864  23.084  34.820  1.00  0.00     0.127 S 
ATOM    101  O   UNL A   1      45.300  21.790  34.438  1.00  0.00    -0.237 OA
ATOM    102  O   UNL A   1      46.665  23.735  33.784  1.00  0.00    -0.237 OA
ATOM    103  O   UNL A   1      46.436  23.150  36.156  1.00  0.00    -0.744 OA
ENDBRANCH  97 100
ENDBRANCH  70  93
ENDBRANCH  44  45
ENDBRANCH  37  39
ENDBRANCH  36  37
ENDBRANCH  35  36
ENDBRANCH  34  35
ENDBRANCH   1  34
TORSDOF 20
ENDMDL
MODEL 2
REMARK VINA RESULT:     -12.5      4.354     10.837
REMARK SMILES Cc1cccc(-c2ncc(C[NH+]3CCC4(CC3)NC(=O)C[C@H]4C(=O)OCCOCCOC(=O)c3ccc(-c4c5nc(c(-c6cccc(S(=O)(=O)[O-])c6F)c6ccc([nH]6)c(-c6cccc(S(=O)(=O)[O-])c6F)c6nc(c(-c7cccc(S(=O)(=O)[O-])c7F)c7ccc4[nH]7)C=C6)C=C5)cc3)cn2)c1
REMARK SMILES IDX 28 1 27 2 26 3 25 4 23 5 24 6 22 7 12 8 13 9 17 10 14 12
REMARK SMILES IDX 16 13 15 14 18 15 19 16 21 18 20 19 11 20 10 21 7 22 8 23
REMARK SMILES IDX 98 24 9 25 97 26 6 27 1 28 2 29 3 30 99 31 4 32 5 33 29 34
REMARK SMILES IDX 30 35 31 36 32 37 33 38 34 39 35 40 96 41 36 42 95 43 37 44
REMARK SMILES IDX 38 45 39 46 89 47 40 48 94 49 88 50 90 51 41 52 93 53 87 54
REMARK SMILES IDX 86 55 42 57 74 58 54 59 73 60 55 61 58 62 72 63 91 64 56 65
REMARK SMILES IDX 57 66 71 68 92 69 59 70 43 71 44 72 52 73 45 74 47 75 53 76
REMARK SMILES IDX 46 77 48 78 49 79 50 80 51 81 75 82 76 83 84 84 77 85 79 86
REMARK SMILES IDX 85 87 78 88 80 89 81 90 82 91 83 92 60 93 61 94 69 95 62 96
REMARK SMILES IDX 64 97 70 98 63 99 65 100 66 101 67 102 68 103
REMARK H PARENT 12 11 18 17 90 56 58 67
REMARK Flexibility Score: inf
ROOT
ATOM      1  O   UNL A   1      39.275  21.909  26.102  1.00  0.00    -0.374 OA
ENDROOT
BRANCH   1   2
ATOM      2  C   UNL A   1      38.062  22.505  25.689  1.00  0.00     0.202 C 
BRANCH   2   3
ATOM      3  C   UNL A   1      37.080  21.372  25.446  1.00  0.00     0.261 C 
BRANCH   3   4
ATOM      4  O   UNL A   1      35.625  21.605  25.674  1.00  0.00    -0.463 OA
BRANCH   4   5
ATOM      5  C   UNL A   1      34.715  21.975  24.708  1.00  0.00     0.311 C 
ATOM      6  O   UNL A   1      34.973  22.577  23.677  1.00  0.00    -0.252 OA
BRANCH   5   7
ATOM      7  C   UNL A   1      33.279  21.454  25.008  1.00  0.00     0.134 C 
ATOM      8  N   UNL A   1      31.393  24.788  26.618  1.00  0.00    -0.331 N 
ATOM      9  C   UNL A   1      30.678  23.514  26.705  1.00  0.00     0.264 C 
ATOM     10  C   UNL A   1      32.735  24.540  26.161  1.00  0.00     0.264 C 
ATOM     11  H   UNL A   1      31.327  25.105  27.586  1.00  0.00     0.348 HD
ATOM     12  C   UNL A   1      30.846  22.470  25.563  1.00  0.00     0.091 C 
ATOM     13  C   UNL A   1      32.695  23.900  24.804  1.00  0.00     0.091 C 
ATOM     14  C   UNL A   1      32.167  22.497  24.743  1.00  0.00     0.064 C 
ATOM     15  N   UNL A   1      31.799  22.159  23.375  1.00  0.00    -0.349 N 
ATOM     16  C   UNL A   1      32.212  20.914  22.954  1.00  0.00     0.221 C 
ATOM     17  H   UNL A   1      31.294  22.773  22.795  1.00  0.00     0.164 HD
ATOM     18  C   UNL A   1      32.940  20.266  24.102  1.00  0.00     0.117 C 
ATOM     19  O   UNL A   1      31.953  20.427  21.880  1.00  0.00    -0.275 OA
BRANCH   8  20
ATOM     20  C   UNL A   1      30.800  26.016  26.036  1.00  0.00     0.302 C 
BRANCH  20  21
ATOM     21  C   UNL A   1      31.503  27.334  26.278  1.00  0.00     0.043 A 
ATOM     22  C   UNL A   1      33.361  29.239  26.904  1.00  0.00     0.159 A 
ATOM     23  N   UNL A   1      33.363  28.728  25.654  1.00  0.00    -0.236 NA
ATOM     24  N   UNL A   1      32.425  28.962  27.833  1.00  0.00    -0.236 NA
ATOM     25  C   UNL A   1      32.416  27.812  25.366  1.00  0.00     0.124 A 
ATOM     26  C   UNL A   1      31.510  28.011  27.498  1.00  0.00     0.124 A 
BRANCH  22  27
ATOM     27  C   UNL A   1      34.483  30.132  27.236  1.00  0.00     0.019 A 
ATOM     28  C   UNL A   1      35.093  33.778  28.305  1.00  0.00     0.044 C 
ATOM     29  C   UNL A   1      35.326  32.328  27.981  1.00  0.00    -0.050 A 
ATOM     30  C   UNL A   1      36.581  31.760  28.207  1.00  0.00     0.003 A 
ATOM     31  C   UNL A   1      34.294  31.510  27.488  1.00  0.00     0.015 A 
ATOM     32  C   UNL A   1      36.804  30.414  27.917  1.00  0.00     0.001 A 
ATOM     33  C   UNL A   1      35.768  29.611  27.429  1.00  0.00     0.012 A 
ENDBRANCH  22  27
ENDBRANCH  20  21
ENDBRANCH   8  20
ENDBRANCH   5   7
ENDBRANCH   4   5
ENDBRANCH   3   4
ENDBRANCH   2   3
ENDBRANCH   1   2
BRANCH   1  34
ATOM     34  C   UNL A   1      39.432  20.507  26.089  1.00  0.00     0.202 C 
BRANCH  34  35
ATOM     35  C   UNL A   1      40.808  19.952  26.438  1.00  0.00     0.261 C 
BRANCH  35  36
ATOM     36  O   UNL A   1      41.598  20.952  27.106  1.00  0.00    -0.460 OA
BRANCH  36  37
ATOM     37  C   UNL A   1      42.642  21.426  26.371  1.00  0.00     0.338 C 
ATOM     38  O   UNL A   1      43.046  20.881  25.359  1.00  0.00    -0.246 OA
BRANCH  37  39
ATOM     39  C   UNL A   1      43.316  22.538  27.100  1.00  0.00     0.060 A 
ATOM     40  C   UNL A   1      43.012  22.771  28.447  1.00  0.00     0.016 A 
ATOM     41  C   UNL A   1      43.966  23.521  26.360  1.00  0.00     0.016 A 
ATOM     42  C   UNL A   1      43.156  24.053  28.985  1.00  0.00     0.010 A 
ATOM     43  C   UNL A   1      43.944  24.814  26.836  1.00  0.00     0.010 A 
ATOM     44  C   UNL A   1      43.515  25.093  28.144  1.00  0.00    -0.014 A 
BRANCH  44  45
ATOM     45  C   UNL A   1      43.652  26.493  28.529  1.00  0.00     0.031 A 
ATOM     46  C   UNL A   1      42.391  27.255  28.477  1.00  0.00     0.074 A 
ATOM     47  C   UNL A   1      44.743  27.021  29.139  1.00  0.00     0.049 A 
ATOM     48  N   UNL A   1      42.327  28.509  28.726  1.00  0.00    -0.248 NA
ATOM     49  C   UNL A   1      41.093  26.686  28.100  1.00  0.00     0.031 C 
ATOM     50  C   UNL A   1      44.792  28.127  30.096  1.00  0.00     0.029 A 
ATOM     51  N   UNL A   1      46.090  26.661  29.050  1.00  0.00    -0.354 N 
ATOM     52  C   UNL A   1      41.009  28.790  28.966  1.00  0.00     0.074 A 
ATOM     53  C   UNL A   1      40.277  27.706  28.375  1.00  0.00     0.031 C 
ATOM     54  C   UNL A   1      46.069  28.505  30.283  1.00  0.00     0.029 A 
ATOM     55  C   UNL A   1      46.881  27.776  29.329  1.00  0.00     0.049 A 
ATOM     56  H   UNL A   1      46.428  25.763  28.827  1.00  0.00     0.167 HD
ATOM     57  C   UNL A   1      40.746  29.821  29.808  1.00  0.00     0.034 A 
ATOM     58  C   UNL A   1      47.760  28.242  28.405  1.00  0.00     0.034 A 
ATOM     59  C   UNL A   1      41.977  30.632  30.036  1.00  0.00     0.049 A 
ATOM     60  C   UNL A   1      47.305  29.612  27.966  1.00  0.00     0.074 A 
ATOM     61  C   UNL A   1      42.790  30.942  31.114  1.00  0.00     0.029 A 
ATOM     62  N   UNL A   1      42.717  31.021  28.912  1.00  0.00    -0.354 N 
ATOM     63  N   UNL A   1      46.374  30.292  28.583  1.00  0.00    -0.248 NA
ATOM     64  C   UNL A   1      47.791  30.304  26.786  1.00  0.00     0.031 C 
ATOM     65  C   UNL A   1      44.029  31.480  30.608  1.00  0.00     0.029 A 
ATOM     66  C   UNL A   1      43.963  31.549  29.226  1.00  0.00     0.049 A 
ATOM     67  H   UNL A   1      42.386  30.927  27.990  1.00  0.00     0.167 HD
ATOM     68  C   UNL A   1      45.951  31.331  27.815  1.00  0.00     0.074 A 
ATOM     69  C   UNL A   1      46.927  31.335  26.722  1.00  0.00     0.031 C 
ATOM     70  C   UNL A   1      44.810  32.040  28.120  1.00  0.00     0.034 A 
BRANCH  57  71
ATOM     71  C   UNL A   1      39.415  30.010  30.524  1.00  0.00     0.023 A 
ATOM     72  C   UNL A   1      38.598  28.869  30.653  1.00  0.00     0.012 A 
ATOM     73  C   UNL A   1      38.862  31.223  31.033  1.00  0.00     0.148 A 
ATOM     74  C   UNL A   1      37.336  28.915  31.263  1.00  0.00     0.002 A 
ATOM     75  C   UNL A   1      37.638  31.252  31.712  1.00  0.00     0.091 A 
ATOM     76  F   UNL A   1      39.450  32.395  30.784  1.00  0.00    -0.205 F 
ATOM     77  C   UNL A   1      36.866  30.097  31.817  1.00  0.00     0.022 A 
BRANCH  75  78
ATOM     78  S   UNL A   1      36.983  32.743  32.499  1.00  0.00     0.127 S 
ATOM     79  O   UNL A   1      38.106  33.168  33.336  1.00  0.00    -0.237 OA
ATOM     80  O   UNL A   1      36.723  33.613  31.352  1.00  0.00    -0.237 OA
ATOM     81  O   UNL A   1      35.791  32.337  33.232  1.00  0.00    -0.744 OA
ENDBRANCH  75  78
ENDBRANCH  57  71
BRANCH  58  82
ATOM     82  C   UNL A   1      48.373  27.116  27.610  1.00  0.00     0.023 A 
ATOM     83  C   UNL A   1      47.688  26.741  26.420  1.00  0.00     0.012 A 
ATOM     84  C   UNL A   1      49.734  26.764  27.722  1.00  0.00     0.148 A 
ATOM     85  C   UNL A   1      48.353  26.145  25.340  1.00  0.00     0.002 A 
ATOM     86  C   UNL A   1      50.398  26.192  26.630  1.00  0.00     0.091 A 
ATOM     87  F   UNL A   1      50.375  27.059  28.859  1.00  0.00    -0.205 F 
ATOM     88  C   UNL A   1      49.718  25.913  25.432  1.00  0.00     0.022 A 
BRANCH  86  89
ATOM     89  S   UNL A   1      52.178  25.918  26.601  1.00  0.00     0.127 S 
ATOM     90  O   UNL A   1      52.264  24.561  26.067  1.00  0.00    -0.237 OA
ATOM     91  O   UNL A   1      52.631  26.961  25.681  1.00  0.00    -0.237 OA
ATOM     92  O   UNL A   1      52.625  26.083  27.975  1.00  0.00    -0.744 OA
ENDBRANCH  86  89
ENDBRANCH  58  82
BRANCH  70  93
ATOM     93  C   UNL A   1      44.317  33.216  27.291  1.00  0.00     0.023 A 
ATOM     94  C   UNL A   1      44.127  33.119  25.903  1.00  0.00     0.012 A 
ATOM     95  C   UNL A   1      44.071  34.493  27.858  1.00  0.00     0.148 A 
ATOM     96  C   UNL A   1      43.517  34.137  25.164  1.00  0.00     0.002 A 
ATOM     97  C   UNL A   1      43.468  35.509  27.131  1.00  0.00     0.091 A 
ATOM     98  F   UNL A   1      44.500  34.782  29.089  1.00  0.00    -0.205 F 
ATOM     99  C   UNL A   1      43.148  35.318  25.789  1.00  0.00     0.022 A 
BRANCH  97 100
ATOM    100  S   UNL A   1      43.091  37.100  27.872  1.00  0.00     0.127 S 
ATOM    101  O   UNL A   1      42.366  37.759  26.787  1.00  0.00    -0.237 OA
ATOM    102  O   UNL A   1      42.266  36.711  29.015  1.00  0.00    -0.237 OA
ATOM    103  O   UNL A   1      44.370  37.698  28.226  1.00  0.00    -0.744 OA
ENDBRANCH  97 100
ENDBRANCH  70  93
ENDBRANCH  44  45
ENDBRANCH  37  39
ENDBRANCH  36  37
ENDBRANCH  35  36
ENDBRANCH  34  35
ENDBRANCH   1  34
TORSDOF 20
ENDMDL
MODEL 3
REMARK VINA RESULT:     -12.3      4.528     10.846
REMARK SMILES Cc1cccc(-c2ncc(C[NH+]3CCC4(CC3)NC(=O)C[C@H]4C(=O)OCCOCCOC(=O)c3ccc(-c4c5nc(c(-c6cccc(S(=O)(=O)[O-])c6F)c6ccc([nH]6)c(-c6cccc(S(=O)(=O)[O-])c6F)c6nc(c(-c7cccc(S(=O)(=O)[O-])c7F)c7ccc4[nH]7)C=C6)C=C5)cc3)cn2)c1
REMARK SMILES IDX 28 1 27 2 26 3 25 4 23 5 24 6 22 7 12 8 13 9 17 10 14 12
REMARK SMILES IDX 16 13 15 14 18 15 19 16 21 18 20 19 11 20 10 21 7 22 8 23
REMARK SMILES IDX 98 24 9 25 97 26 6 27 1 28 2 29 3 30 99 31 4 32 5 33 29 34
REMARK SMILES IDX 30 35 31 36 32 37 33 38 34 39 35 40 96 41 36 42 95 43 37 44
REMARK SMILES IDX 38 45 39 46 89 47 40 48 94 49 88 50 90 51 41 52 93 53 87 54
REMARK SMILES IDX 86 55 42 57 74 58 54 59 73 60 55 61 58 62 72 63 91 64 56 65
REMARK SMILES IDX 57 66 71 68 92 69 59 70 43 71 44 72 52 73 45 74 47 75 53 76
REMARK SMILES IDX 46 77 48 78 49 79 50 80 51 81 75 82 76 83 84 84 77 85 79 86
REMARK SMILES IDX 85 87 78 88 80 89 81 90 82 91 83 92 60 93 61 94 69 95 62 96
REMARK SMILES IDX 64 97 70 98 63 99 65 100 66 101 67 102 68 103
REMARK H PARENT 12 11 18 17 90 56 58 67
REMARK Flexibility Score: inf
ROOT
ATOM      1  O   UNL A   1      38.850  21.762  25.359  1.00  0.00    -0.374 OA
ENDROOT
BRANCH   1   2
ATOM      2  C   UNL A   1      37.492  22.151  25.395  1.00  0.00     0.202 C 
BRANCH   2   3
ATOM      3  C   UNL A   1      36.961  22.015  23.978  1.00  0.00     0.261 C 
BRANCH   3   4
ATOM      4  O   UNL A   1      35.878  22.928  23.514  1.00  0.00    -0.463 OA
BRANCH   4   5
ATOM      5  C   UNL A   1      34.533  22.629  23.500  1.00  0.00     0.311 C 
ATOM      6  O   UNL A   1      33.805  22.659  22.520  1.00  0.00    -0.252 OA
BRANCH   5   7
ATOM      7  C   UNL A   1      34.016  22.136  24.883  1.00  0.00     0.134 C 
ATOM      8  N   UNL A   1      31.398  25.150  26.032  1.00  0.00    -0.331 N 
ATOM      9  C   UNL A   1      31.733  24.143  27.039  1.00  0.00     0.264 C 
ATOM     10  C   UNL A   1      32.255  24.972  24.890  1.00  0.00     0.264 C 
ATOM     11  H   UNL A   1      31.569  26.007  26.560  1.00  0.00     0.348 HD
ATOM     12  C   UNL A   1      32.000  22.678  26.586  1.00  0.00     0.091 C 
ATOM     13  C   UNL A   1      32.045  23.603  24.311  1.00  0.00     0.091 C 
ATOM     14  C   UNL A   1      32.522  22.448  25.140  1.00  0.00     0.064 C 
ATOM     15  N   UNL A   1      31.903  21.212  24.680  1.00  0.00    -0.349 N 
ATOM     16  C   UNL A   1      32.763  20.141  24.567  1.00  0.00     0.221 C 
ATOM     17  H   UNL A   1      30.945  21.147  24.466  1.00  0.00     0.164 HD
ATOM     18  C   UNL A   1      34.131  20.611  24.985  1.00  0.00     0.117 C 
ATOM     19  O   UNL A   1      32.432  19.020  24.263  1.00  0.00    -0.275 OA
BRANCH   8  20
ATOM     20  C   UNL A   1      30.005  25.500  25.662  1.00  0.00     0.302 C 
BRANCH  20  21
ATOM     21  C   UNL A   1      29.790  26.541  24.585  1.00  0.00     0.043 A 
ATOM     22  C   UNL A   1      29.101  28.819  23.241  1.00  0.00     0.159 A 
ATOM     23  N   UNL A   1      30.292  28.785  23.876  1.00  0.00    -0.236 NA
ATOM     24  N   UNL A   1      28.278  27.759  23.120  1.00  0.00    -0.236 NA
ATOM     25  C   UNL A   1      30.618  27.638  24.506  1.00  0.00     0.124 A 
ATOM     26  C   UNL A   1      28.643  26.636  23.797  1.00  0.00     0.124 A 
BRANCH  22  27
ATOM     27  C   UNL A   1      28.709  30.121  22.678  1.00  0.00     0.019 A 
ATOM     28  C   UNL A   1      29.220  33.873  23.368  1.00  0.00     0.044 C 
ATOM     29  C   UNL A   1      28.818  32.587  22.700  1.00  0.00    -0.050 A 
ATOM     30  C   UNL A   1      28.260  32.614  21.421  1.00  0.00     0.003 A 
ATOM     31  C   UNL A   1      29.027  31.341  23.318  1.00  0.00     0.015 A 
ATOM     32  C   UNL A   1      27.891  31.426  20.791  1.00  0.00     0.001 A 
ATOM     33  C   UNL A   1      28.107  30.194  21.417  1.00  0.00     0.012 A 
ENDBRANCH  22  27
ENDBRANCH  20  21
ENDBRANCH   8  20
ENDBRANCH   5   7
ENDBRANCH   4   5
ENDBRANCH   3   4
ENDBRANCH   2   3
ENDBRANCH   1   2
BRANCH   1  34
ATOM     34  C   UNL A   1      39.547  21.460  26.548  1.00  0.00     0.202 C 
BRANCH  34  35
ATOM     35  C   UNL A   1      40.566  20.326  26.495  1.00  0.00     0.261 C 
BRANCH  35  36
ATOM     36  O   UNL A   1      41.756  20.688  27.219  1.00  0.00    -0.460 OA
BRANCH  36  37
ATOM     37  C   UNL A   1      42.735  21.239  26.449  1.00  0.00     0.338 C 
ATOM     38  O   UNL A   1      43.125  20.739  25.408  1.00  0.00    -0.246 OA
BRANCH  37  39
ATOM     39  C   UNL A   1      43.374  22.375  27.172  1.00  0.00     0.060 A 
ATOM     40  C   UNL A   1      43.052  22.614  28.513  1.00  0.00     0.016 A 
ATOM     41  C   UNL A   1      44.005  23.367  26.428  1.00  0.00     0.016 A 
ATOM     42  C   UNL A   1      43.157  23.905  29.040  1.00  0.00     0.010 A 
ATOM     43  C   UNL A   1      43.945  24.664  26.890  1.00  0.00     0.010 A 
ATOM     44  C   UNL A   1      43.498  24.945  28.191  1.00  0.00    -0.014 A 
BRANCH  44  45
ATOM     45  C   UNL A   1      43.595  26.352  28.562  1.00  0.00     0.031 A 
ATOM     46  C   UNL A   1      42.328  27.094  28.440  1.00  0.00     0.074 A 
ATOM     47  C   UNL A   1      44.648  26.904  29.216  1.00  0.00     0.049 A 
ATOM     48  N   UNL A   1      42.232  28.350  28.668  1.00  0.00    -0.248 NA
ATOM     49  C   UNL A   1      41.057  26.500  28.010  1.00  0.00     0.031 C 
ATOM     50  C   UNL A   1      44.635  28.024  30.159  1.00  0.00     0.029 A 
ATOM     51  N   UNL A   1      46.003  26.565  29.197  1.00  0.00    -0.354 N 
ATOM     52  C   UNL A   1      40.901  28.613  28.841  1.00  0.00     0.074 A 
ATOM     53  C   UNL A   1      40.214  27.511  28.230  1.00  0.00     0.031 C 
ATOM     54  C   UNL A   1      45.895  28.424  30.402  1.00  0.00     0.029 A 
ATOM     55  C   UNL A   1      46.763  27.695  29.498  1.00  0.00     0.049 A 
ATOM     56  H   UNL A   1      46.365  25.669  29.002  1.00  0.00     0.167 HD
ATOM     57  C   UNL A   1      40.582  29.651  29.654  1.00  0.00     0.034 A 
ATOM     58  C   UNL A   1      47.678  28.162  28.610  1.00  0.00     0.034 A 
ATOM     59  C   UNL A   1      41.789  30.484  29.930  1.00  0.00     0.049 A 
ATOM     60  C   UNL A   1      47.225  29.519  28.131  1.00  0.00     0.074 A 
ATOM     61  C   UNL A   1      42.545  30.821  31.040  1.00  0.00     0.029 A 
ATOM     62  N   UNL A   1      42.576  30.870  28.837  1.00  0.00    -0.354 N 
ATOM     63  N   UNL A   1      46.255  30.193  28.692  1.00  0.00    -0.248 NA
ATOM     64  C   UNL A   1      47.756  30.203  26.965  1.00  0.00     0.031 C 
ATOM     65  C   UNL A   1      43.799  31.372  30.587  1.00  0.00     0.029 A 
ATOM     66  C   UNL A   1      43.797  31.422  29.202  1.00  0.00     0.049 A 
ATOM     67  H   UNL A   1      42.292  30.759  27.901  1.00  0.00     0.167 HD
ATOM     68  C   UNL A   1      45.854  31.215  27.891  1.00  0.00     0.074 A 
ATOM     69  C   UNL A   1      46.881  31.220  26.846  1.00  0.00     0.031 C 
ATOM     70  C   UNL A   1      44.689  31.910  28.131  1.00  0.00     0.034 A 
BRANCH  57  71
ATOM     71  C   UNL A   1      39.216  29.829  30.304  1.00  0.00     0.023 A 
ATOM     72  C   UNL A   1      38.874  28.915  31.320  1.00  0.00     0.012 A 
ATOM     73  C   UNL A   1      38.206  30.779  29.966  1.00  0.00     0.148 A 
ATOM     74  C   UNL A   1      37.635  28.949  31.975  1.00  0.00     0.002 A 
ATOM     75  C   UNL A   1      37.002  30.863  30.675  1.00  0.00     0.091 A 
ATOM     76  F   UNL A   1      38.337  31.556  28.889  1.00  0.00    -0.205 F 
ATOM     77  C   UNL A   1      36.709  29.938  31.674  1.00  0.00     0.022 A 
BRANCH  75  78
ATOM     78  S   UNL A   1      35.768  32.151  30.371  1.00  0.00     0.127 S 
ATOM     79  O   UNL A   1      34.927  32.060  31.566  1.00  0.00    -0.237 OA
ATOM     80  O   UNL A   1      36.589  33.360  30.301  1.00  0.00    -0.237 OA
ATOM     81  O   UNL A   1      35.101  31.801  29.124  1.00  0.00    -0.744 OA
ENDBRANCH  75  78
ENDBRANCH  57  71
BRANCH  58  82
ATOM     82  C   UNL A   1      48.345  27.036  27.861  1.00  0.00     0.023 A 
ATOM     83  C   UNL A   1      47.608  26.477  26.779  1.00  0.00     0.012 A 
ATOM     84  C   UNL A   1      49.742  26.841  27.873  1.00  0.00     0.148 A 
ATOM     85  C   UNL A   1      48.242  25.853  25.697  1.00  0.00     0.002 A 
ATOM     86  C   UNL A   1      50.372  26.240  26.776  1.00  0.00     0.091 A 
ATOM     87  F   UNL A   1      50.440  27.312  28.913  1.00  0.00    -0.205 F 
ATOM     88  C   UNL A   1      49.628  25.776  25.677  1.00  0.00     0.022 A 
BRANCH  86  89
ATOM     89  S   UNL A   1      52.162  26.154  26.601  1.00  0.00     0.127 S 
ATOM     90  O   UNL A   1      52.312  25.167  25.534  1.00  0.00    -0.237 OA
ATOM     91  O   UNL A   1      52.495  27.524  26.211  1.00  0.00    -0.237 OA
ATOM     92  O   UNL A   1      52.667  25.752  27.905  1.00  0.00    -0.744 OA
ENDBRANCH  86  89
ENDBRANCH  58  82
BRANCH  70  93
ATOM     93  C   UNL A   1      44.219  33.068  27.263  1.00  0.00     0.023 A 
ATOM     94  C   UNL A   1      44.115  32.955  25.867  1.00  0.00     0.012 A 
ATOM     95  C   UNL A   1      43.910  34.343  27.802  1.00  0.00     0.148 A 
ATOM     96  C   UNL A   1      43.526  33.952  25.084  1.00  0.00     0.002 A 
ATOM     97  C   UNL A   1      43.328  35.338  27.031  1.00  0.00     0.091 A 
ATOM     98  F   UNL A   1      44.259  34.652  29.055  1.00  0.00    -0.205 F 
ATOM     99  C   UNL A   1      43.093  35.129  25.675  1.00  0.00     0.022 A 
BRANCH  97 100
ATOM    100  S   UNL A   1      42.871  36.926  27.734  1.00  0.00     0.127 S 
ATOM    101  O   UNL A   1      42.619  37.713  26.527  1.00  0.00    -0.237 OA
ATOM    102  O   UNL A   1      41.675  36.581  28.502  1.00  0.00    -0.237 OA
ATOM    103  O   UNL A   1      44.003  37.357  28.539  1.00  0.00    -0.744 OA
ENDBRANCH  97 100
ENDBRANCH  70  93
ENDBRANCH  44  45
ENDBRANCH  37  39
ENDBRANCH  36  37
ENDBRANCH  35  36
ENDBRANCH  34  35
ENDBRANCH   1  34
TORSDOF 20
ENDMDL
