MODEL 1
REMARK VINA RESULT:     -10.3      0.000      0.000
REMARK SMILES CC1(C)[C@H](C#N)C(SCC(=O)OCCOCCOC(=O)c2ccc(-c3c4nc(c(-c5cccc(S(=O)(=O)[O-])c5F)c5ccc([nH]5)c(-c5cccc(S(=O)(=O)[O-])c5F)c5nc(c(-c6cccc(S(=O)(=O)[O-])c6F)c6ccc3[nH]6)C=C5)C=C4)cc2)=NC(=O)[C@@H]1C#N
REMARK SMILES IDX 15 1 14 2 13 3 12 4 10 5 11 6 9 7 8 8 7 9 1 10 2 11 3 12
REMARK SMILES IDX 4 13 87 14 85 15 84 16 86 17 5 18 6 19 88 20 89 21 16 22
REMARK SMILES IDX 17 23 18 24 19 25 20 26 21 27 22 28 83 29 23 30 82 31 24 32
REMARK SMILES IDX 25 33 26 34 76 35 27 36 81 37 75 38 77 39 28 40 80 41 74 42
REMARK SMILES IDX 73 43 29 45 61 46 41 47 60 48 42 49 45 50 59 51 78 52 43 53
REMARK SMILES IDX 44 54 58 56 79 57 46 58 30 59 31 60 39 61 32 62 34 63 40 64
REMARK SMILES IDX 33 65 35 66 36 67 37 68 38 69 62 70 63 71 71 72 64 73 66 74
REMARK SMILES IDX 72 75 65 76 67 77 68 78 69 79 70 80 47 81 48 82 56 83 49 84
REMARK SMILES IDX 51 85 57 86 50 87 52 88 53 89 54 90 55 91
REMARK H PARENT 77 44 45 55
REMARK Flexibility Score: inf
ROOT
ATOM      1  O   UNL A   1      37.221  21.388  24.739  1.00  0.00    -0.374 OA
ENDROOT
BRANCH   1   2
ATOM      2  C   UNL A   1      35.962  22.014  24.985  1.00  0.00     0.202 C 
BRANCH   2   3
ATOM      3  C   UNL A   1      34.775  21.090  25.279  1.00  0.00     0.261 C 
BRANCH   3   4
ATOM      4  O   UNL A   1      33.641  21.369  24.439  1.00  0.00    -0.463 OA
BRANCH   4   5
ATOM      5  C   UNL A   1      32.418  21.028  24.932  1.00  0.00     0.316 C 
ATOM      6  O   UNL A   1      32.029  19.873  25.083  1.00  0.00    -0.251 OA
BRANCH   5   7
ATOM      7  C   UNL A   1      31.554  22.208  25.337  1.00  0.00     0.198 C 
BRANCH   7   8
ATOM      8  S   UNL A   1      32.445  23.589  26.104  1.00  0.00    -0.097 SA
BRANCH   8   9
ATOM      9  C   UNL A   1      31.892  25.023  25.228  1.00  0.00     0.095 C 
ATOM     10  C   UNL A   1      33.549  28.305  24.611  1.00  0.00     0.015 C 
ATOM     11  C   UNL A   1      32.563  27.248  24.029  1.00  0.00     0.012 C 
ATOM     12  C   UNL A   1      32.694  27.327  22.483  1.00  0.00     0.015 C 
ATOM     13  C   UNL A   1      33.003  25.842  24.594  1.00  0.00     0.156 C 
ATOM     14  C   UNL A   1      31.119  27.632  24.481  1.00  0.00     0.191 C 
ATOM     15  C   UNL A   1      30.183  26.434  24.563  1.00  0.00     0.264 C 
ATOM     16  N   UNL A   1      30.638  25.315  25.218  1.00  0.00    -0.209 NA
ATOM     17  O   UNL A   1      29.014  26.499  24.202  1.00  0.00    -0.271 OA
BRANCH  13  18
ATOM     18  C   UNL A   1      33.680  25.001  23.585  1.00  0.00     0.073 C 
ATOM     19  N   UNL A   1      34.247  24.343  22.812  1.00  0.00    -0.198 NA
ENDBRANCH  13  18
BRANCH  14  20
ATOM     20  C   UNL A   1      30.502  28.703  23.676  1.00  0.00     0.076 C 
ATOM     21  N   UNL A   1      29.997  29.513  23.010  1.00  0.00    -0.197 NA
ENDBRANCH  14  20
ENDBRANCH   8   9
ENDBRANCH   7   8
ENDBRANCH   5   7
ENDBRANCH   4   5
ENDBRANCH   3   4
ENDBRANCH   2   3
ENDBRANCH   1   2
BRANCH   1  22
ATOM     22  C   UNL A   1      37.270  19.968  24.794  1.00  0.00     0.202 C 
BRANCH  22  23
ATOM     23  C   UNL A   1      38.635  19.344  25.086  1.00  0.00     0.261 C 
BRANCH  23  24
ATOM     24  O   UNL A   1      39.175  19.692  26.364  1.00  0.00    -0.460 OA
BRANCH  24  25
ATOM     25  C   UNL A   1      40.478  20.061  26.316  1.00  0.00     0.338 C 
ATOM     26  O   UNL A   1      41.401  19.446  25.813  1.00  0.00    -0.246 OA
BRANCH  25  27
ATOM     27  C   UNL A   1      40.636  21.409  26.875  1.00  0.00     0.060 A 
ATOM     28  C   UNL A   1      40.138  22.484  26.132  1.00  0.00     0.016 A 
ATOM     29  C   UNL A   1      41.379  21.614  28.038  1.00  0.00     0.016 A 
ATOM     30  C   UNL A   1      40.435  23.784  26.524  1.00  0.00     0.010 A 
ATOM     31  C   UNL A   1      41.673  22.921  28.431  1.00  0.00     0.010 A 
ATOM     32  C   UNL A   1      41.239  24.007  27.650  1.00  0.00    -0.014 A 
BRANCH  32  33
ATOM     33  C   UNL A   1      41.736  25.374  27.924  1.00  0.00     0.031 A 
ATOM     34  C   UNL A   1      43.129  25.748  27.494  1.00  0.00     0.074 A 
ATOM     35  C   UNL A   1      40.940  26.272  28.529  1.00  0.00     0.049 A 
ATOM     36  N   UNL A   1      43.751  26.890  27.612  1.00  0.00    -0.248 NA
ATOM     37  C   UNL A   1      43.928  24.693  26.846  1.00  0.00     0.031 C 
ATOM     38  C   UNL A   1      39.577  26.011  28.991  1.00  0.00     0.029 A 
ATOM     39  N   UNL A   1      41.169  27.579  28.872  1.00  0.00    -0.354 N 
ATOM     40  C   UNL A   1      45.019  26.688  27.080  1.00  0.00     0.074 A 
ATOM     41  C   UNL A   1      45.085  25.308  26.650  1.00  0.00     0.031 C 
ATOM     42  C   UNL A   1      39.094  27.121  29.573  1.00  0.00     0.029 A 
ATOM     43  C   UNL A   1      40.120  28.161  29.544  1.00  0.00     0.049 A 
ATOM     44  H   UNL A   1      42.004  28.055  28.659  1.00  0.00     0.167 HD
ATOM     45  C   UNL A   1      46.031  27.577  26.946  1.00  0.00     0.034 A 
ATOM     46  C   UNL A   1      40.010  29.391  30.082  1.00  0.00     0.034 A 
ATOM     47  C   UNL A   1      45.946  28.953  27.356  1.00  0.00     0.049 A 
ATOM     48  C   UNL A   1      41.152  30.358  29.925  1.00  0.00     0.074 A 
ATOM     49  C   UNL A   1      46.892  29.952  27.219  1.00  0.00     0.029 A 
ATOM     50  N   UNL A   1      44.854  29.520  27.996  1.00  0.00    -0.354 N 
ATOM     51  N   UNL A   1      42.297  30.189  29.308  1.00  0.00    -0.248 NA
ATOM     52  C   UNL A   1      40.974  31.697  30.504  1.00  0.00     0.031 C 
ATOM     53  C   UNL A   1      46.382  31.117  27.801  1.00  0.00     0.029 A 
ATOM     54  C   UNL A   1      45.106  30.851  28.273  1.00  0.00     0.049 A 
ATOM     55  H   UNL A   1      44.022  29.044  28.219  1.00  0.00     0.167 HD
ATOM     56  C   UNL A   1      42.962  31.407  29.394  1.00  0.00     0.074 A 
ATOM     57  C   UNL A   1      42.080  32.311  30.105  1.00  0.00     0.031 C 
ATOM     58  C   UNL A   1      44.193  31.746  28.939  1.00  0.00     0.034 A 
BRANCH  45  59
ATOM     59  C   UNL A   1      47.309  27.099  26.309  1.00  0.00     0.023 A 
ATOM     60  C   UNL A   1      47.550  27.359  24.944  1.00  0.00     0.012 A 
ATOM     61  C   UNL A   1      48.293  26.442  27.071  1.00  0.00     0.148 A 
ATOM     62  C   UNL A   1      48.738  26.946  24.342  1.00  0.00     0.002 A 
ATOM     63  C   UNL A   1      49.493  26.071  26.475  1.00  0.00     0.091 A 
ATOM     64  F   UNL A   1      48.035  26.181  28.361  1.00  0.00    -0.205 F 
ATOM     65  C   UNL A   1      49.713  26.313  25.108  1.00  0.00     0.022 A 
BRANCH  63  66
ATOM     66  S   UNL A   1      50.839  25.313  27.392  1.00  0.00     0.127 S 
ATOM     67  O   UNL A   1      50.168  24.170  28.008  1.00  0.00    -0.237 OA
ATOM     68  O   UNL A   1      51.780  24.968  26.326  1.00  0.00    -0.237 OA
ATOM     69  O   UNL A   1      51.316  26.330  28.318  1.00  0.00    -0.744 OA
ENDBRANCH  63  66
ENDBRANCH  45  59
BRANCH  46  70
ATOM     70  C   UNL A   1      38.753  29.786  30.780  1.00  0.00     0.023 A 
ATOM     71  C   UNL A   1      38.540  29.383  32.112  1.00  0.00     0.012 A 
ATOM     72  C   UNL A   1      37.785  30.584  30.140  1.00  0.00     0.148 A 
ATOM     73  C   UNL A   1      37.371  29.744  32.785  1.00  0.00     0.002 A 
ATOM     74  C   UNL A   1      36.651  30.987  30.834  1.00  0.00     0.091 A 
ATOM     75  F   UNL A   1      38.000  30.943  28.866  1.00  0.00    -0.205 F 
ATOM     76  C   UNL A   1      36.434  30.555  32.151  1.00  0.00     0.022 A 
BRANCH  74  77
ATOM     77  S   UNL A   1      35.462  32.141  30.141  1.00  0.00     0.127 S 
ATOM     78  O   UNL A   1      34.526  32.306  31.250  1.00  0.00    -0.237 OA
ATOM     79  O   UNL A   1      36.300  33.308  29.861  1.00  0.00    -0.237 OA
ATOM     80  O   UNL A   1      34.930  31.488  28.952  1.00  0.00    -0.744 OA
ENDBRANCH  74  77
ENDBRANCH  46  70
BRANCH  58  81
ATOM     81  C   UNL A   1      44.653  33.162  29.162  1.00  0.00     0.023 A 
ATOM     82  C   UNL A   1      45.304  33.508  30.362  1.00  0.00     0.012 A 
ATOM     83  C   UNL A   1      44.510  34.130  28.148  1.00  0.00     0.148 A 
ATOM     84  C   UNL A   1      45.777  34.804  30.564  1.00  0.00     0.002 A 
ATOM     85  C   UNL A   1      45.028  35.405  28.336  1.00  0.00     0.091 A 
ATOM     86  F   UNL A   1      43.871  33.786  27.021  1.00  0.00    -0.205 F 
ATOM     87  C   UNL A   1      45.651  35.748  29.547  1.00  0.00     0.022 A 
BRANCH  85  88
ATOM     88  S   UNL A   1      45.000  36.654  27.045  1.00  0.00     0.127 S 
ATOM     89  O   UNL A   1      45.658  37.779  27.705  1.00  0.00    -0.237 OA
ATOM     90  O   UNL A   1      45.786  36.024  25.984  1.00  0.00    -0.237 OA
ATOM     91  O   UNL A   1      43.595  36.857  26.716  1.00  0.00    -0.744 OA
ENDBRANCH  85  88
ENDBRANCH  58  81
ENDBRANCH  32  33
ENDBRANCH  25  27
ENDBRANCH  24  25
ENDBRANCH  23  24
ENDBRANCH  22  23
ENDBRANCH   1  22
TORSDOF 21
ENDMDL
MODEL 2
REMARK VINA RESULT:     -10.0      4.932     10.385
REMARK SMILES CC1(C)[C@H](C#N)C(SCC(=O)OCCOCCOC(=O)c2ccc(-c3c4nc(c(-c5cccc(S(=O)(=O)[O-])c5F)c5ccc([nH]5)c(-c5cccc(S(=O)(=O)[O-])c5F)c5nc(c(-c6cccc(S(=O)(=O)[O-])c6F)c6ccc3[nH]6)C=C5)C=C4)cc2)=NC(=O)[C@@H]1C#N
REMARK SMILES IDX 15 1 14 2 13 3 12 4 10 5 11 6 9 7 8 8 7 9 1 10 2 11 3 12
REMARK SMILES IDX 4 13 87 14 85 15 84 16 86 17 5 18 6 19 88 20 89 21 16 22
REMARK SMILES IDX 17 23 18 24 19 25 20 26 21 27 22 28 83 29 23 30 82 31 24 32
REMARK SMILES IDX 25 33 26 34 76 35 27 36 81 37 75 38 77 39 28 40 80 41 74 42
REMARK SMILES IDX 73 43 29 45 61 46 41 47 60 48 42 49 45 50 59 51 78 52 43 53
REMARK SMILES IDX 44 54 58 56 79 57 46 58 30 59 31 60 39 61 32 62 34 63 40 64
REMARK SMILES IDX 33 65 35 66 36 67 37 68 38 69 62 70 63 71 71 72 64 73 66 74
REMARK SMILES IDX 72 75 65 76 67 77 68 78 69 79 70 80 47 81 48 82 56 83 49 84
REMARK SMILES IDX 51 85 57 86 50 87 52 88 53 89 54 90 55 91
REMARK H PARENT 77 44 45 55
REMARK Flexibility Score: inf
ROOT
ATOM      1  O   UNL A   1      31.435  28.707  27.024  1.00  0.00    -0.374 OA
ENDROOT
BRANCH   1   2
ATOM      2  C   UNL A   1      31.543  27.300  26.803  1.00  0.00     0.202 C 
BRANCH   2   3
ATOM      3  C   UNL A   1      31.567  26.829  25.344  1.00  0.00     0.261 C 
BRANCH   3   4
ATOM      4  O   UNL A   1      32.369  25.648  25.162  1.00  0.00    -0.463 OA
BRANCH   4   5
ATOM      5  C   UNL A   1      31.806  24.466  25.536  1.00  0.00     0.316 C 
ATOM      6  O   UNL A   1      31.916  23.970  26.654  1.00  0.00    -0.251 OA
BRANCH   5   7
ATOM      7  C   UNL A   1      30.972  23.799  24.458  1.00  0.00     0.198 C 
BRANCH   7   8
ATOM      8  S   UNL A   1      31.866  23.390  22.934  1.00  0.00    -0.097 SA
BRANCH   8   9
ATOM      9  C   UNL A   1      33.452  22.828  23.482  1.00  0.00     0.095 C 
ATOM     10  C   UNL A   1      34.565  21.462  26.768  1.00  0.00     0.015 C 
ATOM     11  C   UNL A   1      34.788  21.410  25.227  1.00  0.00     0.012 C 
ATOM     12  C   UNL A   1      35.272  19.970  24.900  1.00  0.00     0.015 C 
ATOM     13  C   UNL A   1      33.405  21.744  24.545  1.00  0.00     0.156 C 
ATOM     14  C   UNL A   1      35.886  22.458  24.861  1.00  0.00     0.191 C 
ATOM     15  C   UNL A   1      35.761  22.978  23.436  1.00  0.00     0.264 C 
ATOM     16  N   UNL A   1      34.516  23.379  23.013  1.00  0.00    -0.209 NA
ATOM     17  O   UNL A   1      36.742  23.183  22.732  1.00  0.00    -0.271 OA
BRANCH  13  18
ATOM     18  C   UNL A   1      32.746  20.556  23.965  1.00  0.00     0.073 C 
ATOM     19  N   UNL A   1      32.261  19.613  23.486  1.00  0.00    -0.198 NA
ENDBRANCH  13  18
BRANCH  14  20
ATOM     20  C   UNL A   1      37.265  21.997  25.113  1.00  0.00     0.076 C 
ATOM     21  N   UNL A   1      38.334  21.587  25.317  1.00  0.00    -0.197 NA
ENDBRANCH  14  20
ENDBRANCH   8   9
ENDBRANCH   7   8
ENDBRANCH   5   7
ENDBRANCH   4   5
ENDBRANCH   3   4
ENDBRANCH   2   3
ENDBRANCH   1   2
BRANCH   1  22
ATOM     22  C   UNL A   1      31.599  29.563  25.901  1.00  0.00     0.202 C 
BRANCH  22  23
ATOM     23  C   UNL A   1      32.341  30.876  26.148  1.00  0.00     0.261 C 
BRANCH  23  24
ATOM     24  O   UNL A   1      32.782  31.053  27.498  1.00  0.00    -0.460 OA
BRANCH  24  25
ATOM     25  C   UNL A   1      33.635  32.094  27.654  1.00  0.00     0.338 C 
ATOM     26  O   UNL A   1      33.370  33.281  27.595  1.00  0.00    -0.246 OA
BRANCH  25  27
ATOM     27  C   UNL A   1      34.964  31.597  28.028  1.00  0.00     0.060 A 
ATOM     28  C   UNL A   1      35.085  30.243  28.354  1.00  0.00     0.016 A 
ATOM     29  C   UNL A   1      36.034  32.478  28.186  1.00  0.00     0.016 A 
ATOM     30  C   UNL A   1      36.274  29.772  28.899  1.00  0.00     0.010 A 
ATOM     31  C   UNL A   1      37.228  32.002  28.732  1.00  0.00     0.010 A 
ATOM     32  C   UNL A   1      37.334  30.658  29.130  1.00  0.00    -0.014 A 
BRANCH  32  33
ATOM     33  C   UNL A   1      38.502  30.197  29.916  1.00  0.00     0.031 A 
ATOM     34  C   UNL A   1      38.684  30.703  31.321  1.00  0.00     0.074 A 
ATOM     35  C   UNL A   1      39.371  29.322  29.383  1.00  0.00     0.049 A 
ATOM     36  N   UNL A   1      39.616  30.413  32.189  1.00  0.00    -0.248 NA
ATOM     37  C   UNL A   1      37.684  31.667  31.814  1.00  0.00     0.031 C 
ATOM     38  C   UNL A   1      39.289  28.775  28.029  1.00  0.00     0.029 A 
ATOM     39  N   UNL A   1      40.500  28.753  29.910  1.00  0.00    -0.354 N 
ATOM     40  C   UNL A   1      39.334  31.173  33.318  1.00  0.00     0.074 A 
ATOM     41  C   UNL A   1      38.150  31.950  33.022  1.00  0.00     0.031 C 
ATOM     42  C   UNL A   1      40.336  27.958  27.825  1.00  0.00     0.029 A 
ATOM     43  C   UNL A   1      41.171  27.943  29.024  1.00  0.00     0.049 A 
ATOM     44  H   UNL A   1      40.803  28.909  30.833  1.00  0.00     0.167 HD
ATOM     45  C   UNL A   1      39.992  31.205  34.501  1.00  0.00     0.034 A 
ATOM     46  C   UNL A   1      42.332  27.276  29.166  1.00  0.00     0.034 A 
ATOM     47  C   UNL A   1      41.154  30.411  34.791  1.00  0.00     0.049 A 
ATOM     48  C   UNL A   1      43.047  27.335  30.489  1.00  0.00     0.074 A 
ATOM     49  C   UNL A   1      41.867  30.329  35.973  1.00  0.00     0.029 A 
ATOM     50  N   UNL A   1      41.783  29.570  33.885  1.00  0.00    -0.354 N 
ATOM     51  N   UNL A   1      42.698  27.960  31.589  1.00  0.00    -0.248 NA
ATOM     52  C   UNL A   1      44.295  26.568  30.606  1.00  0.00     0.031 C 
ATOM     53  C   UNL A   1      42.944  29.458  35.773  1.00  0.00     0.029 A 
ATOM     54  C   UNL A   1      42.882  28.975  34.475  1.00  0.00     0.049 A 
ATOM     55  H   UNL A   1      41.488  29.420  32.958  1.00  0.00     0.167 HD
ATOM     56  C   UNL A   1      43.662  27.636  32.536  1.00  0.00     0.074 A 
ATOM     57  C   UNL A   1      44.598  26.741  31.885  1.00  0.00     0.031 C 
ATOM     58  C   UNL A   1      43.773  28.048  33.823  1.00  0.00     0.034 A 
BRANCH  45  59
ATOM     59  C   UNL A   1      39.457  32.112  35.579  1.00  0.00     0.023 A 
ATOM     60  C   UNL A   1      38.506  31.622  36.496  1.00  0.00     0.012 A 
ATOM     61  C   UNL A   1      39.935  33.429  35.717  1.00  0.00     0.148 A 
ATOM     62  C   UNL A   1      38.017  32.437  37.516  1.00  0.00     0.002 A 
ATOM     63  C   UNL A   1      39.476  34.222  36.762  1.00  0.00     0.091 A 
ATOM     64  F   UNL A   1      40.821  33.885  34.820  1.00  0.00    -0.205 F 
ATOM     65  C   UNL A   1      38.509  33.731  37.656  1.00  0.00     0.022 A 
BRANCH  63  66
ATOM     66  S   UNL A   1      40.100  35.879  37.069  1.00  0.00     0.127 S 
ATOM     67  O   UNL A   1      39.696  36.576  35.849  1.00  0.00    -0.237 OA
ATOM     68  O   UNL A   1      39.358  36.268  38.269  1.00  0.00    -0.237 OA
ATOM     69  O   UNL A   1      41.536  35.738  37.261  1.00  0.00    -0.744 OA
ENDBRANCH  63  66
ENDBRANCH  45  59
BRANCH  46  70
ATOM     70  C   UNL A   1      42.863  26.461  28.037  1.00  0.00     0.023 A 
ATOM     71  C   UNL A   1      43.807  27.023  27.156  1.00  0.00     0.012 A 
ATOM     72  C   UNL A   1      42.460  25.124  27.850  1.00  0.00     0.148 A 
ATOM     73  C   UNL A   1      44.320  26.277  26.093  1.00  0.00     0.002 A 
ATOM     74  C   UNL A   1      43.016  24.370  26.825  1.00  0.00     0.091 A 
ATOM     75  F   UNL A   1      41.548  24.614  28.690  1.00  0.00    -0.205 F 
ATOM     76  C   UNL A   1      43.934  24.949  25.935  1.00  0.00     0.022 A 
BRANCH  74  77
ATOM     77  S   UNL A   1      42.680  22.616  26.633  1.00  0.00     0.127 S 
ATOM     78  O   UNL A   1      42.994  22.104  27.964  1.00  0.00    -0.237 OA
ATOM     79  O   UNL A   1      41.256  22.617  26.292  1.00  0.00    -0.237 OA
ATOM     80  O   UNL A   1      43.551  22.166  25.556  1.00  0.00    -0.744 OA
ENDBRANCH  74  77
ENDBRANCH  46  70
BRANCH  58  81
ATOM     81  C   UNL A   1      44.926  27.513  34.629  1.00  0.00     0.023 A 
ATOM     82  C   UNL A   1      46.179  28.154  34.574  1.00  0.00     0.012 A 
ATOM     83  C   UNL A   1      44.744  26.422  35.502  1.00  0.00     0.148 A 
ATOM     84  C   UNL A   1      47.243  27.698  35.351  1.00  0.00     0.002 A 
ATOM     85  C   UNL A   1      45.794  26.005  36.310  1.00  0.00     0.091 A 
ATOM     86  F   UNL A   1      43.550  25.814  35.526  1.00  0.00    -0.205 F 
ATOM     87  C   UNL A   1      47.048  26.634  36.227  1.00  0.00     0.022 A 
BRANCH  85  88
ATOM     88  S   UNL A   1      45.606  24.708  37.538  1.00  0.00     0.127 S 
ATOM     89  O   UNL A   1      45.780  23.503  36.729  1.00  0.00    -0.237 OA
ATOM     90  O   UNL A   1      46.707  24.988  38.460  1.00  0.00    -0.237 OA
ATOM     91  O   UNL A   1      44.278  24.890  38.111  1.00  0.00    -0.744 OA
ENDBRANCH  85  88
ENDBRANCH  58  81
ENDBRANCH  32  33
ENDBRANCH  25  27
ENDBRANCH  24  25
ENDBRANCH  23  24
ENDBRANCH  22  23
ENDBRANCH   1  22
TORSDOF 21
ENDMDL
MODEL 3
REMARK VINA RESULT:      -9.9      0.738      7.801
REMARK SMILES CC1(C)[C@H](C#N)C(SCC(=O)OCCOCCOC(=O)c2ccc(-c3c4nc(c(-c5cccc(S(=O)(=O)[O-])c5F)c5ccc([nH]5)c(-c5cccc(S(=O)(=O)[O-])c5F)c5nc(c(-c6cccc(S(=O)(=O)[O-])c6F)c6ccc3[nH]6)C=C5)C=C4)cc2)=NC(=O)[C@@H]1C#N
REMARK SMILES IDX 15 1 14 2 13 3 12 4 10 5 11 6 9 7 8 8 7 9 1 10 2 11 3 12
REMARK SMILES IDX 4 13 87 14 85 15 84 16 86 17 5 18 6 19 88 20 89 21 16 22
REMARK SMILES IDX 17 23 18 24 19 25 20 26 21 27 22 28 83 29 23 30 82 31 24 32
REMARK SMILES IDX 25 33 26 34 76 35 27 36 81 37 75 38 77 39 28 40 80 41 74 42
REMARK SMILES IDX 73 43 29 45 61 46 41 47 60 48 42 49 45 50 59 51 78 52 43 53
REMARK SMILES IDX 44 54 58 56 79 57 46 58 30 59 31 60 39 61 32 62 34 63 40 64
REMARK SMILES IDX 33 65 35 66 36 67 37 68 38 69 62 70 63 71 71 72 64 73 66 74
REMARK SMILES IDX 72 75 65 76 67 77 68 78 69 79 70 80 47 81 48 82 56 83 49 84
REMARK SMILES IDX 51 85 57 86 50 87 52 88 53 89 54 90 55 91
REMARK H PARENT 77 44 45 55
REMARK Flexibility Score: inf
ROOT
ATOM      1  O   UNL A   1      37.204  21.011  25.387  1.00  0.00    -0.374 OA
ENDROOT
BRANCH   1   2
ATOM      2  C   UNL A   1      35.972  21.612  24.986  1.00  0.00     0.202 C 
BRANCH   2   3
ATOM      3  C   UNL A   1      34.688  20.832  25.296  1.00  0.00     0.261 C 
BRANCH   3   4
ATOM      4  O   UNL A   1      33.540  21.376  24.621  1.00  0.00    -0.463 OA
BRANCH   4   5
ATOM      5  C   UNL A   1      32.320  20.976  25.075  1.00  0.00     0.316 C 
ATOM      6  O   UNL A   1      31.963  19.805  25.161  1.00  0.00    -0.251 OA
BRANCH   5   7
ATOM      7  C   UNL A   1      31.416  22.110  25.523  1.00  0.00     0.198 C 
BRANCH   7   8
ATOM      8  S   UNL A   1      32.145  23.244  26.736  1.00  0.00    -0.097 SA
BRANCH   8   9
ATOM      9  C   UNL A   1      31.905  24.855  26.044  1.00  0.00     0.095 C 
ATOM     10  C   UNL A   1      33.572  28.108  26.779  1.00  0.00     0.015 C 
ATOM     11  C   UNL A   1      32.899  27.246  25.670  1.00  0.00     0.012 C 
ATOM     12  C   UNL A   1      33.579  27.639  24.330  1.00  0.00     0.015 C 
ATOM     13  C   UNL A   1      33.145  25.732  26.044  1.00  0.00     0.156 C 
ATOM     14  C   UNL A   1      31.377  27.598  25.641  1.00  0.00     0.191 C 
ATOM     15  C   UNL A   1      30.513  26.457  25.123  1.00  0.00     0.264 C 
ATOM     16  N   UNL A   1      30.733  25.204  25.644  1.00  0.00    -0.209 NA
ATOM     17  O   UNL A   1      29.554  26.653  24.386  1.00  0.00    -0.271 OA
BRANCH  13  18
ATOM     18  C   UNL A   1      34.168  25.088  25.194  1.00  0.00     0.073 C 
ATOM     19  N   UNL A   1      34.993  24.571  24.558  1.00  0.00    -0.198 NA
ENDBRANCH  13  18
BRANCH  14  20
ATOM     20  C   UNL A   1      31.063  28.842  24.913  1.00  0.00     0.076 C 
ATOM     21  N   UNL A   1      30.860  29.840  24.352  1.00  0.00    -0.197 NA
ENDBRANCH  14  20
ENDBRANCH   8   9
ENDBRANCH   7   8
ENDBRANCH   5   7
ENDBRANCH   4   5
ENDBRANCH   3   4
ENDBRANCH   2   3
ENDBRANCH   1   2
BRANCH   1  22
ATOM     22  C   UNL A   1      37.562  19.778  24.777  1.00  0.00     0.202 C 
BRANCH  22  23
ATOM     23  C   UNL A   1      38.829  19.102  25.300  1.00  0.00     0.261 C 
BRANCH  23  24
ATOM     24  O   UNL A   1      39.355  19.691  26.494  1.00  0.00    -0.460 OA
BRANCH  24  25
ATOM     25  C   UNL A   1      40.670  20.003  26.407  1.00  0.00     0.338 C 
ATOM     26  O   UNL A   1      41.560  19.321  25.928  1.00  0.00    -0.246 OA
BRANCH  25  27
ATOM     27  C   UNL A   1      40.891  21.372  26.884  1.00  0.00     0.060 A 
ATOM     28  C   UNL A   1      40.393  22.421  26.105  1.00  0.00     0.016 A 
ATOM     29  C   UNL A   1      41.689  21.616  28.002  1.00  0.00     0.016 A 
ATOM     30  C   UNL A   1      40.745  23.731  26.412  1.00  0.00     0.010 A 
ATOM     31  C   UNL A   1      42.038  22.932  28.310  1.00  0.00     0.010 A 
ATOM     32  C   UNL A   1      41.603  23.988  27.489  1.00  0.00    -0.014 A 
BRANCH  32  33
ATOM     33  C   UNL A   1      42.150  25.352  27.667  1.00  0.00     0.031 A 
ATOM     34  C   UNL A   1      41.318  26.389  28.371  1.00  0.00     0.074 A 
ATOM     35  C   UNL A   1      43.384  25.647  27.222  1.00  0.00     0.049 A 
ATOM     36  N   UNL A   1      41.611  27.630  28.654  1.00  0.00    -0.248 NA
ATOM     37  C   UNL A   1      39.976  25.974  28.815  1.00  0.00     0.031 C 
ATOM     38  C   UNL A   1      44.269  24.717  26.522  1.00  0.00     0.029 A 
ATOM     39  N   UNL A   1      44.097  26.815  27.279  1.00  0.00    -0.354 N 
ATOM     40  C   UNL A   1      40.487  28.153  29.282  1.00  0.00     0.074 A 
ATOM     41  C   UNL A   1      39.498  27.098  29.328  1.00  0.00     0.031 C 
ATOM     42  C   UNL A   1      45.406  25.357  26.200  1.00  0.00     0.029 A 
ATOM     43  C   UNL A   1      45.318  26.743  26.651  1.00  0.00     0.049 A 
ATOM     44  H   UNL A   1      43.768  27.627  27.727  1.00  0.00     0.167 HD
ATOM     45  C   UNL A   1      40.303  29.393  29.791  1.00  0.00     0.034 A 
ATOM     46  C   UNL A   1      46.250  27.696  26.454  1.00  0.00     0.034 A 
ATOM     47  C   UNL A   1      41.303  30.427  29.760  1.00  0.00     0.049 A 
ATOM     48  C   UNL A   1      46.017  29.069  27.025  1.00  0.00     0.074 A 
ATOM     49  C   UNL A   1      41.239  31.702  30.291  1.00  0.00     0.029 A 
ATOM     50  N   UNL A   1      42.543  30.307  29.151  1.00  0.00    -0.354 N 
ATOM     51  N   UNL A   1      45.000  29.510  27.726  1.00  0.00    -0.248 NA
ATOM     52  C   UNL A   1      47.075  30.066  26.810  1.00  0.00     0.031 C 
ATOM     53  C   UNL A   1      42.433  32.363  29.980  1.00  0.00     0.029 A 
ATOM     54  C   UNL A   1      43.250  31.488  29.282  1.00  0.00     0.049 A 
ATOM     55  H   UNL A   1      42.871  29.500  28.694  1.00  0.00     0.167 HD
ATOM     56  C   UNL A   1      45.309  30.822  28.065  1.00  0.00     0.074 A 
ATOM     57  C   UNL A   1      46.619  31.097  27.509  1.00  0.00     0.031 C 
ATOM     58  C   UNL A   1      44.574  31.724  28.761  1.00  0.00     0.034 A 
BRANCH  45  59
ATOM     59  C   UNL A   1      38.981  29.696  30.446  1.00  0.00     0.023 A 
ATOM     60  C   UNL A   1      38.717  29.213  31.744  1.00  0.00     0.012 A 
ATOM     61  C   UNL A   1      38.025  30.504  29.802  1.00  0.00     0.148 A 
ATOM     62  C   UNL A   1      37.510  29.503  32.378  1.00  0.00     0.002 A 
ATOM     63  C   UNL A   1      36.841  30.825  30.457  1.00  0.00     0.091 A 
ATOM     64  F   UNL A   1      38.283  30.934  28.559  1.00  0.00    -0.205 F 
ATOM     65  C   UNL A   1      36.578  30.317  31.741  1.00  0.00     0.022 A 
BRANCH  63  66
ATOM     66  S   UNL A   1      35.608  31.922  29.749  1.00  0.00     0.127 S 
ATOM     67  O   UNL A   1      34.728  32.154  30.894  1.00  0.00    -0.237 OA
ATOM     68  O   UNL A   1      36.415  33.078  29.356  1.00  0.00    -0.237 OA
ATOM     69  O   UNL A   1      35.010  31.192  28.641  1.00  0.00    -0.744 OA
ENDBRANCH  63  66
ENDBRANCH  45  59
BRANCH  46  70
ATOM     70  C   UNL A   1      47.505  27.366  25.721  1.00  0.00     0.023 A 
ATOM     71  C   UNL A   1      47.568  27.553  24.328  1.00  0.00     0.012 A 
ATOM     72  C   UNL A   1      48.645  26.896  26.404  1.00  0.00     0.148 A 
ATOM     73  C   UNL A   1      48.735  27.253  23.622  1.00  0.00     0.002 A 
ATOM     74  C   UNL A   1      49.820  26.654  25.704  1.00  0.00     0.091 A 
ATOM     75  F   UNL A   1      48.559  26.709  27.728  1.00  0.00    -0.205 F 
ATOM     76  C   UNL A   1      49.863  26.816  24.311  1.00  0.00     0.022 A 
BRANCH  74  77
ATOM     77  S   UNL A   1      51.356  26.219  26.528  1.00  0.00     0.127 S 
ATOM     78  O   UNL A   1      51.064  24.872  27.012  1.00  0.00    -0.237 OA
ATOM     79  O   UNL A   1      52.318  26.286  25.428  1.00  0.00    -0.237 OA
ATOM     80  O   UNL A   1      51.550  27.234  27.555  1.00  0.00    -0.744 OA
ENDBRANCH  74  77
ENDBRANCH  46  70
BRANCH  58  81
ATOM     81  C   UNL A   1      45.177  33.083  28.995  1.00  0.00     0.023 A 
ATOM     82  C   UNL A   1      46.050  33.287  30.080  1.00  0.00     0.012 A 
ATOM     83  C   UNL A   1      44.938  34.137  28.091  1.00  0.00     0.148 A 
ATOM     84  C   UNL A   1      46.652  34.528  30.283  1.00  0.00     0.002 A 
ATOM     85  C   UNL A   1      45.580  35.356  28.270  1.00  0.00     0.091 A 
ATOM     86  F   UNL A   1      44.089  33.928  27.074  1.00  0.00    -0.205 F 
ATOM     87  C   UNL A   1      46.428  35.557  29.371  1.00  0.00     0.022 A 
BRANCH  85  88
ATOM     88  S   UNL A   1      45.428  36.704  27.092  1.00  0.00     0.127 S 
ATOM     89  O   UNL A   1      46.375  36.301  26.054  1.00  0.00    -0.237 OA
ATOM     90  O   UNL A   1      44.021  36.620  26.701  1.00  0.00    -0.237 OA
ATOM     91  O   UNL A   1      45.780  37.915  27.823  1.00  0.00    -0.744 OA
ENDBRANCH  85  88
ENDBRANCH  58  81
ENDBRANCH  32  33
ENDBRANCH  25  27
ENDBRANCH  24  25
ENDBRANCH  23  24
ENDBRANCH  22  23
ENDBRANCH   1  22
TORSDOF 21
ENDMDL
