MODEL 1
REMARK VINA RESULT:     -12.8      0.000      0.000
REMARK SMILES O=C(OCCOCCOC(=O)[C@H]1CC2=c3ccccc3=N[C@H]2[C@@H](c2ccccc2)[NH2+]1)c1ccc(-c2c3nc(c(-c4cccc(S(=O)(=O)[O-])c4F)c4ccc([nH]4)c(-c4cccc(S(=O)(=O)[O-])c4F)c4nc(c(-c5cccc(S(=O)(=O)[O-])c5F)c5ccc2[nH]5)C=C4)C=C3)cc1
REMARK SMILES IDX 5 1 4 2 3 3 2 4 1 5 31 6 32 7 93 8 33 9 92 10 34 11 35 12
REMARK SMILES IDX 36 13 86 14 37 15 91 16 85 17 87 18 38 19 90 20 84 21 83 22
REMARK SMILES IDX 39 24 71 25 51 26 70 27 52 28 55 29 69 30 88 31 53 32 54 33
REMARK SMILES IDX 68 35 89 36 56 37 40 38 41 39 49 40 42 41 44 42 50 43 43 44
REMARK SMILES IDX 45 45 46 46 47 47 48 48 72 49 73 50 81 51 74 52 76 53 82 54
REMARK SMILES IDX 75 55 77 56 78 57 79 58 80 59 57 60 58 61 66 62 59 63 61 64
REMARK SMILES IDX 67 65 60 66 62 67 63 68 64 69 65 70 6 71 7 72 8 73 9 74
REMARK SMILES IDX 10 75 11 76 12 77 13 78 30 79 14 80 23 81 15 84 22 85 16 86
REMARK SMILES IDX 20 87 21 88 17 89 19 90 18 91 24 92 25 93 29 94 26 95 28 96
REMARK SMILES IDX 27 97
REMARK H PARENT 87 23 55 34 30 82 30 83
REMARK Flexibility Score: inf
ROOT
ATOM      1  C   UNL A   1      34.846  22.308  25.388  1.00  0.00     0.202 C 
ENDROOT
BRANCH   1   2
ATOM      2  C   UNL A   1      35.877  21.331  25.967  1.00  0.00     0.261 C 
BRANCH   2   3
ATOM      3  O   UNL A   1      37.075  21.173  25.197  1.00  0.00    -0.460 OA
BRANCH   3   4
ATOM      4  C   UNL A   1      38.354  21.274  25.640  1.00  0.00     0.338 C 
ATOM      5  O   UNL A   1      38.992  20.237  25.824  1.00  0.00    -0.246 OA
BRANCH   4   6
ATOM      6  C   UNL A   1      38.956  22.565  26.103  1.00  0.00     0.060 A 
ATOM      7  C   UNL A   1      40.178  22.468  26.796  1.00  0.00     0.016 A 
ATOM      8  C   UNL A   1      38.424  23.839  25.888  1.00  0.00     0.016 A 
ATOM      9  C   UNL A   1      40.824  23.606  27.286  1.00  0.00     0.010 A 
ATOM     10  C   UNL A   1      39.048  24.976  26.398  1.00  0.00     0.010 A 
ATOM     11  C   UNL A   1      40.251  24.867  27.094  1.00  0.00    -0.014 A 
BRANCH  11  12
ATOM     12  C   UNL A   1      40.967  26.101  27.466  1.00  0.00     0.031 A 
ATOM     13  C   UNL A   1      42.397  26.314  27.081  1.00  0.00     0.074 A 
ATOM     14  C   UNL A   1      40.325  26.973  28.264  1.00  0.00     0.049 A 
ATOM     15  N   UNL A   1      43.139  27.371  27.269  1.00  0.00    -0.248 NA
ATOM     16  C   UNL A   1      43.089  25.198  26.416  1.00  0.00     0.031 C 
ATOM     17  C   UNL A   1      38.968  26.786  28.784  1.00  0.00     0.029 A 
ATOM     18  N   UNL A   1      40.726  28.168  28.797  1.00  0.00    -0.354 N 
ATOM     19  C   UNL A   1      44.388  27.053  26.752  1.00  0.00     0.074 A 
ATOM     20  C   UNL A   1      44.311  25.695  26.259  1.00  0.00     0.031 C 
ATOM     21  C   UNL A   1      38.648  27.832  29.560  1.00  0.00     0.029 A 
ATOM     22  C   UNL A   1      39.769  28.765  29.581  1.00  0.00     0.049 A 
ATOM     23  H   UNL A   1      41.615  28.561  28.634  1.00  0.00     0.167 HD
ATOM     24  C   UNL A   1      45.484  27.844  26.680  1.00  0.00     0.034 A 
ATOM     25  C   UNL A   1      39.784  29.948  30.222  1.00  0.00     0.034 A 
ATOM     26  C   UNL A   1      45.521  29.198  27.163  1.00  0.00     0.049 A 
ATOM     27  C   UNL A   1      40.987  30.831  30.074  1.00  0.00     0.074 A 
ATOM     28  C   UNL A   1      46.530  30.132  27.023  1.00  0.00     0.029 A 
ATOM     29  N   UNL A   1      44.510  29.802  27.896  1.00  0.00    -0.354 N 
ATOM     30  N   UNL A   1      42.086  30.603  29.395  1.00  0.00    -0.248 NA
ATOM     31  C   UNL A   1      40.947  32.139  30.740  1.00  0.00     0.031 C 
ATOM     32  C   UNL A   1      46.137  31.298  27.688  1.00  0.00     0.029 A 
ATOM     33  C   UNL A   1      44.879  31.090  28.234  1.00  0.00     0.049 A 
ATOM     34  H   UNL A   1      43.657  29.376  28.140  1.00  0.00     0.167 HD
ATOM     35  C   UNL A   1      42.861  31.747  29.531  1.00  0.00     0.074 A 
ATOM     36  C   UNL A   1      42.103  32.669  30.354  1.00  0.00     0.031 C 
ATOM     37  C   UNL A   1      44.092  32.002  29.026  1.00  0.00     0.034 A 
BRANCH  24  38
ATOM     38  C   UNL A   1      46.710  27.309  25.993  1.00  0.00     0.023 A 
ATOM     39  C   UNL A   1      47.467  26.307  26.633  1.00  0.00     0.012 A 
ATOM     40  C   UNL A   1      47.045  27.700  24.682  1.00  0.00     0.148 A 
ATOM     41  C   UNL A   1      48.544  25.706  25.983  1.00  0.00     0.002 A 
ATOM     42  C   UNL A   1      48.105  27.078  24.030  1.00  0.00     0.091 A 
ATOM     43  F   UNL A   1      46.316  28.662  24.096  1.00  0.00    -0.205 F 
ATOM     44  C   UNL A   1      48.856  26.084  24.680  1.00  0.00     0.022 A 
BRANCH  42  45
ATOM     45  S   UNL A   1      48.561  27.450  22.332  1.00  0.00     0.127 S 
ATOM     46  O   UNL A   1      48.673  26.109  21.758  1.00  0.00    -0.237 OA
ATOM     47  O   UNL A   1      47.407  28.218  21.865  1.00  0.00    -0.237 OA
ATOM     48  O   UNL A   1      49.808  28.199  22.403  1.00  0.00    -0.744 OA
ENDBRANCH  42  45
ENDBRANCH  24  38
BRANCH  25  49
ATOM     49  C   UNL A   1      38.550  30.391  30.923  1.00  0.00     0.023 A 
ATOM     50  C   UNL A   1      38.456  30.189  32.312  1.00  0.00     0.012 A 
ATOM     51  C   UNL A   1      37.556  31.136  30.261  1.00  0.00     0.148 A 
ATOM     52  C   UNL A   1      37.390  30.725  33.035  1.00  0.00     0.002 A 
ATOM     53  C   UNL A   1      36.515  31.696  30.992  1.00  0.00     0.091 A 
ATOM     54  F   UNL A   1      37.678  31.321  28.938  1.00  0.00    -0.205 F 
ATOM     55  C   UNL A   1      36.428  31.487  32.378  1.00  0.00     0.022 A 
BRANCH  53  56
ATOM     56  S   UNL A   1      35.287  32.787  30.261  1.00  0.00     0.127 S 
ATOM     57  O   UNL A   1      36.120  33.881  29.763  1.00  0.00    -0.237 OA
ATOM     58  O   UNL A   1      34.707  31.934  29.224  1.00  0.00    -0.237 OA
ATOM     59  O   UNL A   1      34.375  33.138  31.340  1.00  0.00    -0.744 OA
ENDBRANCH  53  56
ENDBRANCH  25  49
BRANCH  37  60
ATOM     60  C   UNL A   1      44.725  33.326  29.343  1.00  0.00     0.023 A 
ATOM     61  C   UNL A   1      45.588  33.421  30.451  1.00  0.00     0.012 A 
ATOM     62  C   UNL A   1      44.600  34.413  28.456  1.00  0.00     0.148 A 
ATOM     63  C   UNL A   1      46.328  34.581  30.669  1.00  0.00     0.002 A 
ATOM     64  C   UNL A   1      45.366  35.553  28.661  1.00  0.00     0.091 A 
ATOM     65  F   UNL A   1      43.770  34.289  27.410  1.00  0.00    -0.205 F 
ATOM     66  C   UNL A   1      46.227  35.640  29.768  1.00  0.00     0.022 A 
BRANCH  64  67
ATOM     67  S   UNL A   1      45.370  36.937  27.517  1.00  0.00     0.127 S 
ATOM     68  O   UNL A   1      45.763  36.289  26.266  1.00  0.00    -0.237 OA
ATOM     69  O   UNL A   1      43.977  37.378  27.566  1.00  0.00    -0.237 OA
ATOM     70  O   UNL A   1      46.336  37.895  28.041  1.00  0.00    -0.744 OA
ENDBRANCH  64  67
ENDBRANCH  37  60
ENDBRANCH  11  12
ENDBRANCH   4   6
ENDBRANCH   3   4
ENDBRANCH   2   3
ENDBRANCH   1   2
BRANCH   1  71
ATOM     71  O   UNL A   1      34.617  22.276  23.986  1.00  0.00    -0.374 OA
BRANCH  71  72
ATOM     72  C   UNL A   1      33.312  22.653  23.522  1.00  0.00     0.202 C 
BRANCH  72  73
ATOM     73  C   UNL A   1      33.284  23.366  22.163  1.00  0.00     0.261 C 
BRANCH  73  74
ATOM     74  O   UNL A   1      33.765  24.707  22.354  1.00  0.00    -0.459 OA
BRANCH  74  75
ATOM     75  C   UNL A   1      33.278  25.618  21.465  1.00  0.00     0.365 C 
ATOM     76  O   UNL A   1      33.139  25.432  20.266  1.00  0.00    -0.245 OA
BRANCH  75  77
ATOM     77  C   UNL A   1      32.717  26.810  22.244  1.00  0.00     0.298 C 
ATOM     78  C   UNL A   1      31.183  26.918  22.274  1.00  0.00     0.111 C 
ATOM     79  N   UNL A   1      33.448  26.900  23.552  1.00  0.00    -0.326 N 
ATOM     80  C   UNL A   1      30.849  28.197  22.995  1.00  0.00    -0.024 C 
ATOM     81  C   UNL A   1      32.658  27.564  24.643  1.00  0.00     0.243 C 
ATOM     82  H   UNL A   1      34.304  27.433  23.406  1.00  0.00     0.347 HD
ATOM     83  H   UNL A   1      33.630  25.944  23.857  1.00  0.00     0.347 HD
ATOM     84  C   UNL A   1      29.783  28.986  23.048  1.00  0.00     0.002 A 
ATOM     85  C   UNL A   1      31.916  28.724  23.920  1.00  0.00     0.196 C 
ATOM     86  C   UNL A   1      28.470  28.981  22.497  1.00  0.00     0.010 A 
ATOM     87  C   UNL A   1      30.195  30.009  24.039  1.00  0.00     0.066 A 
ATOM     88  N   UNL A   1      31.290  29.807  24.714  1.00  0.00    -0.270 NA
ATOM     89  C   UNL A   1      27.674  30.037  22.738  1.00  0.00     0.001 A 
ATOM     90  C   UNL A   1      29.313  31.188  24.161  1.00  0.00     0.028 A 
ATOM     91  C   UNL A   1      28.146  31.187  23.495  1.00  0.00     0.002 A 
BRANCH  81  92
ATOM     92  C   UNL A   1      31.882  26.490  25.424  1.00  0.00     0.012 A 
ATOM     93  C   UNL A   1      30.492  26.500  25.601  1.00  0.00     0.010 A 
ATOM     94  C   UNL A   1      32.586  25.375  25.932  1.00  0.00     0.010 A 
ATOM     95  C   UNL A   1      29.821  25.383  26.112  1.00  0.00     0.001 A 
ATOM     96  C   UNL A   1      31.919  24.261  26.445  1.00  0.00     0.001 A 
ATOM     97  C   UNL A   1      30.532  24.254  26.509  1.00  0.00     0.000 A 
ENDBRANCH  81  92
ENDBRANCH  75  77
ENDBRANCH  74  75
ENDBRANCH  73  74
ENDBRANCH  72  73
ENDBRANCH  71  72
ENDBRANCH   1  71
TORSDOF 18
ENDMDL
MODEL 2
REMARK VINA RESULT:     -12.8      5.277     10.479
REMARK SMILES O=C(OCCOCCOC(=O)[C@H]1CC2=c3ccccc3=N[C@H]2[C@@H](c2ccccc2)[NH2+]1)c1ccc(-c2c3nc(c(-c4cccc(S(=O)(=O)[O-])c4F)c4ccc([nH]4)c(-c4cccc(S(=O)(=O)[O-])c4F)c4nc(c(-c5cccc(S(=O)(=O)[O-])c5F)c5ccc2[nH]5)C=C4)C=C3)cc1
REMARK SMILES IDX 5 1 4 2 3 3 2 4 1 5 31 6 32 7 93 8 33 9 92 10 34 11 35 12
REMARK SMILES IDX 36 13 86 14 37 15 91 16 85 17 87 18 38 19 90 20 84 21 83 22
REMARK SMILES IDX 39 24 71 25 51 26 70 27 52 28 55 29 69 30 88 31 53 32 54 33
REMARK SMILES IDX 68 35 89 36 56 37 40 38 41 39 49 40 42 41 44 42 50 43 43 44
REMARK SMILES IDX 45 45 46 46 47 47 48 48 72 49 73 50 81 51 74 52 76 53 82 54
REMARK SMILES IDX 75 55 77 56 78 57 79 58 80 59 57 60 58 61 66 62 59 63 61 64
REMARK SMILES IDX 67 65 60 66 62 67 63 68 64 69 65 70 6 71 7 72 8 73 9 74
REMARK SMILES IDX 10 75 11 76 12 77 13 78 30 79 14 80 23 81 15 84 22 85 16 86
REMARK SMILES IDX 20 87 21 88 17 89 19 90 18 91 24 92 25 93 29 94 26 95 28 96
REMARK SMILES IDX 27 97
REMARK H PARENT 87 23 55 34 30 82 30 83
REMARK Flexibility Score: inf
ROOT
ATOM      1  C   UNL A   1      32.049  29.438  25.107  1.00  0.00     0.202 C 
ENDROOT
BRANCH   1   2
ATOM      2  C   UNL A   1      32.310  30.059  26.484  1.00  0.00     0.261 C 
BRANCH   2   3
ATOM      3  O   UNL A   1      33.078  31.269  26.478  1.00  0.00    -0.460 OA
BRANCH   3   4
ATOM      4  C   UNL A   1      33.735  31.828  27.525  1.00  0.00     0.338 C 
ATOM      5  O   UNL A   1      33.409  32.961  27.882  1.00  0.00    -0.246 OA
BRANCH   4   6
ATOM      6  C   UNL A   1      34.962  31.222  28.135  1.00  0.00     0.060 A 
ATOM      7  C   UNL A   1      36.094  32.055  28.212  1.00  0.00     0.016 A 
ATOM      8  C   UNL A   1      35.065  29.926  28.646  1.00  0.00     0.016 A 
ATOM      9  C   UNL A   1      37.298  31.591  28.751  1.00  0.00     0.010 A 
ATOM     10  C   UNL A   1      36.270  29.447  29.158  1.00  0.00     0.010 A 
ATOM     11  C   UNL A   1      37.390  30.277  29.218  1.00  0.00    -0.014 A 
BRANCH  11  12
ATOM     12  C   UNL A   1      38.591  29.793  29.922  1.00  0.00     0.031 A 
ATOM     13  C   UNL A   1      38.972  30.332  31.265  1.00  0.00     0.074 A 
ATOM     14  C   UNL A   1      39.394  28.939  29.263  1.00  0.00     0.049 A 
ATOM     15  N   UNL A   1      39.953  29.959  32.041  1.00  0.00    -0.248 NA
ATOM     16  C   UNL A   1      38.165  31.439  31.800  1.00  0.00     0.031 C 
ATOM     17  C   UNL A   1      39.157  28.454  27.900  1.00  0.00     0.029 A 
ATOM     18  N   UNL A   1      40.573  28.349  29.628  1.00  0.00    -0.354 N 
ATOM     19  C   UNL A   1      39.890  30.784  33.155  1.00  0.00     0.074 A 
ATOM     20  C   UNL A   1      38.784  31.694  32.948  1.00  0.00     0.031 C 
ATOM     21  C   UNL A   1      40.160  27.637  27.546  1.00  0.00     0.029 A 
ATOM     22  C   UNL A   1      41.100  27.533  28.657  1.00  0.00     0.049 A 
ATOM     23  H   UNL A   1      41.003  28.496  30.502  1.00  0.00     0.167 HD
ATOM     24  C   UNL A   1      40.675  30.755  34.257  1.00  0.00     0.034 A 
ATOM     25  C   UNL A   1      42.202  26.762  28.673  1.00  0.00     0.034 A 
ATOM     26  C   UNL A   1      41.755  29.823  34.440  1.00  0.00     0.049 A 
ATOM     27  C   UNL A   1      43.020  26.702  29.928  1.00  0.00     0.074 A 
ATOM     28  C   UNL A   1      42.528  29.615  35.567  1.00  0.00     0.029 A 
ATOM     29  N   UNL A   1      42.224  28.958  33.463  1.00  0.00    -0.354 N 
ATOM     30  N   UNL A   1      42.821  27.332  31.062  1.00  0.00    -0.248 NA
ATOM     31  C   UNL A   1      44.185  25.808  29.930  1.00  0.00     0.031 C 
ATOM     32  C   UNL A   1      43.479  28.636  35.265  1.00  0.00     0.029 A 
ATOM     33  C   UNL A   1      43.292  28.229  33.953  1.00  0.00     0.049 A 
ATOM     34  H   UNL A   1      41.853  28.876  32.554  1.00  0.00     0.167 HD
ATOM     35  C   UNL A   1      43.820  26.896  31.921  1.00  0.00     0.074 A 
ATOM     36  C   UNL A   1      44.622  25.942  31.178  1.00  0.00     0.031 C 
ATOM     37  C   UNL A   1      44.053  27.260  33.204  1.00  0.00     0.034 A 
BRANCH  24  38
ATOM     38  C   UNL A   1      40.360  31.697  35.386  1.00  0.00     0.023 A 
ATOM     39  C   UNL A   1      41.129  32.870  35.528  1.00  0.00     0.012 A 
ATOM     40  C   UNL A   1      39.247  31.492  36.223  1.00  0.00     0.148 A 
ATOM     41  C   UNL A   1      40.800  33.822  36.492  1.00  0.00     0.002 A 
ATOM     42  C   UNL A   1      38.909  32.458  37.165  1.00  0.00     0.091 A 
ATOM     43  F   UNL A   1      38.536  30.364  36.076  1.00  0.00    -0.205 F 
ATOM     44  C   UNL A   1      39.686  33.621  37.302  1.00  0.00     0.022 A 
BRANCH  42  45
ATOM     45  S   UNL A   1      37.465  32.327  38.226  1.00  0.00     0.127 S 
ATOM     46  O   UNL A   1      36.469  33.078  37.461  1.00  0.00    -0.237 OA
ATOM     47  O   UNL A   1      37.241  30.881  38.262  1.00  0.00    -0.237 OA
ATOM     48  O   UNL A   1      37.843  32.921  39.501  1.00  0.00    -0.744 OA
ENDBRANCH  42  45
ENDBRANCH  24  38
BRANCH  25  49
ATOM     49  C   UNL A   1      42.477  25.892  27.499  1.00  0.00     0.023 A 
ATOM     50  C   UNL A   1      43.355  26.359  26.504  1.00  0.00     0.012 A 
ATOM     51  C   UNL A   1      42.004  24.566  27.440  1.00  0.00     0.148 A 
ATOM     52  C   UNL A   1      43.763  25.520  25.468  1.00  0.00     0.002 A 
ATOM     53  C   UNL A   1      42.440  23.725  26.424  1.00  0.00     0.091 A 
ATOM     54  F   UNL A   1      41.177  24.146  28.408  1.00  0.00    -0.205 F 
ATOM     55  C   UNL A   1      43.316  24.202  25.434  1.00  0.00     0.022 A 
BRANCH  53  56
ATOM     56  S   UNL A   1      42.014  21.980  26.353  1.00  0.00     0.127 S 
ATOM     57  O   UNL A   1      40.582  22.035  26.067  1.00  0.00    -0.237 OA
ATOM     58  O   UNL A   1      42.846  21.514  25.244  1.00  0.00    -0.237 OA
ATOM     59  O   UNL A   1      42.372  21.431  27.653  1.00  0.00    -0.744 OA
ENDBRANCH  53  56
ENDBRANCH  25  49
BRANCH  37  60
ATOM     60  C   UNL A   1      45.226  26.645  33.911  1.00  0.00     0.023 A 
ATOM     61  C   UNL A   1      46.452  27.336  33.924  1.00  0.00     0.012 A 
ATOM     62  C   UNL A   1      45.066  25.486  34.694  1.00  0.00     0.148 A 
ATOM     63  C   UNL A   1      47.506  26.885  34.716  1.00  0.00     0.002 A 
ATOM     64  C   UNL A   1      46.110  25.060  35.505  1.00  0.00     0.091 A 
ATOM     65  F   UNL A   1      43.885  24.852  34.659  1.00  0.00    -0.205 F 
ATOM     66  C   UNL A   1      47.331  25.757  35.515  1.00  0.00     0.022 A 
BRANCH  64  67
ATOM     67  S   UNL A   1      45.958  23.669  36.631  1.00  0.00     0.127 S 
ATOM     68  O   UNL A   1      44.871  24.110  37.504  1.00  0.00    -0.237 OA
ATOM     69  O   UNL A   1      45.610  22.578  35.724  1.00  0.00    -0.237 OA
ATOM     70  O   UNL A   1      47.253  23.534  37.286  1.00  0.00    -0.744 OA
ENDBRANCH  64  67
ENDBRANCH  37  60
ENDBRANCH  11  12
ENDBRANCH   4   6
ENDBRANCH   3   4
ENDBRANCH   2   3
ENDBRANCH   1   2
BRANCH   1  71
ATOM     71  O   UNL A   1      32.613  28.161  24.837  1.00  0.00    -0.374 OA
BRANCH  71  72
ATOM     72  C   UNL A   1      31.811  27.010  25.137  1.00  0.00     0.202 C 
BRANCH  72  73
ATOM     73  C   UNL A   1      32.065  26.380  26.513  1.00  0.00     0.261 C 
BRANCH  73  74
ATOM     74  O   UNL A   1      32.380  24.991  26.316  1.00  0.00    -0.459 OA
BRANCH  74  75
ATOM     75  C   UNL A   1      31.360  24.132  26.593  1.00  0.00     0.365 C 
ATOM     76  O   UNL A   1      30.218  24.458  26.880  1.00  0.00    -0.245 OA
BRANCH  75  77
ATOM     77  C   UNL A   1      31.813  22.709  26.258  1.00  0.00     0.298 C 
ATOM     78  C   UNL A   1      32.091  22.436  24.770  1.00  0.00     0.111 C 
ATOM     79  N   UNL A   1      32.867  22.308  27.249  1.00  0.00    -0.326 N 
ATOM     80  C   UNL A   1      32.421  20.972  24.649  1.00  0.00    -0.024 C 
ATOM     81  C   UNL A   1      33.820  21.268  26.734  1.00  0.00     0.243 C 
ATOM     82  H   UNL A   1      32.404  21.936  28.078  1.00  0.00     0.347 HD
ATOM     83  H   UNL A   1      33.418  23.142  27.450  1.00  0.00     0.347 HD
ATOM     84  C   UNL A   1      32.420  20.096  23.652  1.00  0.00     0.002 A 
ATOM     85  C   UNL A   1      32.918  20.307  25.907  1.00  0.00     0.196 C 
ATOM     86  C   UNL A   1      32.151  20.128  22.254  1.00  0.00     0.010 A 
ATOM     87  C   UNL A   1      32.944  18.872  24.305  1.00  0.00     0.066 A 
ATOM     88  N   UNL A   1      33.433  18.976  25.507  1.00  0.00    -0.270 NA
ATOM     89  C   UNL A   1      32.191  18.971  21.571  1.00  0.00     0.001 A 
ATOM     90  C   UNL A   1      32.849  17.625  23.517  1.00  0.00     0.028 A 
ATOM     91  C   UNL A   1      32.446  17.703  22.238  1.00  0.00     0.002 A 
BRANCH  81  92
ATOM     92  C   UNL A   1      35.029  21.971  26.093  1.00  0.00     0.012 A 
ATOM     93  C   UNL A   1      35.838  21.395  25.105  1.00  0.00     0.010 A 
ATOM     94  C   UNL A   1      35.308  23.309  26.451  1.00  0.00     0.010 A 
ATOM     95  C   UNL A   1      36.770  22.162  24.396  1.00  0.00     0.001 A 
ATOM     96  C   UNL A   1      36.238  24.075  25.749  1.00  0.00     0.001 A 
ATOM     97  C   UNL A   1      36.951  23.508  24.700  1.00  0.00     0.000 A 
ENDBRANCH  81  92
ENDBRANCH  75  77
ENDBRANCH  74  75
ENDBRANCH  73  74
ENDBRANCH  72  73
ENDBRANCH  71  72
ENDBRANCH   1  71
TORSDOF 18
ENDMDL
MODEL 3
REMARK VINA RESULT:     -12.6      5.185      9.958
REMARK SMILES O=C(OCCOCCOC(=O)[C@H]1CC2=c3ccccc3=N[C@H]2[C@@H](c2ccccc2)[NH2+]1)c1ccc(-c2c3nc(c(-c4cccc(S(=O)(=O)[O-])c4F)c4ccc([nH]4)c(-c4cccc(S(=O)(=O)[O-])c4F)c4nc(c(-c5cccc(S(=O)(=O)[O-])c5F)c5ccc2[nH]5)C=C4)C=C3)cc1
REMARK SMILES IDX 5 1 4 2 3 3 2 4 1 5 31 6 32 7 93 8 33 9 92 10 34 11 35 12
REMARK SMILES IDX 36 13 86 14 37 15 91 16 85 17 87 18 38 19 90 20 84 21 83 22
REMARK SMILES IDX 39 24 71 25 51 26 70 27 52 28 55 29 69 30 88 31 53 32 54 33
REMARK SMILES IDX 68 35 89 36 56 37 40 38 41 39 49 40 42 41 44 42 50 43 43 44
REMARK SMILES IDX 45 45 46 46 47 47 48 48 72 49 73 50 81 51 74 52 76 53 82 54
REMARK SMILES IDX 75 55 77 56 78 57 79 58 80 59 57 60 58 61 66 62 59 63 61 64
REMARK SMILES IDX 67 65 60 66 62 67 63 68 64 69 65 70 6 71 7 72 8 73 9 74
REMARK SMILES IDX 10 75 11 76 12 77 13 78 30 79 14 80 23 81 15 84 22 85 16 86
REMARK SMILES IDX 20 87 21 88 17 89 19 90 18 91 24 92 25 93 29 94 26 95 28 96
REMARK SMILES IDX 27 97
REMARK H PARENT 87 23 55 34 30 82 30 83
REMARK Flexibility Score: inf
ROOT
ATOM      1  C   UNL A   1      31.781  29.478  25.627  1.00  0.00     0.202 C 
ENDROOT
BRANCH   1   2
ATOM      2  C   UNL A   1      33.231  29.858  25.950  1.00  0.00     0.261 C 
BRANCH   2   3
ATOM      3  O   UNL A   1      33.526  30.033  27.341  1.00  0.00    -0.460 OA
BRANCH   3   4
ATOM      4  C   UNL A   1      34.514  30.791  27.881  1.00  0.00     0.338 C 
ATOM      5  O   UNL A   1      34.405  32.016  27.828  1.00  0.00    -0.246 OA
BRANCH   4   6
ATOM      6  C   UNL A   1      35.813  30.217  28.355  1.00  0.00     0.060 A 
ATOM      7  C   UNL A   1      36.893  30.295  27.454  1.00  0.00     0.016 A 
ATOM      8  C   UNL A   1      36.044  29.641  29.607  1.00  0.00     0.016 A 
ATOM      9  C   UNL A   1      38.150  29.780  27.786  1.00  0.00     0.010 A 
ATOM     10  C   UNL A   1      37.287  29.100  29.933  1.00  0.00     0.010 A 
ATOM     11  C   UNL A   1      38.346  29.171  29.029  1.00  0.00    -0.014 A 
BRANCH  11  12
ATOM     12  C   UNL A   1      39.686  28.746  29.474  1.00  0.00     0.031 A 
ATOM     13  C   UNL A   1      40.415  29.485  30.550  1.00  0.00     0.074 A 
ATOM     14  C   UNL A   1      40.275  27.745  28.796  1.00  0.00     0.049 A 
ATOM     15  N   UNL A   1      41.563  29.195  31.101  1.00  0.00    -0.248 NA
ATOM     16  C   UNL A   1      39.791  30.714  31.066  1.00  0.00     0.031 C 
ATOM     17  C   UNL A   1      39.680  27.047  27.653  1.00  0.00     0.029 A 
ATOM     18  N   UNL A   1      41.503  27.159  28.945  1.00  0.00    -0.354 N 
ATOM     19  C   UNL A   1      41.806  30.202  32.024  1.00  0.00     0.074 A 
ATOM     20  C   UNL A   1      40.696  31.127  31.948  1.00  0.00     0.031 C 
ATOM     21  C   UNL A   1      40.544  26.123  27.206  1.00  0.00     0.029 A 
ATOM     22  C   UNL A   1      41.743  26.157  28.036  1.00  0.00     0.049 A 
ATOM     23  H   UNL A   1      42.151  27.429  29.636  1.00  0.00     0.167 HD
ATOM     24  C   UNL A   1      42.855  30.318  32.871  1.00  0.00     0.034 A 
ATOM     25  C   UNL A   1      42.802  25.337  27.906  1.00  0.00     0.034 A 
ATOM     26  C   UNL A   1      43.934  29.370  32.935  1.00  0.00     0.049 A 
ATOM     27  C   UNL A   1      43.923  25.447  28.896  1.00  0.00     0.074 A 
ATOM     28  C   UNL A   1      44.976  29.314  33.842  1.00  0.00     0.029 A 
ATOM     29  N   UNL A   1      44.118  28.323  32.044  1.00  0.00    -0.354 N 
ATOM     30  N   UNL A   1      44.038  26.274  29.908  1.00  0.00    -0.248 NA
ATOM     31  C   UNL A   1      45.036  24.500  28.759  1.00  0.00     0.031 C 
ATOM     32  C   UNL A   1      45.803  28.243  33.488  1.00  0.00     0.029 A 
ATOM     33  C   UNL A   1      45.269  27.628  32.366  1.00  0.00     0.049 A 
ATOM     34  H   UNL A   1      43.519  28.107  31.293  1.00  0.00     0.167 HD
ATOM     35  C   UNL A   1      45.224  25.935  30.544  1.00  0.00     0.074 A 
ATOM     36  C   UNL A   1      45.790  24.822  29.806  1.00  0.00     0.031 C 
ATOM     37  C   UNL A   1      45.794  26.501  31.635  1.00  0.00     0.034 A 
BRANCH  24  38
ATOM     38  C   UNL A   1      42.862  31.457  33.852  1.00  0.00     0.023 A 
ATOM     39  C   UNL A   1      43.360  32.710  33.437  1.00  0.00     0.012 A 
ATOM     40  C   UNL A   1      42.275  31.332  35.126  1.00  0.00     0.148 A 
ATOM     41  C   UNL A   1      43.281  33.819  34.279  1.00  0.00     0.002 A 
ATOM     42  C   UNL A   1      42.177  32.448  35.950  1.00  0.00     0.091 A 
ATOM     43  F   UNL A   1      41.817  30.129  35.502  1.00  0.00    -0.205 F 
ATOM     44  C   UNL A   1      42.682  33.691  35.529  1.00  0.00     0.022 A 
BRANCH  42  45
ATOM     45  S   UNL A   1      41.378  32.409  37.559  1.00  0.00     0.127 S 
ATOM     46  O   UNL A   1      40.039  31.933  37.210  1.00  0.00    -0.237 OA
ATOM     47  O   UNL A   1      42.199  31.441  38.286  1.00  0.00    -0.237 OA
ATOM     48  O   UNL A   1      41.436  33.770  38.073  1.00  0.00    -0.744 OA
ENDBRANCH  42  45
ENDBRANCH  24  38
BRANCH  25  49
ATOM     49  C   UNL A   1      42.746  24.263  26.880  1.00  0.00     0.023 A 
ATOM     50  C   UNL A   1      43.451  24.444  25.676  1.00  0.00     0.012 A 
ATOM     51  C   UNL A   1      42.138  23.022  27.149  1.00  0.00     0.148 A 
ATOM     52  C   UNL A   1      43.555  23.403  24.753  1.00  0.00     0.002 A 
ATOM     53  C   UNL A   1      42.273  21.978  26.240  1.00  0.00     0.091 A 
ATOM     54  F   UNL A   1      41.482  22.876  28.309  1.00  0.00    -0.205 F 
ATOM     55  C   UNL A   1      42.978  22.169  25.040  1.00  0.00     0.022 A 
BRANCH  53  56
ATOM     56  S   UNL A   1      41.665  20.318  26.565  1.00  0.00     0.127 S 
ATOM     57  O   UNL A   1      40.219  20.531  26.592  1.00  0.00    -0.237 OA
ATOM     58  O   UNL A   1      42.158  19.585  25.399  1.00  0.00    -0.237 OA
ATOM     59  O   UNL A   1      42.262  19.918  27.831  1.00  0.00    -0.744 OA
ENDBRANCH  53  56
ENDBRANCH  25  49
BRANCH  37  60
ATOM     60  C   UNL A   1      47.105  25.949  32.114  1.00  0.00     0.023 A 
ATOM     61  C   UNL A   1      48.299  26.493  31.604  1.00  0.00     0.012 A 
ATOM     62  C   UNL A   1      47.152  25.028  33.178  1.00  0.00     0.148 A 
ATOM     63  C   UNL A   1      49.528  26.131  32.154  1.00  0.00     0.002 A 
ATOM     64  C   UNL A   1      48.377  24.697  33.742  1.00  0.00     0.091 A 
ATOM     65  F   UNL A   1      45.996  24.530  33.640  1.00  0.00    -0.205 F 
ATOM     66  C   UNL A   1      49.565  25.245  33.229  1.00  0.00     0.022 A 
BRANCH  64  67
ATOM     67  S   UNL A   1      48.527  23.631  35.179  1.00  0.00     0.127 S 
ATOM     68  O   UNL A   1      49.978  23.579  35.360  1.00  0.00    -0.237 OA
ATOM     69  O   UNL A   1      47.811  24.392  36.201  1.00  0.00    -0.237 OA
ATOM     70  O   UNL A   1      47.910  22.364  34.811  1.00  0.00    -0.744 OA
ENDBRANCH  64  67
ENDBRANCH  37  60
ENDBRANCH  11  12
ENDBRANCH   4   6
ENDBRANCH   3   4
ENDBRANCH   2   3
ENDBRANCH   1   2
BRANCH   1  71
ATOM     71  O   UNL A   1      31.560  28.505  24.614  1.00  0.00    -0.374 OA
BRANCH  71  72
ATOM     72  C   UNL A   1      32.145  27.208  24.807  1.00  0.00     0.202 C 
BRANCH  72  73
ATOM     73  C   UNL A   1      31.739  26.497  26.105  1.00  0.00     0.261 C 
BRANCH  73  74
ATOM     74  O   UNL A   1      32.107  25.112  25.989  1.00  0.00    -0.459 OA
BRANCH  74  75
ATOM     75  C   UNL A   1      31.171  24.235  26.448  1.00  0.00     0.365 C 
ATOM     76  O   UNL A   1      30.056  24.534  26.847  1.00  0.00    -0.245 OA
BRANCH  75  77
ATOM     77  C   UNL A   1      31.654  22.811  26.164  1.00  0.00     0.298 C 
ATOM     78  C   UNL A   1      31.967  22.500  24.690  1.00  0.00     0.111 C 
ATOM     79  N   UNL A   1      32.694  22.457  27.187  1.00  0.00    -0.326 N 
ATOM     80  C   UNL A   1      32.323  21.039  24.618  1.00  0.00    -0.024 C 
ATOM     81  C   UNL A   1      33.674  21.419  26.721  1.00  0.00     0.243 C 
ATOM     82  H   UNL A   1      32.221  22.101  28.017  1.00  0.00     0.347 HD
ATOM     83  H   UNL A   1      33.228  23.306  27.374  1.00  0.00     0.347 HD
ATOM     84  C   UNL A   1      32.356  20.135  23.648  1.00  0.00     0.002 A 
ATOM     85  C   UNL A   1      32.805  20.419  25.905  1.00  0.00     0.196 C 
ATOM     86  C   UNL A   1      32.115  20.122  22.244  1.00  0.00     0.010 A 
ATOM     87  C   UNL A   1      32.886  18.939  24.346  1.00  0.00     0.066 A 
ATOM     88  N   UNL A   1      33.349  19.086  25.554  1.00  0.00    -0.270 NA
ATOM     89  C   UNL A   1      32.188  18.946  21.596  1.00  0.00     0.001 A 
ATOM     90  C   UNL A   1      32.828  17.669  23.594  1.00  0.00     0.028 A 
ATOM     91  C   UNL A   1      32.450  17.702  22.305  1.00  0.00     0.002 A 
BRANCH  81  92
ATOM     92  C   UNL A   1      34.884  22.123  26.084  1.00  0.00     0.012 A 
ATOM     93  C   UNL A   1      35.147  23.494  26.206  1.00  0.00     0.010 A 
ATOM     94  C   UNL A   1      35.842  21.344  25.396  1.00  0.00     0.010 A 
ATOM     95  C   UNL A   1      36.377  24.031  25.807  1.00  0.00     0.001 A 
ATOM     96  C   UNL A   1      37.067  21.878  24.996  1.00  0.00     0.001 A 
ATOM     97  C   UNL A   1      37.347  23.219  25.227  1.00  0.00     0.000 A 
ENDBRANCH  81  92
ENDBRANCH  75  77
ENDBRANCH  74  75
ENDBRANCH  73  74
ENDBRANCH  72  73
ENDBRANCH  71  72
ENDBRANCH   1  71
TORSDOF 18
ENDMDL
