MODEL 1
REMARK VINA RESULT:      -9.3      0.000      0.000
REMARK SMILES C[C@@H](C(=O)OCCOCCOC(=O)c1ccc(-c2c3nc(c(-c4cccc(S(=O)(=O)[O-])c4F)c4ccc([nH]4)c(-c4cccc(S(=O)(=O)[O-])c4F)c4nc(c(-c5cccc(S(=O)(=O)[O-])c5F)c5ccc2[nH]5)C=C4)C=C3)cc1)c1cc(/C=C/S(C)(=O)=O)cc(C(=O)c2ccccc2)c1
REMARK SMILES IDX 8 1 7 2 6 3 5 4 3 5 4 6 2 7 1 8 77 9 78 10 96 11 79 12 87 13
REMARK SMILES IDX 86 14 80 15 81 16 82 17 83 18 84 19 85 20 88 21 89 22 90 23
REMARK SMILES IDX 91 24 95 25 92 26 94 27 93 28 9 29 10 30 11 31 12 32 13 33
REMARK SMILES IDX 14 34 15 35 76 36 16 37 75 38 17 39 18 40 19 41 69 42 20 43
REMARK SMILES IDX 74 44 68 45 70 46 21 47 73 48 67 49 66 50 22 52 54 53 34 54
REMARK SMILES IDX 53 55 35 56 38 57 52 58 71 59 36 60 37 61 51 63 72 64 39 65
REMARK SMILES IDX 23 66 24 67 32 68 25 69 27 70 33 71 26 72 28 73 29 74 30 75
REMARK SMILES IDX 31 76 55 77 56 78 64 79 57 80 59 81 65 82 58 83 60 84 61 85
REMARK SMILES IDX 62 86 63 87 40 88 41 89 49 90 42 91 44 92 50 93 43 94 45 95
REMARK SMILES IDX 46 96 47 97 48 98
REMARK H PARENT 70 51 38 62
REMARK Flexibility Score: inf
ROOT
ATOM      1  O   UNL A   1      35.626  21.682  24.278  1.00  0.00    -0.374 OA
ENDROOT
BRANCH   1   2
ATOM      2  C   UNL A   1      34.492  22.299  23.658  1.00  0.00     0.202 C 
BRANCH   2   3
ATOM      3  C   UNL A   1      34.208  23.752  24.052  1.00  0.00     0.261 C 
BRANCH   3   4
ATOM      4  O   UNL A   1      32.919  23.859  24.687  1.00  0.00    -0.463 OA
BRANCH   4   5
ATOM      5  C   UNL A   1      32.935  24.242  25.990  1.00  0.00     0.313 C 
ATOM      6  O   UNL A   1      33.750  23.844  26.817  1.00  0.00    -0.252 OA
BRANCH   5   7
ATOM      7  C   UNL A   1      31.873  25.311  26.316  1.00  0.00     0.126 C 
ATOM      8  C   UNL A   1      30.448  24.977  25.877  1.00  0.00     0.025 C 
BRANCH   7   9
ATOM      9  C   UNL A   1      32.385  26.673  25.835  1.00  0.00    -0.033 A 
ATOM     10  C   UNL A   1      33.269  27.485  26.566  1.00  0.00     0.012 A 
ATOM     11  C   UNL A   1      31.788  27.207  24.687  1.00  0.00     0.016 A 
ATOM     12  C   UNL A   1      33.493  28.830  26.216  1.00  0.00    -0.024 A 
ATOM     13  C   UNL A   1      31.979  28.544  24.327  1.00  0.00     0.023 A 
ATOM     14  C   UNL A   1      32.840  29.345  25.084  1.00  0.00     0.020 A 
BRANCH  12  15
ATOM     15  C   UNL A   1      34.330  29.757  27.010  1.00  0.00     0.020 C 
ATOM     16  C   UNL A   1      33.949  30.946  27.502  1.00  0.00     0.106 C 
BRANCH  16  17
ATOM     17  S   UNL A   1      35.090  31.945  28.358  1.00  0.00     0.168 S 
ATOM     18  C   UNL A   1      36.547  30.927  28.338  1.00  0.00     0.163 C 
ATOM     19  O   UNL A   1      35.371  33.110  27.543  1.00  0.00    -0.225 OA
ATOM     20  O   UNL A   1      34.694  32.095  29.748  1.00  0.00    -0.225 OA
ENDBRANCH  16  17
ENDBRANCH  12  15
BRANCH  13  21
ATOM     21  C   UNL A   1      31.253  29.136  23.166  1.00  0.00     0.193 C 
ATOM     22  O   UNL A   1      31.793  29.221  22.067  1.00  0.00    -0.289 OA
BRANCH  21  23
ATOM     23  C   UNL A   1      29.850  29.585  23.322  1.00  0.00     0.022 A 
ATOM     24  C   UNL A   1      29.614  30.894  23.750  1.00  0.00     0.012 A 
ATOM     25  C   UNL A   1      28.780  28.751  22.971  1.00  0.00     0.012 A 
ATOM     26  C   UNL A   1      28.310  31.385  23.779  1.00  0.00     0.001 A 
ATOM     27  C   UNL A   1      27.478  29.249  22.999  1.00  0.00     0.001 A 
ATOM     28  C   UNL A   1      27.245  30.567  23.394  1.00  0.00     0.000 A 
ENDBRANCH  21  23
ENDBRANCH  13  21
ENDBRANCH   7   9
ENDBRANCH   5   7
ENDBRANCH   4   5
ENDBRANCH   3   4
ENDBRANCH   2   3
ENDBRANCH   1   2
BRANCH   1  29
ATOM     29  C   UNL A   1      36.750  22.513  24.548  1.00  0.00     0.202 C 
BRANCH  29  30
ATOM     30  C   UNL A   1      37.044  22.843  26.017  1.00  0.00     0.261 C 
BRANCH  30  31
ATOM     31  O   UNL A   1      38.175  23.711  26.176  1.00  0.00    -0.460 OA
BRANCH  31  32
ATOM     32  C   UNL A   1      39.284  23.096  26.653  1.00  0.00     0.338 C 
ATOM     33  O   UNL A   1      39.476  21.888  26.730  1.00  0.00    -0.246 OA
BRANCH  32  34
ATOM     34  C   UNL A   1      40.349  24.082  26.906  1.00  0.00     0.060 A 
ATOM     35  C   UNL A   1      41.153  23.876  28.035  1.00  0.00     0.016 A 
ATOM     36  C   UNL A   1      40.522  25.212  26.106  1.00  0.00     0.016 A 
ATOM     37  C   UNL A   1      42.098  24.829  28.402  1.00  0.00     0.010 A 
ATOM     38  C   UNL A   1      41.467  26.175  26.483  1.00  0.00     0.010 A 
ATOM     39  C   UNL A   1      42.229  26.005  27.653  1.00  0.00    -0.014 A 
BRANCH  39  40
ATOM     40  C   UNL A   1      43.054  27.114  28.188  1.00  0.00     0.031 A 
ATOM     41  C   UNL A   1      42.375  28.234  28.928  1.00  0.00     0.074 A 
ATOM     42  C   UNL A   1      44.391  27.109  28.041  1.00  0.00     0.049 A 
ATOM     43  N   UNL A   1      42.901  29.293  29.487  1.00  0.00    -0.248 NA
ATOM     44  C   UNL A   1      40.911  28.150  29.055  1.00  0.00     0.031 C 
ATOM     45  C   UNL A   1      45.160  26.076  27.349  1.00  0.00     0.029 A 
ATOM     46  N   UNL A   1      45.334  28.016  28.451  1.00  0.00    -0.354 N 
ATOM     47  C   UNL A   1      41.833  30.012  30.011  1.00  0.00     0.074 A 
ATOM     48  C   UNL A   1      40.629  29.278  29.691  1.00  0.00     0.031 C 
ATOM     49  C   UNL A   1      46.459  26.421  27.359  1.00  0.00     0.029 A 
ATOM     50  C   UNL A   1      46.609  27.706  28.042  1.00  0.00     0.049 A 
ATOM     51  H   UNL A   1      45.119  28.813  28.988  1.00  0.00     0.167 HD
ATOM     52  C   UNL A   1      41.855  31.170  30.712  1.00  0.00     0.034 A 
ATOM     53  C   UNL A   1      47.762  28.390  28.187  1.00  0.00     0.034 A 
ATOM     54  C   UNL A   1      43.054  31.887  31.048  1.00  0.00     0.049 A 
ATOM     55  C   UNL A   1      47.756  29.686  28.954  1.00  0.00     0.074 A 
ATOM     56  C   UNL A   1      43.183  33.045  31.795  1.00  0.00     0.029 A 
ATOM     57  N   UNL A   1      44.331  31.523  30.651  1.00  0.00    -0.354 N 
ATOM     58  N   UNL A   1      46.755  30.290  29.550  1.00  0.00    -0.248 NA
ATOM     59  C   UNL A   1      49.045  30.380  29.099  1.00  0.00     0.031 C 
ATOM     60  C   UNL A   1      44.538  33.392  31.829  1.00  0.00     0.029 A 
ATOM     61  C   UNL A   1      45.254  32.438  31.125  1.00  0.00     0.049 A 
ATOM     62  H   UNL A   1      44.549  30.729  30.111  1.00  0.00     0.167 HD
ATOM     63  C   UNL A   1      47.298  31.411  30.168  1.00  0.00     0.074 A 
ATOM     64  C   UNL A   1      48.720  31.394  29.891  1.00  0.00     0.031 C 
ATOM     65  C   UNL A   1      46.674  32.378  30.888  1.00  0.00     0.034 A 
BRANCH  52  66
ATOM     66  C   UNL A   1      40.538  31.719  31.192  1.00  0.00     0.023 A 
ATOM     67  C   UNL A   1      39.741  32.483  30.315  1.00  0.00     0.012 A 
ATOM     68  C   UNL A   1      40.066  31.437  32.488  1.00  0.00     0.148 A 
ATOM     69  C   UNL A   1      38.508  32.982  30.730  1.00  0.00     0.002 A 
ATOM     70  C   UNL A   1      38.817  31.904  32.881  1.00  0.00     0.091 A 
ATOM     71  F   UNL A   1      40.851  30.732  33.315  1.00  0.00    -0.205 F 
ATOM     72  C   UNL A   1      38.041  32.684  32.008  1.00  0.00     0.022 A 
BRANCH  70  73
ATOM     73  S   UNL A   1      38.098  31.512  34.481  1.00  0.00     0.127 S 
ATOM     74  O   UNL A   1      38.169  30.052  34.485  1.00  0.00    -0.237 OA
ATOM     75  O   UNL A   1      39.023  32.170  35.404  1.00  0.00    -0.237 OA
ATOM     76  O   UNL A   1      36.755  32.074  34.464  1.00  0.00    -0.744 OA
ENDBRANCH  70  73
ENDBRANCH  52  66
BRANCH  53  77
ATOM     77  C   UNL A   1      49.028  27.840  27.624  1.00  0.00     0.023 A 
ATOM     78  C   UNL A   1      49.910  27.126  28.457  1.00  0.00     0.012 A 
ATOM     79  C   UNL A   1      49.349  28.001  26.262  1.00  0.00     0.148 A 
ATOM     80  C   UNL A   1      51.102  26.607  27.951  1.00  0.00     0.002 A 
ATOM     81  C   UNL A   1      50.510  27.434  25.752  1.00  0.00     0.091 A 
ATOM     82  F   UNL A   1      48.506  28.701  25.490  1.00  0.00    -0.205 F 
ATOM     83  C   UNL A   1      51.397  26.750  26.598  1.00  0.00     0.022 A 
BRANCH  81  84
ATOM     84  S   UNL A   1      50.898  27.455  23.998  1.00  0.00     0.127 S 
ATOM     85  O   UNL A   1      51.258  28.854  23.787  1.00  0.00    -0.237 OA
ATOM     86  O   UNL A   1      52.015  26.511  23.924  1.00  0.00    -0.237 OA
ATOM     87  O   UNL A   1      49.689  27.001  23.324  1.00  0.00    -0.744 OA
ENDBRANCH  81  84
ENDBRANCH  53  77
BRANCH  65  88
ATOM     88  C   UNL A   1      47.521  33.484  31.459  1.00  0.00     0.023 A 
ATOM     89  C   UNL A   1      47.733  34.659  30.712  1.00  0.00     0.012 A 
ATOM     90  C   UNL A   1      48.039  33.392  32.767  1.00  0.00     0.148 A 
ATOM     91  C   UNL A   1      48.471  35.715  31.247  1.00  0.00     0.002 A 
ATOM     92  C   UNL A   1      48.734  34.467  33.309  1.00  0.00     0.091 A 
ATOM     93  F   UNL A   1      47.842  32.258  33.454  1.00  0.00    -0.205 F 
ATOM     94  C   UNL A   1      48.961  35.624  32.547  1.00  0.00     0.022 A 
BRANCH  92  95
ATOM     95  S   UNL A   1      49.317  34.473  35.009  1.00  0.00     0.127 S 
ATOM     96  O   UNL A   1      49.890  35.813  35.122  1.00  0.00    -0.237 OA
ATOM     97  O   UNL A   1      48.079  34.273  35.764  1.00  0.00    -0.237 OA
ATOM     98  O   UNL A   1      50.267  33.373  35.110  1.00  0.00    -0.744 OA
ENDBRANCH  92  95
ENDBRANCH  65  88
ENDBRANCH  39  40
ENDBRANCH  32  34
ENDBRANCH  31  32
ENDBRANCH  30  31
ENDBRANCH  29  30
ENDBRANCH   1  29
TORSDOF 22
ENDMDL
MODEL 2
REMARK VINA RESULT:      -9.2      4.490      9.238
REMARK SMILES C[C@@H](C(=O)OCCOCCOC(=O)c1ccc(-c2c3nc(c(-c4cccc(S(=O)(=O)[O-])c4F)c4ccc([nH]4)c(-c4cccc(S(=O)(=O)[O-])c4F)c4nc(c(-c5cccc(S(=O)(=O)[O-])c5F)c5ccc2[nH]5)C=C4)C=C3)cc1)c1cc(/C=C/S(C)(=O)=O)cc(C(=O)c2ccccc2)c1
REMARK SMILES IDX 8 1 7 2 6 3 5 4 3 5 4 6 2 7 1 8 77 9 78 10 96 11 79 12 87 13
REMARK SMILES IDX 86 14 80 15 81 16 82 17 83 18 84 19 85 20 88 21 89 22 90 23
REMARK SMILES IDX 91 24 95 25 92 26 94 27 93 28 9 29 10 30 11 31 12 32 13 33
REMARK SMILES IDX 14 34 15 35 76 36 16 37 75 38 17 39 18 40 19 41 69 42 20 43
REMARK SMILES IDX 74 44 68 45 70 46 21 47 73 48 67 49 66 50 22 52 54 53 34 54
REMARK SMILES IDX 53 55 35 56 38 57 52 58 71 59 36 60 37 61 51 63 72 64 39 65
REMARK SMILES IDX 23 66 24 67 32 68 25 69 27 70 33 71 26 72 28 73 29 74 30 75
REMARK SMILES IDX 31 76 55 77 56 78 64 79 57 80 59 81 65 82 58 83 60 84 61 85
REMARK SMILES IDX 62 86 63 87 40 88 41 89 49 90 42 91 44 92 50 93 43 94 45 95
REMARK SMILES IDX 46 96 47 97 48 98
REMARK H PARENT 70 51 38 62
REMARK Flexibility Score: inf
ROOT
ATOM      1  O   UNL A   1      36.533  30.911  28.803  1.00  0.00    -0.374 OA
ENDROOT
BRANCH   1   2
ATOM      2  C   UNL A   1      35.716  32.081  28.686  1.00  0.00     0.202 C 
BRANCH   2   3
ATOM      3  C   UNL A   1      34.252  31.853  28.296  1.00  0.00     0.261 C 
BRANCH   3   4
ATOM      4  O   UNL A   1      34.169  31.067  27.091  1.00  0.00    -0.463 OA
BRANCH   4   5
ATOM      5  C   UNL A   1      33.257  30.061  27.107  1.00  0.00     0.313 C 
ATOM      6  O   UNL A   1      32.105  30.179  27.518  1.00  0.00    -0.252 OA
BRANCH   5   7
ATOM      7  C   UNL A   1      33.784  28.761  26.469  1.00  0.00     0.126 C 
ATOM      8  C   UNL A   1      35.302  28.587  26.488  1.00  0.00     0.025 C 
BRANCH   7   9
ATOM      9  C   UNL A   1      33.141  28.598  25.088  1.00  0.00    -0.033 A 
ATOM     10  C   UNL A   1      32.085  29.393  24.611  1.00  0.00     0.012 A 
ATOM     11  C   UNL A   1      33.513  27.473  24.342  1.00  0.00     0.016 A 
ATOM     12  C   UNL A   1      31.353  29.035  23.462  1.00  0.00    -0.024 A 
ATOM     13  C   UNL A   1      32.794  27.085  23.208  1.00  0.00     0.023 A 
ATOM     14  C   UNL A   1      31.727  27.873  22.766  1.00  0.00     0.020 A 
BRANCH  12  15
ATOM     15  C   UNL A   1      30.169  29.778  22.978  1.00  0.00     0.020 C 
ATOM     16  C   UNL A   1      29.482  30.707  23.660  1.00  0.00     0.106 C 
BRANCH  16  17
ATOM     17  S   UNL A   1      28.063  31.435  22.961  1.00  0.00     0.168 S 
ATOM     18  C   UNL A   1      27.966  30.602  21.394  1.00  0.00     0.163 C 
ATOM     19  O   UNL A   1      26.913  31.019  23.739  1.00  0.00    -0.225 OA
ATOM     20  O   UNL A   1      28.295  32.841  22.682  1.00  0.00    -0.225 OA
ENDBRANCH  16  17
ENDBRANCH  12  15
BRANCH  13  21
ATOM     21  C   UNL A   1      33.127  25.824  22.484  1.00  0.00     0.193 C 
ATOM     22  O   UNL A   1      33.701  25.859  21.400  1.00  0.00    -0.289 OA
BRANCH  21  23
ATOM     23  C   UNL A   1      32.808  24.512  23.094  1.00  0.00     0.022 A 
ATOM     24  C   UNL A   1      33.798  23.526  23.107  1.00  0.00     0.012 A 
ATOM     25  C   UNL A   1      31.574  24.286  23.716  1.00  0.00     0.012 A 
ATOM     26  C   UNL A   1      33.571  22.332  23.789  1.00  0.00     0.001 A 
ATOM     27  C   UNL A   1      31.354  23.090  24.399  1.00  0.00     0.001 A 
ATOM     28  C   UNL A   1      32.355  22.119  24.442  1.00  0.00     0.000 A 
ENDBRANCH  21  23
ENDBRANCH  13  21
ENDBRANCH   7   9
ENDBRANCH   5   7
ENDBRANCH   4   5
ENDBRANCH   3   4
ENDBRANCH   2   3
ENDBRANCH   1   2
BRANCH   1  29
ATOM     29  C   UNL A   1      36.097  29.903  29.709  1.00  0.00     0.202 C 
BRANCH  29  30
ATOM     30  C   UNL A   1      36.337  30.149  31.204  1.00  0.00     0.261 C 
BRANCH  30  31
ATOM     31  O   UNL A   1      37.448  29.402  31.719  1.00  0.00    -0.460 OA
BRANCH  31  32
ATOM     32  C   UNL A   1      38.261  30.111  32.538  1.00  0.00     0.338 C 
ATOM     33  O   UNL A   1      38.083  30.341  33.728  1.00  0.00    -0.246 OA
BRANCH  32  34
ATOM     34  C   UNL A   1      39.527  30.431  31.853  1.00  0.00     0.060 A 
ATOM     35  C   UNL A   1      40.552  30.979  32.633  1.00  0.00     0.016 A 
ATOM     36  C   UNL A   1      39.691  30.262  30.477  1.00  0.00     0.016 A 
ATOM     37  C   UNL A   1      41.729  31.415  32.033  1.00  0.00     0.010 A 
ATOM     38  C   UNL A   1      40.873  30.710  29.873  1.00  0.00     0.010 A 
ATOM     39  C   UNL A   1      41.878  31.324  30.643  1.00  0.00    -0.014 A 
BRANCH  39  40
ATOM     40  C   UNL A   1      43.017  32.011  29.991  1.00  0.00     0.031 A 
ATOM     41  C   UNL A   1      44.269  31.229  29.701  1.00  0.00     0.074 A 
ATOM     42  C   UNL A   1      42.928  33.306  29.638  1.00  0.00     0.049 A 
ATOM     43  N   UNL A   1      45.377  31.625  29.130  1.00  0.00    -0.248 NA
ATOM     44  C   UNL A   1      44.274  29.814  30.107  1.00  0.00     0.031 C 
ATOM     45  C   UNL A   1      41.766  34.163  29.863  1.00  0.00     0.029 A 
ATOM     46  N   UNL A   1      43.844  34.128  29.032  1.00  0.00    -0.354 N 
ATOM     47  C   UNL A   1      46.217  30.518  29.129  1.00  0.00     0.074 A 
ATOM     48  C   UNL A   1      45.499  29.438  29.770  1.00  0.00     0.031 C 
ATOM     49  C   UNL A   1      42.049  35.402  29.423  1.00  0.00     0.029 A 
ATOM     50  C   UNL A   1      43.415  35.428  28.904  1.00  0.00     0.049 A 
ATOM     51  H   UNL A   1      44.724  33.817  28.718  1.00  0.00     0.167 HD
ATOM     52  C   UNL A   1      47.469  30.405  28.624  1.00  0.00     0.034 A 
ATOM     53  C   UNL A   1      44.060  36.516  28.438  1.00  0.00     0.034 A 
ATOM     54  C   UNL A   1      48.173  31.472  27.968  1.00  0.00     0.049 A 
ATOM     55  C   UNL A   1      45.459  36.368  27.900  1.00  0.00     0.074 A 
ATOM     56  C   UNL A   1      49.427  31.443  27.382  1.00  0.00     0.029 A 
ATOM     57  N   UNL A   1      47.693  32.764  27.822  1.00  0.00    -0.354 N 
ATOM     58  N   UNL A   1      46.193  35.286  27.794  1.00  0.00    -0.248 NA
ATOM     59  C   UNL A   1      46.107  37.583  27.385  1.00  0.00     0.031 C 
ATOM     60  C   UNL A   1      49.712  32.725  26.901  1.00  0.00     0.029 A 
ATOM     61  C   UNL A   1      48.628  33.545  27.166  1.00  0.00     0.049 A 
ATOM     62  H   UNL A   1      46.816  33.079  28.138  1.00  0.00     0.167 HD
ATOM     63  C   UNL A   1      47.372  35.683  27.170  1.00  0.00     0.074 A 
ATOM     64  C   UNL A   1      47.246  37.101  26.904  1.00  0.00     0.031 C 
ATOM     65  C   UNL A   1      48.466  34.944  26.859  1.00  0.00     0.034 A 
BRANCH  52  66
ATOM     66  C   UNL A   1      48.146  29.065  28.733  1.00  0.00     0.023 A 
ATOM     67  C   UNL A   1      48.901  28.758  29.883  1.00  0.00     0.012 A 
ATOM     68  C   UNL A   1      47.993  28.093  27.725  1.00  0.00     0.148 A 
ATOM     69  C   UNL A   1      49.518  27.515  30.016  1.00  0.00     0.002 A 
ATOM     70  C   UNL A   1      48.577  26.841  27.884  1.00  0.00     0.091 A 
ATOM     71  F   UNL A   1      47.293  28.414  26.628  1.00  0.00    -0.205 F 
ATOM     72  C   UNL A   1      49.347  26.554  29.023  1.00  0.00     0.022 A 
BRANCH  70  73
ATOM     73  S   UNL A   1      48.355  25.514  26.693  1.00  0.00     0.127 S 
ATOM     74  O   UNL A   1      49.099  26.023  25.543  1.00  0.00    -0.237 OA
ATOM     75  O   UNL A   1      48.983  24.381  27.374  1.00  0.00    -0.237 OA
ATOM     76  O   UNL A   1      46.917  25.385  26.502  1.00  0.00    -0.744 OA
ENDBRANCH  70  73
ENDBRANCH  52  66
BRANCH  53  77
ATOM     77  C   UNL A   1      43.371  37.838  28.424  1.00  0.00     0.023 A 
ATOM     78  C   UNL A   1      42.506  38.163  27.362  1.00  0.00     0.012 A 
ATOM     79  C   UNL A   1      43.552  38.763  29.470  1.00  0.00     0.148 A 
ATOM     80  C   UNL A   1      41.856  39.397  27.328  1.00  0.00     0.002 A 
ATOM     81  C   UNL A   1      42.858  39.967  29.459  1.00  0.00     0.091 A 
ATOM     82  F   UNL A   1      44.396  38.444  30.462  1.00  0.00    -0.205 F 
ATOM     83  C   UNL A   1      42.021  40.293  28.380  1.00  0.00     0.022 A 
BRANCH  81  84
ATOM     84  S   UNL A   1      42.909  41.118  30.837  1.00  0.00     0.127 S 
ATOM     85  O   UNL A   1      41.803  42.016  30.519  1.00  0.00    -0.237 OA
ATOM     86  O   UNL A   1      42.677  40.232  31.980  1.00  0.00    -0.237 OA
ATOM     87  O   UNL A   1      44.239  41.710  30.803  1.00  0.00    -0.744 OA
ENDBRANCH  81  84
ENDBRANCH  53  77
BRANCH  65  88
ATOM     88  C   UNL A   1      49.608  35.639  26.165  1.00  0.00     0.023 A 
ATOM     89  C   UNL A   1      49.552  35.859  24.775  1.00  0.00     0.012 A 
ATOM     90  C   UNL A   1      50.698  36.144  26.902  1.00  0.00     0.148 A 
ATOM     91  C   UNL A   1      50.576  36.547  24.125  1.00  0.00     0.002 A 
ATOM     92  C   UNL A   1      51.691  36.869  26.254  1.00  0.00     0.091 A 
ATOM     93  F   UNL A   1      50.742  35.907  28.222  1.00  0.00    -0.205 F 
ATOM     94  C   UNL A   1      51.638  37.062  24.865  1.00  0.00     0.022 A 
BRANCH  92  95
ATOM     95  S   UNL A   1      53.045  37.649  27.142  1.00  0.00     0.127 S 
ATOM     96  O   UNL A   1      52.329  38.534  28.060  1.00  0.00    -0.237 OA
ATOM     97  O   UNL A   1      53.697  36.506  27.781  1.00  0.00    -0.237 OA
ATOM     98  O   UNL A   1      53.854  38.316  26.131  1.00  0.00    -0.744 OA
ENDBRANCH  92  95
ENDBRANCH  65  88
ENDBRANCH  39  40
ENDBRANCH  32  34
ENDBRANCH  31  32
ENDBRANCH  30  31
ENDBRANCH  29  30
ENDBRANCH   1  29
TORSDOF 22
ENDMDL
MODEL 3
REMARK VINA RESULT:      -9.2      2.141      7.826
REMARK SMILES C[C@@H](C(=O)OCCOCCOC(=O)c1ccc(-c2c3nc(c(-c4cccc(S(=O)(=O)[O-])c4F)c4ccc([nH]4)c(-c4cccc(S(=O)(=O)[O-])c4F)c4nc(c(-c5cccc(S(=O)(=O)[O-])c5F)c5ccc2[nH]5)C=C4)C=C3)cc1)c1cc(/C=C/S(C)(=O)=O)cc(C(=O)c2ccccc2)c1
REMARK SMILES IDX 8 1 7 2 6 3 5 4 3 5 4 6 2 7 1 8 77 9 78 10 96 11 79 12 87 13
REMARK SMILES IDX 86 14 80 15 81 16 82 17 83 18 84 19 85 20 88 21 89 22 90 23
REMARK SMILES IDX 91 24 95 25 92 26 94 27 93 28 9 29 10 30 11 31 12 32 13 33
REMARK SMILES IDX 14 34 15 35 76 36 16 37 75 38 17 39 18 40 19 41 69 42 20 43
REMARK SMILES IDX 74 44 68 45 70 46 21 47 73 48 67 49 66 50 22 52 54 53 34 54
REMARK SMILES IDX 53 55 35 56 38 57 52 58 71 59 36 60 37 61 51 63 72 64 39 65
REMARK SMILES IDX 23 66 24 67 32 68 25 69 27 70 33 71 26 72 28 73 29 74 30 75
REMARK SMILES IDX 31 76 55 77 56 78 64 79 57 80 59 81 65 82 58 83 60 84 61 85
REMARK SMILES IDX 62 86 63 87 40 88 41 89 49 90 42 91 44 92 50 93 43 94 45 95
REMARK SMILES IDX 46 96 47 97 48 98
REMARK H PARENT 70 51 38 62
REMARK Flexibility Score: inf
ROOT
ATOM      1  O   UNL A   1      35.541  21.843  24.601  1.00  0.00    -0.374 OA
ENDROOT
BRANCH   1   2
ATOM      2  C   UNL A   1      34.247  22.335  24.236  1.00  0.00     0.202 C 
BRANCH   2   3
ATOM      3  C   UNL A   1      33.723  23.533  25.036  1.00  0.00     0.261 C 
BRANCH   3   4
ATOM      4  O   UNL A   1      32.357  23.312  25.437  1.00  0.00    -0.463 OA
BRANCH   4   5
ATOM      5  C   UNL A   1      32.027  23.767  26.673  1.00  0.00     0.313 C 
ATOM      6  O   UNL A   1      32.540  23.369  27.715  1.00  0.00    -0.252 OA
BRANCH   5   7
ATOM      7  C   UNL A   1      30.994  24.911  26.637  1.00  0.00     0.126 C 
ATOM      8  C   UNL A   1      29.594  24.519  26.166  1.00  0.00     0.025 C 
BRANCH   7   9
ATOM      9  C   UNL A   1      31.608  26.101  25.892  1.00  0.00    -0.033 A 
ATOM     10  C   UNL A   1      32.636  26.909  26.408  1.00  0.00     0.012 A 
ATOM     11  C   UNL A   1      30.975  26.506  24.710  1.00  0.00     0.016 A 
ATOM     12  C   UNL A   1      32.974  28.140  25.813  1.00  0.00    -0.024 A 
ATOM     13  C   UNL A   1      31.278  27.730  24.109  1.00  0.00     0.023 A 
ATOM     14  C   UNL A   1      32.284  28.535  24.654  1.00  0.00     0.020 A 
BRANCH  12  15
ATOM     15  C   UNL A   1      33.973  29.075  26.373  1.00  0.00     0.020 C 
ATOM     16  C   UNL A   1      34.762  28.851  27.436  1.00  0.00     0.106 C 
BRANCH  16  17
ATOM     17  S   UNL A   1      35.837  30.097  28.006  1.00  0.00     0.168 S 
ATOM     18  C   UNL A   1      34.870  31.562  27.729  1.00  0.00     0.163 C 
ATOM     19  O   UNL A   1      35.984  29.945  29.439  1.00  0.00    -0.225 OA
ATOM     20  O   UNL A   1      37.007  30.191  27.150  1.00  0.00    -0.225 OA
ENDBRANCH  16  17
ENDBRANCH  12  15
BRANCH  13  21
ATOM     21  C   UNL A   1      30.521  28.206  22.915  1.00  0.00     0.193 C 
ATOM     22  O   UNL A   1      30.613  27.617  21.842  1.00  0.00    -0.289 OA
BRANCH  21  23
ATOM     23  C   UNL A   1      29.613  29.370  23.029  1.00  0.00     0.022 A 
ATOM     24  C   UNL A   1      28.395  29.333  22.346  1.00  0.00     0.012 A 
ATOM     25  C   UNL A   1      29.924  30.452  23.863  1.00  0.00     0.012 A 
ATOM     26  C   UNL A   1      27.465  30.353  22.539  1.00  0.00     0.001 A 
ATOM     27  C   UNL A   1      28.989  31.468  24.055  1.00  0.00     0.001 A 
ATOM     28  C   UNL A   1      27.758  31.414  23.399  1.00  0.00     0.000 A 
ENDBRANCH  21  23
ENDBRANCH  13  21
ENDBRANCH   7   9
ENDBRANCH   5   7
ENDBRANCH   4   5
ENDBRANCH   3   4
ENDBRANCH   2   3
ENDBRANCH   1   2
BRANCH   1  29
ATOM     29  C   UNL A   1      36.624  22.765  24.549  1.00  0.00     0.202 C 
BRANCH  29  30
ATOM     30  C   UNL A   1      37.217  23.231  25.885  1.00  0.00     0.261 C 
BRANCH  30  31
ATOM     31  O   UNL A   1      38.467  23.916  25.729  1.00  0.00    -0.460 OA
BRANCH  31  32
ATOM     32  C   UNL A   1      39.429  23.520  26.597  1.00  0.00     0.338 C 
ATOM     33  O   UNL A   1      39.684  22.369  26.933  1.00  0.00    -0.246 OA
BRANCH  32  34
ATOM     34  C   UNL A   1      40.288  24.659  26.966  1.00  0.00     0.060 A 
ATOM     35  C   UNL A   1      40.784  24.685  28.276  1.00  0.00     0.016 A 
ATOM     36  C   UNL A   1      40.554  25.707  26.083  1.00  0.00     0.016 A 
ATOM     37  C   UNL A   1      41.502  25.788  28.728  1.00  0.00     0.010 A 
ATOM     38  C   UNL A   1      41.268  26.820  26.543  1.00  0.00     0.010 A 
ATOM     39  C   UNL A   1      41.709  26.881  27.877  1.00  0.00    -0.014 A 
BRANCH  39  40
ATOM     40  C   UNL A   1      42.252  28.140  28.439  1.00  0.00     0.031 A 
ATOM     41  C   UNL A   1      43.743  28.326  28.501  1.00  0.00     0.074 A 
ATOM     42  C   UNL A   1      41.428  29.116  28.861  1.00  0.00     0.049 A 
ATOM     43  N   UNL A   1      44.431  29.348  28.940  1.00  0.00    -0.248 NA
ATOM     44  C   UNL A   1      44.569  27.214  28.003  1.00  0.00     0.031 C 
ATOM     45  C   UNL A   1      39.968  29.052  28.845  1.00  0.00     0.029 A 
ATOM     46  N   UNL A   1      41.708  30.344  29.404  1.00  0.00    -0.354 N 
ATOM     47  C   UNL A   1      45.767  28.994  28.794  1.00  0.00     0.074 A 
ATOM     48  C   UNL A   1      45.795  27.659  28.240  1.00  0.00     0.031 C 
ATOM     49  C   UNL A   1      39.477  30.184  29.381  1.00  0.00     0.029 A 
ATOM     50  C   UNL A   1      40.588  31.041  29.793  1.00  0.00     0.049 A 
ATOM     51  H   UNL A   1      42.623  30.693  29.506  1.00  0.00     0.167 HD
ATOM     52  C   UNL A   1      46.872  29.724  29.078  1.00  0.00     0.034 A 
ATOM     53  C   UNL A   1      40.475  32.227  30.424  1.00  0.00     0.034 A 
ATOM     54  C   UNL A   1      46.843  31.059  29.608  1.00  0.00     0.049 A 
ATOM     55  C   UNL A   1      41.721  33.009  30.748  1.00  0.00     0.074 A 
ATOM     56  C   UNL A   1      47.909  31.897  29.886  1.00  0.00     0.029 A 
ATOM     57  N   UNL A   1      45.692  31.748  29.953  1.00  0.00    -0.354 N 
ATOM     58  N   UNL A   1      42.973  32.713  30.490  1.00  0.00    -0.248 NA
ATOM     59  C   UNL A   1      41.539  34.305  31.419  1.00  0.00     0.031 C 
ATOM     60  C   UNL A   1      47.400  33.086  30.420  1.00  0.00     0.029 A 
ATOM     61  C   UNL A   1      46.018  32.996  30.452  1.00  0.00     0.049 A 
ATOM     62  H   UNL A   1      44.775  31.400  29.856  1.00  0.00     0.167 HD
ATOM     63  C   UNL A   1      43.722  33.799  30.933  1.00  0.00     0.074 A 
ATOM     64  C   UNL A   1      42.781  34.767  31.459  1.00  0.00     0.031 C 
ATOM     65  C   UNL A   1      45.067  33.973  30.921  1.00  0.00     0.034 A 
BRANCH  52  66
ATOM     66  C   UNL A   1      48.212  29.100  28.789  1.00  0.00     0.023 A 
ATOM     67  C   UNL A   1      48.839  28.310  29.774  1.00  0.00     0.012 A 
ATOM     68  C   UNL A   1      48.824  29.253  27.531  1.00  0.00     0.148 A 
ATOM     69  C   UNL A   1      50.068  27.704  29.520  1.00  0.00     0.002 A 
ATOM     70  C   UNL A   1      50.030  28.611  27.271  1.00  0.00     0.091 A 
ATOM     71  F   UNL A   1      48.225  30.029  26.617  1.00  0.00    -0.205 F 
ATOM     72  C   UNL A   1      50.658  27.845  28.267  1.00  0.00     0.022 A 
BRANCH  70  73
ATOM     73  S   UNL A   1      50.832  28.675  25.665  1.00  0.00     0.127 S 
ATOM     74  O   UNL A   1      51.977  27.789  25.873  1.00  0.00    -0.237 OA
ATOM     75  O   UNL A   1      49.798  28.137  24.781  1.00  0.00    -0.237 OA
ATOM     76  O   UNL A   1      51.157  30.076  25.435  1.00  0.00    -0.744 OA
ENDBRANCH  70  73
ENDBRANCH  52  66
BRANCH  53  77
ATOM     77  C   UNL A   1      39.126  32.764  30.759  1.00  0.00     0.023 A 
ATOM     78  C   UNL A   1      38.319  33.307  29.741  1.00  0.00     0.012 A 
ATOM     79  C   UNL A   1      38.631  32.718  32.076  1.00  0.00     0.148 A 
ATOM     80  C   UNL A   1      37.055  33.819  30.034  1.00  0.00     0.002 A 
ATOM     81  C   UNL A   1      37.349  33.178  32.352  1.00  0.00     0.091 A 
ATOM     82  F   UNL A   1      39.422  32.216  33.035  1.00  0.00    -0.205 F 
ATOM     83  C   UNL A   1      36.565  33.745  31.335  1.00  0.00     0.022 A 
BRANCH  81  84
ATOM     84  S   UNL A   1      36.591  32.997  33.970  1.00  0.00     0.127 S 
ATOM     85  O   UNL A   1      35.170  33.091  33.647  1.00  0.00    -0.237 OA
ATOM     86  O   UNL A   1      37.047  31.665  34.370  1.00  0.00    -0.237 OA
ATOM     87  O   UNL A   1      37.132  34.081  34.779  1.00  0.00    -0.744 OA
ENDBRANCH  81  84
ENDBRANCH  53  77
BRANCH  65  88
ATOM     88  C   UNL A   1      45.612  35.269  31.460  1.00  0.00     0.023 A 
ATOM     89  C   UNL A   1      46.012  35.352  32.809  1.00  0.00     0.012 A 
ATOM     90  C   UNL A   1      45.802  36.379  30.613  1.00  0.00     0.148 A 
ATOM     91  C   UNL A   1      46.567  36.528  33.312  1.00  0.00     0.002 A 
ATOM     92  C   UNL A   1      46.399  37.531  31.110  1.00  0.00     0.091 A 
ATOM     93  F   UNL A   1      45.398  36.286  29.338  1.00  0.00    -0.205 F 
ATOM     94  C   UNL A   1      46.771  37.612  32.462  1.00  0.00     0.022 A 
BRANCH  92  95
ATOM     95  S   UNL A   1      46.787  38.940  30.064  1.00  0.00     0.127 S 
ATOM     96  O   UNL A   1      47.353  39.881  31.029  1.00  0.00    -0.237 OA
ATOM     97  O   UNL A   1      47.755  38.373  29.125  1.00  0.00    -0.237 OA
ATOM     98  O   UNL A   1      45.527  39.345  29.456  1.00  0.00    -0.744 OA
ENDBRANCH  92  95
ENDBRANCH  65  88
ENDBRANCH  39  40
ENDBRANCH  32  34
ENDBRANCH  31  32
ENDBRANCH  30  31
ENDBRANCH  29  30
ENDBRANCH   1  29
TORSDOF 22
ENDMDL
