MODEL 1
REMARK VINA RESULT:     -10.3      0.000      0.000
REMARK SMILES CCC(CC)(C(=O)OCCOCCOC(=O)c1ccc(-c2c3nc(c(-c4cccc(S(=O)(=O)[O-])c4F)c4ccc([nH]4)c(-c4cccc(S(=O)(=O)[O-])c4F)c4nc(c(-c5cccc(S(=O)(=O)[O-])c5F)c5ccc2[nH]5)C=C4)C=C3)cc1)n1nnnc1C[C@@H](C)C(C)(C)C
REMARK SMILES IDX 10 1 9 2 8 3 6 4 7 5 3 6 2 7 1 8 4 9 5 10 80 11 81 12 84 13
REMARK SMILES IDX 82 14 83 15 85 16 86 17 87 18 88 19 89 20 90 21 91 22 11 23
REMARK SMILES IDX 12 24 13 25 14 26 15 27 16 28 17 29 18 30 79 31 19 32 78 33
REMARK SMILES IDX 20 34 21 35 22 36 72 37 23 38 77 39 71 40 73 41 24 42 76 43
REMARK SMILES IDX 70 44 69 45 25 47 57 48 37 49 56 50 38 51 41 52 55 53 74 54
REMARK SMILES IDX 39 55 40 56 54 58 75 59 42 60 26 61 27 62 35 63 28 64 30 65
REMARK SMILES IDX 36 66 29 67 31 68 32 69 33 70 34 71 58 72 59 73 67 74 60 75
REMARK SMILES IDX 62 76 68 77 61 78 63 79 64 80 65 81 66 82 43 83 44 84 52 85
REMARK SMILES IDX 45 86 47 87 53 88 46 89 48 90 49 91 50 92 51 93
REMARK H PARENT 73 46 41 57
REMARK Flexibility Score: inf
ROOT
ATOM      1  C   UNL A   1      37.263  22.891  25.361  1.00  0.00     0.202 C 
ENDROOT
BRANCH   1   2
ATOM      2  C   UNL A   1      36.339  22.519  24.203  1.00  0.00     0.261 C 
BRANCH   2   3
ATOM      3  O   UNL A   1      35.377  23.566  24.045  1.00  0.00    -0.461 OA
BRANCH   3   4
ATOM      4  C   UNL A   1      34.127  23.211  23.670  1.00  0.00     0.334 C 
ATOM      5  O   UNL A   1      33.866  22.172  23.074  1.00  0.00    -0.249 OA
BRANCH   4   6
ATOM      6  C   UNL A   1      33.093  24.296  23.983  1.00  0.00     0.163 C 
BRANCH   6   7
ATOM      7  C   UNL A   1      31.601  23.777  23.946  1.00  0.00     0.039 C 
ATOM      8  C   UNL A   1      30.460  24.788  24.098  1.00  0.00     0.007 C 
ENDBRANCH   6   7
BRANCH   6   9
ATOM      9  C   UNL A   1      33.479  24.731  25.436  1.00  0.00     0.039 C 
ATOM     10  C   UNL A   1      32.787  23.913  26.535  1.00  0.00     0.007 C 
ENDBRANCH   6   9
BRANCH   6  11
ATOM     11  N   UNL A   1      33.213  25.429  23.033  1.00  0.00    -0.212 N 
ATOM     12  N   UNL A   1      32.956  25.125  21.733  1.00  0.00    -0.044 NA
ATOM     13  C   UNL A   1      33.695  26.742  23.071  1.00  0.00     0.152 A 
ATOM     14  N   UNL A   1      33.349  26.153  21.015  1.00  0.00    -0.024 NA
ATOM     15  N   UNL A   1      33.786  27.155  21.816  1.00  0.00    -0.114 NA
BRANCH  13  16
ATOM     16  C   UNL A   1      33.893  27.705  24.218  1.00  0.00     0.083 C 
BRANCH  16  17
ATOM     17  C   UNL A   1      32.654  28.553  24.653  1.00  0.00    -0.001 C 
ATOM     18  C   UNL A   1      31.374  28.060  23.945  1.00  0.00     0.008 C 
BRANCH  17  19
ATOM     19  C   UNL A   1      32.443  28.606  26.234  1.00  0.00    -0.035 C 
ATOM     20  C   UNL A   1      33.754  28.349  26.999  1.00  0.00     0.011 C 
ATOM     21  C   UNL A   1      31.963  30.005  26.688  1.00  0.00     0.011 C 
ATOM     22  C   UNL A   1      31.422  27.562  26.723  1.00  0.00     0.011 C 
ENDBRANCH  17  19
ENDBRANCH  16  17
ENDBRANCH  13  16
ENDBRANCH   6  11
ENDBRANCH   4   6
ENDBRANCH   3   4
ENDBRANCH   2   3
ENDBRANCH   1   2
BRANCH   1  23
ATOM     23  O   UNL A   1      38.004  21.806  25.934  1.00  0.00    -0.374 OA
BRANCH  23  24
ATOM     24  C   UNL A   1      38.047  20.599  25.172  1.00  0.00     0.202 C 
BRANCH  24  25
ATOM     25  C   UNL A   1      39.287  19.724  25.352  1.00  0.00     0.261 C 
BRANCH  25  26
ATOM     26  O   UNL A   1      39.964  20.087  26.564  1.00  0.00    -0.460 OA
BRANCH  26  27
ATOM     27  C   UNL A   1      41.218  20.562  26.388  1.00  0.00     0.338 C 
ATOM     28  O   UNL A   1      42.108  20.051  25.727  1.00  0.00    -0.246 OA
BRANCH  27  29
ATOM     29  C   UNL A   1      41.288  21.943  26.912  1.00  0.00     0.060 A 
ATOM     30  C   UNL A   1      40.767  22.959  26.097  1.00  0.00     0.016 A 
ATOM     31  C   UNL A   1      41.810  22.243  28.173  1.00  0.00     0.016 A 
ATOM     32  C   UNL A   1      40.842  24.286  26.502  1.00  0.00     0.010 A 
ATOM     33  C   UNL A   1      41.895  23.577  28.575  1.00  0.00     0.010 A 
ATOM     34  C   UNL A   1      41.460  24.601  27.716  1.00  0.00    -0.014 A 
BRANCH  34  35
ATOM     35  C   UNL A   1      41.866  26.001  27.970  1.00  0.00     0.031 A 
ATOM     36  C   UNL A   1      43.255  26.413  27.565  1.00  0.00     0.074 A 
ATOM     37  C   UNL A   1      41.020  26.883  28.527  1.00  0.00     0.049 A 
ATOM     38  N   UNL A   1      43.854  27.563  27.715  1.00  0.00    -0.248 NA
ATOM     39  C   UNL A   1      44.080  25.386  26.904  1.00  0.00     0.031 C 
ATOM     40  C   UNL A   1      39.648  26.594  28.942  1.00  0.00     0.029 A 
ATOM     41  N   UNL A   1      41.206  28.199  28.863  1.00  0.00    -0.354 N 
ATOM     42  C   UNL A   1      45.134  27.389  27.202  1.00  0.00     0.074 A 
ATOM     43  C   UNL A   1      45.232  26.021  26.748  1.00  0.00     0.031 C 
ATOM     44  C   UNL A   1      39.125  27.696  29.508  1.00  0.00     0.029 A 
ATOM     45  C   UNL A   1      40.134  28.754  29.518  1.00  0.00     0.049 A 
ATOM     46  H   UNL A   1      42.028  28.698  28.653  1.00  0.00     0.167 HD
ATOM     47  C   UNL A   1      46.135  28.294  27.104  1.00  0.00     0.034 A 
ATOM     48  C   UNL A   1      39.999  29.970  30.084  1.00  0.00     0.034 A 
ATOM     49  C   UNL A   1      46.023  29.657  27.540  1.00  0.00     0.049 A 
ATOM     50  C   UNL A   1      41.139  30.951  29.986  1.00  0.00     0.074 A 
ATOM     51  C   UNL A   1      46.961  30.669  27.449  1.00  0.00     0.029 A 
ATOM     52  N   UNL A   1      44.908  30.196  28.163  1.00  0.00    -0.354 N 
ATOM     53  N   UNL A   1      42.305  30.807  29.404  1.00  0.00    -0.248 NA
ATOM     54  C   UNL A   1      40.932  32.273  30.594  1.00  0.00     0.031 C 
ATOM     55  C   UNL A   1      46.424  31.812  28.048  1.00  0.00     0.029 A 
ATOM     56  C   UNL A   1      45.137  31.523  28.476  1.00  0.00     0.049 A 
ATOM     57  H   UNL A   1      44.076  29.706  28.355  1.00  0.00     0.167 HD
ATOM     58  C   UNL A   1      42.955  32.030  29.540  1.00  0.00     0.074 A 
ATOM     59  C   UNL A   1      42.042  32.908  30.245  1.00  0.00     0.031 C 
ATOM     60  C   UNL A   1      44.196  32.394  29.131  1.00  0.00     0.034 A 
BRANCH  47  61
ATOM     61  C   UNL A   1      47.432  27.838  26.491  1.00  0.00     0.023 A 
ATOM     62  C   UNL A   1      48.476  27.376  27.318  1.00  0.00     0.012 A 
ATOM     63  C   UNL A   1      47.601  27.825  25.093  1.00  0.00     0.148 A 
ATOM     64  C   UNL A   1      49.679  26.936  26.766  1.00  0.00     0.002 A 
ATOM     65  C   UNL A   1      48.784  27.341  24.548  1.00  0.00     0.091 A 
ATOM     66  F   UNL A   1      46.607  28.294  24.326  1.00  0.00    -0.205 F 
ATOM     67  C   UNL A   1      49.827  26.908  25.382  1.00  0.00     0.022 A 
BRANCH  65  68
ATOM     68  S   UNL A   1      49.042  27.190  22.777  1.00  0.00     0.127 S 
ATOM     69  O   UNL A   1      48.348  25.937  22.484  1.00  0.00    -0.237 OA
ATOM     70  O   UNL A   1      48.377  28.390  22.268  1.00  0.00    -0.237 OA
ATOM     71  O   UNL A   1      50.485  27.164  22.581  1.00  0.00    -0.744 OA
ENDBRANCH  65  68
ENDBRANCH  47  61
BRANCH  48  72
ATOM     72  C   UNL A   1      38.730  30.335  30.776  1.00  0.00     0.023 A 
ATOM     73  C   UNL A   1      38.546  29.986  32.128  1.00  0.00     0.012 A 
ATOM     74  C   UNL A   1      37.712  31.037  30.103  1.00  0.00     0.148 A 
ATOM     75  C   UNL A   1      37.356  30.298  32.787  1.00  0.00     0.002 A 
ATOM     76  C   UNL A   1      36.552  31.397  30.781  1.00  0.00     0.091 A 
ATOM     77  F   UNL A   1      37.899  31.347  28.812  1.00  0.00    -0.205 F 
ATOM     78  C   UNL A   1      36.365  31.012  32.118  1.00  0.00     0.022 A 
BRANCH  76  79
ATOM     79  S   UNL A   1      35.285  32.429  30.039  1.00  0.00     0.127 S 
ATOM     80  O   UNL A   1      34.811  31.582  28.948  1.00  0.00    -0.237 OA
ATOM     81  O   UNL A   1      34.343  32.593  31.147  1.00  0.00    -0.237 OA
ATOM     82  O   UNL A   1      35.960  33.657  29.640  1.00  0.00    -0.744 OA
ENDBRANCH  76  79
ENDBRANCH  48  72
BRANCH  60  83
ATOM     83  C   UNL A   1      44.630  33.813  29.388  1.00  0.00     0.023 A 
ATOM     84  C   UNL A   1      45.308  34.139  30.579  1.00  0.00     0.012 A 
ATOM     85  C   UNL A   1      44.434  34.806  28.407  1.00  0.00     0.148 A 
ATOM     86  C   UNL A   1      45.755  35.441  30.804  1.00  0.00     0.002 A 
ATOM     87  C   UNL A   1      44.929  36.087  28.617  1.00  0.00     0.091 A 
ATOM     88  F   UNL A   1      43.773  34.479  27.288  1.00  0.00    -0.205 F 
ATOM     89  C   UNL A   1      45.576  36.410  29.820  1.00  0.00     0.022 A 
BRANCH  87  90
ATOM     90  S   UNL A   1      44.836  37.372  27.365  1.00  0.00     0.127 S 
ATOM     91  O   UNL A   1      45.831  36.916  26.396  1.00  0.00    -0.237 OA
ATOM     92  O   UNL A   1      43.448  37.263  26.913  1.00  0.00    -0.237 OA
ATOM     93  O   UNL A   1      45.153  38.621  28.045  1.00  0.00    -0.744 OA
ENDBRANCH  87  90
ENDBRANCH  60  83
ENDBRANCH  34  35
ENDBRANCH  27  29
ENDBRANCH  26  27
ENDBRANCH  25  26
ENDBRANCH  24  25
ENDBRANCH  23  24
ENDBRANCH   1  23
TORSDOF 23
ENDMDL
MODEL 2
REMARK VINA RESULT:      -9.9      2.219      3.089
REMARK SMILES CCC(CC)(C(=O)OCCOCCOC(=O)c1ccc(-c2c3nc(c(-c4cccc(S(=O)(=O)[O-])c4F)c4ccc([nH]4)c(-c4cccc(S(=O)(=O)[O-])c4F)c4nc(c(-c5cccc(S(=O)(=O)[O-])c5F)c5ccc2[nH]5)C=C4)C=C3)cc1)n1nnnc1C[C@@H](C)C(C)(C)C
REMARK SMILES IDX 10 1 9 2 8 3 6 4 7 5 3 6 2 7 1 8 4 9 5 10 80 11 81 12 84 13
REMARK SMILES IDX 82 14 83 15 85 16 86 17 87 18 88 19 89 20 90 21 91 22 11 23
REMARK SMILES IDX 12 24 13 25 14 26 15 27 16 28 17 29 18 30 79 31 19 32 78 33
REMARK SMILES IDX 20 34 21 35 22 36 72 37 23 38 77 39 71 40 73 41 24 42 76 43
REMARK SMILES IDX 70 44 69 45 25 47 57 48 37 49 56 50 38 51 41 52 55 53 74 54
REMARK SMILES IDX 39 55 40 56 54 58 75 59 42 60 26 61 27 62 35 63 28 64 30 65
REMARK SMILES IDX 36 66 29 67 31 68 32 69 33 70 34 71 58 72 59 73 67 74 60 75
REMARK SMILES IDX 62 76 68 77 61 78 63 79 64 80 65 81 66 82 43 83 44 84 52 85
REMARK SMILES IDX 45 86 47 87 53 88 46 89 48 90 49 91 50 92 51 93
REMARK H PARENT 73 46 41 57
REMARK Flexibility Score: inf
ROOT
ATOM      1  C   UNL A   1      36.916  22.214  26.015  1.00  0.00     0.202 C 
ENDROOT
BRANCH   1   2
ATOM      2  C   UNL A   1      35.798  23.209  25.706  1.00  0.00     0.261 C 
BRANCH   2   3
ATOM      3  O   UNL A   1      35.095  22.746  24.549  1.00  0.00    -0.461 OA
BRANCH   3   4
ATOM      4  C   UNL A   1      34.241  23.608  23.953  1.00  0.00     0.334 C 
ATOM      5  O   UNL A   1      34.593  24.661  23.432  1.00  0.00    -0.249 OA
BRANCH   4   6
ATOM      6  C   UNL A   1      32.780  23.172  24.089  1.00  0.00     0.163 C 
BRANCH   6   7
ATOM      7  C   UNL A   1      31.826  23.803  22.999  1.00  0.00     0.039 C 
ATOM      8  C   UNL A   1      30.446  24.313  23.426  1.00  0.00     0.007 C 
ENDBRANCH   6   7
BRANCH   6   9
ATOM      9  C   UNL A   1      32.865  21.620  23.901  1.00  0.00     0.039 C 
ATOM     10  C   UNL A   1      32.193  21.111  22.618  1.00  0.00     0.007 C 
ENDBRANCH   6   9
BRANCH   6  11
ATOM     11  N   UNL A   1      32.248  23.522  25.429  1.00  0.00    -0.212 N 
ATOM     12  N   UNL A   1      31.626  22.508  26.087  1.00  0.00    -0.044 NA
ATOM     13  C   UNL A   1      32.051  24.691  26.172  1.00  0.00     0.152 A 
ATOM     14  N   UNL A   1      31.006  23.044  27.116  1.00  0.00    -0.024 NA
ATOM     15  N   UNL A   1      31.270  24.371  27.192  1.00  0.00    -0.114 NA
BRANCH  13  16
ATOM     16  C   UNL A   1      32.708  26.049  26.097  1.00  0.00     0.083 C 
BRANCH  16  17
ATOM     17  C   UNL A   1      31.777  27.296  26.250  1.00  0.00    -0.001 C 
ATOM     18  C   UNL A   1      32.142  28.103  27.514  1.00  0.00     0.008 C 
BRANCH  17  19
ATOM     19  C   UNL A   1      31.759  28.237  24.961  1.00  0.00    -0.035 C 
ATOM     20  C   UNL A   1      33.035  28.077  24.114  1.00  0.00     0.011 C 
ATOM     21  C   UNL A   1      30.586  27.874  24.020  1.00  0.00     0.011 C 
ATOM     22  C   UNL A   1      31.643  29.728  25.328  1.00  0.00     0.011 C 
ENDBRANCH  17  19
ENDBRANCH  16  17
ENDBRANCH  13  16
ENDBRANCH   6  11
ENDBRANCH   4   6
ENDBRANCH   3   4
ENDBRANCH   2   3
ENDBRANCH   1   2
BRANCH   1  23
ATOM     23  O   UNL A   1      38.247  22.680  25.762  1.00  0.00    -0.374 OA
BRANCH  23  24
ATOM     24  C   UNL A   1      39.303  21.932  26.365  1.00  0.00     0.202 C 
BRANCH  24  25
ATOM     25  C   UNL A   1      39.546  20.530  25.810  1.00  0.00     0.261 C 
BRANCH  25  26
ATOM     26  O   UNL A   1      40.485  19.834  26.643  1.00  0.00    -0.460 OA
BRANCH  26  27
ATOM     27  C   UNL A   1      41.729  19.729  26.122  1.00  0.00     0.338 C 
ATOM     28  O   UNL A   1      42.149  18.837  25.402  1.00  0.00    -0.246 OA
BRANCH  27  29
ATOM     29  C   UNL A   1      42.454  20.999  26.344  1.00  0.00     0.060 A 
ATOM     30  C   UNL A   1      42.656  21.391  27.676  1.00  0.00     0.016 A 
ATOM     31  C   UNL A   1      42.955  21.772  25.293  1.00  0.00     0.016 A 
ATOM     32  C   UNL A   1      43.285  22.597  27.961  1.00  0.00     0.010 A 
ATOM     33  C   UNL A   1      43.578  22.987  25.579  1.00  0.00     0.010 A 
ATOM     34  C   UNL A   1      43.694  23.424  26.911  1.00  0.00    -0.014 A 
BRANCH  34  35
ATOM     35  C   UNL A   1      44.017  24.839  27.199  1.00  0.00     0.031 A 
ATOM     36  C   UNL A   1      45.445  25.282  27.026  1.00  0.00     0.074 A 
ATOM     37  C   UNL A   1      43.067  25.707  27.584  1.00  0.00     0.049 A 
ATOM     38  N   UNL A   1      45.981  26.451  27.249  1.00  0.00    -0.248 NA
ATOM     39  C   UNL A   1      46.395  24.267  26.539  1.00  0.00     0.031 C 
ATOM     40  C   UNL A   1      41.652  25.388  27.766  1.00  0.00     0.029 A 
ATOM     41  N   UNL A   1      43.162  27.034  27.916  1.00  0.00    -0.354 N 
ATOM     42  C   UNL A   1      47.333  26.303  26.965  1.00  0.00     0.074 A 
ATOM     43  C   UNL A   1      47.540  24.930  26.566  1.00  0.00     0.031 C 
ATOM     44  C   UNL A   1      41.014  26.485  28.210  1.00  0.00     0.029 A 
ATOM     45  C   UNL A   1      41.980  27.571  28.367  1.00  0.00     0.049 A 
ATOM     46  H   UNL A   1      43.995  27.552  27.838  1.00  0.00     0.167 HD
ATOM     47  C   UNL A   1      48.315  27.233  27.018  1.00  0.00     0.034 A 
ATOM     48  C   UNL A   1      41.721  28.793  28.874  1.00  0.00     0.034 A 
ATOM     49  C   UNL A   1      48.097  28.601  27.398  1.00  0.00     0.049 A 
ATOM     50  C   UNL A   1      42.837  29.803  28.949  1.00  0.00     0.074 A 
ATOM     51  C   UNL A   1      49.012  29.636  27.445  1.00  0.00     0.029 A 
ATOM     52  N   UNL A   1      46.879  29.119  27.810  1.00  0.00    -0.354 N 
ATOM     53  N   UNL A   1      44.088  29.681  28.577  1.00  0.00    -0.248 NA
ATOM     54  C   UNL A   1      42.498  31.130  29.483  1.00  0.00     0.031 C 
ATOM     55  C   UNL A   1      48.353  30.775  27.917  1.00  0.00     0.029 A 
ATOM     56  C   UNL A   1      47.020  30.458  28.127  1.00  0.00     0.049 A 
ATOM     57  H   UNL A   1      46.039  28.611  27.869  1.00  0.00     0.167 HD
ATOM     58  C   UNL A   1      44.676  30.924  28.793  1.00  0.00     0.074 A 
ATOM     59  C   UNL A   1      43.635  31.789  29.312  1.00  0.00     0.031 C 
ATOM     60  C   UNL A   1      45.959  31.314  28.592  1.00  0.00     0.034 A 
BRANCH  47  61
ATOM     61  C   UNL A   1      49.708  26.802  26.645  1.00  0.00     0.023 A 
ATOM     62  C   UNL A   1      50.467  26.026  27.544  1.00  0.00     0.012 A 
ATOM     63  C   UNL A   1      50.247  27.129  25.386  1.00  0.00     0.148 A 
ATOM     64  C   UNL A   1      51.754  25.606  27.208  1.00  0.00     0.002 A 
ATOM     65  C   UNL A   1      51.512  26.667  25.040  1.00  0.00     0.091 A 
ATOM     66  F   UNL A   1      49.521  27.891  24.558  1.00  0.00    -0.205 F 
ATOM     67  C   UNL A   1      52.270  25.916  25.953  1.00  0.00     0.022 A 
BRANCH  65  68
ATOM     68  S   UNL A   1      52.233  26.947  23.419  1.00  0.00     0.127 S 
ATOM     69  O   UNL A   1      52.799  28.286  23.577  1.00  0.00    -0.237 OA
ATOM     70  O   UNL A   1      53.223  25.873  23.335  1.00  0.00    -0.237 OA
ATOM     71  O   UNL A   1      51.137  26.842  22.466  1.00  0.00    -0.744 OA
ENDBRANCH  65  68
ENDBRANCH  47  61
BRANCH  48  72
ATOM     72  C   UNL A   1      40.345  29.135  29.332  1.00  0.00     0.023 A 
ATOM     73  C   UNL A   1      39.410  29.649  28.414  1.00  0.00     0.012 A 
ATOM     74  C   UNL A   1      39.956  28.941  30.672  1.00  0.00     0.148 A 
ATOM     75  C   UNL A   1      38.124  29.998  28.828  1.00  0.00     0.002 A 
ATOM     76  C   UNL A   1      38.656  29.235  31.067  1.00  0.00     0.091 A 
ATOM     77  F   UNL A   1      40.865  28.465  31.535  1.00  0.00    -0.205 F 
ATOM     78  C   UNL A   1      37.744  29.781  30.150  1.00  0.00     0.022 A 
BRANCH  76  79
ATOM     79  S   UNL A   1      38.043  28.864  32.713  1.00  0.00     0.127 S 
ATOM     80  O   UNL A   1      38.964  29.623  33.553  1.00  0.00    -0.237 OA
ATOM     81  O   UNL A   1      36.680  29.395  32.653  1.00  0.00    -0.237 OA
ATOM     82  O   UNL A   1      38.116  27.415  32.842  1.00  0.00    -0.744 OA
ENDBRANCH  76  79
ENDBRANCH  48  72
BRANCH  60  83
ATOM     83  C   UNL A   1      46.309  32.750  28.887  1.00  0.00     0.023 A 
ATOM     84  C   UNL A   1      46.894  33.095  30.121  1.00  0.00     0.012 A 
ATOM     85  C   UNL A   1      46.130  33.742  27.903  1.00  0.00     0.148 A 
ATOM     86  C   UNL A   1      47.263  34.413  30.385  1.00  0.00     0.002 A 
ATOM     87  C   UNL A   1      46.549  35.043  28.153  1.00  0.00     0.091 A 
ATOM     88  F   UNL A   1      45.557  33.396  26.741  1.00  0.00    -0.205 F 
ATOM     89  C   UNL A   1      47.102  35.384  29.398  1.00  0.00     0.022 A 
BRANCH  87  90
ATOM     90  S   UNL A   1      46.476  36.335  26.907  1.00  0.00     0.127 S 
ATOM     91  O   UNL A   1      45.034  36.537  26.773  1.00  0.00    -0.237 OA
ATOM     92  O   UNL A   1      47.189  37.434  27.559  1.00  0.00    -0.237 OA
ATOM     93  O   UNL A   1      47.142  35.796  25.729  1.00  0.00    -0.744 OA
ENDBRANCH  87  90
ENDBRANCH  60  83
ENDBRANCH  34  35
ENDBRANCH  27  29
ENDBRANCH  26  27
ENDBRANCH  25  26
ENDBRANCH  24  25
ENDBRANCH  23  24
ENDBRANCH   1  23
TORSDOF 23
ENDMDL
MODEL 3
REMARK VINA RESULT:      -9.9      1.956      3.481
REMARK SMILES CCC(CC)(C(=O)OCCOCCOC(=O)c1ccc(-c2c3nc(c(-c4cccc(S(=O)(=O)[O-])c4F)c4ccc([nH]4)c(-c4cccc(S(=O)(=O)[O-])c4F)c4nc(c(-c5cccc(S(=O)(=O)[O-])c5F)c5ccc2[nH]5)C=C4)C=C3)cc1)n1nnnc1C[C@@H](C)C(C)(C)C
REMARK SMILES IDX 10 1 9 2 8 3 6 4 7 5 3 6 2 7 1 8 4 9 5 10 80 11 81 12 84 13
REMARK SMILES IDX 82 14 83 15 85 16 86 17 87 18 88 19 89 20 90 21 91 22 11 23
REMARK SMILES IDX 12 24 13 25 14 26 15 27 16 28 17 29 18 30 79 31 19 32 78 33
REMARK SMILES IDX 20 34 21 35 22 36 72 37 23 38 77 39 71 40 73 41 24 42 76 43
REMARK SMILES IDX 70 44 69 45 25 47 57 48 37 49 56 50 38 51 41 52 55 53 74 54
REMARK SMILES IDX 39 55 40 56 54 58 75 59 42 60 26 61 27 62 35 63 28 64 30 65
REMARK SMILES IDX 36 66 29 67 31 68 32 69 33 70 34 71 58 72 59 73 67 74 60 75
REMARK SMILES IDX 62 76 68 77 61 78 63 79 64 80 65 81 66 82 43 83 44 84 52 85
REMARK SMILES IDX 45 86 47 87 53 88 46 89 48 90 49 91 50 92 51 93
REMARK H PARENT 73 46 41 57
REMARK Flexibility Score: inf
ROOT
ATOM      1  C   UNL A   1      38.554  22.015  25.689  1.00  0.00     0.202 C 
ENDROOT
BRANCH   1   2
ATOM      2  C   UNL A   1      37.523  23.076  26.068  1.00  0.00     0.261 C 
BRANCH   2   3
ATOM      3  O   UNL A   1      36.395  22.935  25.198  1.00  0.00    -0.461 OA
BRANCH   3   4
ATOM      4  C   UNL A   1      35.174  22.847  25.770  1.00  0.00     0.334 C 
ATOM      5  O   UNL A   1      34.933  22.154  26.752  1.00  0.00    -0.249 OA
BRANCH   4   6
ATOM      6  C   UNL A   1      34.108  23.629  24.997  1.00  0.00     0.163 C 
BRANCH   6   7
ATOM      7  C   UNL A   1      33.940  25.122  25.486  1.00  0.00     0.039 C 
ATOM      8  C   UNL A   1      33.808  26.234  24.440  1.00  0.00     0.007 C 
ENDBRANCH   6   7
BRANCH   6   9
ATOM      9  C   UNL A   1      34.654  23.597  23.531  1.00  0.00     0.039 C 
ATOM     10  C   UNL A   1      33.562  23.704  22.458  1.00  0.00     0.007 C 
ENDBRANCH   6   9
BRANCH   6  11
ATOM     11  N   UNL A   1      32.788  22.958  25.094  1.00  0.00    -0.212 N 
ATOM     12  N   UNL A   1      31.825  23.667  25.739  1.00  0.00    -0.044 NA
ATOM     13  C   UNL A   1      32.276  21.681  24.843  1.00  0.00     0.152 A 
ATOM     14  N   UNL A   1      30.824  22.843  25.954  1.00  0.00    -0.024 NA
ATOM     15  N   UNL A   1      31.074  21.633  25.400  1.00  0.00    -0.114 NA
BRANCH  13  16
ATOM     16  C   UNL A   1      32.758  20.564  23.947  1.00  0.00     0.083 C 
BRANCH  16  17
ATOM     17  C   UNL A   1      33.497  19.371  24.637  1.00  0.00    -0.001 C 
ATOM     18  C   UNL A   1      33.256  19.382  26.161  1.00  0.00     0.008 C 
BRANCH  17  19
ATOM     19  C   UNL A   1      33.126  17.949  24.014  1.00  0.00    -0.035 C 
ATOM     20  C   UNL A   1      32.332  18.085  22.702  1.00  0.00     0.011 C 
ATOM     21  C   UNL A   1      34.399  17.149  23.649  1.00  0.00     0.011 C 
ATOM     22  C   UNL A   1      32.276  17.095  24.972  1.00  0.00     0.011 C 
ENDBRANCH  17  19
ENDBRANCH  16  17
ENDBRANCH  13  16
ENDBRANCH   6  11
ENDBRANCH   4   6
ENDBRANCH   3   4
ENDBRANCH   2   3
ENDBRANCH   1   2
BRANCH   1  23
ATOM     23  O   UNL A   1      38.027  20.831  25.077  1.00  0.00    -0.374 OA
BRANCH  23  24
ATOM     24  C   UNL A   1      38.773  19.630  25.278  1.00  0.00     0.202 C 
BRANCH  24  25
ATOM     25  C   UNL A   1      40.015  19.742  26.161  1.00  0.00     0.261 C 
BRANCH  25  26
ATOM     26  O   UNL A   1      41.157  19.229  25.460  1.00  0.00    -0.460 OA
BRANCH  26  27
ATOM     27  C   UNL A   1      42.350  19.607  25.974  1.00  0.00     0.338 C 
ATOM     28  O   UNL A   1      43.399  18.984  25.924  1.00  0.00    -0.246 OA
BRANCH  27  29
ATOM     29  C   UNL A   1      42.267  21.023  26.393  1.00  0.00     0.060 A 
ATOM     30  C   UNL A   1      42.138  21.979  25.375  1.00  0.00     0.016 A 
ATOM     31  C   UNL A   1      42.278  21.411  27.735  1.00  0.00     0.016 A 
ATOM     32  C   UNL A   1      42.104  23.333  25.690  1.00  0.00     0.010 A 
ATOM     33  C   UNL A   1      42.253  22.770  28.051  1.00  0.00     0.010 A 
ATOM     34  C   UNL A   1      42.221  23.732  27.025  1.00  0.00    -0.014 A 
BRANCH  34  35
ATOM     35  C   UNL A   1      42.552  25.142  27.324  1.00  0.00     0.031 A 
ATOM     36  C   UNL A   1      43.905  25.650  26.901  1.00  0.00     0.074 A 
ATOM     37  C   UNL A   1      41.672  25.951  27.935  1.00  0.00     0.049 A 
ATOM     38  N   UNL A   1      44.440  26.827  27.082  1.00  0.00    -0.248 NA
ATOM     39  C   UNL A   1      44.769  24.699  26.181  1.00  0.00     0.031 C 
ATOM     40  C   UNL A   1      40.331  25.568  28.372  1.00  0.00     0.029 A 
ATOM     41  N   UNL A   1      41.791  27.263  28.318  1.00  0.00    -0.354 N 
ATOM     42  C   UNL A   1      45.713  26.747  26.531  1.00  0.00     0.074 A 
ATOM     43  C   UNL A   1      45.877  25.406  26.021  1.00  0.00     0.031 C 
ATOM     44  C   UNL A   1      39.761  26.614  28.994  1.00  0.00     0.029 A 
ATOM     45  C   UNL A   1      40.707  27.729  29.020  1.00  0.00     0.049 A 
ATOM     46  H   UNL A   1      42.577  27.817  28.108  1.00  0.00     0.167 HD
ATOM     47  C   UNL A   1      46.658  27.712  26.444  1.00  0.00     0.034 A 
ATOM     48  C   UNL A   1      40.517  28.913  29.637  1.00  0.00     0.034 A 
ATOM     49  C   UNL A   1      46.479  29.049  26.936  1.00  0.00     0.049 A 
ATOM     50  C   UNL A   1      41.596  29.962  29.550  1.00  0.00     0.074 A 
ATOM     51  C   UNL A   1      47.355  30.117  26.862  1.00  0.00     0.029 A 
ATOM     52  N   UNL A   1      45.352  29.498  27.607  1.00  0.00    -0.354 N 
ATOM     53  N   UNL A   1      42.752  29.908  28.934  1.00  0.00    -0.248 NA
ATOM     54  C   UNL A   1      41.329  31.245  30.214  1.00  0.00     0.031 C 
ATOM     55  C   UNL A   1      46.769  31.203  27.518  1.00  0.00     0.029 A 
ATOM     56  C   UNL A   1      45.513  30.823  27.966  1.00  0.00     0.049 A 
ATOM     57  H   UNL A   1      44.555  28.953  27.800  1.00  0.00     0.167 HD
ATOM     58  C   UNL A   1      43.334  31.161  29.102  1.00  0.00     0.074 A 
ATOM     59  C   UNL A   1      42.391  31.957  29.863  1.00  0.00     0.031 C 
ATOM     60  C   UNL A   1      44.541  31.612  28.677  1.00  0.00     0.034 A 
BRANCH  47  61
ATOM     61  C   UNL A   1      47.962  27.356  25.782  1.00  0.00     0.023 A 
ATOM     62  C   UNL A   1      49.026  26.847  26.554  1.00  0.00     0.012 A 
ATOM     63  C   UNL A   1      48.119  27.484  24.389  1.00  0.00     0.148 A 
ATOM     64  C   UNL A   1      50.236  26.499  25.955  1.00  0.00     0.002 A 
ATOM     65  C   UNL A   1      49.311  27.091  23.792  1.00  0.00     0.091 A 
ATOM     66  F   UNL A   1      47.106  27.996  23.676  1.00  0.00    -0.205 F 
ATOM     67  C   UNL A   1      50.373  26.610  24.574  1.00  0.00     0.022 A 
BRANCH  65  68
ATOM     68  S   UNL A   1      49.558  27.121  22.014  1.00  0.00     0.127 S 
ATOM     69  O   UNL A   1      50.999  26.886  21.913  1.00  0.00    -0.237 OA
ATOM     70  O   UNL A   1      48.726  26.004  21.569  1.00  0.00    -0.237 OA
ATOM     71  O   UNL A   1      49.109  28.432  21.566  1.00  0.00    -0.744 OA
ENDBRANCH  65  68
ENDBRANCH  47  61
BRANCH  48  72
ATOM     72  C   UNL A   1      39.249  29.176  30.374  1.00  0.00     0.023 A 
ATOM     73  C   UNL A   1      39.007  28.531  31.602  1.00  0.00     0.012 A 
ATOM     74  C   UNL A   1      38.288  30.073  29.868  1.00  0.00     0.148 A 
ATOM     75  C   UNL A   1      37.815  28.747  32.296  1.00  0.00     0.002 A 
ATOM     76  C   UNL A   1      37.128  30.328  30.592  1.00  0.00     0.091 A 
ATOM     77  F   UNL A   1      38.529  30.665  28.689  1.00  0.00    -0.205 F 
ATOM     78  C   UNL A   1      36.882  29.652  31.796  1.00  0.00     0.022 A 
BRANCH  76  79
ATOM     79  S   UNL A   1      35.937  31.575  30.091  1.00  0.00     0.127 S 
ATOM     80  O   UNL A   1      35.238  30.900  29.001  1.00  0.00    -0.237 OA
ATOM     81  O   UNL A   1      35.153  31.749  31.314  1.00  0.00    -0.237 OA
ATOM     82  O   UNL A   1      36.724  32.741  29.713  1.00  0.00    -0.744 OA
ENDBRANCH  76  79
ENDBRANCH  48  72
BRANCH  60  83
ATOM     83  C   UNL A   1      44.899  33.044  28.979  1.00  0.00     0.023 A 
ATOM     84  C   UNL A   1      45.481  33.380  30.218  1.00  0.00     0.012 A 
ATOM     85  C   UNL A   1      44.732  34.042  27.998  1.00  0.00     0.148 A 
ATOM     86  C   UNL A   1      45.858  34.695  30.488  1.00  0.00     0.002 A 
ATOM     87  C   UNL A   1      45.160  35.338  28.255  1.00  0.00     0.091 A 
ATOM     88  F   UNL A   1      44.163  33.704  26.832  1.00  0.00    -0.205 F 
ATOM     89  C   UNL A   1      45.709  35.670  29.504  1.00  0.00     0.022 A 
BRANCH  87  90
ATOM     90  S   UNL A   1      45.102  36.635  27.013  1.00  0.00     0.127 S 
ATOM     91  O   UNL A   1      45.942  36.074  25.957  1.00  0.00    -0.237 OA
ATOM     92  O   UNL A   1      43.675  36.693  26.693  1.00  0.00    -0.237 OA
ATOM     93  O   UNL A   1      45.626  37.832  27.657  1.00  0.00    -0.744 OA
ENDBRANCH  87  90
ENDBRANCH  60  83
ENDBRANCH  34  35
ENDBRANCH  27  29
ENDBRANCH  26  27
ENDBRANCH  25  26
ENDBRANCH  24  25
ENDBRANCH  23  24
ENDBRANCH   1  23
TORSDOF 23
ENDMDL
