MODEL 1
REMARK VINA RESULT:     -11.1      0.000      0.000
REMARK SMILES COC(=O)c1ccc(C)c(NC(=O)[C@H]2CC=CC[C@H]2C(=O)OCCOCCOC(=O)c2ccc(-c3c4nc(c(-c5cccc(S(=O)(=O)[O-])c5F)c5ccc([nH]5)c(-c5cccc(S(=O)(=O)[O-])c5F)c5nc(c(-c6cccc(S(=O)(=O)[O-])c6F)c6ccc3[nH]6)C=C5)C=C4)cc2)c1
REMARK SMILES IDX 24 1 23 2 22 3 20 4 21 5 19 6 14 7 15 8 16 9 18 10 17 11
REMARK SMILES IDX 12 12 11 13 13 15 10 16 5 17 6 18 94 19 7 20 8 21 9 22 3 23
REMARK SMILES IDX 4 24 2 25 1 26 25 27 26 28 27 29 28 30 29 31 30 32 31 33
REMARK SMILES IDX 32 34 93 35 33 36 92 37 34 38 35 39 36 40 86 41 37 42 91 43
REMARK SMILES IDX 85 44 87 45 38 46 90 47 84 48 83 49 39 51 71 52 51 53 70 54
REMARK SMILES IDX 52 55 55 56 69 57 88 58 53 59 54 60 68 62 89 63 56 64 40 65
REMARK SMILES IDX 41 66 49 67 42 68 44 69 50 70 43 71 45 72 46 73 47 74 48 75
REMARK SMILES IDX 72 76 73 77 81 78 74 79 76 80 82 81 75 82 77 83 78 84 79 85
REMARK SMILES IDX 80 86 57 87 58 88 66 89 59 90 61 91 67 92 60 93 62 94 63 95
REMARK SMILES IDX 64 96 65 97
REMARK H PARENT 11 14 87 50 55 61
REMARK Flexibility Score: inf
ROOT
ATOM      1  C   UNL A   1      36.704  21.091  24.869  1.00  0.00     0.202 C 
ENDROOT
BRANCH   1   2
ATOM      2  C   UNL A   1      36.743  22.211  23.869  1.00  0.00     0.261 C 
BRANCH   2   3
ATOM      3  O   UNL A   1      35.517  22.987  23.859  1.00  0.00    -0.463 OA
BRANCH   3   4
ATOM      4  C   UNL A   1      35.052  23.746  24.889  1.00  0.00     0.310 C 
ATOM      5  O   UNL A   1      35.707  24.389  25.690  1.00  0.00    -0.252 OA
BRANCH   4   6
ATOM      6  C   UNL A   1      33.534  23.788  24.873  1.00  0.00     0.116 C 
ATOM      7  C   UNL A   1      33.020  25.213  24.631  1.00  0.00     0.097 C 
ATOM      8  C   UNL A   1      31.489  25.274  24.678  1.00  0.00     0.041 C 
ATOM      9  C   UNL A   1      30.791  24.077  24.112  1.00  0.00    -0.030 C 
ATOM     10  C   UNL A   1      32.899  22.742  23.970  1.00  0.00     0.043 C 
ATOM     11  C   UNL A   1      31.424  22.946  23.780  1.00  0.00    -0.030 C 
BRANCH   7  12
ATOM     12  C   UNL A   1      33.538  25.904  23.367  1.00  0.00     0.228 C 
ATOM     13  N   UNL A   1      34.054  27.189  23.489  1.00  0.00    -0.326 N 
ATOM     14  H   UNL A   1      34.986  27.377  23.238  1.00  0.00     0.169 HD
ATOM     15  O   UNL A   1      33.519  25.397  22.245  1.00  0.00    -0.274 OA
BRANCH  13  16
ATOM     16  C   UNL A   1      33.221  28.220  23.979  1.00  0.00     0.044 A 
ATOM     17  C   UNL A   1      31.104  29.310  23.561  1.00  0.00     0.062 A 
ATOM     18  C   UNL A   1      30.985  29.579  24.926  1.00  0.00     0.016 A 
ATOM     19  C   UNL A   1      32.231  28.635  23.091  1.00  0.00     0.042 A 
ATOM     20  C   UNL A   1      32.049  29.292  25.786  1.00  0.00     0.006 A 
ATOM     21  C   UNL A   1      33.209  28.666  25.306  1.00  0.00    -0.027 A 
ATOM     22  C   UNL A   1      34.383  28.536  26.233  1.00  0.00     0.046 C 
BRANCH  17  23
ATOM     23  C   UNL A   1      29.975  29.631  22.649  1.00  0.00     0.337 C 
ATOM     24  O   UNL A   1      29.866  29.228  21.512  1.00  0.00    -0.246 OA
BRANCH  23  25
ATOM     25  O   UNL A   1      29.091  30.446  23.284  1.00  0.00    -0.465 OA
ATOM     26  C   UNL A   1      27.944  30.757  22.494  1.00  0.00     0.282 C 
ENDBRANCH  23  25
ENDBRANCH  17  23
ENDBRANCH  13  16
ENDBRANCH   7  12
ENDBRANCH   4   6
ENDBRANCH   3   4
ENDBRANCH   2   3
ENDBRANCH   1   2
BRANCH   1  27
ATOM     27  O   UNL A   1      37.985  21.065  25.455  1.00  0.00    -0.374 OA
BRANCH  27  28
ATOM     28  C   UNL A   1      38.630  22.290  25.691  1.00  0.00     0.202 C 
BRANCH  28  29
ATOM     29  C   UNL A   1      39.540  22.253  26.918  1.00  0.00     0.261 C 
BRANCH  29  30
ATOM     30  O   UNL A   1      40.214  20.979  26.997  1.00  0.00    -0.460 OA
BRANCH  30  31
ATOM     31  C   UNL A   1      41.441  20.923  26.400  1.00  0.00     0.338 C 
ATOM     32  O   UNL A   1      41.809  19.995  25.697  1.00  0.00    -0.246 OA
BRANCH  31  33
ATOM     33  C   UNL A   1      42.317  22.027  26.902  1.00  0.00     0.060 A 
ATOM     34  C   UNL A   1      42.406  22.295  28.278  1.00  0.00     0.016 A 
ATOM     35  C   UNL A   1      42.789  22.969  25.990  1.00  0.00     0.016 A 
ATOM     36  C   UNL A   1      42.777  23.573  28.725  1.00  0.00     0.010 A 
ATOM     37  C   UNL A   1      43.035  24.254  26.433  1.00  0.00     0.010 A 
ATOM     38  C   UNL A   1      42.980  24.583  27.799  1.00  0.00    -0.014 A 
BRANCH  38  39
ATOM     39  C   UNL A   1      43.176  26.007  28.091  1.00  0.00     0.031 A 
ATOM     40  C   UNL A   1      41.953  26.839  28.147  1.00  0.00     0.074 A 
ATOM     41  C   UNL A   1      44.314  26.496  28.649  1.00  0.00     0.049 A 
ATOM     42  N   UNL A   1      41.950  28.077  28.494  1.00  0.00    -0.248 NA
ATOM     43  C   UNL A   1      40.620  26.347  27.793  1.00  0.00     0.031 C 
ATOM     44  C   UNL A   1      44.389  27.542  29.673  1.00  0.00     0.029 A 
ATOM     45  N   UNL A   1      45.659  26.165  28.454  1.00  0.00    -0.354 N 
ATOM     46  C   UNL A   1      40.653  28.401  28.790  1.00  0.00     0.074 A 
ATOM     47  C   UNL A   1      39.855  27.371  28.179  1.00  0.00     0.031 C 
ATOM     48  C   UNL A   1      45.662  27.919  29.842  1.00  0.00     0.029 A 
ATOM     49  C   UNL A   1      46.451  27.264  28.824  1.00  0.00     0.049 A 
ATOM     50  H   UNL A   1      45.994  25.304  28.114  1.00  0.00     0.167 HD
ATOM     51  C   UNL A   1      40.438  29.420  29.662  1.00  0.00     0.034 A 
ATOM     52  C   UNL A   1      47.356  27.825  27.978  1.00  0.00     0.034 A 
ATOM     53  C   UNL A   1      41.681  30.185  29.916  1.00  0.00     0.049 A 
ATOM     54  C   UNL A   1      46.951  29.251  27.694  1.00  0.00     0.074 A 
ATOM     55  C   UNL A   1      42.531  30.365  30.993  1.00  0.00     0.029 A 
ATOM     56  N   UNL A   1      42.364  30.706  28.821  1.00  0.00    -0.354 N 
ATOM     57  N   UNL A   1      46.034  29.874  28.380  1.00  0.00    -0.248 NA
ATOM     58  C   UNL A   1      47.459  30.067  26.599  1.00  0.00     0.031 C 
ATOM     59  C   UNL A   1      43.757  30.931  30.501  1.00  0.00     0.029 A 
ATOM     60  C   UNL A   1      43.639  31.149  29.136  1.00  0.00     0.049 A 
ATOM     61  H   UNL A   1      41.980  30.757  27.916  1.00  0.00     0.167 HD
ATOM     62  C   UNL A   1      45.627  30.981  27.713  1.00  0.00     0.074 A 
ATOM     63  C   UNL A   1      46.607  31.108  26.638  1.00  0.00     0.031 C 
ATOM     64  C   UNL A   1      44.495  31.667  28.058  1.00  0.00     0.034 A 
BRANCH  51  65
ATOM     65  C   UNL A   1      39.126  29.673  30.380  1.00  0.00     0.023 A 
ATOM     66  C   UNL A   1      38.798  28.783  31.422  1.00  0.00     0.012 A 
ATOM     67  C   UNL A   1      38.152  30.663  30.069  1.00  0.00     0.148 A 
ATOM     68  C   UNL A   1      37.588  28.864  32.122  1.00  0.00     0.002 A 
ATOM     69  C   UNL A   1      36.975  30.788  30.817  1.00  0.00     0.091 A 
ATOM     70  F   UNL A   1      38.296  31.436  28.988  1.00  0.00    -0.205 F 
ATOM     71  C   UNL A   1      36.685  29.878  31.835  1.00  0.00     0.022 A 
BRANCH  69  72
ATOM     72  S   UNL A   1      35.774  32.108  30.546  1.00  0.00     0.127 S 
ATOM     73  O   UNL A   1      36.633  33.285  30.417  1.00  0.00    -0.237 OA
ATOM     74  O   UNL A   1      35.127  31.693  29.301  1.00  0.00    -0.237 OA
ATOM     75  O   UNL A   1      34.894  32.108  31.709  1.00  0.00    -0.744 OA
ENDBRANCH  69  72
ENDBRANCH  51  65
BRANCH  52  76
ATOM     76  C   UNL A   1      47.926  26.801  27.045  1.00  0.00     0.023 A 
ATOM     77  C   UNL A   1      47.222  26.599  25.827  1.00  0.00     0.012 A 
ATOM     78  C   UNL A   1      49.295  26.487  27.090  1.00  0.00     0.148 A 
ATOM     79  C   UNL A   1      47.898  26.249  24.655  1.00  0.00     0.002 A 
ATOM     80  C   UNL A   1      49.968  26.176  25.909  1.00  0.00     0.091 A 
ATOM     81  F   UNL A   1      49.936  26.587  28.262  1.00  0.00    -0.205 F 
ATOM     82  C   UNL A   1      49.280  26.093  24.686  1.00  0.00     0.022 A 
BRANCH  80  83
ATOM     83  S   UNL A   1      51.761  26.056  25.863  1.00  0.00     0.127 S 
ATOM     84  O   UNL A   1      52.027  26.161  24.431  1.00  0.00    -0.237 OA
ATOM     85  O   UNL A   1      52.179  27.220  26.649  1.00  0.00    -0.237 OA
ATOM     86  O   UNL A   1      52.075  24.776  26.481  1.00  0.00    -0.744 OA
ENDBRANCH  80  83
ENDBRANCH  52  76
BRANCH  64  87
ATOM     87  C   UNL A   1      44.140  32.939  27.344  1.00  0.00     0.023 A 
ATOM     88  C   UNL A   1      44.082  32.945  25.936  1.00  0.00     0.012 A 
ATOM     89  C   UNL A   1      43.974  34.170  28.011  1.00  0.00     0.148 A 
ATOM     90  C   UNL A   1      43.759  34.098  25.225  1.00  0.00     0.002 A 
ATOM     91  C   UNL A   1      43.784  35.340  27.291  1.00  0.00     0.091 A 
ATOM     92  F   UNL A   1      43.943  34.211  29.348  1.00  0.00    -0.205 F 
ATOM     93  C   UNL A   1      43.626  35.302  25.902  1.00  0.00     0.022 A 
BRANCH  91  94
ATOM     94  S   UNL A   1      43.873  36.956  28.068  1.00  0.00     0.127 S 
ATOM     95  O   UNL A   1      43.750  37.846  26.911  1.00  0.00    -0.237 OA
ATOM     96  O   UNL A   1      42.706  36.931  28.947  1.00  0.00    -0.237 OA
ATOM     97  O   UNL A   1      45.168  37.013  28.730  1.00  0.00    -0.744 OA
ENDBRANCH  91  94
ENDBRANCH  64  87
ENDBRANCH  38  39
ENDBRANCH  31  33
ENDBRANCH  30  31
ENDBRANCH  29  30
ENDBRANCH  28  29
ENDBRANCH  27  28
ENDBRANCH   1  27
TORSDOF 21
ENDMDL
MODEL 2
REMARK VINA RESULT:     -11.0      2.077      2.798
REMARK SMILES COC(=O)c1ccc(C)c(NC(=O)[C@H]2CC=CC[C@H]2C(=O)OCCOCCOC(=O)c2ccc(-c3c4nc(c(-c5cccc(S(=O)(=O)[O-])c5F)c5ccc([nH]5)c(-c5cccc(S(=O)(=O)[O-])c5F)c5nc(c(-c6cccc(S(=O)(=O)[O-])c6F)c6ccc3[nH]6)C=C5)C=C4)cc2)c1
REMARK SMILES IDX 24 1 23 2 22 3 20 4 21 5 19 6 14 7 15 8 16 9 18 10 17 11
REMARK SMILES IDX 12 12 11 13 13 15 10 16 5 17 6 18 94 19 7 20 8 21 9 22 3 23
REMARK SMILES IDX 4 24 2 25 1 26 25 27 26 28 27 29 28 30 29 31 30 32 31 33
REMARK SMILES IDX 32 34 93 35 33 36 92 37 34 38 35 39 36 40 86 41 37 42 91 43
REMARK SMILES IDX 85 44 87 45 38 46 90 47 84 48 83 49 39 51 71 52 51 53 70 54
REMARK SMILES IDX 52 55 55 56 69 57 88 58 53 59 54 60 68 62 89 63 56 64 40 65
REMARK SMILES IDX 41 66 49 67 42 68 44 69 50 70 43 71 45 72 46 73 47 74 48 75
REMARK SMILES IDX 72 76 73 77 81 78 74 79 76 80 82 81 75 82 77 83 78 84 79 85
REMARK SMILES IDX 80 86 57 87 58 88 66 89 59 90 61 91 67 92 60 93 62 94 63 95
REMARK SMILES IDX 64 96 65 97
REMARK H PARENT 11 14 87 50 55 61
REMARK Flexibility Score: inf
ROOT
ATOM      1  C   UNL A   1      38.746  21.452  25.833  1.00  0.00     0.202 C 
ENDROOT
BRANCH   1   2
ATOM      2  C   UNL A   1      38.426  22.872  26.199  1.00  0.00     0.261 C 
BRANCH   2   3
ATOM      3  O   UNL A   1      37.026  23.194  25.993  1.00  0.00    -0.463 OA
BRANCH   3   4
ATOM      4  C   UNL A   1      36.358  23.102  24.811  1.00  0.00     0.310 C 
ATOM      5  O   UNL A   1      36.785  23.346  23.697  1.00  0.00    -0.252 OA
BRANCH   4   6
ATOM      6  C   UNL A   1      34.966  22.534  25.032  1.00  0.00     0.116 C 
ATOM      7  C   UNL A   1      33.887  23.595  24.781  1.00  0.00     0.097 C 
ATOM      8  C   UNL A   1      32.483  23.048  25.064  1.00  0.00     0.041 C 
ATOM      9  C   UNL A   1      32.279  21.612  24.696  1.00  0.00    -0.030 C 
ATOM     10  C   UNL A   1      34.716  21.218  24.312  1.00  0.00     0.043 C 
ATOM     11  C   UNL A   1      33.277  20.794  24.345  1.00  0.00    -0.030 C 
BRANCH   7  12
ATOM     12  C   UNL A   1      33.923  24.272  23.408  1.00  0.00     0.228 C 
ATOM     13  N   UNL A   1      33.895  25.661  23.363  1.00  0.00    -0.326 N 
ATOM     14  H   UNL A   1      34.635  26.161  22.951  1.00  0.00     0.169 HD
ATOM     15  O   UNL A   1      33.967  23.663  22.338  1.00  0.00    -0.274 OA
BRANCH  13  16
ATOM     16  C   UNL A   1      32.790  26.344  23.917  1.00  0.00     0.044 A 
ATOM     17  C   UNL A   1      32.145  27.670  25.833  1.00  0.00     0.062 A 
ATOM     18  C   UNL A   1      31.221  28.351  25.038  1.00  0.00     0.016 A 
ATOM     19  C   UNL A   1      32.923  26.660  25.268  1.00  0.00     0.042 A 
ATOM     20  C   UNL A   1      30.990  27.928  23.725  1.00  0.00     0.006 A 
ATOM     21  C   UNL A   1      31.729  26.872  23.172  1.00  0.00    -0.027 A 
ATOM     22  C   UNL A   1      31.324  26.349  21.824  1.00  0.00     0.046 C 
BRANCH  17  23
ATOM     23  C   UNL A   1      32.376  28.116  27.233  1.00  0.00     0.337 C 
ATOM     24  O   UNL A   1      31.543  28.100  28.111  1.00  0.00    -0.246 OA
BRANCH  23  25
ATOM     25  O   UNL A   1      33.658  28.546  27.370  1.00  0.00    -0.465 OA
ATOM     26  C   UNL A   1      33.783  29.967  27.340  1.00  0.00     0.282 C 
ENDBRANCH  23  25
ENDBRANCH  17  23
ENDBRANCH  13  16
ENDBRANCH   7  12
ENDBRANCH   4   6
ENDBRANCH   3   4
ENDBRANCH   2   3
ENDBRANCH   1   2
BRANCH   1  27
ATOM     27  O   UNL A   1      40.118  21.291  26.113  1.00  0.00    -0.374 OA
BRANCH  27  28
ATOM     28  C   UNL A   1      40.603  19.990  26.322  1.00  0.00     0.202 C 
BRANCH  28  29
ATOM     29  C   UNL A   1      42.081  19.845  25.964  1.00  0.00     0.261 C 
BRANCH  29  30
ATOM     30  O   UNL A   1      42.827  20.973  26.470  1.00  0.00    -0.460 OA
BRANCH  30  31
ATOM     31  C   UNL A   1      43.356  21.804  25.524  1.00  0.00     0.338 C 
ATOM     32  O   UNL A   1      44.182  21.449  24.698  1.00  0.00    -0.246 OA
BRANCH  31  33
ATOM     33  C   UNL A   1      42.950  23.220  25.787  1.00  0.00     0.060 A 
ATOM     34  C   UNL A   1      43.512  24.271  25.045  1.00  0.00     0.016 A 
ATOM     35  C   UNL A   1      42.258  23.506  26.962  1.00  0.00     0.016 A 
ATOM     36  C   UNL A   1      43.554  25.569  25.581  1.00  0.00     0.010 A 
ATOM     37  C   UNL A   1      42.409  24.754  27.533  1.00  0.00     0.010 A 
ATOM     38  C   UNL A   1      43.104  25.783  26.873  1.00  0.00    -0.014 A 
BRANCH  38  39
ATOM     39  C   UNL A   1      43.252  27.017  27.654  1.00  0.00     0.031 A 
ATOM     40  C   UNL A   1      42.100  27.946  27.635  1.00  0.00     0.074 A 
ATOM     41  C   UNL A   1      44.183  27.164  28.632  1.00  0.00     0.049 A 
ATOM     42  N   UNL A   1      42.035  29.013  28.349  1.00  0.00    -0.248 NA
ATOM     43  C   UNL A   1      40.922  27.760  26.787  1.00  0.00     0.031 C 
ATOM     44  C   UNL A   1      43.980  27.837  29.918  1.00  0.00     0.029 A 
ATOM     45  N   UNL A   1      45.511  26.735  28.721  1.00  0.00    -0.354 N 
ATOM     46  C   UNL A   1      40.722  29.400  28.363  1.00  0.00     0.074 A 
ATOM     47  C   UNL A   1      40.112  28.713  27.255  1.00  0.00     0.031 C 
ATOM     48  C   UNL A   1      45.154  27.977  30.546  1.00  0.00     0.029 A 
ATOM     49  C   UNL A   1      46.192  27.559  29.631  1.00  0.00     0.049 A 
ATOM     50  H   UNL A   1      45.903  25.979  28.226  1.00  0.00     0.167 HD
ATOM     51  C   UNL A   1      40.288  30.131  29.423  1.00  0.00     0.034 A 
ATOM     52  C   UNL A   1      47.330  28.225  29.297  1.00  0.00     0.034 A 
ATOM     53  C   UNL A   1      41.421  30.616  30.244  1.00  0.00     0.049 A 
ATOM     54  C   UNL A   1      47.081  29.710  29.391  1.00  0.00     0.074 A 
ATOM     55  C   UNL A   1      41.910  30.354  31.512  1.00  0.00     0.029 A 
ATOM     56  N   UNL A   1      42.422  31.348  29.611  1.00  0.00    -0.354 N 
ATOM     57  N   UNL A   1      46.021  30.215  29.959  1.00  0.00    -0.248 NA
ATOM     58  C   UNL A   1      47.926  30.743  28.805  1.00  0.00     0.031 C 
ATOM     59  C   UNL A   1      43.246  30.876  31.590  1.00  0.00     0.029 A 
ATOM     60  C   UNL A   1      43.556  31.506  30.393  1.00  0.00     0.049 A 
ATOM     61  H   UNL A   1      42.333  31.715  28.703  1.00  0.00     0.167 HD
ATOM     62  C   UNL A   1      45.875  31.513  29.601  1.00  0.00     0.074 A 
ATOM     63  C   UNL A   1      47.140  31.827  28.941  1.00  0.00     0.031 C 
ATOM     64  C   UNL A   1      44.717  32.206  29.822  1.00  0.00     0.034 A 
BRANCH  51  65
ATOM     65  C   UNL A   1      38.830  30.327  29.791  1.00  0.00     0.023 A 
ATOM     66  C   UNL A   1      38.132  29.183  30.227  1.00  0.00     0.012 A 
ATOM     67  C   UNL A   1      38.065  31.521  29.672  1.00  0.00     0.148 A 
ATOM     68  C   UNL A   1      36.767  29.211  30.535  1.00  0.00     0.002 A 
ATOM     69  C   UNL A   1      36.718  31.565  30.050  1.00  0.00     0.091 A 
ATOM     70  F   UNL A   1      38.595  32.608  29.103  1.00  0.00    -0.205 F 
ATOM     71  C   UNL A   1      36.063  30.404  30.467  1.00  0.00     0.022 A 
BRANCH  69  72
ATOM     72  S   UNL A   1      35.744  33.084  30.043  1.00  0.00     0.127 S 
ATOM     73  O   UNL A   1      36.518  33.951  30.932  1.00  0.00    -0.237 OA
ATOM     74  O   UNL A   1      35.782  33.476  28.634  1.00  0.00    -0.237 OA
ATOM     75  O   UNL A   1      34.417  32.725  30.531  1.00  0.00    -0.744 OA
ENDBRANCH  69  72
ENDBRANCH  51  65
BRANCH  52  76
ATOM     76  C   UNL A   1      48.120  27.461  28.279  1.00  0.00     0.023 A 
ATOM     77  C   UNL A   1      48.603  26.188  28.684  1.00  0.00     0.012 A 
ATOM     78  C   UNL A   1      47.927  27.702  26.909  1.00  0.00     0.148 A 
ATOM     79  C   UNL A   1      48.733  25.142  27.766  1.00  0.00     0.002 A 
ATOM     80  C   UNL A   1      48.022  26.644  26.005  1.00  0.00     0.091 A 
ATOM     81  F   UNL A   1      47.563  28.931  26.520  1.00  0.00    -0.205 F 
ATOM     82  C   UNL A   1      48.389  25.357  26.435  1.00  0.00     0.022 A 
BRANCH  80  83
ATOM     83  S   UNL A   1      47.502  26.830  24.295  1.00  0.00     0.127 S 
ATOM     84  O   UNL A   1      46.122  27.281  24.452  1.00  0.00    -0.237 OA
ATOM     85  O   UNL A   1      48.424  27.851  23.790  1.00  0.00    -0.237 OA
ATOM     86  O   UNL A   1      47.683  25.517  23.694  1.00  0.00    -0.744 OA
ENDBRANCH  80  83
ENDBRANCH  52  76
BRANCH  64  87
ATOM     87  C   UNL A   1      44.641  33.668  29.490  1.00  0.00     0.023 A 
ATOM     88  C   UNL A   1      45.125  34.611  30.418  1.00  0.00     0.012 A 
ATOM     89  C   UNL A   1      43.996  34.157  28.335  1.00  0.00     0.148 A 
ATOM     90  C   UNL A   1      45.077  35.979  30.159  1.00  0.00     0.002 A 
ATOM     91  C   UNL A   1      43.832  35.521  28.147  1.00  0.00     0.091 A 
ATOM     92  F   UNL A   1      43.585  33.310  27.385  1.00  0.00    -0.205 F 
ATOM     93  C   UNL A   1      44.414  36.436  29.030  1.00  0.00     0.022 A 
BRANCH  91  94
ATOM     94  S   UNL A   1      42.762  36.179  26.863  1.00  0.00     0.127 S 
ATOM     95  O   UNL A   1      43.117  35.332  25.722  1.00  0.00    -0.237 OA
ATOM     96  O   UNL A   1      41.436  35.929  27.421  1.00  0.00    -0.237 OA
ATOM     97  O   UNL A   1      43.135  37.578  26.708  1.00  0.00    -0.744 OA
ENDBRANCH  91  94
ENDBRANCH  64  87
ENDBRANCH  38  39
ENDBRANCH  31  33
ENDBRANCH  30  31
ENDBRANCH  29  30
ENDBRANCH  28  29
ENDBRANCH  27  28
ENDBRANCH   1  27
TORSDOF 21
ENDMDL
MODEL 3
REMARK VINA RESULT:     -10.8      2.469      3.249
REMARK SMILES COC(=O)c1ccc(C)c(NC(=O)[C@H]2CC=CC[C@H]2C(=O)OCCOCCOC(=O)c2ccc(-c3c4nc(c(-c5cccc(S(=O)(=O)[O-])c5F)c5ccc([nH]5)c(-c5cccc(S(=O)(=O)[O-])c5F)c5nc(c(-c6cccc(S(=O)(=O)[O-])c6F)c6ccc3[nH]6)C=C5)C=C4)cc2)c1
REMARK SMILES IDX 24 1 23 2 22 3 20 4 21 5 19 6 14 7 15 8 16 9 18 10 17 11
REMARK SMILES IDX 12 12 11 13 13 15 10 16 5 17 6 18 94 19 7 20 8 21 9 22 3 23
REMARK SMILES IDX 4 24 2 25 1 26 25 27 26 28 27 29 28 30 29 31 30 32 31 33
REMARK SMILES IDX 32 34 93 35 33 36 92 37 34 38 35 39 36 40 86 41 37 42 91 43
REMARK SMILES IDX 85 44 87 45 38 46 90 47 84 48 83 49 39 51 71 52 51 53 70 54
REMARK SMILES IDX 52 55 55 56 69 57 88 58 53 59 54 60 68 62 89 63 56 64 40 65
REMARK SMILES IDX 41 66 49 67 42 68 44 69 50 70 43 71 45 72 46 73 47 74 48 75
REMARK SMILES IDX 72 76 73 77 81 78 74 79 76 80 82 81 75 82 77 83 78 84 79 85
REMARK SMILES IDX 80 86 57 87 58 88 66 89 59 90 61 91 67 92 60 93 62 94 63 95
REMARK SMILES IDX 64 96 65 97
REMARK H PARENT 11 14 87 50 55 61
REMARK Flexibility Score: inf
ROOT
ATOM      1  C   UNL A   1      36.354  21.520  24.771  1.00  0.00     0.202 C 
ENDROOT
BRANCH   1   2
ATOM      2  C   UNL A   1      36.484  23.014  24.810  1.00  0.00     0.261 C 
BRANCH   2   3
ATOM      3  O   UNL A   1      35.214  23.686  24.607  1.00  0.00    -0.463 OA
BRANCH   3   4
ATOM      4  C   UNL A   1      34.453  23.616  23.482  1.00  0.00     0.310 C 
ATOM      5  O   UNL A   1      34.803  23.261  22.370  1.00  0.00    -0.252 OA
BRANCH   4   6
ATOM      6  C   UNL A   1      33.007  23.956  23.799  1.00  0.00     0.116 C 
ATOM      7  C   UNL A   1      32.794  25.475  23.861  1.00  0.00     0.097 C 
ATOM      8  C   UNL A   1      31.352  25.826  24.243  1.00  0.00     0.041 C 
ATOM      9  C   UNL A   1      30.310  24.906  23.690  1.00  0.00    -0.030 C 
ATOM     10  C   UNL A   1      31.997  23.228  22.925  1.00  0.00     0.043 C 
ATOM     11  C   UNL A   1      30.597  23.747  23.086  1.00  0.00    -0.030 C 
BRANCH   7  12
ATOM     12  C   UNL A   1      33.217  26.259  22.615  1.00  0.00     0.228 C 
ATOM     13  N   UNL A   1      33.667  27.563  22.787  1.00  0.00    -0.326 N 
ATOM     14  H   UNL A   1      34.576  27.817  22.507  1.00  0.00     0.169 HD
ATOM     15  O   UNL A   1      33.175  25.812  21.469  1.00  0.00    -0.274 OA
BRANCH  13  16
ATOM     16  C   UNL A   1      32.804  28.518  23.368  1.00  0.00     0.044 A 
ATOM     17  C   UNL A   1      30.551  29.381  23.214  1.00  0.00     0.062 A 
ATOM     18  C   UNL A   1      30.581  29.672  24.580  1.00  0.00     0.016 A 
ATOM     19  C   UNL A   1      31.670  28.810  22.611  1.00  0.00     0.042 A 
ATOM     20  C   UNL A   1      31.770  29.515  25.297  1.00  0.00     0.006 A 
ATOM     21  C   UNL A   1      32.917  28.996  24.679  1.00  0.00    -0.027 A 
ATOM     22  C   UNL A   1      34.207  29.007  25.446  1.00  0.00     0.046 C 
BRANCH  17  23
ATOM     23  C   UNL A   1      29.286  29.564  22.453  1.00  0.00     0.337 C 
ATOM     24  O   UNL A   1      28.196  29.184  22.819  1.00  0.00    -0.246 OA
BRANCH  23  25
ATOM     25  O   UNL A   1      29.543  30.217  21.289  1.00  0.00    -0.465 OA
ATOM     26  C   UNL A   1      28.476  31.067  20.872  1.00  0.00     0.282 C 
ENDBRANCH  23  25
ENDBRANCH  17  23
ENDBRANCH  13  16
ENDBRANCH   7  12
ENDBRANCH   4   6
ENDBRANCH   3   4
ENDBRANCH   2   3
ENDBRANCH   1   2
BRANCH   1  27
ATOM     27  O   UNL A   1      37.653  21.023  24.997  1.00  0.00    -0.374 OA
BRANCH  27  28
ATOM     28  C   UNL A   1      38.618  21.903  25.512  1.00  0.00     0.202 C 
BRANCH  28  29
ATOM     29  C   UNL A   1      39.646  21.202  26.398  1.00  0.00     0.261 C 
BRANCH  29  30
ATOM     30  O   UNL A   1      40.230  22.145  27.323  1.00  0.00    -0.460 OA
BRANCH  30  31
ATOM     31  C   UNL A   1      41.156  22.996  26.791  1.00  0.00     0.338 C 
ATOM     32  O   UNL A   1      42.236  22.633  26.353  1.00  0.00    -0.246 OA
BRANCH  31  33
ATOM     33  C   UNL A   1      40.752  24.418  27.024  1.00  0.00     0.060 A 
ATOM     34  C   UNL A   1      41.088  25.415  26.095  1.00  0.00     0.016 A 
ATOM     35  C   UNL A   1      40.323  24.787  28.298  1.00  0.00     0.016 A 
ATOM     36  C   UNL A   1      41.185  26.755  26.502  1.00  0.00     0.010 A 
ATOM     37  C   UNL A   1      40.538  26.085  28.719  1.00  0.00     0.010 A 
ATOM     38  C   UNL A   1      41.022  27.071  27.841  1.00  0.00    -0.014 A 
BRANCH  38  39
ATOM     39  C   UNL A   1      41.280  28.371  28.468  1.00  0.00     0.031 A 
ATOM     40  C   UNL A   1      40.200  29.378  28.358  1.00  0.00     0.074 A 
ATOM     41  C   UNL A   1      42.243  28.561  29.406  1.00  0.00     0.049 A 
ATOM     42  N   UNL A   1      40.231  30.523  28.942  1.00  0.00    -0.248 NA
ATOM     43  C   UNL A   1      38.990  29.185  27.556  1.00  0.00     0.031 C 
ATOM     44  C   UNL A   1      42.122  29.393  30.607  1.00  0.00     0.029 A 
ATOM     45  N   UNL A   1      43.537  28.044  29.524  1.00  0.00    -0.354 N 
ATOM     46  C   UNL A   1      38.951  31.007  28.931  1.00  0.00     0.074 A 
ATOM     47  C   UNL A   1      38.265  30.245  27.922  1.00  0.00     0.031 C 
ATOM     48  C   UNL A   1      43.319  29.515  31.195  1.00  0.00     0.029 A 
ATOM     49  C   UNL A   1      44.299  28.915  30.320  1.00  0.00     0.049 A 
ATOM     50  H   UNL A   1      43.860  27.208  29.117  1.00  0.00     0.167 HD
ATOM     51  C   UNL A   1      38.599  31.889  29.903  1.00  0.00     0.034 A 
ATOM     52  C   UNL A   1      45.476  29.448  29.892  1.00  0.00     0.034 A 
ATOM     53  C   UNL A   1      39.785  32.378  30.644  1.00  0.00     0.049 A 
ATOM     54  C   UNL A   1      45.340  30.949  29.813  1.00  0.00     0.074 A 
ATOM     55  C   UNL A   1      40.284  32.229  31.925  1.00  0.00     0.029 A 
ATOM     56  N   UNL A   1      40.821  32.952  29.913  1.00  0.00    -0.354 N 
ATOM     57  N   UNL A   1      44.334  31.596  30.334  1.00  0.00    -0.248 NA
ATOM     58  C   UNL A   1      46.244  31.839  29.096  1.00  0.00     0.031 C 
ATOM     59  C   UNL A   1      41.657  32.653  31.920  1.00  0.00     0.029 A 
ATOM     60  C   UNL A   1      41.983  33.113  30.652  1.00  0.00     0.049 A 
ATOM     61  H   UNL A   1      40.737  33.217  28.969  1.00  0.00     0.167 HD
ATOM     62  C   UNL A   1      44.276  32.851  29.828  1.00  0.00     0.074 A 
ATOM     63  C   UNL A   1      45.544  32.988  29.116  1.00  0.00     0.031 C 
ATOM     64  C   UNL A   1      43.178  33.651  29.984  1.00  0.00     0.034 A 
BRANCH  51  65
ATOM     65  C   UNL A   1      37.169  32.237  30.269  1.00  0.00     0.023 A 
ATOM     66  C   UNL A   1      36.680  31.699  31.477  1.00  0.00     0.012 A 
ATOM     67  C   UNL A   1      36.239  32.982  29.491  1.00  0.00     0.148 A 
ATOM     68  C   UNL A   1      35.359  31.889  31.899  1.00  0.00     0.002 A 
ATOM     69  C   UNL A   1      34.940  33.232  29.949  1.00  0.00     0.091 A 
ATOM     70  F   UNL A   1      36.558  33.379  28.256  1.00  0.00    -0.205 F 
ATOM     71  C   UNL A   1      34.494  32.671  31.148  1.00  0.00     0.022 A 
BRANCH  69  72
ATOM     72  S   UNL A   1      33.769  34.281  29.063  1.00  0.00     0.127 S 
ATOM     73  O   UNL A   1      33.254  33.372  28.039  1.00  0.00    -0.237 OA
ATOM     74  O   UNL A   1      32.803  34.625  30.106  1.00  0.00    -0.237 OA
ATOM     75  O   UNL A   1      34.534  35.414  28.557  1.00  0.00    -0.744 OA
ENDBRANCH  69  72
ENDBRANCH  51  65
BRANCH  52  76
ATOM     76  C   UNL A   1      46.181  28.513  28.959  1.00  0.00     0.023 A 
ATOM     77  C   UNL A   1      46.766  27.360  29.548  1.00  0.00     0.012 A 
ATOM     78  C   UNL A   1      45.824  28.466  27.601  1.00  0.00     0.148 A 
ATOM     79  C   UNL A   1      46.842  26.153  28.846  1.00  0.00     0.002 A 
ATOM     80  C   UNL A   1      45.867  27.250  26.920  1.00  0.00     0.091 A 
ATOM     81  F   UNL A   1      45.361  29.582  27.022  1.00  0.00    -0.205 F 
ATOM     82  C   UNL A   1      46.340  26.085  27.551  1.00  0.00     0.022 A 
BRANCH  80  83
ATOM     83  S   UNL A   1      45.150  27.072  25.282  1.00  0.00     0.127 S 
ATOM     84  O   UNL A   1      46.298  27.350  24.424  1.00  0.00    -0.237 OA
ATOM     85  O   UNL A   1      44.708  25.675  25.277  1.00  0.00    -0.237 OA
ATOM     86  O   UNL A   1      44.063  28.039  25.232  1.00  0.00    -0.744 OA
ENDBRANCH  80  83
ENDBRANCH  52  76
BRANCH  64  87
ATOM     87  C   UNL A   1      43.202  35.066  29.482  1.00  0.00     0.023 A 
ATOM     88  C   UNL A   1      42.884  35.324  28.134  1.00  0.00     0.012 A 
ATOM     89  C   UNL A   1      43.644  36.149  30.270  1.00  0.00     0.148 A 
ATOM     90  C   UNL A   1      42.893  36.618  27.618  1.00  0.00     0.002 A 
ATOM     91  C   UNL A   1      43.778  37.413  29.715  1.00  0.00     0.091 A 
ATOM     92  F   UNL A   1      43.885  35.978  31.575  1.00  0.00    -0.205 F 
ATOM     93  C   UNL A   1      43.357  37.662  28.405  1.00  0.00     0.022 A 
BRANCH  91  94
ATOM     94  S   UNL A   1      44.617  38.744  30.579  1.00  0.00     0.127 S 
ATOM     95  O   UNL A   1      45.736  38.032  31.202  1.00  0.00    -0.237 OA
ATOM     96  O   UNL A   1      44.991  39.628  29.479  1.00  0.00    -0.237 OA
ATOM     97  O   UNL A   1      43.649  39.280  31.527  1.00  0.00    -0.744 OA
ENDBRANCH  91  94
ENDBRANCH  64  87
ENDBRANCH  38  39
ENDBRANCH  31  33
ENDBRANCH  30  31
ENDBRANCH  29  30
ENDBRANCH  28  29
ENDBRANCH  27  28
ENDBRANCH   1  27
TORSDOF 21
ENDMDL
