MODEL 1
REMARK VINA RESULT:     -11.8      0.000      0.000
REMARK SMILES Cc1ccc(C(=O)c2cccc(C)c2C(=O)OCCOCCOC(=O)c2ccc(-c3c4nc(c(-c5cccc(S(=O)(=O)[O-])c5F)c5ccc([nH]5)c(-c5cccc(S(=O)(=O)[O-])c5F)c5nc(c(-c6cccc(S(=O)(=O)[O-])c6F)c6ccc3[nH]6)C=C5)C=C4)cc2)c(C)c1
REMARK SMILES IDX 21 1 20 2 19 3 18 4 17 5 15 6 16 7 14 8 8 9 9 10 10 11 12 12
REMARK SMILES IDX 11 13 13 14 6 15 7 16 5 17 1 18 2 19 3 20 91 21 4 22 89 23
REMARK SMILES IDX 90 24 22 25 23 26 24 27 25 28 26 29 27 30 88 31 28 32 87 33
REMARK SMILES IDX 29 34 30 35 31 36 81 37 32 38 86 39 80 40 82 41 33 42 85 43
REMARK SMILES IDX 79 44 78 45 34 47 66 48 46 49 65 50 47 51 50 52 64 53 83 54
REMARK SMILES IDX 48 55 49 56 63 58 84 59 51 60 35 61 36 62 44 63 37 64 39 65
REMARK SMILES IDX 45 66 38 67 40 68 41 69 42 70 43 71 67 72 68 73 76 74 69 75
REMARK SMILES IDX 71 76 77 77 70 78 72 79 73 80 74 81 75 82 52 83 53 84 61 85
REMARK SMILES IDX 54 86 56 87 62 88 55 89 57 90 58 91 59 92 60 93
REMARK H PARENT 82 46 50 57
REMARK Flexibility Score: inf
ROOT
ATOM      1  C   UNL A   1      32.566  30.098  26.308  1.00  0.00     0.202 C 
ENDROOT
BRANCH   1   2
ATOM      2  O   UNL A   1      31.693  29.059  26.661  1.00  0.00    -0.374 OA
BRANCH   2   3
ATOM      3  C   UNL A   1      32.282  27.902  27.215  1.00  0.00     0.202 C 
BRANCH   3   4
ATOM      4  C   UNL A   1      32.561  27.015  26.049  1.00  0.00     0.261 C 
BRANCH   4   5
ATOM      5  O   UNL A   1      31.487  26.056  25.836  1.00  0.00    -0.460 OA
BRANCH   5   6
ATOM      6  C   UNL A   1      31.537  24.926  25.128  1.00  0.00     0.339 C 
ATOM      7  O   UNL A   1      30.569  24.268  24.784  1.00  0.00    -0.246 OA
BRANCH   6   8
ATOM      8  C   UNL A   1      32.962  24.573  24.807  1.00  0.00     0.074 A 
ATOM      9  C   UNL A   1      33.633  24.904  23.580  1.00  0.00     0.037 A 
ATOM     10  C   UNL A   1      34.956  24.440  23.409  1.00  0.00     0.013 A 
ATOM     11  C   UNL A   1      35.594  23.649  24.364  1.00  0.00     0.001 A 
ATOM     12  C   UNL A   1      33.657  23.802  25.806  1.00  0.00    -0.036 A 
ATOM     13  C   UNL A   1      34.955  23.338  25.551  1.00  0.00     0.004 A 
ATOM     14  C   UNL A   1      33.082  23.437  27.164  1.00  0.00     0.045 C 
BRANCH   9  15
ATOM     15  C   UNL A   1      33.026  25.576  22.349  1.00  0.00     0.194 C 
ATOM     16  O   UNL A   1      33.384  25.340  21.196  1.00  0.00    -0.289 OA
BRANCH  15  17
ATOM     17  C   UNL A   1      32.334  26.881  22.360  1.00  0.00     0.025 A 
ATOM     18  C   UNL A   1      29.708  30.072  23.557  1.00  0.00     0.044 C 
ATOM     19  C   UNL A   1      30.608  28.966  23.102  1.00  0.00    -0.051 A 
ATOM     20  C   UNL A   1      30.081  27.729  22.751  1.00  0.00     0.004 A 
ATOM     21  C   UNL A   1      31.997  29.158  23.075  1.00  0.00     0.007 A 
ATOM     22  C   UNL A   1      30.935  26.699  22.392  1.00  0.00     0.013 A 
ATOM     23  C   UNL A   1      32.889  28.129  22.704  1.00  0.00    -0.040 A 
ATOM     24  C   UNL A   1      34.355  28.458  22.758  1.00  0.00     0.045 C 
ENDBRANCH  15  17
ENDBRANCH   9  15
ENDBRANCH   6   8
ENDBRANCH   5   6
ENDBRANCH   4   5
ENDBRANCH   3   4
ENDBRANCH   2   3
ENDBRANCH   1   2
BRANCH   1  25
ATOM     25  C   UNL A   1      33.849  30.021  27.128  1.00  0.00     0.261 C 
BRANCH  25  26
ATOM     26  O   UNL A   1      34.029  31.256  27.857  1.00  0.00    -0.460 OA
BRANCH  26  27
ATOM     27  C   UNL A   1      35.318  31.710  27.907  1.00  0.00     0.338 C 
ATOM     28  O   UNL A   1      35.649  32.841  27.588  1.00  0.00    -0.246 OA
BRANCH  27  29
ATOM     29  C   UNL A   1      36.262  30.579  28.173  1.00  0.00     0.060 A 
ATOM     30  C   UNL A   1      36.461  30.131  29.492  1.00  0.00     0.016 A 
ATOM     31  C   UNL A   1      37.157  30.197  27.171  1.00  0.00     0.016 A 
ATOM     32  C   UNL A   1      37.640  29.456  29.838  1.00  0.00     0.010 A 
ATOM     33  C   UNL A   1      38.356  29.609  27.534  1.00  0.00     0.010 A 
ATOM     34  C   UNL A   1      38.627  29.284  28.875  1.00  0.00    -0.014 A 
BRANCH  34  35
ATOM     35  C   UNL A   1      39.981  28.794  29.125  1.00  0.00     0.031 A 
ATOM     36  C   UNL A   1      40.255  27.368  28.944  1.00  0.00     0.074 A 
ATOM     37  C   UNL A   1      41.033  29.625  29.288  1.00  0.00     0.049 A 
ATOM     38  N   UNL A   1      41.380  26.822  29.251  1.00  0.00    -0.248 NA
ATOM     39  C   UNL A   1      39.248  26.414  28.490  1.00  0.00     0.031 C 
ATOM     40  C   UNL A   1      42.426  29.438  28.878  1.00  0.00     0.029 A 
ATOM     41  N   UNL A   1      41.050  30.865  29.904  1.00  0.00    -0.354 N 
ATOM     42  C   UNL A   1      41.367  25.579  28.684  1.00  0.00     0.074 A 
ATOM     43  C   UNL A   1      39.976  25.296  28.451  1.00  0.00     0.031 C 
ATOM     44  C   UNL A   1      43.179  30.420  29.405  1.00  0.00     0.029 A 
ATOM     45  C   UNL A   1      42.339  31.145  30.343  1.00  0.00     0.049 A 
ATOM     46  H   UNL A   1      40.270  31.456  30.015  1.00  0.00     0.167 HD
ATOM     47  C   UNL A   1      42.556  25.053  28.287  1.00  0.00     0.034 A 
ATOM     48  C   UNL A   1      42.556  31.420  31.654  1.00  0.00     0.034 A 
ATOM     49  C   UNL A   1      43.699  25.835  28.829  1.00  0.00     0.049 A 
ATOM     50  C   UNL A   1      43.508  30.405  32.235  1.00  0.00     0.074 A 
ATOM     51  C   UNL A   1      44.688  26.631  28.274  1.00  0.00     0.029 A 
ATOM     52  N   UNL A   1      43.769  26.075  30.205  1.00  0.00    -0.354 N 
ATOM     53  N   UNL A   1      43.992  29.397  31.563  1.00  0.00    -0.248 NA
ATOM     54  C   UNL A   1      43.964  30.409  33.615  1.00  0.00     0.031 C 
ATOM     55  C   UNL A   1      45.337  27.349  29.330  1.00  0.00     0.029 A 
ATOM     56  C   UNL A   1      44.782  26.965  30.540  1.00  0.00     0.049 A 
ATOM     57  H   UNL A   1      43.166  25.660  30.864  1.00  0.00     0.167 HD
ATOM     58  C   UNL A   1      44.627  28.527  32.394  1.00  0.00     0.074 A 
ATOM     59  C   UNL A   1      44.619  29.235  33.672  1.00  0.00     0.031 C 
ATOM     60  C   UNL A   1      45.034  27.289  31.955  1.00  0.00     0.034 A 
BRANCH  47  61
ATOM     61  C   UNL A   1      42.693  23.954  27.235  1.00  0.00     0.023 A 
ATOM     62  C   UNL A   1      43.365  24.294  26.042  1.00  0.00     0.012 A 
ATOM     63  C   UNL A   1      42.149  22.638  27.272  1.00  0.00     0.148 A 
ATOM     64  C   UNL A   1      43.486  23.404  24.964  1.00  0.00     0.002 A 
ATOM     65  C   UNL A   1      42.331  21.726  26.229  1.00  0.00     0.091 A 
ATOM     66  F   UNL A   1      41.359  22.254  28.273  1.00  0.00    -0.205 F 
ATOM     67  C   UNL A   1      42.987  22.113  25.062  1.00  0.00     0.022 A 
BRANCH  65  68
ATOM     68  S   UNL A   1      41.741  20.019  26.310  1.00  0.00     0.127 S 
ATOM     69  O   UNL A   1      42.179  19.605  27.643  1.00  0.00    -0.237 OA
ATOM     70  O   UNL A   1      40.293  20.183  26.171  1.00  0.00    -0.237 OA
ATOM     71  O   UNL A   1      42.374  19.304  25.208  1.00  0.00    -0.744 OA
ENDBRANCH  65  68
ENDBRANCH  47  61
BRANCH  48  72
ATOM     72  C   UNL A   1      41.372  32.068  32.332  1.00  0.00     0.023 A 
ATOM     73  C   UNL A   1      41.019  33.394  31.964  1.00  0.00     0.012 A 
ATOM     74  C   UNL A   1      40.394  31.315  33.002  1.00  0.00     0.148 A 
ATOM     75  C   UNL A   1      39.769  33.956  32.240  1.00  0.00     0.002 A 
ATOM     76  C   UNL A   1      39.111  31.849  33.192  1.00  0.00     0.091 A 
ATOM     77  F   UNL A   1      40.700  30.069  33.385  1.00  0.00    -0.205 F 
ATOM     78  C   UNL A   1      38.797  33.164  32.812  1.00  0.00     0.022 A 
BRANCH  76  79
ATOM     79  S   UNL A   1      37.729  30.852  33.766  1.00  0.00     0.127 S 
ATOM     80  O   UNL A   1      38.220  29.500  33.509  1.00  0.00    -0.237 OA
ATOM     81  O   UNL A   1      37.651  31.216  35.183  1.00  0.00    -0.237 OA
ATOM     82  O   UNL A   1      36.587  31.282  32.975  1.00  0.00    -0.744 OA
ENDBRANCH  76  79
ENDBRANCH  48  72
BRANCH  60  83
ATOM     83  C   UNL A   1      45.648  26.245  32.871  1.00  0.00     0.023 A 
ATOM     84  C   UNL A   1      47.018  25.931  32.821  1.00  0.00     0.012 A 
ATOM     85  C   UNL A   1      44.873  25.509  33.803  1.00  0.00     0.148 A 
ATOM     86  C   UNL A   1      47.626  25.101  33.766  1.00  0.00     0.002 A 
ATOM     87  C   UNL A   1      45.466  24.636  34.707  1.00  0.00     0.091 A 
ATOM     88  F   UNL A   1      43.542  25.623  33.809  1.00  0.00    -0.205 F 
ATOM     89  C   UNL A   1      46.851  24.471  34.726  1.00  0.00     0.022 A 
BRANCH  87  90
ATOM     90  S   UNL A   1      44.510  23.639  35.857  1.00  0.00     0.127 S 
ATOM     91  O   UNL A   1      43.548  23.003  34.955  1.00  0.00    -0.237 OA
ATOM     92  O   UNL A   1      45.531  22.738  36.393  1.00  0.00    -0.237 OA
ATOM     93  O   UNL A   1      43.931  24.559  36.823  1.00  0.00    -0.744 OA
ENDBRANCH  87  90
ENDBRANCH  60  83
ENDBRANCH  34  35
ENDBRANCH  27  29
ENDBRANCH  26  27
ENDBRANCH  25  26
ENDBRANCH   1  25
TORSDOF 19
ENDMDL
MODEL 2
REMARK VINA RESULT:     -11.7      3.780      8.960
REMARK SMILES Cc1ccc(C(=O)c2cccc(C)c2C(=O)OCCOCCOC(=O)c2ccc(-c3c4nc(c(-c5cccc(S(=O)(=O)[O-])c5F)c5ccc([nH]5)c(-c5cccc(S(=O)(=O)[O-])c5F)c5nc(c(-c6cccc(S(=O)(=O)[O-])c6F)c6ccc3[nH]6)C=C5)C=C4)cc2)c(C)c1
REMARK SMILES IDX 21 1 20 2 19 3 18 4 17 5 15 6 16 7 14 8 8 9 9 10 10 11 12 12
REMARK SMILES IDX 11 13 13 14 6 15 7 16 5 17 1 18 2 19 3 20 91 21 4 22 89 23
REMARK SMILES IDX 90 24 22 25 23 26 24 27 25 28 26 29 27 30 88 31 28 32 87 33
REMARK SMILES IDX 29 34 30 35 31 36 81 37 32 38 86 39 80 40 82 41 33 42 85 43
REMARK SMILES IDX 79 44 78 45 34 47 66 48 46 49 65 50 47 51 50 52 64 53 83 54
REMARK SMILES IDX 48 55 49 56 63 58 84 59 51 60 35 61 36 62 44 63 37 64 39 65
REMARK SMILES IDX 45 66 38 67 40 68 41 69 42 70 43 71 67 72 68 73 76 74 69 75
REMARK SMILES IDX 71 76 77 77 70 78 72 79 73 80 74 81 75 82 52 83 53 84 61 85
REMARK SMILES IDX 54 86 56 87 62 88 55 89 57 90 58 91 59 92 60 93
REMARK H PARENT 82 46 50 57
REMARK Flexibility Score: inf
ROOT
ATOM      1  C   UNL A   1      37.484  21.856  25.743  1.00  0.00     0.202 C 
ENDROOT
BRANCH   1   2
ATOM      2  O   UNL A   1      37.256  22.569  24.557  1.00  0.00    -0.374 OA
BRANCH   2   3
ATOM      3  C   UNL A   1      36.084  22.243  23.842  1.00  0.00     0.202 C 
BRANCH   3   4
ATOM      4  C   UNL A   1      35.471  23.555  23.488  1.00  0.00     0.261 C 
BRANCH   4   5
ATOM      5  O   UNL A   1      34.471  23.416  22.440  1.00  0.00    -0.460 OA
BRANCH   5   6
ATOM      6  C   UNL A   1      33.314  24.071  22.330  1.00  0.00     0.339 C 
ATOM      7  O   UNL A   1      32.971  24.736  21.366  1.00  0.00    -0.246 OA
BRANCH   6   8
ATOM      8  C   UNL A   1      32.481  23.874  23.566  1.00  0.00     0.074 A 
ATOM      9  C   UNL A   1      32.231  24.885  24.556  1.00  0.00     0.037 A 
ATOM     10  C   UNL A   1      31.481  24.517  25.694  1.00  0.00     0.013 A 
ATOM     11  C   UNL A   1      31.027  23.214  25.895  1.00  0.00     0.001 A 
ATOM     12  C   UNL A   1      31.957  22.547  23.762  1.00  0.00    -0.036 A 
ATOM     13  C   UNL A   1      31.257  22.241  24.938  1.00  0.00     0.004 A 
ATOM     14  C   UNL A   1      32.102  21.409  22.768  1.00  0.00     0.045 C 
BRANCH   9  15
ATOM     15  C   UNL A   1      32.820  26.294  24.604  1.00  0.00     0.194 C 
ATOM     16  O   UNL A   1      34.022  26.529  24.710  1.00  0.00    -0.289 OA
BRANCH  15  17
ATOM     17  C   UNL A   1      32.075  27.501  25.019  1.00  0.00     0.025 A 
ATOM     18  C   UNL A   1      31.260  31.538  26.265  1.00  0.00     0.044 C 
ATOM     19  C   UNL A   1      31.519  30.120  25.861  1.00  0.00    -0.051 A 
ATOM     20  C   UNL A   1      32.306  29.294  26.655  1.00  0.00     0.004 A 
ATOM     21  C   UNL A   1      31.007  29.630  24.650  1.00  0.00     0.007 A 
ATOM     22  C   UNL A   1      32.585  28.004  26.233  1.00  0.00     0.013 A 
ATOM     23  C   UNL A   1      31.268  28.318  24.202  1.00  0.00    -0.040 A 
ATOM     24  C   UNL A   1      30.693  27.937  22.867  1.00  0.00     0.045 C 
ENDBRANCH  15  17
ENDBRANCH   9  15
ENDBRANCH   6   8
ENDBRANCH   5   6
ENDBRANCH   4   5
ENDBRANCH   3   4
ENDBRANCH   2   3
ENDBRANCH   1   2
BRANCH   1  25
ATOM     25  C   UNL A   1      38.934  21.388  25.817  1.00  0.00     0.261 C 
BRANCH  25  26
ATOM     26  O   UNL A   1      39.605  22.069  26.900  1.00  0.00    -0.460 OA
BRANCH  26  27
ATOM     27  C   UNL A   1      40.596  22.928  26.511  1.00  0.00     0.338 C 
ATOM     28  O   UNL A   1      41.685  22.562  26.101  1.00  0.00    -0.246 OA
BRANCH  27  29
ATOM     29  C   UNL A   1      40.242  24.336  26.877  1.00  0.00     0.060 A 
ATOM     30  C   UNL A   1      40.754  25.404  26.117  1.00  0.00     0.016 A 
ATOM     31  C   UNL A   1      39.679  24.587  28.130  1.00  0.00     0.016 A 
ATOM     32  C   UNL A   1      40.862  26.684  26.681  1.00  0.00     0.010 A 
ATOM     33  C   UNL A   1      39.867  25.828  28.711  1.00  0.00     0.010 A 
ATOM     34  C   UNL A   1      40.507  26.866  28.013  1.00  0.00    -0.014 A 
BRANCH  34  35
ATOM     35  C   UNL A   1      40.755  28.073  28.799  1.00  0.00     0.031 A 
ATOM     36  C   UNL A   1      39.831  29.201  28.663  1.00  0.00     0.074 A 
ATOM     37  C   UNL A   1      41.652  28.109  29.808  1.00  0.00     0.049 A 
ATOM     38  N   UNL A   1      40.028  30.344  29.221  1.00  0.00    -0.248 NA
ATOM     39  C   UNL A   1      38.652  29.165  27.804  1.00  0.00     0.031 C 
ATOM     40  C   UNL A   1      41.594  28.854  31.066  1.00  0.00     0.029 A 
ATOM     41  N   UNL A   1      42.868  27.450  29.887  1.00  0.00    -0.354 N 
ATOM     42  C   UNL A   1      38.848  31.027  29.117  1.00  0.00     0.074 A 
ATOM     43  C   UNL A   1      38.139  30.373  28.049  1.00  0.00     0.031 C 
ATOM     44  C   UNL A   1      42.779  28.757  31.695  1.00  0.00     0.029 A 
ATOM     45  C   UNL A   1      43.704  28.130  30.766  1.00  0.00     0.049 A 
ATOM     46  H   UNL A   1      43.103  26.629  29.398  1.00  0.00     0.167 HD
ATOM     47  C   UNL A   1      38.543  31.913  30.100  1.00  0.00     0.034 A 
ATOM     48  C   UNL A   1      44.916  28.565  30.337  1.00  0.00     0.034 A 
ATOM     49  C   UNL A   1      39.721  32.185  30.967  1.00  0.00     0.049 A 
ATOM     50  C   UNL A   1      44.992  30.066  30.466  1.00  0.00     0.074 A 
ATOM     51  C   UNL A   1      40.038  31.928  32.291  1.00  0.00     0.029 A 
ATOM     52  N   UNL A   1      40.923  32.589  30.376  1.00  0.00    -0.354 N 
ATOM     53  N   UNL A   1      44.004  30.809  30.885  1.00  0.00    -0.248 NA
ATOM     54  C   UNL A   1      46.155  30.859  30.105  1.00  0.00     0.031 C 
ATOM     55  C   UNL A   1      41.438  32.175  32.477  1.00  0.00     0.029 A 
ATOM     56  C   UNL A   1      41.975  32.628  31.282  1.00  0.00     0.049 A 
ATOM     57  H   UNL A   1      41.013  32.821  29.423  1.00  0.00     0.167 HD
ATOM     58  C   UNL A   1      44.274  32.126  30.678  1.00  0.00     0.074 A 
ATOM     59  C   UNL A   1      45.663  32.106  30.224  1.00  0.00     0.031 C 
ATOM     60  C   UNL A   1      43.304  33.087  30.842  1.00  0.00     0.034 A 
BRANCH  47  61
ATOM     61  C   UNL A   1      37.123  32.381  30.415  1.00  0.00     0.023 A 
ATOM     62  C   UNL A   1      36.598  32.022  31.674  1.00  0.00     0.012 A 
ATOM     63  C   UNL A   1      36.222  33.071  29.554  1.00  0.00     0.148 A 
ATOM     64  C   UNL A   1      35.280  32.317  32.054  1.00  0.00     0.002 A 
ATOM     65  C   UNL A   1      34.932  33.429  29.958  1.00  0.00     0.091 A 
ATOM     66  F   UNL A   1      36.544  33.322  28.287  1.00  0.00    -0.205 F 
ATOM     67  C   UNL A   1      34.451  33.037  31.206  1.00  0.00     0.022 A 
BRANCH  65  68
ATOM     68  S   UNL A   1      33.817  34.400  28.918  1.00  0.00     0.127 S 
ATOM     69  O   UNL A   1      33.500  33.457  27.844  1.00  0.00    -0.237 OA
ATOM     70  O   UNL A   1      32.706  34.678  29.828  1.00  0.00    -0.237 OA
ATOM     71  O   UNL A   1      34.560  35.581  28.495  1.00  0.00    -0.744 OA
ENDBRANCH  65  68
ENDBRANCH  47  61
BRANCH  48  72
ATOM     72  C   UNL A   1      45.508  27.702  29.247  1.00  0.00     0.023 A 
ATOM     73  C   UNL A   1      46.048  26.436  29.601  1.00  0.00     0.012 A 
ATOM     74  C   UNL A   1      45.211  27.908  27.890  1.00  0.00     0.148 A 
ATOM     75  C   UNL A   1      46.287  25.421  28.670  1.00  0.00     0.002 A 
ATOM     76  C   UNL A   1      45.362  26.855  26.976  1.00  0.00     0.091 A 
ATOM     77  F   UNL A   1      44.723  29.097  27.517  1.00  0.00    -0.205 F 
ATOM     78  C   UNL A   1      45.897  25.616  27.362  1.00  0.00     0.022 A 
BRANCH  76  79
ATOM     79  S   UNL A   1      44.729  26.941  25.296  1.00  0.00     0.127 S 
ATOM     80  O   UNL A   1      45.953  27.183  24.536  1.00  0.00    -0.237 OA
ATOM     81  O   UNL A   1      44.148  25.609  25.113  1.00  0.00    -0.237 OA
ATOM     82  O   UNL A   1      43.754  28.021  25.304  1.00  0.00    -0.744 OA
ENDBRANCH  76  79
ENDBRANCH  48  72
BRANCH  60  83
ATOM     83  C   UNL A   1      43.527  34.554  30.519  1.00  0.00     0.023 A 
ATOM     84  C   UNL A   1      43.635  35.525  31.530  1.00  0.00     0.012 A 
ATOM     85  C   UNL A   1      43.610  35.030  29.185  1.00  0.00     0.148 A 
ATOM     86  C   UNL A   1      44.007  36.845  31.258  1.00  0.00     0.002 A 
ATOM     87  C   UNL A   1      43.921  36.356  28.909  1.00  0.00     0.091 A 
ATOM     88  F   UNL A   1      43.358  34.209  28.163  1.00  0.00    -0.205 F 
ATOM     89  C   UNL A   1      44.174  37.254  29.945  1.00  0.00     0.022 A 
BRANCH  87  90
ATOM     90  S   UNL A   1      43.968  37.007  27.235  1.00  0.00     0.127 S 
ATOM     91  O   UNL A   1      42.799  36.359  26.640  1.00  0.00    -0.237 OA
ATOM     92  O   UNL A   1      43.816  38.444  27.468  1.00  0.00    -0.237 OA
ATOM     93  O   UNL A   1      45.247  36.607  26.669  1.00  0.00    -0.744 OA
ENDBRANCH  87  90
ENDBRANCH  60  83
ENDBRANCH  34  35
ENDBRANCH  27  29
ENDBRANCH  26  27
ENDBRANCH  25  26
ENDBRANCH   1  25
TORSDOF 19
ENDMDL
MODEL 3
REMARK VINA RESULT:     -11.4      2.658      3.651
REMARK SMILES Cc1ccc(C(=O)c2cccc(C)c2C(=O)OCCOCCOC(=O)c2ccc(-c3c4nc(c(-c5cccc(S(=O)(=O)[O-])c5F)c5ccc([nH]5)c(-c5cccc(S(=O)(=O)[O-])c5F)c5nc(c(-c6cccc(S(=O)(=O)[O-])c6F)c6ccc3[nH]6)C=C5)C=C4)cc2)c(C)c1
REMARK SMILES IDX 21 1 20 2 19 3 18 4 17 5 15 6 16 7 14 8 8 9 9 10 10 11 12 12
REMARK SMILES IDX 11 13 13 14 6 15 7 16 5 17 1 18 2 19 3 20 91 21 4 22 89 23
REMARK SMILES IDX 90 24 22 25 23 26 24 27 25 28 26 29 27 30 88 31 28 32 87 33
REMARK SMILES IDX 29 34 30 35 31 36 81 37 32 38 86 39 80 40 82 41 33 42 85 43
REMARK SMILES IDX 79 44 78 45 34 47 66 48 46 49 65 50 47 51 50 52 64 53 83 54
REMARK SMILES IDX 48 55 49 56 63 58 84 59 51 60 35 61 36 62 44 63 37 64 39 65
REMARK SMILES IDX 45 66 38 67 40 68 41 69 42 70 43 71 67 72 68 73 76 74 69 75
REMARK SMILES IDX 71 76 77 77 70 78 72 79 73 80 74 81 75 82 52 83 53 84 61 85
REMARK SMILES IDX 54 86 56 87 62 88 55 89 57 90 58 91 59 92 60 93
REMARK H PARENT 82 46 50 57
REMARK Flexibility Score: inf
ROOT
ATOM      1  C   UNL A   1      34.388  31.400  27.625  1.00  0.00     0.202 C 
ENDROOT
BRANCH   1   2
ATOM      2  O   UNL A   1      33.550  30.275  27.640  1.00  0.00    -0.374 OA
BRANCH   2   3
ATOM      3  C   UNL A   1      33.559  29.467  26.483  1.00  0.00     0.202 C 
BRANCH   3   4
ATOM      4  C   UNL A   1      33.277  28.088  26.975  1.00  0.00     0.261 C 
BRANCH   4   5
ATOM      5  O   UNL A   1      32.147  27.491  26.278  1.00  0.00    -0.460 OA
BRANCH   5   6
ATOM      6  C   UNL A   1      31.915  26.193  26.071  1.00  0.00     0.339 C 
ATOM      7  O   UNL A   1      31.520  25.405  26.914  1.00  0.00    -0.246 OA
BRANCH   6   8
ATOM      8  C   UNL A   1      32.208  25.832  24.641  1.00  0.00     0.074 A 
ATOM      9  C   UNL A   1      31.319  26.068  23.537  1.00  0.00     0.037 A 
ATOM     10  C   UNL A   1      31.718  25.608  22.263  1.00  0.00     0.013 A 
ATOM     11  C   UNL A   1      32.908  24.908  22.065  1.00  0.00     0.001 A 
ATOM     12  C   UNL A   1      33.459  25.157  24.409  1.00  0.00    -0.036 A 
ATOM     13  C   UNL A   1      33.772  24.689  23.125  1.00  0.00     0.004 A 
ATOM     14  C   UNL A   1      34.508  24.900  25.476  1.00  0.00     0.045 C 
BRANCH   9  15
ATOM     15  C   UNL A   1      29.898  26.627  23.600  1.00  0.00     0.194 C 
ATOM     16  O   UNL A   1      28.888  25.925  23.615  1.00  0.00    -0.289 OA
BRANCH  15  17
ATOM     17  C   UNL A   1      29.509  27.985  23.168  1.00  0.00     0.025 A 
ATOM     18  C   UNL A   1      27.651  31.866  23.161  1.00  0.00     0.044 C 
ATOM     19  C   UNL A   1      28.286  30.510  23.124  1.00  0.00    -0.051 A 
ATOM     20  C   UNL A   1      27.499  29.364  23.132  1.00  0.00     0.004 A 
ATOM     21  C   UNL A   1      29.683  30.388  23.132  1.00  0.00     0.007 A 
ATOM     22  C   UNL A   1      28.106  28.119  23.160  1.00  0.00     0.013 A 
ATOM     23  C   UNL A   1      30.326  29.132  23.152  1.00  0.00    -0.040 A 
ATOM     24  C   UNL A   1      31.829  29.148  23.201  1.00  0.00     0.045 C 
ENDBRANCH  15  17
ENDBRANCH   9  15
ENDBRANCH   6   8
ENDBRANCH   5   6
ENDBRANCH   4   5
ENDBRANCH   3   4
ENDBRANCH   2   3
ENDBRANCH   1   2
BRANCH   1  25
ATOM     25  C   UNL A   1      33.569  32.680  27.748  1.00  0.00     0.261 C 
BRANCH  25  26
ATOM     26  O   UNL A   1      34.422  33.756  28.198  1.00  0.00    -0.460 OA
BRANCH  26  27
ATOM     27  C   UNL A   1      34.464  33.925  29.555  1.00  0.00     0.338 C 
ATOM     28  O   UNL A   1      33.538  34.377  30.209  1.00  0.00    -0.246 OA
BRANCH  27  29
ATOM     29  C   UNL A   1      35.853  33.704  30.068  1.00  0.00     0.060 A 
ATOM     30  C   UNL A   1      36.945  33.793  29.186  1.00  0.00     0.016 A 
ATOM     31  C   UNL A   1      36.023  33.113  31.321  1.00  0.00     0.016 A 
ATOM     32  C   UNL A   1      38.149  33.138  29.484  1.00  0.00     0.010 A 
ATOM     33  C   UNL A   1      37.181  32.398  31.572  1.00  0.00     0.010 A 
ATOM     34  C   UNL A   1      38.226  32.360  30.633  1.00  0.00    -0.014 A 
BRANCH  34  35
ATOM     35  C   UNL A   1      39.324  31.458  30.975  1.00  0.00     0.031 A 
ATOM     36  C   UNL A   1      39.366  30.135  30.348  1.00  0.00     0.074 A 
ATOM     37  C   UNL A   1      40.416  31.870  31.655  1.00  0.00     0.049 A 
ATOM     38  N   UNL A   1      40.222  29.230  30.670  1.00  0.00    -0.248 NA
ATOM     39  C   UNL A   1      38.381  29.687  29.369  1.00  0.00     0.031 C 
ATOM     40  C   UNL A   1      41.806  31.432  31.518  1.00  0.00     0.029 A 
ATOM     41  N   UNL A   1      40.480  32.809  32.670  1.00  0.00    -0.354 N 
ATOM     42  C   UNL A   1      40.146  28.271  29.699  1.00  0.00     0.074 A 
ATOM     43  C   UNL A   1      38.862  28.475  29.082  1.00  0.00     0.031 C 
ATOM     44  C   UNL A   1      42.537  31.956  32.518  1.00  0.00     0.029 A 
ATOM     45  C   UNL A   1      41.606  32.570  33.450  1.00  0.00     0.049 A 
ATOM     46  H   UNL A   1      39.830  33.534  32.817  1.00  0.00     0.167 HD
ATOM     47  C   UNL A   1      41.277  27.577  29.406  1.00  0.00     0.034 A 
ATOM     48  C   UNL A   1      41.466  32.364  34.784  1.00  0.00     0.034 A 
ATOM     49  C   UNL A   1      42.330  27.805  30.431  1.00  0.00     0.049 A 
ATOM     50  C   UNL A   1      41.989  30.996  35.145  1.00  0.00     0.074 A 
ATOM     51  C   UNL A   1      43.572  28.420  30.434  1.00  0.00     0.029 A 
ATOM     52  N   UNL A   1      42.027  27.590  31.779  1.00  0.00    -0.354 N 
ATOM     53  N   UNL A   1      42.454  30.144  34.272  1.00  0.00    -0.248 NA
ATOM     54  C   UNL A   1      42.001  30.456  36.494  1.00  0.00     0.031 C 
ATOM     55  C   UNL A   1      43.997  28.574  31.795  1.00  0.00     0.029 A 
ATOM     56  C   UNL A   1      43.041  28.015  32.628  1.00  0.00     0.049 A 
ATOM     57  H   UNL A   1      41.186  27.182  32.092  1.00  0.00     0.167 HD
ATOM     58  C   UNL A   1      42.633  28.923  34.844  1.00  0.00     0.074 A 
ATOM     59  C   UNL A   1      42.375  29.185  36.258  1.00  0.00     0.031 C 
ATOM     60  C   UNL A   1      42.912  27.813  34.082  1.00  0.00     0.034 A 
BRANCH  47  61
ATOM     61  C   UNL A   1      41.514  26.855  28.081  1.00  0.00     0.023 A 
ATOM     62  C   UNL A   1      41.444  27.636  26.907  1.00  0.00     0.012 A 
ATOM     63  C   UNL A   1      41.717  25.461  27.872  1.00  0.00     0.148 A 
ATOM     64  C   UNL A   1      41.559  27.081  25.624  1.00  0.00     0.002 A 
ATOM     65  C   UNL A   1      41.905  24.917  26.598  1.00  0.00     0.091 A 
ATOM     66  F   UNL A   1      41.642  24.600  28.885  1.00  0.00    -0.205 F 
ATOM     67  C   UNL A   1      41.809  25.726  25.467  1.00  0.00     0.022 A 
BRANCH  65  68
ATOM     68  S   UNL A   1      42.272  23.168  26.326  1.00  0.00     0.127 S 
ATOM     69  O   UNL A   1      40.980  22.537  26.597  1.00  0.00    -0.237 OA
ATOM     70  O   UNL A   1      42.673  23.149  24.919  1.00  0.00    -0.237 OA
ATOM     71  O   UNL A   1      43.334  22.813  27.261  1.00  0.00    -0.744 OA
ENDBRANCH  65  68
ENDBRANCH  47  61
BRANCH  48  72
ATOM     72  C   UNL A   1      40.278  33.083  35.378  1.00  0.00     0.023 A 
ATOM     73  C   UNL A   1      38.999  32.471  35.288  1.00  0.00     0.012 A 
ATOM     74  C   UNL A   1      40.425  34.108  36.328  1.00  0.00     0.148 A 
ATOM     75  C   UNL A   1      37.916  32.845  36.089  1.00  0.00     0.002 A 
ATOM     76  C   UNL A   1      39.365  34.414  37.193  1.00  0.00     0.091 A 
ATOM     77  F   UNL A   1      41.610  34.723  36.423  1.00  0.00    -0.205 F 
ATOM     78  C   UNL A   1      38.115  33.786  37.077  1.00  0.00     0.022 A 
BRANCH  76  79
ATOM     79  S   UNL A   1      39.567  35.491  38.618  1.00  0.00     0.127 S 
ATOM     80  O   UNL A   1      40.965  35.250  38.969  1.00  0.00    -0.237 OA
ATOM     81  O   UNL A   1      39.298  36.814  38.049  1.00  0.00    -0.237 OA
ATOM     82  O   UNL A   1      38.577  35.044  39.585  1.00  0.00    -0.744 OA
ENDBRANCH  76  79
ENDBRANCH  48  72
BRANCH  60  83
ATOM     83  C   UNL A   1      43.013  26.413  34.662  1.00  0.00     0.023 A 
ATOM     84  C   UNL A   1      41.884  25.736  35.158  1.00  0.00     0.012 A 
ATOM     85  C   UNL A   1      44.248  25.724  34.763  1.00  0.00     0.148 A 
ATOM     86  C   UNL A   1      41.929  24.391  35.535  1.00  0.00     0.002 A 
ATOM     87  C   UNL A   1      44.307  24.405  35.195  1.00  0.00     0.091 A 
ATOM     88  F   UNL A   1      45.391  26.349  34.468  1.00  0.00    -0.205 F 
ATOM     89  C   UNL A   1      43.140  23.718  35.531  1.00  0.00     0.022 A 
BRANCH  87  90
ATOM     90  S   UNL A   1      45.860  23.524  35.398  1.00  0.00     0.127 S 
ATOM     91  O   UNL A   1      46.403  23.582  34.041  1.00  0.00    -0.237 OA
ATOM     92  O   UNL A   1      46.557  24.366  36.371  1.00  0.00    -0.237 OA
ATOM     93  O   UNL A   1      45.523  22.189  35.869  1.00  0.00    -0.744 OA
ENDBRANCH  87  90
ENDBRANCH  60  83
ENDBRANCH  34  35
ENDBRANCH  27  29
ENDBRANCH  26  27
ENDBRANCH  25  26
ENDBRANCH   1  25
TORSDOF 19
ENDMDL
