MODEL 1
REMARK VINA RESULT:      -8.9      0.000      0.000
REMARK SMILES C[C@H](NC(=O)N(CC(=O)OCCOCCOC(=O)c1ccc(-c2c3nc(c(-c4cccc(S(=O)(=O)[O-])c4F)c4ccc([nH]4)c(-c4cccc(S(=O)(=O)[O-])c4F)c4nc(c(-c5cccc(S(=O)(=O)[O-])c5F)c5ccc2[nH]5)C=C4)C=C3)cc1)CC(F)(F)F)[C@@H]1CCCO1
REMARK SMILES IDX 12 1 11 2 10 3 8 4 9 5 7 6 6 7 4 8 3 9 5 11 2 12 1 13 87 14
REMARK SMILES IDX 88 15 91 16 89 17 90 18 82 19 83 20 84 21 85 22 86 23 13 24
REMARK SMILES IDX 14 25 15 26 16 27 17 28 18 29 19 30 20 31 81 32 21 33 80 34
REMARK SMILES IDX 22 35 23 36 24 37 74 38 25 39 79 40 73 41 75 42 26 43 78 44
REMARK SMILES IDX 72 45 71 46 27 48 59 49 39 50 58 51 40 52 43 53 57 54 76 55
REMARK SMILES IDX 41 56 42 57 56 59 77 60 44 61 28 62 29 63 37 64 30 65 32 66
REMARK SMILES IDX 38 67 31 68 33 69 34 70 35 71 36 72 60 73 61 74 69 75 62 76
REMARK SMILES IDX 64 77 70 78 63 79 65 80 66 81 67 82 68 83 45 84 46 85 54 86
REMARK SMILES IDX 47 87 49 88 55 89 48 90 50 91 51 92 52 93 53 94
REMARK H PARENT 3 10 75 47 43 58
REMARK Flexibility Score: inf
ROOT
ATOM      1  C   UNL A   1      46.173  22.122  39.659  1.00  0.00     0.202 C 
ENDROOT
BRANCH   1   2
ATOM      2  C   UNL A   1      47.530  21.431  39.464  1.00  0.00     0.261 C 
BRANCH   2   3
ATOM      3  O   UNL A   1      47.786  20.960  38.127  1.00  0.00    -0.462 OA
BRANCH   3   4
ATOM      4  C   UNL A   1      46.862  20.092  37.634  1.00  0.00     0.325 C 
ATOM      5  O   UNL A   1      45.923  19.630  38.281  1.00  0.00    -0.250 OA
BRANCH   4   6
ATOM      6  C   UNL A   1      46.990  19.819  36.136  1.00  0.00     0.244 C 
BRANCH   6   7
ATOM      7  N   UNL A   1      47.696  20.765  35.276  1.00  0.00    -0.305 N 
BRANCH   7   8
ATOM      8  C   UNL A   1      48.604  20.488  34.303  1.00  0.00     0.318 C 
ATOM      9  N   UNL A   1      49.821  21.021  34.212  1.00  0.00    -0.333 N 
ATOM     10  H   UNL A   1      50.175  20.856  33.308  1.00  0.00     0.165 HD
ATOM     11  O   UNL A   1      48.330  19.678  33.415  1.00  0.00    -0.249 OA
BRANCH   9  12
ATOM     12  C   UNL A   1      50.824  21.770  34.985  1.00  0.00     0.109 C 
ATOM     13  C   UNL A   1      50.822  21.215  36.417  1.00  0.00     0.034 C 
BRANCH  12  14
ATOM     14  C   UNL A   1      52.248  21.635  34.378  1.00  0.00     0.140 C 
ATOM     15  C   UNL A   1      52.240  21.329  32.886  1.00  0.00     0.036 C 
ATOM     16  O   UNL A   1      52.982  20.579  35.025  1.00  0.00    -0.376 OA
ATOM     17  C   UNL A   1      53.327  20.300  32.722  1.00  0.00     0.031 C 
ATOM     18  C   UNL A   1      53.297  19.579  34.048  1.00  0.00     0.160 C 
ENDBRANCH  12  14
ENDBRANCH   9  12
ENDBRANCH   7   8
BRANCH   7  19
ATOM     19  C   UNL A   1      47.293  22.187  35.414  1.00  0.00     0.237 C 
BRANCH  19  20
ATOM     20  C   UNL A   1      45.997  22.699  34.751  1.00  0.00     0.406 C 
ATOM     21  F   UNL A   1      45.031  23.008  35.639  1.00  0.00    -0.169 F 
ATOM     22  F   UNL A   1      46.286  23.864  34.100  1.00  0.00    -0.169 F 
ATOM     23  F   UNL A   1      45.507  21.853  33.825  1.00  0.00    -0.169 F 
ENDBRANCH  19  20
ENDBRANCH   7  19
ENDBRANCH   6   7
ENDBRANCH   4   6
ENDBRANCH   3   4
ENDBRANCH   2   3
ENDBRANCH   1   2
BRANCH   1  24
ATOM     24  O   UNL A   1      45.907  23.297  38.902  1.00  0.00    -0.374 OA
BRANCH  24  25
ATOM     25  C   UNL A   1      45.680  24.515  39.607  1.00  0.00     0.202 C 
BRANCH  25  26
ATOM     26  C   UNL A   1      46.513  25.744  39.225  1.00  0.00     0.261 C 
BRANCH  26  27
ATOM     27  O   UNL A   1      46.882  25.757  37.834  1.00  0.00    -0.460 OA
BRANCH  27  28
ATOM     28  C   UNL A   1      46.967  26.995  37.294  1.00  0.00     0.338 C 
ATOM     29  O   UNL A   1      47.798  27.860  37.575  1.00  0.00    -0.246 OA
BRANCH  28  30
ATOM     30  C   UNL A   1      46.050  27.160  36.155  1.00  0.00     0.060 A 
ATOM     31  C   UNL A   1      46.119  28.367  35.446  1.00  0.00     0.016 A 
ATOM     32  C   UNL A   1      45.046  26.232  35.876  1.00  0.00     0.016 A 
ATOM     33  C   UNL A   1      45.141  28.682  34.507  1.00  0.00     0.010 A 
ATOM     34  C   UNL A   1      44.062  26.552  34.930  1.00  0.00     0.010 A 
ATOM     35  C   UNL A   1      44.075  27.799  34.281  1.00  0.00    -0.014 A 
BRANCH  35  36
ATOM     36  C   UNL A   1      42.911  28.267  33.488  1.00  0.00     0.031 A 
ATOM     37  C   UNL A   1      41.908  29.190  34.127  1.00  0.00     0.074 A 
ATOM     38  C   UNL A   1      42.767  27.909  32.199  1.00  0.00     0.049 A 
ATOM     39  N   UNL A   1      40.859  29.768  33.598  1.00  0.00    -0.248 NA
ATOM     40  C   UNL A   1      42.114  29.509  35.549  1.00  0.00     0.031 C 
ATOM     41  C   UNL A   1      43.665  27.017  31.468  1.00  0.00     0.029 A 
ATOM     42  N   UNL A   1      41.802  28.245  31.283  1.00  0.00    -0.354 N 
ATOM     43  C   UNL A   1      40.270  30.497  34.623  1.00  0.00     0.074 A 
ATOM     44  C   UNL A   1      41.067  30.279  35.810  1.00  0.00     0.031 C 
ATOM     45  C   UNL A   1      43.196  26.859  30.219  1.00  0.00     0.029 A 
ATOM     46  C   UNL A   1      41.961  27.626  30.066  1.00  0.00     0.049 A 
ATOM     47  H   UNL A   1      41.067  28.868  31.479  1.00  0.00     0.167 HD
ATOM     48  C   UNL A   1      39.176  31.294  34.579  1.00  0.00     0.034 A 
ATOM     49  C   UNL A   1      41.192  27.666  28.959  1.00  0.00     0.034 A 
ATOM     50  C   UNL A   1      38.394  31.530  33.396  1.00  0.00     0.049 A 
ATOM     51  C   UNL A   1      39.973  28.550  28.937  1.00  0.00     0.074 A 
ATOM     52  C   UNL A   1      37.305  32.370  33.236  1.00  0.00     0.029 A 
ATOM     53  N   UNL A   1      38.605  30.913  32.172  1.00  0.00    -0.354 N 
ATOM     54  N   UNL A   1      39.514  29.348  29.871  1.00  0.00    -0.248 NA
ATOM     55  C   UNL A   1      39.185  28.568  27.695  1.00  0.00     0.031 C 
ATOM     56  C   UNL A   1      36.842  32.241  31.922  1.00  0.00     0.029 A 
ATOM     57  C   UNL A   1      37.658  31.339  31.256  1.00  0.00     0.049 A 
ATOM     58  H   UNL A   1      39.324  30.268  31.982  1.00  0.00     0.167 HD
ATOM     59  C   UNL A   1      38.406  29.986  29.321  1.00  0.00     0.074 A 
ATOM     60  C   UNL A   1      38.276  29.496  27.964  1.00  0.00     0.031 C 
ATOM     61  C   UNL A   1      37.567  30.885  29.892  1.00  0.00     0.034 A 
BRANCH  48  62
ATOM     62  C   UNL A   1      38.777  32.001  35.849  1.00  0.00     0.023 A 
ATOM     63  C   UNL A   1      39.059  33.374  35.998  1.00  0.00     0.012 A 
ATOM     64  C   UNL A   1      38.084  31.322  36.870  1.00  0.00     0.148 A 
ATOM     65  C   UNL A   1      38.688  34.053  37.158  1.00  0.00     0.002 A 
ATOM     66  C   UNL A   1      37.681  32.017  38.006  1.00  0.00     0.091 A 
ATOM     67  F   UNL A   1      37.845  30.012  36.721  1.00  0.00    -0.205 F 
ATOM     68  C   UNL A   1      37.992  33.378  38.157  1.00  0.00     0.022 A 
BRANCH  66  69
ATOM     69  S   UNL A   1      36.714  31.250  39.311  1.00  0.00     0.127 S 
ATOM     70  O   UNL A   1      35.763  32.310  39.637  1.00  0.00    -0.237 OA
ATOM     71  O   UNL A   1      36.128  30.096  38.627  1.00  0.00    -0.237 OA
ATOM     72  O   UNL A   1      37.663  30.908  40.362  1.00  0.00    -0.744 OA
ENDBRANCH  66  69
ENDBRANCH  48  62
BRANCH  49  73
ATOM     73  C   UNL A   1      41.588  26.877  27.758  1.00  0.00     0.023 A 
ATOM     74  C   UNL A   1      42.253  27.515  26.694  1.00  0.00     0.012 A 
ATOM     75  C   UNL A   1      41.343  25.491  27.686  1.00  0.00     0.148 A 
ATOM     76  C   UNL A   1      42.646  26.792  25.567  1.00  0.00     0.002 A 
ATOM     77  C   UNL A   1      41.787  24.768  26.585  1.00  0.00     0.091 A 
ATOM     78  F   UNL A   1      40.694  24.907  28.702  1.00  0.00    -0.205 F 
ATOM     79  C   UNL A   1      42.425  25.419  25.518  1.00  0.00     0.022 A 
BRANCH  77  80
ATOM     80  S   UNL A   1      41.665  22.978  26.491  1.00  0.00     0.127 S 
ATOM     81  O   UNL A   1      40.219  22.774  26.526  1.00  0.00    -0.237 OA
ATOM     82  O   UNL A   1      42.296  22.702  25.200  1.00  0.00    -0.237 OA
ATOM     83  O   UNL A   1      42.402  22.472  27.641  1.00  0.00    -0.744 OA
ENDBRANCH  77  80
ENDBRANCH  49  73
BRANCH  61  84
ATOM     84  C   UNL A   1      36.438  31.425  29.051  1.00  0.00     0.023 A 
ATOM     85  C   UNL A   1      36.427  32.785  28.687  1.00  0.00     0.012 A 
ATOM     86  C   UNL A   1      35.435  30.568  28.553  1.00  0.00     0.148 A 
ATOM     87  C   UNL A   1      35.421  33.292  27.865  1.00  0.00     0.002 A 
ATOM     88  C   UNL A   1      34.462  31.071  27.696  1.00  0.00     0.091 A 
ATOM     89  F   UNL A   1      35.451  29.280  28.924  1.00  0.00    -0.205 F 
ATOM     90  C   UNL A   1      34.447  32.435  27.360  1.00  0.00     0.022 A 
BRANCH  88  91
ATOM     91  S   UNL A   1      33.225  30.020  26.925  1.00  0.00     0.127 S 
ATOM     92  O   UNL A   1      32.194  30.990  26.559  1.00  0.00    -0.237 OA
ATOM     93  O   UNL A   1      33.958  29.453  25.791  1.00  0.00    -0.237 OA
ATOM     94  O   UNL A   1      32.840  29.047  27.939  1.00  0.00    -0.744 OA
ENDBRANCH  88  91
ENDBRANCH  61  84
ENDBRANCH  35  36
ENDBRANCH  28  30
ENDBRANCH  27  28
ENDBRANCH  26  27
ENDBRANCH  25  26
ENDBRANCH  24  25
ENDBRANCH   1  24
TORSDOF 23
ENDMDL
MODEL 2
REMARK VINA RESULT:      -8.8      7.764     15.131
REMARK SMILES C[C@H](NC(=O)N(CC(=O)OCCOCCOC(=O)c1ccc(-c2c3nc(c(-c4cccc(S(=O)(=O)[O-])c4F)c4ccc([nH]4)c(-c4cccc(S(=O)(=O)[O-])c4F)c4nc(c(-c5cccc(S(=O)(=O)[O-])c5F)c5ccc2[nH]5)C=C4)C=C3)cc1)CC(F)(F)F)[C@@H]1CCCO1
REMARK SMILES IDX 12 1 11 2 10 3 8 4 9 5 7 6 6 7 4 8 3 9 5 11 2 12 1 13 87 14
REMARK SMILES IDX 88 15 91 16 89 17 90 18 82 19 83 20 84 21 85 22 86 23 13 24
REMARK SMILES IDX 14 25 15 26 16 27 17 28 18 29 19 30 20 31 81 32 21 33 80 34
REMARK SMILES IDX 22 35 23 36 24 37 74 38 25 39 79 40 73 41 75 42 26 43 78 44
REMARK SMILES IDX 72 45 71 46 27 48 59 49 39 50 58 51 40 52 43 53 57 54 76 55
REMARK SMILES IDX 41 56 42 57 56 59 77 60 44 61 28 62 29 63 37 64 30 65 32 66
REMARK SMILES IDX 38 67 31 68 33 69 34 70 35 71 36 72 60 73 61 74 69 75 62 76
REMARK SMILES IDX 64 77 70 78 63 79 65 80 66 81 67 82 68 83 45 84 46 85 54 86
REMARK SMILES IDX 47 87 49 88 55 89 48 90 50 91 51 92 52 93 53 94
REMARK H PARENT 3 10 75 47 43 58
REMARK Flexibility Score: inf
ROOT
ATOM      1  C   UNL A   1      37.271  23.244  25.828  1.00  0.00     0.202 C 
ENDROOT
BRANCH   1   2
ATOM      2  C   UNL A   1      36.320  22.733  24.737  1.00  0.00     0.261 C 
BRANCH   2   3
ATOM      3  O   UNL A   1      34.974  23.240  24.818  1.00  0.00    -0.462 OA
BRANCH   3   4
ATOM      4  C   UNL A   1      34.564  23.963  23.741  1.00  0.00     0.325 C 
ATOM      5  O   UNL A   1      34.429  23.510  22.606  1.00  0.00    -0.250 OA
BRANCH   4   6
ATOM      6  C   UNL A   1      34.138  25.395  24.069  1.00  0.00     0.244 C 
BRANCH   6   7
ATOM      7  N   UNL A   1      32.863  25.911  23.578  1.00  0.00    -0.305 N 
BRANCH   7   8
ATOM      8  C   UNL A   1      32.659  26.823  22.591  1.00  0.00     0.318 C 
ATOM      9  N   UNL A   1      31.606  27.633  22.497  1.00  0.00    -0.333 N 
ATOM     10  H   UNL A   1      31.571  28.006  21.586  1.00  0.00     0.165 HD
ATOM     11  O   UNL A   1      33.490  26.953  21.690  1.00  0.00    -0.249 OA
BRANCH   9  12
ATOM     12  C   UNL A   1      30.479  28.170  23.275  1.00  0.00     0.109 C 
ATOM     13  C   UNL A   1      31.015  29.308  24.155  1.00  0.00     0.034 C 
BRANCH  12  14
ATOM     14  C   UNL A   1      29.345  28.711  22.360  1.00  0.00     0.140 C 
ATOM     15  C   UNL A   1      29.528  30.174  21.978  1.00  0.00     0.036 C 
ATOM     16  O   UNL A   1      28.066  28.598  23.008  1.00  0.00    -0.376 OA
ATOM     17  C   UNL A   1      28.141  30.752  22.084  1.00  0.00     0.031 C 
ATOM     18  C   UNL A   1      27.521  29.913  23.175  1.00  0.00     0.160 C 
ENDBRANCH  12  14
ENDBRANCH   9  12
ENDBRANCH   7   8
BRANCH   7  19
ATOM     19  C   UNL A   1      31.649  25.287  24.160  1.00  0.00     0.237 C 
BRANCH  19  20
ATOM     20  C   UNL A   1      31.267  25.545  25.632  1.00  0.00     0.406 C 
ATOM     21  F   UNL A   1      31.730  24.600  26.475  1.00  0.00    -0.169 F 
ATOM     22  F   UNL A   1      31.858  26.710  26.026  1.00  0.00    -0.169 F 
ATOM     23  F   UNL A   1      29.943  25.704  25.815  1.00  0.00    -0.169 F 
ENDBRANCH  19  20
ENDBRANCH   7  19
ENDBRANCH   6   7
ENDBRANCH   4   6
ENDBRANCH   3   4
ENDBRANCH   2   3
ENDBRANCH   1   2
BRANCH   1  24
ATOM     24  O   UNL A   1      38.569  22.664  25.908  1.00  0.00    -0.374 OA
BRANCH  24  25
ATOM     25  C   UNL A   1      39.510  23.243  26.809  1.00  0.00     0.202 C 
BRANCH  25  26
ATOM     26  C   UNL A   1      39.682  24.766  26.802  1.00  0.00     0.261 C 
BRANCH  26  27
ATOM     27  O   UNL A   1      40.967  25.185  27.295  1.00  0.00    -0.460 OA
BRANCH  27  28
ATOM     28  C   UNL A   1      41.792  25.683  26.344  1.00  0.00     0.338 C 
ATOM     29  O   UNL A   1      41.990  25.206  25.226  1.00  0.00    -0.246 OA
BRANCH  28  30
ATOM     30  C   UNL A   1      42.316  27.007  26.713  1.00  0.00     0.060 A 
ATOM     31  C   UNL A   1      43.315  27.050  27.695  1.00  0.00     0.016 A 
ATOM     32  C   UNL A   1      41.748  28.187  26.230  1.00  0.00     0.016 A 
ATOM     33  C   UNL A   1      43.696  28.269  28.251  1.00  0.00     0.010 A 
ATOM     34  C   UNL A   1      42.133  29.412  26.790  1.00  0.00     0.010 A 
ATOM     35  C   UNL A   1      43.069  29.453  27.839  1.00  0.00    -0.014 A 
BRANCH  35  36
ATOM     36  C   UNL A   1      43.290  30.694  28.624  1.00  0.00     0.031 A 
ATOM     37  C   UNL A   1      44.392  31.635  28.218  1.00  0.00     0.074 A 
ATOM     38  C   UNL A   1      42.492  31.003  29.662  1.00  0.00     0.049 A 
ATOM     39  N   UNL A   1      44.714  32.800  28.722  1.00  0.00    -0.248 NA
ATOM     40  C   UNL A   1      45.244  31.212  27.095  1.00  0.00     0.031 C 
ATOM     41  C   UNL A   1      41.396  30.173  30.157  1.00  0.00     0.029 A 
ATOM     42  N   UNL A   1      42.494  32.095  30.493  1.00  0.00    -0.354 N 
ATOM     43  C   UNL A   1      45.815  33.237  27.995  1.00  0.00     0.074 A 
ATOM     44  C   UNL A   1      46.117  32.207  27.025  1.00  0.00     0.031 C 
ATOM     45  C   UNL A   1      40.841  30.777  31.222  1.00  0.00     0.029 A 
ATOM     46  C   UNL A   1      41.551  32.027  31.491  1.00  0.00     0.049 A 
ATOM     47  H   UNL A   1      43.111  32.853  30.386  1.00  0.00     0.167 HD
ATOM     48  C   UNL A   1      46.501  34.399  28.107  1.00  0.00     0.034 A 
ATOM     49  C   UNL A   1      41.296  32.872  32.511  1.00  0.00     0.034 A 
ATOM     50  C   UNL A   1      46.190  35.433  29.056  1.00  0.00     0.049 A 
ATOM     51  C   UNL A   1      42.081  34.152  32.624  1.00  0.00     0.074 A 
ATOM     52  C   UNL A   1      46.788  36.673  29.206  1.00  0.00     0.029 A 
ATOM     53  N   UNL A   1      45.206  35.345  30.029  1.00  0.00    -0.354 N 
ATOM     54  N   UNL A   1      43.021  34.618  31.837  1.00  0.00    -0.248 NA
ATOM     55  C   UNL A   1      41.745  35.043  33.745  1.00  0.00     0.031 C 
ATOM     56  C   UNL A   1      46.182  37.323  30.287  1.00  0.00     0.029 A 
ATOM     57  C   UNL A   1      45.190  36.498  30.794  1.00  0.00     0.049 A 
ATOM     58  H   UNL A   1      44.606  34.574  30.156  1.00  0.00     0.167 HD
ATOM     59  C   UNL A   1      43.366  35.865  32.346  1.00  0.00     0.074 A 
ATOM     60  C   UNL A   1      42.518  36.093  33.499  1.00  0.00     0.031 C 
ATOM     61  C   UNL A   1      44.307  36.737  31.908  1.00  0.00     0.034 A 
BRANCH  48  62
ATOM     62  C   UNL A   1      47.644  34.628  27.153  1.00  0.00     0.023 A 
ATOM     63  C   UNL A   1      47.403  35.272  25.922  1.00  0.00     0.012 A 
ATOM     64  C   UNL A   1      48.959  34.253  27.491  1.00  0.00     0.148 A 
ATOM     65  C   UNL A   1      48.446  35.508  25.028  1.00  0.00     0.002 A 
ATOM     66  C   UNL A   1      50.000  34.528  26.611  1.00  0.00     0.091 A 
ATOM     67  F   UNL A   1      49.165  33.620  28.654  1.00  0.00    -0.205 F 
ATOM     68  C   UNL A   1      49.744  35.145  25.375  1.00  0.00     0.022 A 
BRANCH  66  69
ATOM     69  S   UNL A   1      51.715  34.166  27.005  1.00  0.00     0.127 S 
ATOM     70  O   UNL A   1      52.371  34.413  25.723  1.00  0.00    -0.237 OA
ATOM     71  O   UNL A   1      52.012  35.155  28.041  1.00  0.00    -0.237 OA
ATOM     72  O   UNL A   1      51.734  32.785  27.468  1.00  0.00    -0.744 OA
ENDBRANCH  66  69
ENDBRANCH  48  62
BRANCH  49  73
ATOM     73  C   UNL A   1      40.209  32.551  33.479  1.00  0.00     0.023 A 
ATOM     74  C   UNL A   1      40.491  31.752  34.603  1.00  0.00     0.012 A 
ATOM     75  C   UNL A   1      38.909  33.066  33.310  1.00  0.00     0.148 A 
ATOM     76  C   UNL A   1      39.493  31.451  35.529  1.00  0.00     0.002 A 
ATOM     77  C   UNL A   1      37.934  32.808  34.266  1.00  0.00     0.091 A 
ATOM     78  F   UNL A   1      38.657  33.810  32.224  1.00  0.00    -0.205 F 
ATOM     79  C   UNL A   1      38.219  31.988  35.368  1.00  0.00     0.022 A 
BRANCH  77  80
ATOM     80  S   UNL A   1      36.304  33.562  34.212  1.00  0.00     0.127 S 
ATOM     81  O   UNL A   1      35.597  32.683  33.284  1.00  0.00    -0.237 OA
ATOM     82  O   UNL A   1      35.879  33.456  35.608  1.00  0.00    -0.237 OA
ATOM     83  O   UNL A   1      36.517  34.927  33.750  1.00  0.00    -0.744 OA
ENDBRANCH  77  80
ENDBRANCH  49  73
BRANCH  61  84
ATOM     84  C   UNL A   1      44.465  38.037  32.656  1.00  0.00     0.023 A 
ATOM     85  C   UNL A   1      45.310  38.097  33.781  1.00  0.00     0.012 A 
ATOM     86  C   UNL A   1      43.845  39.216  32.194  1.00  0.00     0.148 A 
ATOM     87  C   UNL A   1      45.512  39.301  34.454  1.00  0.00     0.002 A 
ATOM     88  C   UNL A   1      44.088  40.422  32.841  1.00  0.00     0.091 A 
ATOM     89  F   UNL A   1      43.030  39.137  31.132  1.00  0.00    -0.205 F 
ATOM     90  C   UNL A   1      44.913  40.465  33.978  1.00  0.00     0.022 A 
BRANCH  88  91
ATOM     91  S   UNL A   1      43.432  41.984  32.242  1.00  0.00     0.127 S 
ATOM     92  O   UNL A   1      43.417  42.790  33.461  1.00  0.00    -0.237 OA
ATOM     93  O   UNL A   1      44.438  42.389  31.257  1.00  0.00    -0.237 OA
ATOM     94  O   UNL A   1      42.126  41.677  31.675  1.00  0.00    -0.744 OA
ENDBRANCH  88  91
ENDBRANCH  61  84
ENDBRANCH  35  36
ENDBRANCH  28  30
ENDBRANCH  27  28
ENDBRANCH  26  27
ENDBRANCH  25  26
ENDBRANCH  24  25
ENDBRANCH   1  24
TORSDOF 23
ENDMDL
MODEL 3
REMARK VINA RESULT:      -8.7      6.478     16.249
REMARK SMILES C[C@H](NC(=O)N(CC(=O)OCCOCCOC(=O)c1ccc(-c2c3nc(c(-c4cccc(S(=O)(=O)[O-])c4F)c4ccc([nH]4)c(-c4cccc(S(=O)(=O)[O-])c4F)c4nc(c(-c5cccc(S(=O)(=O)[O-])c5F)c5ccc2[nH]5)C=C4)C=C3)cc1)CC(F)(F)F)[C@@H]1CCCO1
REMARK SMILES IDX 12 1 11 2 10 3 8 4 9 5 7 6 6 7 4 8 3 9 5 11 2 12 1 13 87 14
REMARK SMILES IDX 88 15 91 16 89 17 90 18 82 19 83 20 84 21 85 22 86 23 13 24
REMARK SMILES IDX 14 25 15 26 16 27 17 28 18 29 19 30 20 31 81 32 21 33 80 34
REMARK SMILES IDX 22 35 23 36 24 37 74 38 25 39 79 40 73 41 75 42 26 43 78 44
REMARK SMILES IDX 72 45 71 46 27 48 59 49 39 50 58 51 40 52 43 53 57 54 76 55
REMARK SMILES IDX 41 56 42 57 56 59 77 60 44 61 28 62 29 63 37 64 30 65 32 66
REMARK SMILES IDX 38 67 31 68 33 69 34 70 35 71 36 72 60 73 61 74 69 75 62 76
REMARK SMILES IDX 64 77 70 78 63 79 65 80 66 81 67 82 68 83 45 84 46 85 54 86
REMARK SMILES IDX 47 87 49 88 55 89 48 90 50 91 51 92 52 93 53 94
REMARK H PARENT 3 10 75 47 43 58
REMARK Flexibility Score: inf
ROOT
ATOM      1  C   UNL A   1      38.235  22.009  25.568  1.00  0.00     0.202 C 
ENDROOT
BRANCH   1   2
ATOM      2  C   UNL A   1      37.370  21.241  24.560  1.00  0.00     0.261 C 
BRANCH   2   3
ATOM      3  O   UNL A   1      36.030  21.745  24.400  1.00  0.00    -0.462 OA
BRANCH   3   4
ATOM      4  C   UNL A   1      35.937  22.950  23.776  1.00  0.00     0.325 C 
ATOM      5  O   UNL A   1      36.431  23.208  22.679  1.00  0.00    -0.250 OA
BRANCH   4   6
ATOM      6  C   UNL A   1      35.036  23.960  24.486  1.00  0.00     0.244 C 
BRANCH   6   7
ATOM      7  N   UNL A   1      33.726  24.291  23.932  1.00  0.00    -0.305 N 
BRANCH   7   8
ATOM      8  C   UNL A   1      33.419  25.289  23.061  1.00  0.00     0.318 C 
ATOM      9  N   UNL A   1      32.922  26.478  23.397  1.00  0.00    -0.333 N 
ATOM     10  H   UNL A   1      32.560  26.912  22.590  1.00  0.00     0.165 HD
ATOM     11  O   UNL A   1      33.604  25.131  21.852  1.00  0.00    -0.249 OA
BRANCH   9  12
ATOM     12  C   UNL A   1      32.724  27.373  24.547  1.00  0.00     0.109 C 
ATOM     13  C   UNL A   1      33.789  28.477  24.472  1.00  0.00     0.034 C 
BRANCH  12  14
ATOM     14  C   UNL A   1      31.309  28.016  24.548  1.00  0.00     0.140 C 
ATOM     15  C   UNL A   1      30.250  27.142  23.891  1.00  0.00     0.036 C 
ATOM     16  O   UNL A   1      31.318  29.274  23.848  1.00  0.00    -0.376 OA
ATOM     17  C   UNL A   1      29.428  28.113  23.086  1.00  0.00     0.031 C 
ATOM     18  C   UNL A   1      30.439  29.173  22.720  1.00  0.00     0.160 C 
ENDBRANCH  12  14
ENDBRANCH   9  12
ENDBRANCH   7   8
BRANCH   7  19
ATOM     19  C   UNL A   1      32.624  23.362  24.284  1.00  0.00     0.237 C 
BRANCH  19  20
ATOM     20  C   UNL A   1      31.877  23.510  25.626  1.00  0.00     0.406 C 
ATOM     21  F   UNL A   1      31.287  24.713  25.777  1.00  0.00    -0.169 F 
ATOM     22  F   UNL A   1      30.862  22.597  25.650  1.00  0.00    -0.169 F 
ATOM     23  F   UNL A   1      32.653  23.250  26.695  1.00  0.00    -0.169 F 
ENDBRANCH  19  20
ENDBRANCH   7  19
ENDBRANCH   6   7
ENDBRANCH   4   6
ENDBRANCH   3   4
ENDBRANCH   2   3
ENDBRANCH   1   2
BRANCH   1  24
ATOM     24  O   UNL A   1      39.383  21.355  26.099  1.00  0.00    -0.374 OA
BRANCH  24  25
ATOM     25  C   UNL A   1      40.438  22.161  26.617  1.00  0.00     0.202 C 
BRANCH  25  26
ATOM     26  C   UNL A   1      41.839  22.000  26.014  1.00  0.00     0.261 C 
BRANCH  26  27
ATOM     27  O   UNL A   1      42.242  23.136  25.230  1.00  0.00    -0.460 OA
BRANCH  27  28
ATOM     28  C   UNL A   1      43.482  23.032  24.697  1.00  0.00     0.338 C 
ATOM     29  O   UNL A   1      43.770  22.532  23.610  1.00  0.00    -0.246 OA
BRANCH  28  30
ATOM     30  C   UNL A   1      44.481  23.769  25.487  1.00  0.00     0.060 A 
ATOM     31  C   UNL A   1      45.502  23.019  26.088  1.00  0.00     0.016 A 
ATOM     32  C   UNL A   1      44.347  25.130  25.763  1.00  0.00     0.016 A 
ATOM     33  C   UNL A   1      46.345  23.612  27.025  1.00  0.00     0.010 A 
ATOM     34  C   UNL A   1      45.196  25.724  26.706  1.00  0.00     0.010 A 
ATOM     35  C   UNL A   1      46.163  24.957  27.379  1.00  0.00    -0.014 A 
BRANCH  35  36
ATOM     36  C   UNL A   1      46.884  25.492  28.562  1.00  0.00     0.031 A 
ATOM     37  C   UNL A   1      48.249  26.099  28.379  1.00  0.00     0.074 A 
ATOM     38  C   UNL A   1      46.313  25.479  29.780  1.00  0.00     0.049 A 
ATOM     39  N   UNL A   1      49.021  26.681  29.261  1.00  0.00    -0.248 NA
ATOM     40  C   UNL A   1      48.821  26.045  27.024  1.00  0.00     0.031 C 
ATOM     41  C   UNL A   1      45.000  24.915  30.088  1.00  0.00     0.029 A 
ATOM     42  N   UNL A   1      46.775  25.942  30.986  1.00  0.00    -0.354 N 
ATOM     43  C   UNL A   1      50.175  27.043  28.576  1.00  0.00     0.074 A 
ATOM     44  C   UNL A   1      50.010  26.601  27.208  1.00  0.00     0.031 C 
ATOM     45  C   UNL A   1      44.770  25.048  31.406  1.00  0.00     0.029 A 
ATOM     46  C   UNL A   1      45.922  25.692  32.034  1.00  0.00     0.049 A 
ATOM     47  H   UNL A   1      47.635  26.408  31.090  1.00  0.00     0.167 HD
ATOM     48  C   UNL A   1      51.265  27.701  29.035  1.00  0.00     0.034 A 
ATOM     49  C   UNL A   1      46.060  25.944  33.352  1.00  0.00     0.034 A 
ATOM     50  C   UNL A   1      51.423  28.160  30.389  1.00  0.00     0.049 A 
ATOM     51  C   UNL A   1      47.288  26.666  33.842  1.00  0.00     0.074 A 
ATOM     52  C   UNL A   1      52.464  28.890  30.935  1.00  0.00     0.029 A 
ATOM     53  N   UNL A   1      50.522  27.919  31.415  1.00  0.00    -0.354 N 
ATOM     54  N   UNL A   1      48.302  27.132  33.154  1.00  0.00    -0.248 NA
ATOM     55  C   UNL A   1      47.373  26.931  35.286  1.00  0.00     0.031 C 
ATOM     56  C   UNL A   1      52.205  29.069  32.298  1.00  0.00     0.029 A 
ATOM     57  C   UNL A   1      50.991  28.470  32.596  1.00  0.00     0.049 A 
ATOM     58  H   UNL A   1      49.675  27.428  31.318  1.00  0.00     0.167 HD
ATOM     59  C   UNL A   1      49.129  27.771  34.073  1.00  0.00     0.074 A 
ATOM     60  C   UNL A   1      48.484  27.651  35.365  1.00  0.00     0.031 C 
ATOM     61  C   UNL A   1      50.317  28.390  33.867  1.00  0.00     0.034 A 
BRANCH  48  62
ATOM     62  C   UNL A   1      52.368  27.996  28.050  1.00  0.00     0.023 A 
ATOM     63  C   UNL A   1      52.340  29.200  27.317  1.00  0.00     0.012 A 
ATOM     64  C   UNL A   1      53.450  27.110  27.886  1.00  0.00     0.148 A 
ATOM     65  C   UNL A   1      53.355  29.501  26.410  1.00  0.00     0.002 A 
ATOM     66  C   UNL A   1      54.479  27.437  27.010  1.00  0.00     0.091 A 
ATOM     67  F   UNL A   1      53.446  25.959  28.574  1.00  0.00    -0.205 F 
ATOM     68  C   UNL A   1      54.428  28.626  26.263  1.00  0.00     0.022 A 
BRANCH  66  69
ATOM     69  S   UNL A   1      55.938  26.408  26.810  1.00  0.00     0.127 S 
ATOM     70  O   UNL A   1      56.464  26.374  28.173  1.00  0.00    -0.237 OA
ATOM     71  O   UNL A   1      55.366  25.144  26.347  1.00  0.00    -0.237 OA
ATOM     72  O   UNL A   1      56.773  27.087  25.829  1.00  0.00    -0.744 OA
ENDBRANCH  66  69
ENDBRANCH  48  62
BRANCH  49  73
ATOM     73  C   UNL A   1      44.974  25.551  34.294  1.00  0.00     0.023 A 
ATOM     74  C   UNL A   1      44.981  24.265  34.866  1.00  0.00     0.012 A 
ATOM     75  C   UNL A   1      43.959  26.459  34.653  1.00  0.00     0.148 A 
ATOM     76  C   UNL A   1      43.983  23.881  35.762  1.00  0.00     0.002 A 
ATOM     77  C   UNL A   1      43.000  26.089  35.589  1.00  0.00     0.091 A 
ATOM     78  F   UNL A   1      43.962  27.673  34.084  1.00  0.00    -0.205 F 
ATOM     79  C   UNL A   1      43.001  24.796  36.133  1.00  0.00     0.022 A 
BRANCH  77  80
ATOM     80  S   UNL A   1      41.776  27.240  36.225  1.00  0.00     0.127 S 
ATOM     81  O   UNL A   1      41.004  26.388  37.126  1.00  0.00    -0.237 OA
ATOM     82  O   UNL A   1      42.618  28.236  36.888  1.00  0.00    -0.237 OA
ATOM     83  O   UNL A   1      41.060  27.738  35.058  1.00  0.00    -0.744 OA
ENDBRANCH  77  80
ENDBRANCH  49  73
BRANCH  61  84
ATOM     84  C   UNL A   1      51.002  29.012  35.058  1.00  0.00     0.023 A 
ATOM     85  C   UNL A   1      50.716  30.345  35.411  1.00  0.00     0.012 A 
ATOM     86  C   UNL A   1      51.861  28.250  35.876  1.00  0.00     0.148 A 
ATOM     87  C   UNL A   1      51.297  30.920  36.541  1.00  0.00     0.002 A 
ATOM     88  C   UNL A   1      52.400  28.815  37.026  1.00  0.00     0.091 A 
ATOM     89  F   UNL A   1      52.136  26.988  35.515  1.00  0.00    -0.205 F 
ATOM     90  C   UNL A   1      52.128  30.153  37.354  1.00  0.00     0.022 A 
BRANCH  88  91
ATOM     91  S   UNL A   1      53.405  27.873  38.181  1.00  0.00     0.127 S 
ATOM     92  O   UNL A   1      54.549  27.503  37.349  1.00  0.00    -0.237 OA
ATOM     93  O   UNL A   1      53.702  28.864  39.218  1.00  0.00    -0.237 OA
ATOM     94  O   UNL A   1      52.569  26.767  38.628  1.00  0.00    -0.744 OA
ENDBRANCH  88  91
ENDBRANCH  61  84
ENDBRANCH  35  36
ENDBRANCH  28  30
ENDBRANCH  27  28
ENDBRANCH  26  27
ENDBRANCH  25  26
ENDBRANCH  24  25
ENDBRANCH   1  24
TORSDOF 23
ENDMDL
