MODEL 1
REMARK VINA RESULT:     -10.9      0.000      0.000
REMARK SMILES O=C(C[NH+]1CC[NH+](Cc2cc(Cl)ccc2[N+](=O)[O-])CC1)OCCOCCOC(=O)c1ccc(-c2c3nc(c(-c4cccc(S(=O)(=O)[O-])c4F)c4ccc([nH]4)c(-c4cccc(S(=O)(=O)[O-])c4F)c4nc(c(-c5cccc(S(=O)(=O)[O-])c5F)c5ccc2[nH]5)C=C4)C=C3)cc1
REMARK SMILES IDX 23 1 22 2 21 3 2 4 1 5 3 6 4 7 5 8 20 9 6 11 19 12 7 13 8 15
REMARK SMILES IDX 9 16 10 17 15 18 11 19 14 20 12 21 13 22 16 23 17 24 18 25
REMARK SMILES IDX 24 26 25 27 26 28 27 29 28 30 29 31 30 32 31 33 92 34 32 35
REMARK SMILES IDX 91 36 33 37 34 38 35 39 85 40 36 41 90 42 84 43 86 44 37 45
REMARK SMILES IDX 89 46 83 47 82 48 38 50 70 51 50 52 69 53 51 54 54 55 68 56
REMARK SMILES IDX 87 57 52 58 53 59 67 61 88 62 55 63 39 64 40 65 48 66 41 67
REMARK SMILES IDX 43 68 49 69 42 70 44 71 45 72 46 73 47 74 71 75 72 76 80 77
REMARK SMILES IDX 73 78 75 79 81 80 74 81 76 82 77 83 78 84 79 85 56 86 57 87
REMARK SMILES IDX 65 88 58 89 60 90 66 91 59 92 61 93 62 94 63 95 64 96
REMARK H PARENT 4 10 7 14 86 49 54 60
REMARK Flexibility Score: inf
ROOT
ATOM      1  C   UNL A   1      30.096  30.110  23.761  1.00  0.00     0.202 C 
ENDROOT
BRANCH   1   2
ATOM      2  C   UNL A   1      29.431  29.686  22.449  1.00  0.00     0.261 C 
BRANCH   2   3
ATOM      3  O   UNL A   1      29.184  28.273  22.400  1.00  0.00    -0.459 OA
BRANCH   3   4
ATOM      4  C   UNL A   1      28.435  27.530  23.243  1.00  0.00     0.361 C 
ATOM      5  O   UNL A   1      27.270  27.892  23.443  1.00  0.00    -0.245 OA
BRANCH   4   6
ATOM      6  C   UNL A   1      29.005  26.379  24.085  1.00  0.00     0.386 C 
BRANCH   6   7
ATOM      7  N   UNL A   1      30.467  26.372  24.247  1.00  0.00    -0.316 N 
ATOM      8  C   UNL A   1      30.882  25.643  25.456  1.00  0.00     0.325 C 
ATOM      9  C   UNL A   1      31.179  25.822  23.070  1.00  0.00     0.325 C 
ATOM     10  H   UNL A   1      30.732  27.352  24.342  1.00  0.00     0.348 HD
ATOM     11  C   UNL A   1      31.011  24.116  25.378  1.00  0.00     0.324 C 
ATOM     12  C   UNL A   1      31.441  24.287  23.033  1.00  0.00     0.324 C 
ATOM     13  N   UNL A   1      31.866  23.657  24.288  1.00  0.00    -0.322 N 
ATOM     14  H   UNL A   1      31.720  22.658  24.142  1.00  0.00     0.348 HD
BRANCH  13  15
ATOM     15  C   UNL A   1      33.304  23.592  24.598  1.00  0.00     0.306 C 
BRANCH  15  16
ATOM     16  C   UNL A   1      33.987  22.236  24.518  1.00  0.00     0.085 A 
ATOM     17  C   UNL A   1      33.165  21.092  24.680  1.00  0.00     0.037 A 
ATOM     18  C   UNL A   1      35.379  22.020  24.430  1.00  0.00     0.278 A 
ATOM     19  C   UNL A   1      33.711  19.833  24.948  1.00  0.00     0.042 A 
ATOM     20  C   UNL A   1      35.920  20.743  24.694  1.00  0.00     0.088 A 
ATOM     21  Cl  UNL A   1      32.674  18.518  25.339  1.00  0.00    -0.084 Cl
ATOM     22  C   UNL A   1      35.087  19.664  24.993  1.00  0.00     0.027 A 
BRANCH  18  23
ATOM     23  N   UNL A   1      36.338  23.085  24.070  1.00  0.00     0.063 N 
ATOM     24  O   UNL A   1      36.698  23.155  22.886  1.00  0.00    -0.258 OA
ATOM     25  O   UNL A   1      36.700  23.880  24.943  1.00  0.00    -0.258 OA
ENDBRANCH  18  23
ENDBRANCH  15  16
ENDBRANCH  13  15
ENDBRANCH   6   7
ENDBRANCH   4   6
ENDBRANCH   3   4
ENDBRANCH   2   3
ENDBRANCH   1   2
BRANCH   1  26
ATOM     26  O   UNL A   1      31.275  29.357  24.078  1.00  0.00    -0.374 OA
BRANCH  26  27
ATOM     27  C   UNL A   1      31.591  29.308  25.473  1.00  0.00     0.202 C 
BRANCH  27  28
ATOM     28  C   UNL A   1      31.657  30.698  26.103  1.00  0.00     0.261 C 
BRANCH  28  29
ATOM     29  O   UNL A   1      32.592  30.697  27.183  1.00  0.00    -0.460 OA
BRANCH  29  30
ATOM     30  C   UNL A   1      33.243  31.868  27.386  1.00  0.00     0.338 C 
ATOM     31  O   UNL A   1      32.775  32.994  27.330  1.00  0.00    -0.246 OA
BRANCH  30  32
ATOM     32  C   UNL A   1      34.596  31.559  27.896  1.00  0.00     0.060 A 
ATOM     33  C   UNL A   1      34.901  30.226  28.211  1.00  0.00     0.016 A 
ATOM     34  C   UNL A   1      35.572  32.554  28.003  1.00  0.00     0.016 A 
ATOM     35  C   UNL A   1      36.173  29.890  28.672  1.00  0.00     0.010 A 
ATOM     36  C   UNL A   1      36.841  32.219  28.458  1.00  0.00     0.010 A 
ATOM     37  C   UNL A   1      37.131  30.896  28.831  1.00  0.00    -0.014 A 
BRANCH  37  38
ATOM     38  C   UNL A   1      38.372  30.659  29.594  1.00  0.00     0.031 A 
ATOM     39  C   UNL A   1      39.345  29.666  29.030  1.00  0.00     0.074 A 
ATOM     40  C   UNL A   1      38.552  31.202  30.808  1.00  0.00     0.049 A 
ATOM     41  N   UNL A   1      40.383  29.112  29.591  1.00  0.00    -0.248 NA
ATOM     42  C   UNL A   1      39.083  29.212  27.652  1.00  0.00     0.031 C 
ATOM     43  C   UNL A   1      37.650  32.156  31.449  1.00  0.00     0.029 A 
ATOM     44  N   UNL A   1      39.527  30.969  31.743  1.00  0.00    -0.354 N 
ATOM     45  C   UNL A   1      40.865  28.202  28.659  1.00  0.00     0.074 A 
ATOM     46  C   UNL A   1      40.005  28.275  27.500  1.00  0.00     0.031 C 
ATOM     47  C   UNL A   1      38.082  32.384  32.701  1.00  0.00     0.029 A 
ATOM     48  C   UNL A   1      39.267  31.565  32.955  1.00  0.00     0.049 A 
ATOM     49  H   UNL A   1      40.332  30.431  31.566  1.00  0.00     0.167 HD
ATOM     50  C   UNL A   1      41.933  27.378  28.762  1.00  0.00     0.034 A 
ATOM     51  C   UNL A   1      39.889  31.423  34.141  1.00  0.00     0.034 A 
ATOM     52  C   UNL A   1      42.785  27.329  29.915  1.00  0.00     0.049 A 
ATOM     53  C   UNL A   1      41.089  30.518  34.232  1.00  0.00     0.074 A 
ATOM     54  C   UNL A   1      43.939  26.595  30.103  1.00  0.00     0.029 A 
ATOM     55  N   UNL A   1      42.561  28.037  31.088  1.00  0.00    -0.354 N 
ATOM     56  N   UNL A   1      41.623  29.761  33.303  1.00  0.00    -0.248 NA
ATOM     57  C   UNL A   1      41.794  30.471  35.521  1.00  0.00     0.031 C 
ATOM     58  C   UNL A   1      44.400  26.838  31.402  1.00  0.00     0.029 A 
ATOM     59  C   UNL A   1      43.549  27.749  32.010  1.00  0.00     0.049 A 
ATOM     60  H   UNL A   1      41.808  28.653  31.240  1.00  0.00     0.167 HD
ATOM     61  C   UNL A   1      42.745  29.175  33.880  1.00  0.00     0.074 A 
ATOM     62  C   UNL A   1      42.818  29.673  35.239  1.00  0.00     0.031 C 
ATOM     63  C   UNL A   1      43.630  28.302  33.339  1.00  0.00     0.034 A 
BRANCH  50  64
ATOM     64  C   UNL A   1      42.226  26.479  27.592  1.00  0.00     0.023 A 
ATOM     65  C   UNL A   1      42.929  26.982  26.478  1.00  0.00     0.012 A 
ATOM     66  C   UNL A   1      41.805  25.135  27.592  1.00  0.00     0.148 A 
ATOM     67  C   UNL A   1      43.166  26.177  25.364  1.00  0.00     0.002 A 
ATOM     68  C   UNL A   1      42.087  24.326  26.498  1.00  0.00     0.091 A 
ATOM     69  F   UNL A   1      41.107  24.682  28.644  1.00  0.00    -0.205 F 
ATOM     70  C   UNL A   1      42.753  24.849  25.378  1.00  0.00     0.022 A 
BRANCH  68  71
ATOM     71  S   UNL A   1      41.661  22.582  26.462  1.00  0.00     0.127 S 
ATOM     72  O   UNL A   1      42.254  22.107  27.711  1.00  0.00    -0.237 OA
ATOM     73  O   UNL A   1      40.197  22.620  26.458  1.00  0.00    -0.237 OA
ATOM     74  O   UNL A   1      42.254  22.054  25.240  1.00  0.00    -0.744 OA
ENDBRANCH  68  71
ENDBRANCH  50  64
BRANCH  51  75
ATOM     75  C   UNL A   1      39.393  32.183  35.321  1.00  0.00     0.023 A 
ATOM     76  C   UNL A   1      38.546  31.547  36.249  1.00  0.00     0.012 A 
ATOM     77  C   UNL A   1      39.817  33.504  35.568  1.00  0.00     0.148 A 
ATOM     78  C   UNL A   1      38.118  32.219  37.396  1.00  0.00     0.002 A 
ATOM     79  C   UNL A   1      39.429  34.148  36.737  1.00  0.00     0.091 A 
ATOM     80  F   UNL A   1      40.618  34.090  34.668  1.00  0.00    -0.205 F 
ATOM     81  C   UNL A   1      38.569  33.513  37.645  1.00  0.00     0.022 A 
BRANCH  79  82
ATOM     82  S   UNL A   1      40.064  35.760  37.212  1.00  0.00     0.127 S 
ATOM     83  O   UNL A   1      39.371  35.993  38.477  1.00  0.00    -0.237 OA
ATOM     84  O   UNL A   1      41.498  35.489  37.335  1.00  0.00    -0.237 OA
ATOM     85  O   UNL A   1      39.710  36.662  36.126  1.00  0.00    -0.744 OA
ENDBRANCH  79  82
ENDBRANCH  51  75
BRANCH  63  86
ATOM     86  C   UNL A   1      44.792  27.858  34.187  1.00  0.00     0.023 A 
ATOM     87  C   UNL A   1      45.974  28.623  34.217  1.00  0.00     0.012 A 
ATOM     88  C   UNL A   1      44.660  26.748  35.045  1.00  0.00     0.148 A 
ATOM     89  C   UNL A   1      47.015  28.279  35.079  1.00  0.00     0.002 A 
ATOM     90  C   UNL A   1      45.681  26.441  35.936  1.00  0.00     0.091 A 
ATOM     91  F   UNL A   1      43.532  26.026  34.986  1.00  0.00    -0.205 F 
ATOM     92  C   UNL A   1      46.863  27.199  35.947  1.00  0.00     0.022 A 
BRANCH  90  93
ATOM     93  S   UNL A   1      45.528  25.136  37.160  1.00  0.00     0.127 S 
ATOM     94  O   UNL A   1      44.364  25.581  37.925  1.00  0.00    -0.237 OA
ATOM     95  O   UNL A   1      45.296  23.955  36.328  1.00  0.00    -0.237 OA
ATOM     96  O   UNL A   1      46.786  25.121  37.892  1.00  0.00    -0.744 OA
ENDBRANCH  90  93
ENDBRANCH  63  86
ENDBRANCH  37  38
ENDBRANCH  30  32
ENDBRANCH  29  30
ENDBRANCH  28  29
ENDBRANCH  27  28
ENDBRANCH  26  27
ENDBRANCH   1  26
TORSDOF 21
ENDMDL
MODEL 2
REMARK VINA RESULT:     -10.5      1.954      7.805
REMARK SMILES O=C(C[NH+]1CC[NH+](Cc2cc(Cl)ccc2[N+](=O)[O-])CC1)OCCOCCOC(=O)c1ccc(-c2c3nc(c(-c4cccc(S(=O)(=O)[O-])c4F)c4ccc([nH]4)c(-c4cccc(S(=O)(=O)[O-])c4F)c4nc(c(-c5cccc(S(=O)(=O)[O-])c5F)c5ccc2[nH]5)C=C4)C=C3)cc1
REMARK SMILES IDX 23 1 22 2 21 3 2 4 1 5 3 6 4 7 5 8 20 9 6 11 19 12 7 13 8 15
REMARK SMILES IDX 9 16 10 17 15 18 11 19 14 20 12 21 13 22 16 23 17 24 18 25
REMARK SMILES IDX 24 26 25 27 26 28 27 29 28 30 29 31 30 32 31 33 92 34 32 35
REMARK SMILES IDX 91 36 33 37 34 38 35 39 85 40 36 41 90 42 84 43 86 44 37 45
REMARK SMILES IDX 89 46 83 47 82 48 38 50 70 51 50 52 69 53 51 54 54 55 68 56
REMARK SMILES IDX 87 57 52 58 53 59 67 61 88 62 55 63 39 64 40 65 48 66 41 67
REMARK SMILES IDX 43 68 49 69 42 70 44 71 45 72 46 73 47 74 71 75 72 76 80 77
REMARK SMILES IDX 73 78 75 79 81 80 74 81 76 82 77 83 78 84 79 85 56 86 57 87
REMARK SMILES IDX 65 88 58 89 60 90 66 91 59 92 61 93 62 94 63 95 64 96
REMARK H PARENT 4 10 7 14 86 49 54 60
REMARK Flexibility Score: inf
ROOT
ATOM      1  C   UNL A   1      31.267  29.002  25.136  1.00  0.00     0.202 C 
ENDROOT
BRANCH   1   2
ATOM      2  C   UNL A   1      30.600  29.297  23.791  1.00  0.00     0.261 C 
BRANCH   2   3
ATOM      3  O   UNL A   1      30.944  28.326  22.792  1.00  0.00    -0.459 OA
BRANCH   3   4
ATOM      4  C   UNL A   1      32.117  27.675  22.634  1.00  0.00     0.361 C 
ATOM      5  O   UNL A   1      33.146  28.357  22.578  1.00  0.00    -0.245 OA
BRANCH   4   6
ATOM      6  C   UNL A   1      32.212  26.169  22.349  1.00  0.00     0.386 C 
BRANCH   6   7
ATOM      7  N   UNL A   1      32.832  25.358  23.409  1.00  0.00    -0.316 N 
ATOM      8  C   UNL A   1      32.065  25.413  24.662  1.00  0.00     0.325 C 
ATOM      9  C   UNL A   1      33.035  23.945  23.014  1.00  0.00     0.325 C 
ATOM     10  H   UNL A   1      33.751  25.774  23.563  1.00  0.00     0.348 HD
ATOM     11  C   UNL A   1      30.863  24.472  24.822  1.00  0.00     0.324 C 
ATOM     12  C   UNL A   1      31.876  22.941  23.291  1.00  0.00     0.324 C 
ATOM     13  N   UNL A   1      31.183  23.069  24.577  1.00  0.00    -0.322 N 
ATOM     14  H   UNL A   1      30.318  22.541  24.463  1.00  0.00     0.348 HD
BRANCH  13  15
ATOM     15  C   UNL A   1      31.701  22.328  25.740  1.00  0.00     0.306 C 
BRANCH  15  16
ATOM     16  C   UNL A   1      33.134  21.824  25.679  1.00  0.00     0.085 A 
ATOM     17  C   UNL A   1      34.148  22.714  26.116  1.00  0.00     0.037 A 
ATOM     18  C   UNL A   1      33.553  20.604  25.104  1.00  0.00     0.278 A 
ATOM     19  C   UNL A   1      35.494  22.495  25.809  1.00  0.00     0.042 A 
ATOM     20  C   UNL A   1      34.917  20.389  24.805  1.00  0.00     0.088 A 
ATOM     21  Cl  UNL A   1      36.662  23.700  26.182  1.00  0.00    -0.084 Cl
ATOM     22  C   UNL A   1      35.876  21.351  25.121  1.00  0.00     0.027 A 
BRANCH  18  23
ATOM     23  N   UNL A   1      32.622  19.504  24.781  1.00  0.00     0.063 N 
ATOM     24  O   UNL A   1      32.280  19.373  23.596  1.00  0.00    -0.258 OA
ATOM     25  O   UNL A   1      32.264  18.742  25.685  1.00  0.00    -0.258 OA
ENDBRANCH  18  23
ENDBRANCH  15  16
ENDBRANCH  13  15
ENDBRANCH   6   7
ENDBRANCH   4   6
ENDBRANCH   3   4
ENDBRANCH   2   3
ENDBRANCH   1   2
BRANCH   1  26
ATOM     26  O   UNL A   1      31.988  30.117  25.679  1.00  0.00    -0.374 OA
BRANCH  26  27
ATOM     27  C   UNL A   1      31.174  31.248  26.006  1.00  0.00     0.202 C 
BRANCH  27  28
ATOM     28  C   UNL A   1      31.918  32.269  26.866  1.00  0.00     0.261 C 
BRANCH  28  29
ATOM     29  O   UNL A   1      33.118  31.688  27.378  1.00  0.00    -0.460 OA
BRANCH  29  30
ATOM     30  C   UNL A   1      34.044  32.571  27.824  1.00  0.00     0.338 C 
ATOM     31  O   UNL A   1      33.904  33.775  27.980  1.00  0.00    -0.246 OA
BRANCH  30  32
ATOM     32  C   UNL A   1      35.218  31.807  28.296  1.00  0.00     0.060 A 
ATOM     33  C   UNL A   1      35.063  30.436  28.551  1.00  0.00     0.016 A 
ATOM     34  C   UNL A   1      36.471  32.415  28.425  1.00  0.00     0.016 A 
ATOM     35  C   UNL A   1      36.152  29.676  28.974  1.00  0.00     0.010 A 
ATOM     36  C   UNL A   1      37.558  31.657  28.842  1.00  0.00     0.010 A 
ATOM     37  C   UNL A   1      37.391  30.298  29.155  1.00  0.00    -0.014 A 
BRANCH  37  38
ATOM     38  C   UNL A   1      38.485  29.627  29.885  1.00  0.00     0.031 A 
ATOM     39  C   UNL A   1      38.829  30.158  31.245  1.00  0.00     0.074 A 
ATOM     40  C   UNL A   1      39.228  28.677  29.296  1.00  0.00     0.049 A 
ATOM     41  N   UNL A   1      39.867  29.910  31.993  1.00  0.00    -0.248 NA
ATOM     42  C   UNL A   1      37.884  31.134  31.818  1.00  0.00     0.031 C 
ATOM     43  C   UNL A   1      38.986  28.115  27.970  1.00  0.00     0.029 A 
ATOM     44  N   UNL A   1      40.381  28.069  29.722  1.00  0.00    -0.354 N 
ATOM     45  C   UNL A   1      39.733  30.740  33.099  1.00  0.00     0.074 A 
ATOM     46  C   UNL A   1      38.516  31.500  32.922  1.00  0.00     0.031 C 
ATOM     47  C   UNL A   1      39.997  27.285  27.661  1.00  0.00     0.029 A 
ATOM     48  C   UNL A   1      40.969  27.288  28.754  1.00  0.00     0.049 A 
ATOM     49  H   UNL A   1      40.752  28.179  30.627  1.00  0.00     0.167 HD
ATOM     50  C   UNL A   1      40.552  30.856  34.169  1.00  0.00     0.034 A 
ATOM     51  C   UNL A   1      42.174  26.688  28.740  1.00  0.00     0.034 A 
ATOM     52  C   UNL A   1      41.749  30.083  34.335  1.00  0.00     0.049 A 
ATOM     53  C   UNL A   1      43.065  26.810  29.949  1.00  0.00     0.074 A 
ATOM     54  C   UNL A   1      42.615  30.055  35.411  1.00  0.00     0.029 A 
ATOM     55  N   UNL A   1      42.257  29.208  33.384  1.00  0.00    -0.354 N 
ATOM     56  N   UNL A   1      42.868  27.491  31.053  1.00  0.00    -0.248 NA
ATOM     57  C   UNL A   1      44.328  26.058  29.927  1.00  0.00     0.031 C 
ATOM     58  C   UNL A   1      43.664  29.183  35.099  1.00  0.00     0.029 A 
ATOM     59  C   UNL A   1      43.432  28.643  33.843  1.00  0.00     0.049 A 
ATOM     60  H   UNL A   1      41.841  29.019  32.512  1.00  0.00     0.167 HD
ATOM     61  C   UNL A   1      43.959  27.222  31.872  1.00  0.00     0.074 A 
ATOM     62  C   UNL A   1      44.812  26.309  31.138  1.00  0.00     0.031 C 
ATOM     63  C   UNL A   1      44.235  27.692  33.114  1.00  0.00     0.034 A 
BRANCH  50  64
ATOM     64  C   UNL A   1      40.166  31.850  35.229  1.00  0.00     0.023 A 
ATOM     65  C   UNL A   1      40.818  33.099  35.294  1.00  0.00     0.012 A 
ATOM     66  C   UNL A   1      39.157  31.550  36.166  1.00  0.00     0.148 A 
ATOM     67  C   UNL A   1      40.508  34.012  36.301  1.00  0.00     0.002 A 
ATOM     68  C   UNL A   1      38.819  32.485  37.136  1.00  0.00     0.091 A 
ATOM     69  F   UNL A   1      38.570  30.346  36.112  1.00  0.00    -0.205 F 
ATOM     70  C   UNL A   1      39.504  33.709  37.216  1.00  0.00     0.022 A 
BRANCH  68  71
ATOM     71  S   UNL A   1      37.485  32.212  38.306  1.00  0.00     0.127 S 
ATOM     72  O   UNL A   1      37.308  30.764  38.220  1.00  0.00    -0.237 OA
ATOM     73  O   UNL A   1      38.074  32.680  39.563  1.00  0.00    -0.237 OA
ATOM     74  O   UNL A   1      36.368  33.015  37.829  1.00  0.00    -0.744 OA
ENDBRANCH  68  71
ENDBRANCH  50  64
BRANCH  51  75
ATOM     75  C   UNL A   1      42.584  25.899  27.546  1.00  0.00     0.023 A 
ATOM     76  C   UNL A   1      43.446  26.477  26.595  1.00  0.00     0.012 A 
ATOM     77  C   UNL A   1      42.185  24.557  27.388  1.00  0.00     0.148 A 
ATOM     78  C   UNL A   1      43.893  25.737  25.499  1.00  0.00     0.002 A 
ATOM     79  C   UNL A   1      42.675  23.810  26.323  1.00  0.00     0.091 A 
ATOM     80  F   UNL A   1      41.359  24.030  28.302  1.00  0.00    -0.205 F 
ATOM     81  C   UNL A   1      43.518  24.402  25.370  1.00  0.00     0.022 A 
BRANCH  79  82
ATOM     82  S   UNL A   1      42.360  22.051  26.146  1.00  0.00     0.127 S 
ATOM     83  O   UNL A   1      43.196  21.711  24.997  1.00  0.00    -0.237 OA
ATOM     84  O   UNL A   1      42.835  21.533  27.430  1.00  0.00    -0.237 OA
ATOM     85  O   UNL A   1      40.924  21.924  25.937  1.00  0.00    -0.744 OA
ENDBRANCH  79  82
ENDBRANCH  51  75
BRANCH  63  86
ATOM     86  C   UNL A   1      45.481  27.195  33.796  1.00  0.00     0.023 A 
ATOM     87  C   UNL A   1      46.673  27.940  33.716  1.00  0.00     0.012 A 
ATOM     88  C   UNL A   1      45.431  26.051  34.618  1.00  0.00     0.148 A 
ATOM     89  C   UNL A   1      47.802  27.543  34.431  1.00  0.00     0.002 A 
ATOM     90  C   UNL A   1      46.544  25.690  35.365  1.00  0.00     0.091 A 
ATOM     91  F   UNL A   1      44.289  25.348  34.665  1.00  0.00    -0.205 F 
ATOM     92  C   UNL A   1      47.734  26.429  35.266  1.00  0.00     0.022 A 
BRANCH  90  93
ATOM     93  S   UNL A   1      46.513  24.335  36.544  1.00  0.00     0.127 S 
ATOM     94  O   UNL A   1      47.886  24.350  37.049  1.00  0.00    -0.237 OA
ATOM     95  O   UNL A   1      45.505  24.783  37.505  1.00  0.00    -0.237 OA
ATOM     96  O   UNL A   1      46.140  23.150  35.786  1.00  0.00    -0.744 OA
ENDBRANCH  90  93
ENDBRANCH  63  86
ENDBRANCH  37  38
ENDBRANCH  30  32
ENDBRANCH  29  30
ENDBRANCH  28  29
ENDBRANCH  27  28
ENDBRANCH  26  27
ENDBRANCH   1  26
TORSDOF 21
ENDMDL
MODEL 3
REMARK VINA RESULT:     -10.4      1.910      2.340
REMARK SMILES O=C(C[NH+]1CC[NH+](Cc2cc(Cl)ccc2[N+](=O)[O-])CC1)OCCOCCOC(=O)c1ccc(-c2c3nc(c(-c4cccc(S(=O)(=O)[O-])c4F)c4ccc([nH]4)c(-c4cccc(S(=O)(=O)[O-])c4F)c4nc(c(-c5cccc(S(=O)(=O)[O-])c5F)c5ccc2[nH]5)C=C4)C=C3)cc1
REMARK SMILES IDX 23 1 22 2 21 3 2 4 1 5 3 6 4 7 5 8 20 9 6 11 19 12 7 13 8 15
REMARK SMILES IDX 9 16 10 17 15 18 11 19 14 20 12 21 13 22 16 23 17 24 18 25
REMARK SMILES IDX 24 26 25 27 26 28 27 29 28 30 29 31 30 32 31 33 92 34 32 35
REMARK SMILES IDX 91 36 33 37 34 38 35 39 85 40 36 41 90 42 84 43 86 44 37 45
REMARK SMILES IDX 89 46 83 47 82 48 38 50 70 51 50 52 69 53 51 54 54 55 68 56
REMARK SMILES IDX 87 57 52 58 53 59 67 61 88 62 55 63 39 64 40 65 48 66 41 67
REMARK SMILES IDX 43 68 49 69 42 70 44 71 45 72 46 73 47 74 71 75 72 76 80 77
REMARK SMILES IDX 73 78 75 79 81 80 74 81 76 82 77 83 78 84 79 85 56 86 57 87
REMARK SMILES IDX 65 88 58 89 60 90 66 91 59 92 61 93 62 94 63 95 64 96
REMARK H PARENT 4 10 7 14 86 49 54 60
REMARK Flexibility Score: inf
ROOT
ATOM      1  C   UNL A   1      33.648  27.302  25.589  1.00  0.00     0.202 C 
ENDROOT
BRANCH   1   2
ATOM      2  C   UNL A   1      33.508  27.928  24.199  1.00  0.00     0.261 C 
BRANCH   2   3
ATOM      3  O   UNL A   1      32.737  27.105  23.310  1.00  0.00    -0.459 OA
BRANCH   3   4
ATOM      4  C   UNL A   1      33.185  26.310  22.315  1.00  0.00     0.361 C 
ATOM      5  O   UNL A   1      33.857  26.836  21.421  1.00  0.00    -0.245 OA
BRANCH   4   6
ATOM      6  C   UNL A   1      32.759  24.843  22.153  1.00  0.00     0.386 C 
BRANCH   6   7
ATOM      7  N   UNL A   1      33.513  23.868  22.955  1.00  0.00    -0.316 N 
ATOM      8  C   UNL A   1      33.266  24.034  24.396  1.00  0.00     0.325 C 
ATOM      9  C   UNL A   1      33.243  22.464  22.566  1.00  0.00     0.325 C 
ATOM     10  H   UNL A   1      34.495  24.062  22.761  1.00  0.00     0.348 HD
ATOM     11  C   UNL A   1      32.018  23.376  25.002  1.00  0.00     0.324 C 
ATOM     12  C   UNL A   1      32.061  21.731  23.269  1.00  0.00     0.324 C 
ATOM     13  N   UNL A   1      31.910  21.950  24.711  1.00  0.00    -0.322 N 
ATOM     14  H   UNL A   1      30.965  21.633  24.927  1.00  0.00     0.348 HD
BRANCH  13  15
ATOM     15  C   UNL A   1      32.623  21.060  25.643  1.00  0.00     0.306 C 
BRANCH  15  16
ATOM     16  C   UNL A   1      33.559  20.018  25.053  1.00  0.00     0.085 A 
ATOM     17  C   UNL A   1      32.992  18.762  24.715  1.00  0.00     0.037 A 
ATOM     18  C   UNL A   1      34.960  20.144  24.934  1.00  0.00     0.278 A 
ATOM     19  C   UNL A   1      33.792  17.641  24.477  1.00  0.00     0.042 A 
ATOM     20  C   UNL A   1      35.759  19.005  24.686  1.00  0.00     0.088 A 
ATOM     21  Cl  UNL A   1      33.061  16.098  24.274  1.00  0.00    -0.084 Cl
ATOM     22  C   UNL A   1      35.175  17.752  24.499  1.00  0.00     0.027 A 
BRANCH  18  23
ATOM     23  N   UNL A   1      35.667  21.434  25.064  1.00  0.00     0.063 N 
ATOM     24  O   UNL A   1      35.692  21.963  26.185  1.00  0.00    -0.258 OA
ATOM     25  O   UNL A   1      36.236  21.903  24.073  1.00  0.00    -0.258 OA
ENDBRANCH  18  23
ENDBRANCH  15  16
ENDBRANCH  13  15
ENDBRANCH   6   7
ENDBRANCH   4   6
ENDBRANCH   3   4
ENDBRANCH   2   3
ENDBRANCH   1   2
BRANCH   1  26
ATOM     26  O   UNL A   1      32.653  27.744  26.522  1.00  0.00    -0.374 OA
BRANCH  26  27
ATOM     27  C   UNL A   1      31.715  28.685  25.990  1.00  0.00     0.202 C 
BRANCH  27  28
ATOM     28  C   UNL A   1      31.798  30.044  26.684  1.00  0.00     0.261 C 
BRANCH  28  29
ATOM     29  O   UNL A   1      33.056  30.656  26.400  1.00  0.00    -0.460 OA
BRANCH  29  30
ATOM     30  C   UNL A   1      33.403  31.674  27.224  1.00  0.00     0.338 C 
ATOM     31  O   UNL A   1      32.691  32.589  27.610  1.00  0.00    -0.246 OA
BRANCH  30  32
ATOM     32  C   UNL A   1      34.752  31.393  27.759  1.00  0.00     0.060 A 
ATOM     33  C   UNL A   1      35.094  30.061  28.038  1.00  0.00     0.016 A 
ATOM     34  C   UNL A   1      35.691  32.416  27.925  1.00  0.00     0.016 A 
ATOM     35  C   UNL A   1      36.365  29.753  28.521  1.00  0.00     0.010 A 
ATOM     36  C   UNL A   1      36.959  32.108  28.401  1.00  0.00     0.010 A 
ATOM     37  C   UNL A   1      37.284  30.784  28.738  1.00  0.00    -0.014 A 
BRANCH  37  38
ATOM     38  C   UNL A   1      38.512  30.562  29.525  1.00  0.00     0.031 A 
ATOM     39  C   UNL A   1      39.505  29.575  28.985  1.00  0.00     0.074 A 
ATOM     40  C   UNL A   1      38.665  31.114  30.739  1.00  0.00     0.049 A 
ATOM     41  N   UNL A   1      40.537  29.033  29.569  1.00  0.00    -0.248 NA
ATOM     42  C   UNL A   1      39.272  29.110  27.606  1.00  0.00     0.031 C 
ATOM     43  C   UNL A   1      37.743  32.064  31.358  1.00  0.00     0.029 A 
ATOM     44  N   UNL A   1      39.625  30.895  31.694  1.00  0.00    -0.354 N 
ATOM     45  C   UNL A   1      41.044  28.121  28.652  1.00  0.00     0.074 A 
ATOM     46  C   UNL A   1      40.205  28.180  27.476  1.00  0.00     0.031 C 
ATOM     47  C   UNL A   1      38.150  32.303  32.616  1.00  0.00     0.029 A 
ATOM     48  C   UNL A   1      39.337  31.496  32.896  1.00  0.00     0.049 A 
ATOM     49  H   UNL A   1      40.438  30.363  31.535  1.00  0.00     0.167 HD
ATOM     50  C   UNL A   1      42.117  27.308  28.780  1.00  0.00     0.034 A 
ATOM     51  C   UNL A   1      39.938  31.367  34.095  1.00  0.00     0.034 A 
ATOM     52  C   UNL A   1      42.948  27.273  29.948  1.00  0.00     0.049 A 
ATOM     53  C   UNL A   1      41.145  30.473  34.214  1.00  0.00     0.074 A 
ATOM     54  C   UNL A   1      44.105  26.550  30.162  1.00  0.00     0.029 A 
ATOM     55  N   UNL A   1      42.696  27.986  31.112  1.00  0.00    -0.354 N 
ATOM     56  N   UNL A   1      41.702  29.714  33.299  1.00  0.00    -0.248 NA
ATOM     57  C   UNL A   1      41.826  30.440  35.516  1.00  0.00     0.031 C 
ATOM     58  C   UNL A   1      44.539  26.805  31.467  1.00  0.00     0.029 A 
ATOM     59  C   UNL A   1      43.669  27.713  32.054  1.00  0.00     0.049 A 
ATOM     60  H   UNL A   1      41.935  28.597  31.247  1.00  0.00     0.167 HD
ATOM     61  C   UNL A   1      42.818  29.143  33.900  1.00  0.00     0.074 A 
ATOM     62  C   UNL A   1      42.861  29.649  35.258  1.00  0.00     0.031 C 
ATOM     63  C   UNL A   1      43.721  28.274  33.381  1.00  0.00     0.034 A 
BRANCH  50  64
ATOM     64  C   UNL A   1      42.440  26.405  27.621  1.00  0.00     0.023 A 
ATOM     65  C   UNL A   1      43.208  26.891  26.543  1.00  0.00     0.012 A 
ATOM     66  C   UNL A   1      41.981  25.073  27.594  1.00  0.00     0.148 A 
ATOM     67  C   UNL A   1      43.475  26.083  25.438  1.00  0.00     0.002 A 
ATOM     68  C   UNL A   1      42.292  24.260  26.512  1.00  0.00     0.091 A 
ATOM     69  F   UNL A   1      41.223  24.636  28.611  1.00  0.00    -0.205 F 
ATOM     70  C   UNL A   1      43.024  24.767  25.426  1.00  0.00     0.022 A 
BRANCH  68  71
ATOM     71  S   UNL A   1      41.820  22.528  26.448  1.00  0.00     0.127 S 
ATOM     72  O   UNL A   1      40.362  22.621  26.398  1.00  0.00    -0.237 OA
ATOM     73  O   UNL A   1      42.445  22.082  25.201  1.00  0.00    -0.237 OA
ATOM     74  O   UNL A   1      42.374  21.922  27.651  1.00  0.00    -0.744 OA
ENDBRANCH  68  71
ENDBRANCH  50  64
BRANCH  51  75
ATOM     75  C   UNL A   1      39.414  32.129  35.261  1.00  0.00     0.023 A 
ATOM     76  C   UNL A   1      38.550  31.494  36.173  1.00  0.00     0.012 A 
ATOM     77  C   UNL A   1      39.828  33.452  35.512  1.00  0.00     0.148 A 
ATOM     78  C   UNL A   1      38.094  32.168  37.307  1.00  0.00     0.002 A 
ATOM     79  C   UNL A   1      39.412  34.099  36.670  1.00  0.00     0.091 A 
ATOM     80  F   UNL A   1      40.646  34.038  34.628  1.00  0.00    -0.205 F 
ATOM     81  C   UNL A   1      38.534  33.464  37.561  1.00  0.00     0.022 A 
BRANCH  79  82
ATOM     82  S   UNL A   1      40.031  35.715  37.153  1.00  0.00     0.127 S 
ATOM     83  O   UNL A   1      39.319  35.945  38.408  1.00  0.00    -0.237 OA
ATOM     84  O   UNL A   1      41.464  35.453  37.296  1.00  0.00    -0.237 OA
ATOM     85  O   UNL A   1      39.687  36.615  36.061  1.00  0.00    -0.744 OA
ENDBRANCH  79  82
ENDBRANCH  51  75
BRANCH  63  86
ATOM     86  C   UNL A   1      44.871  27.846  34.253  1.00  0.00     0.023 A 
ATOM     87  C   UNL A   1      44.762  26.685  35.042  1.00  0.00     0.012 A 
ATOM     88  C   UNL A   1      46.101  28.532  34.190  1.00  0.00     0.148 A 
ATOM     89  C   UNL A   1      45.858  26.222  35.770  1.00  0.00     0.002 A 
ATOM     90  C   UNL A   1      47.201  28.037  34.879  1.00  0.00     0.091 A 
ATOM     91  F   UNL A   1      46.175  29.644  33.445  1.00  0.00    -0.205 F 
ATOM     92  C   UNL A   1      47.079  26.888  35.678  1.00  0.00     0.022 A 
BRANCH  90  93
ATOM     93  S   UNL A   1      48.835  28.768  34.733  1.00  0.00     0.127 S 
ATOM     94  O   UNL A   1      49.655  27.813  35.477  1.00  0.00    -0.237 OA
ATOM     95  O   UNL A   1      49.051  28.759  33.286  1.00  0.00    -0.237 OA
ATOM     96  O   UNL A   1      48.736  30.096  35.321  1.00  0.00    -0.744 OA
ENDBRANCH  90  93
ENDBRANCH  63  86
ENDBRANCH  37  38
ENDBRANCH  30  32
ENDBRANCH  29  30
ENDBRANCH  28  29
ENDBRANCH  27  28
ENDBRANCH  26  27
ENDBRANCH   1  26
TORSDOF 21
ENDMDL
