MODEL 1
REMARK VINA RESULT:     -11.6      0.000      0.000
REMARK SMILES O=C(Nc1ccc2c(c1)OCO2)N[C@H]1C=C[C@@H](C(=O)OCCOCCOC(=O)c2ccc(-c3c4nc(c(-c5cccc(S(=O)(=O)[O-])c5F)c5ccc([nH]5)c(-c5cccc(S(=O)(=O)[O-])c5F)c5nc(c(-c6cccc(S(=O)(=O)[O-])c6F)c6ccc3[nH]6)C=C5)C=C4)cc2)C1
REMARK SMILES IDX 24 1 23 2 22 3 21 4 20 5 18 6 19 7 17 8 14 9 15 10 92 11
REMARK SMILES IDX 16 12 13 13 1 14 2 15 3 16 4 19 5 20 9 21 6 22 8 23 7 24
REMARK SMILES IDX 10 25 12 26 11 27 25 28 26 29 27 30 28 31 29 32 30 33 91 34
REMARK SMILES IDX 31 35 90 36 32 37 33 38 34 39 84 40 35 41 89 42 83 43 85 44
REMARK SMILES IDX 36 45 88 46 82 47 81 48 37 50 69 51 49 52 68 53 50 54 53 55
REMARK SMILES IDX 67 56 86 57 51 58 52 59 66 61 87 62 54 63 38 64 39 65 47 66
REMARK SMILES IDX 40 67 42 68 48 69 41 70 43 71 44 72 45 73 46 74 70 75 71 76
REMARK SMILES IDX 79 77 72 78 74 79 80 80 73 81 75 82 76 83 77 84 78 85 55 86
REMARK SMILES IDX 56 87 64 88 57 89 59 90 65 91 58 92 60 93 61 94 62 95 63 96
REMARK H PARENT 3 17 13 18 85 49 53 60
REMARK Flexibility Score: inf
ROOT
ATOM      1  C   UNL A   1      31.568  31.209  26.191  1.00  0.00     0.202 C 
ENDROOT
BRANCH   1   2
ATOM      2  O   UNL A   1      32.704  30.343  26.197  1.00  0.00    -0.374 OA
BRANCH   2   3
ATOM      3  C   UNL A   1      32.752  29.309  25.213  1.00  0.00     0.202 C 
BRANCH   3   4
ATOM      4  C   UNL A   1      31.613  29.287  24.191  1.00  0.00     0.261 C 
BRANCH   4   5
ATOM      5  O   UNL A   1      31.728  28.162  23.304  1.00  0.00    -0.463 OA
BRANCH   5   6
ATOM      6  C   UNL A   1      30.569  27.740  22.734  1.00  0.00     0.312 C 
ATOM      7  O   UNL A   1      29.998  28.306  21.807  1.00  0.00    -0.252 OA
BRANCH   6   8
ATOM      8  C   UNL A   1      30.025  26.458  23.346  1.00  0.00     0.124 C 
ATOM      9  C   UNL A   1      30.416  24.342  24.440  1.00  0.00     0.107 C 
ATOM     10  C   UNL A   1      30.122  25.412  25.439  1.00  0.00    -0.006 C 
ATOM     11  C   UNL A   1      30.839  25.165  23.215  1.00  0.00     0.048 C 
ATOM     12  C   UNL A   1      29.889  26.585  24.835  1.00  0.00    -0.014 C 
BRANCH   9  13
ATOM     13  N   UNL A   1      31.457  23.487  24.933  1.00  0.00    -0.332 N 
ATOM     14  O   UNL A   1      30.079  22.141  26.151  1.00  0.00    -0.248 OA
ATOM     15  C   UNL A   1      31.210  22.458  25.789  1.00  0.00     0.319 C 
ATOM     16  N   UNL A   1      32.266  21.680  26.158  1.00  0.00    -0.308 N 
ATOM     17  H   UNL A   1      32.010  20.816  26.554  1.00  0.00     0.171 HD
ATOM     18  H   UNL A   1      32.383  23.650  24.641  1.00  0.00     0.165 HD
BRANCH  16  19
ATOM     19  C   UNL A   1      33.653  21.886  26.075  1.00  0.00     0.046 A 
ATOM     20  C   UNL A   1      34.282  23.084  26.468  1.00  0.00     0.030 A 
ATOM     21  C   UNL A   1      34.425  20.814  25.607  1.00  0.00     0.076 A 
ATOM     22  C   UNL A   1      35.665  23.247  26.326  1.00  0.00     0.053 A 
ATOM     23  C   UNL A   1      35.781  21.013  25.456  1.00  0.00     0.167 A 
ATOM     24  C   UNL A   1      36.383  22.198  25.797  1.00  0.00     0.165 A 
ATOM     25  O   UNL A   1      36.663  20.108  24.952  1.00  0.00    -0.454 OA
ATOM     26  O   UNL A   1      37.718  22.188  25.558  1.00  0.00    -0.454 OA
ATOM     27  C   UNL A   1      37.879  20.893  24.946  1.00  0.00     0.468 C 
ENDBRANCH  16  19
ENDBRANCH   9  13
ENDBRANCH   6   8
ENDBRANCH   5   6
ENDBRANCH   4   5
ENDBRANCH   3   4
ENDBRANCH   2   3
ENDBRANCH   1   2
BRANCH   1  28
ATOM     28  C   UNL A   1      31.665  32.497  27.019  1.00  0.00     0.261 C 
BRANCH  28  29
ATOM     29  O   UNL A   1      32.907  33.197  26.823  1.00  0.00    -0.460 OA
BRANCH  29  30
ATOM     30  C   UNL A   1      33.473  33.674  27.958  1.00  0.00     0.338 C 
ATOM     31  O   UNL A   1      33.001  34.508  28.721  1.00  0.00    -0.246 OA
BRANCH  30  32
ATOM     32  C   UNL A   1      34.697  32.920  28.283  1.00  0.00     0.060 A 
ATOM     33  C   UNL A   1      34.540  31.627  28.803  1.00  0.00     0.016 A 
ATOM     34  C   UNL A   1      35.966  33.490  28.169  1.00  0.00     0.016 A 
ATOM     35  C   UNL A   1      35.649  30.920  29.260  1.00  0.00     0.010 A 
ATOM     36  C   UNL A   1      37.078  32.779  28.636  1.00  0.00     0.010 A 
ATOM     37  C   UNL A   1      36.920  31.508  29.219  1.00  0.00    -0.014 A 
BRANCH  37  38
ATOM     38  C   UNL A   1      38.054  30.847  29.908  1.00  0.00     0.031 A 
ATOM     39  C   UNL A   1      38.360  31.212  31.334  1.00  0.00     0.074 A 
ATOM     40  C   UNL A   1      38.800  29.925  29.273  1.00  0.00     0.049 A 
ATOM     41  N   UNL A   1      39.311  30.771  32.116  1.00  0.00    -0.248 NA
ATOM     42  C   UNL A   1      37.478  32.209  31.963  1.00  0.00     0.031 C 
ATOM     43  C   UNL A   1      38.603  29.488  27.893  1.00  0.00     0.029 A 
ATOM     44  N   UNL A   1      39.889  29.210  29.704  1.00  0.00    -0.354 N 
ATOM     45  C   UNL A   1      39.157  31.447  33.320  1.00  0.00     0.074 A 
ATOM     46  C   UNL A   1      38.032  32.344  33.159  1.00  0.00     0.031 C 
ATOM     47  C   UNL A   1      39.565  28.605  27.576  1.00  0.00     0.029 A 
ATOM     48  C   UNL A   1      40.452  28.428  28.725  1.00  0.00     0.049 A 
ATOM     49  H   UNL A   1      40.232  29.252  30.625  1.00  0.00     0.167 HD
ATOM     50  C   UNL A   1      39.872  31.321  34.463  1.00  0.00     0.034 A 
ATOM     51  C   UNL A   1      41.569  27.674  28.745  1.00  0.00     0.034 A 
ATOM     52  C   UNL A   1      40.979  30.418  34.627  1.00  0.00     0.049 A 
ATOM     53  C   UNL A   1      42.362  27.562  30.021  1.00  0.00     0.074 A 
ATOM     54  C   UNL A   1      41.743  30.191  35.759  1.00  0.00     0.029 A 
ATOM     55  N   UNL A   1      41.491  29.603  33.631  1.00  0.00    -0.354 N 
ATOM     56  N   UNL A   1      42.132  28.117  31.187  1.00  0.00    -0.248 NA
ATOM     57  C   UNL A   1      43.545  26.690  29.997  1.00  0.00     0.031 C 
ATOM     58  C   UNL A   1      42.729  29.250  35.439  1.00  0.00     0.029 A 
ATOM     59  C   UNL A   1      42.565  28.876  34.115  1.00  0.00     0.049 A 
ATOM     60  H   UNL A   1      41.139  29.547  32.712  1.00  0.00     0.167 HD
ATOM     61  C   UNL A   1      43.122  27.641  32.040  1.00  0.00     0.074 A 
ATOM     62  C   UNL A   1      43.940  26.734  31.262  1.00  0.00     0.031 C 
ATOM     63  C   UNL A   1      43.341  27.938  33.345  1.00  0.00     0.034 A 
BRANCH  50  64
ATOM     64  C   UNL A   1      39.450  32.160  35.640  1.00  0.00     0.023 A 
ATOM     65  C   UNL A   1      38.555  31.626  36.589  1.00  0.00     0.012 A 
ATOM     66  C   UNL A   1      39.967  33.457  35.830  1.00  0.00     0.148 A 
ATOM     67  C   UNL A   1      38.153  32.381  37.690  1.00  0.00     0.002 A 
ATOM     68  C   UNL A   1      39.593  34.188  36.952  1.00  0.00     0.091 A 
ATOM     69  F   UNL A   1      40.795  33.958  34.903  1.00  0.00    -0.205 F 
ATOM     70  C   UNL A   1      38.679  33.657  37.877  1.00  0.00     0.022 A 
BRANCH  68  71
ATOM     71  S   UNL A   1      40.272  35.811  37.313  1.00  0.00     0.127 S 
ATOM     72  O   UNL A   1      39.856  36.003  38.702  1.00  0.00    -0.237 OA
ATOM     73  O   UNL A   1      41.708  35.595  37.131  1.00  0.00    -0.237 OA
ATOM     74  O   UNL A   1      39.671  36.718  36.345  1.00  0.00    -0.744 OA
ENDBRANCH  68  71
ENDBRANCH  50  64
BRANCH  51  75
ATOM     75  C   UNL A   1      41.985  26.941  27.516  1.00  0.00     0.023 A 
ATOM     76  C   UNL A   1      42.572  27.643  26.448  1.00  0.00     0.012 A 
ATOM     77  C   UNL A   1      41.835  25.543  27.422  1.00  0.00     0.148 A 
ATOM     78  C   UNL A   1      42.984  26.970  25.296  1.00  0.00     0.002 A 
ATOM     79  C   UNL A   1      42.298  24.872  26.297  1.00  0.00     0.091 A 
ATOM     80  F   UNL A   1      41.256  24.896  28.442  1.00  0.00    -0.205 F 
ATOM     81  C   UNL A   1      42.858  25.585  25.225  1.00  0.00     0.022 A 
BRANCH  79  82
ATOM     82  S   UNL A   1      42.303  23.080  26.182  1.00  0.00     0.127 S 
ATOM     83  O   UNL A   1      42.825  22.867  24.834  1.00  0.00    -0.237 OA
ATOM     84  O   UNL A   1      43.217  22.710  27.263  1.00  0.00    -0.237 OA
ATOM     85  O   UNL A   1      40.922  22.668  26.399  1.00  0.00    -0.744 OA
ENDBRANCH  79  82
ENDBRANCH  51  75
BRANCH  63  86
ATOM     86  C   UNL A   1      44.498  27.260  34.035  1.00  0.00     0.023 A 
ATOM     87  C   UNL A   1      45.801  27.776  33.884  1.00  0.00     0.012 A 
ATOM     88  C   UNL A   1      44.284  26.165  34.893  1.00  0.00     0.148 A 
ATOM     89  C   UNL A   1      46.875  27.193  34.554  1.00  0.00     0.002 A 
ATOM     90  C   UNL A   1      45.353  25.617  35.594  1.00  0.00     0.091 A 
ATOM     91  F   UNL A   1      43.040  25.676  35.010  1.00  0.00    -0.205 F 
ATOM     92  C   UNL A   1      46.651  26.124  35.417  1.00  0.00     0.022 A 
BRANCH  90  93
ATOM     93  S   UNL A   1      45.142  24.299  36.797  1.00  0.00     0.127 S 
ATOM     94  O   UNL A   1      44.524  23.253  35.986  1.00  0.00    -0.237 OA
ATOM     95  O   UNL A   1      46.521  24.023  37.202  1.00  0.00    -0.237 OA
ATOM     96  O   UNL A   1      44.304  24.853  37.853  1.00  0.00    -0.744 OA
ENDBRANCH  90  93
ENDBRANCH  63  86
ENDBRANCH  37  38
ENDBRANCH  30  32
ENDBRANCH  29  30
ENDBRANCH  28  29
ENDBRANCH   1  28
TORSDOF 19
ENDMDL
MODEL 2
REMARK VINA RESULT:     -11.5      1.720      2.428
REMARK SMILES O=C(Nc1ccc2c(c1)OCO2)N[C@H]1C=C[C@@H](C(=O)OCCOCCOC(=O)c2ccc(-c3c4nc(c(-c5cccc(S(=O)(=O)[O-])c5F)c5ccc([nH]5)c(-c5cccc(S(=O)(=O)[O-])c5F)c5nc(c(-c6cccc(S(=O)(=O)[O-])c6F)c6ccc3[nH]6)C=C5)C=C4)cc2)C1
REMARK SMILES IDX 24 1 23 2 22 3 21 4 20 5 18 6 19 7 17 8 14 9 15 10 92 11
REMARK SMILES IDX 16 12 13 13 1 14 2 15 3 16 4 19 5 20 9 21 6 22 8 23 7 24
REMARK SMILES IDX 10 25 12 26 11 27 25 28 26 29 27 30 28 31 29 32 30 33 91 34
REMARK SMILES IDX 31 35 90 36 32 37 33 38 34 39 84 40 35 41 89 42 83 43 85 44
REMARK SMILES IDX 36 45 88 46 82 47 81 48 37 50 69 51 49 52 68 53 50 54 53 55
REMARK SMILES IDX 67 56 86 57 51 58 52 59 66 61 87 62 54 63 38 64 39 65 47 66
REMARK SMILES IDX 40 67 42 68 48 69 41 70 43 71 44 72 45 73 46 74 70 75 71 76
REMARK SMILES IDX 79 77 72 78 74 79 80 80 73 81 75 82 76 83 77 84 78 85 55 86
REMARK SMILES IDX 56 87 64 88 57 89 59 90 65 91 58 92 60 93 61 94 62 95 63 96
REMARK H PARENT 3 17 13 18 85 49 53 60
REMARK Flexibility Score: inf
ROOT
ATOM      1  C   UNL A   1      31.478  31.557  26.448  1.00  0.00     0.202 C 
ENDROOT
BRANCH   1   2
ATOM      2  O   UNL A   1      31.785  30.408  27.238  1.00  0.00    -0.374 OA
BRANCH   2   3
ATOM      3  C   UNL A   1      32.222  29.233  26.555  1.00  0.00     0.202 C 
BRANCH   3   4
ATOM      4  C   UNL A   1      32.391  29.350  25.038  1.00  0.00     0.261 C 
BRANCH   4   5
ATOM      5  O   UNL A   1      31.424  28.548  24.340  1.00  0.00    -0.463 OA
BRANCH   5   6
ATOM      6  C   UNL A   1      31.566  27.204  24.474  1.00  0.00     0.312 C 
ATOM      7  O   UNL A   1      30.676  26.437  24.827  1.00  0.00    -0.252 OA
BRANCH   6   8
ATOM      8  C   UNL A   1      32.960  26.705  24.123  1.00  0.00     0.124 C 
ATOM      9  C   UNL A   1      34.633  24.967  24.211  1.00  0.00     0.107 C 
ATOM     10  C   UNL A   1      33.857  24.896  22.937  1.00  0.00    -0.006 C 
ATOM     11  C   UNL A   1      33.691  25.782  25.106  1.00  0.00     0.048 C 
ATOM     12  C   UNL A   1      32.937  25.868  22.878  1.00  0.00    -0.014 C 
BRANCH   9  13
ATOM     13  N   UNL A   1      34.880  23.643  24.706  1.00  0.00    -0.332 N 
ATOM     14  O   UNL A   1      36.619  24.234  26.056  1.00  0.00    -0.248 OA
ATOM     15  C   UNL A   1      35.888  23.368  25.577  1.00  0.00     0.319 C 
ATOM     16  N   UNL A   1      36.004  22.085  26.020  1.00  0.00    -0.308 N 
ATOM     17  H   UNL A   1      36.561  21.986  26.826  1.00  0.00     0.171 HD
ATOM     18  H   UNL A   1      34.299  22.909  24.405  1.00  0.00     0.165 HD
BRANCH  16  19
ATOM     19  C   UNL A   1      35.471  20.878  25.537  1.00  0.00     0.046 A 
ATOM     20  C   UNL A   1      36.263  19.843  25.002  1.00  0.00     0.030 A 
ATOM     21  C   UNL A   1      34.084  20.713  25.641  1.00  0.00     0.076 A 
ATOM     22  C   UNL A   1      35.673  18.676  24.500  1.00  0.00     0.053 A 
ATOM     23  C   UNL A   1      33.529  19.564  25.116  1.00  0.00     0.167 A 
ATOM     24  C   UNL A   1      34.301  18.578  24.554  1.00  0.00     0.165 A 
ATOM     25  O   UNL A   1      32.201  19.275  25.069  1.00  0.00    -0.454 OA
ATOM     26  O   UNL A   1      33.558  17.543  24.088  1.00  0.00    -0.454 OA
ATOM     27  C   UNL A   1      32.223  18.024  24.341  1.00  0.00     0.468 C 
ENDBRANCH  16  19
ENDBRANCH   9  13
ENDBRANCH   6   8
ENDBRANCH   5   6
ENDBRANCH   4   5
ENDBRANCH   3   4
ENDBRANCH   2   3
ENDBRANCH   1   2
BRANCH   1  28
ATOM     28  C   UNL A   1      31.800  32.930  27.053  1.00  0.00     0.261 C 
BRANCH  28  29
ATOM     29  O   UNL A   1      33.194  33.270  26.961  1.00  0.00    -0.460 OA
BRANCH  29  30
ATOM     30  C   UNL A   1      33.748  33.706  28.119  1.00  0.00     0.338 C 
ATOM     31  O   UNL A   1      33.265  34.508  28.910  1.00  0.00    -0.246 OA
BRANCH  30  32
ATOM     32  C   UNL A   1      34.974  32.947  28.425  1.00  0.00     0.060 A 
ATOM     33  C   UNL A   1      34.822  31.619  28.849  1.00  0.00     0.016 A 
ATOM     34  C   UNL A   1      36.237  33.540  28.387  1.00  0.00     0.016 A 
ATOM     35  C   UNL A   1      35.928  30.895  29.287  1.00  0.00     0.010 A 
ATOM     36  C   UNL A   1      37.346  32.812  28.835  1.00  0.00     0.010 A 
ATOM     37  C   UNL A   1      37.190  31.502  29.323  1.00  0.00    -0.014 A 
BRANCH  37  38
ATOM     38  C   UNL A   1      38.315  30.808  29.996  1.00  0.00     0.031 A 
ATOM     39  C   UNL A   1      38.683  31.199  31.401  1.00  0.00     0.074 A 
ATOM     40  C   UNL A   1      38.997  29.835  29.366  1.00  0.00     0.049 A 
ATOM     41  N   UNL A   1      39.638  30.736  32.166  1.00  0.00    -0.248 NA
ATOM     42  C   UNL A   1      37.868  32.253  32.027  1.00  0.00     0.031 C 
ATOM     43  C   UNL A   1      38.737  29.369  28.006  1.00  0.00     0.029 A 
ATOM     44  N   UNL A   1      40.066  29.083  29.785  1.00  0.00    -0.354 N 
ATOM     45  C   UNL A   1      39.553  31.453  33.353  1.00  0.00     0.074 A 
ATOM     46  C   UNL A   1      38.465  32.396  33.200  1.00  0.00     0.031 C 
ATOM     47  C   UNL A   1      39.646  28.433  27.687  1.00  0.00     0.029 A 
ATOM     48  C   UNL A   1      40.561  28.248  28.812  1.00  0.00     0.049 A 
ATOM     49  H   UNL A   1      40.440  29.135  30.694  1.00  0.00     0.167 HD
ATOM     50  C   UNL A   1      40.298  31.326  34.477  1.00  0.00     0.034 A 
ATOM     51  C   UNL A   1      41.643  27.444  28.821  1.00  0.00     0.034 A 
ATOM     52  C   UNL A   1      41.367  30.378  34.634  1.00  0.00     0.049 A 
ATOM     53  C   UNL A   1      42.470  27.331  30.075  1.00  0.00     0.074 A 
ATOM     54  C   UNL A   1      42.156  30.147  35.748  1.00  0.00     0.029 A 
ATOM     55  N   UNL A   1      41.809  29.511  33.647  1.00  0.00    -0.354 N 
ATOM     56  N   UNL A   1      42.304  27.929  31.230  1.00  0.00    -0.248 NA
ATOM     57  C   UNL A   1      43.611  26.405  30.040  1.00  0.00     0.031 C 
ATOM     58  C   UNL A   1      43.087  29.153  35.426  1.00  0.00     0.029 A 
ATOM     59  C   UNL A   1      42.864  28.750  34.120  1.00  0.00     0.049 A 
ATOM     60  H   UNL A   1      41.426  29.447  32.742  1.00  0.00     0.167 HD
ATOM     61  C   UNL A   1      43.297  27.432  32.066  1.00  0.00     0.074 A 
ATOM     62  C   UNL A   1      44.048  26.466  31.291  1.00  0.00     0.031 C 
ATOM     63  C   UNL A   1      43.572  27.755  33.354  1.00  0.00     0.034 A 
BRANCH  50  64
ATOM     64  C   UNL A   1      39.953  32.217  35.642  1.00  0.00     0.023 A 
ATOM     65  C   UNL A   1      40.611  33.455  35.787  1.00  0.00     0.012 A 
ATOM     66  C   UNL A   1      38.954  31.851  36.565  1.00  0.00     0.148 A 
ATOM     67  C   UNL A   1      40.307  34.299  36.855  1.00  0.00     0.002 A 
ATOM     68  C   UNL A   1      38.628  32.717  37.603  1.00  0.00     0.091 A 
ATOM     69  F   UNL A   1      38.359  30.658  36.426  1.00  0.00    -0.205 F 
ATOM     70  C   UNL A   1      39.309  33.936  37.755  1.00  0.00     0.022 A 
BRANCH  68  71
ATOM     71  S   UNL A   1      37.308  32.366  38.770  1.00  0.00     0.127 S 
ATOM     72  O   UNL A   1      37.702  33.185  39.915  1.00  0.00    -0.237 OA
ATOM     73  O   UNL A   1      36.125  32.846  38.055  1.00  0.00    -0.237 OA
ATOM     74  O   UNL A   1      37.341  30.926  38.986  1.00  0.00    -0.744 OA
ENDBRANCH  68  71
ENDBRANCH  50  64
BRANCH  51  75
ATOM     75  C   UNL A   1      41.985  26.657  27.602  1.00  0.00     0.023 A 
ATOM     76  C   UNL A   1      42.650  27.282  26.531  1.00  0.00     0.012 A 
ATOM     77  C   UNL A   1      41.688  25.283  27.520  1.00  0.00     0.148 A 
ATOM     78  C   UNL A   1      42.994  26.557  25.389  1.00  0.00     0.002 A 
ATOM     79  C   UNL A   1      42.083  24.554  26.405  1.00  0.00     0.091 A 
ATOM     80  F   UNL A   1      41.037  24.711  28.543  1.00  0.00    -0.205 F 
ATOM     81  C   UNL A   1      42.722  25.192  25.331  1.00  0.00     0.022 A 
BRANCH  79  82
ATOM     82  S   UNL A   1      41.898  22.770  26.308  1.00  0.00     0.127 S 
ATOM     83  O   UNL A   1      42.541  22.471  25.031  1.00  0.00    -0.237 OA
ATOM     84  O   UNL A   1      42.637  22.325  27.491  1.00  0.00    -0.237 OA
ATOM     85  O   UNL A   1      40.464  22.520  26.371  1.00  0.00    -0.744 OA
ENDBRANCH  79  82
ENDBRANCH  51  75
BRANCH  63  86
ATOM     86  C   UNL A   1      44.718  27.044  34.028  1.00  0.00     0.023 A 
ATOM     87  C   UNL A   1      46.020  27.575  33.936  1.00  0.00     0.012 A 
ATOM     88  C   UNL A   1      44.493  25.898  34.815  1.00  0.00     0.148 A 
ATOM     89  C   UNL A   1      47.084  26.960  34.594  1.00  0.00     0.002 A 
ATOM     90  C   UNL A   1      45.551  25.316  35.506  1.00  0.00     0.091 A 
ATOM     91  F   UNL A   1      43.250  25.397  34.876  1.00  0.00    -0.205 F 
ATOM     92  C   UNL A   1      46.848  25.840  35.388  1.00  0.00     0.022 A 
BRANCH  90  93
ATOM     93  S   UNL A   1      45.322  23.928  36.623  1.00  0.00     0.127 S 
ATOM     94  O   UNL A   1      44.559  23.000  35.792  1.00  0.00    -0.237 OA
ATOM     95  O   UNL A   1      46.701  23.514  36.892  1.00  0.00    -0.237 OA
ATOM     96  O   UNL A   1      44.617  24.459  37.782  1.00  0.00    -0.744 OA
ENDBRANCH  90  93
ENDBRANCH  63  86
ENDBRANCH  37  38
ENDBRANCH  30  32
ENDBRANCH  29  30
ENDBRANCH  28  29
ENDBRANCH   1  28
TORSDOF 19
ENDMDL
MODEL 3
REMARK VINA RESULT:     -11.3      2.217      8.953
REMARK SMILES O=C(Nc1ccc2c(c1)OCO2)N[C@H]1C=C[C@@H](C(=O)OCCOCCOC(=O)c2ccc(-c3c4nc(c(-c5cccc(S(=O)(=O)[O-])c5F)c5ccc([nH]5)c(-c5cccc(S(=O)(=O)[O-])c5F)c5nc(c(-c6cccc(S(=O)(=O)[O-])c6F)c6ccc3[nH]6)C=C5)C=C4)cc2)C1
REMARK SMILES IDX 24 1 23 2 22 3 21 4 20 5 18 6 19 7 17 8 14 9 15 10 92 11
REMARK SMILES IDX 16 12 13 13 1 14 2 15 3 16 4 19 5 20 9 21 6 22 8 23 7 24
REMARK SMILES IDX 10 25 12 26 11 27 25 28 26 29 27 30 28 31 29 32 30 33 91 34
REMARK SMILES IDX 31 35 90 36 32 37 33 38 34 39 84 40 35 41 89 42 83 43 85 44
REMARK SMILES IDX 36 45 88 46 82 47 81 48 37 50 69 51 49 52 68 53 50 54 53 55
REMARK SMILES IDX 67 56 86 57 51 58 52 59 66 61 87 62 54 63 38 64 39 65 47 66
REMARK SMILES IDX 40 67 42 68 48 69 41 70 43 71 44 72 45 73 46 74 70 75 71 76
REMARK SMILES IDX 79 77 72 78 74 79 80 80 73 81 75 82 76 83 77 84 78 85 55 86
REMARK SMILES IDX 56 87 64 88 57 89 59 90 65 91 58 92 60 93 61 94 62 95 63 96
REMARK H PARENT 3 17 13 18 85 49 53 60
REMARK Flexibility Score: inf
ROOT
ATOM      1  C   UNL A   1      42.955  20.782  26.078  1.00  0.00     0.202 C 
ENDROOT
BRANCH   1   2
ATOM      2  O   UNL A   1      41.575  20.643  25.735  1.00  0.00    -0.374 OA
BRANCH   2   3
ATOM      3  C   UNL A   1      40.610  21.129  26.668  1.00  0.00     0.202 C 
BRANCH   3   4
ATOM      4  C   UNL A   1      39.631  22.185  26.149  1.00  0.00     0.261 C 
BRANCH   4   5
ATOM      5  O   UNL A   1      38.294  21.665  26.068  1.00  0.00    -0.463 OA
BRANCH   5   6
ATOM      6  C   UNL A   1      37.334  22.560  25.720  1.00  0.00     0.312 C 
ATOM      7  O   UNL A   1      37.545  23.730  25.411  1.00  0.00    -0.252 OA
BRANCH   6   8
ATOM      8  C   UNL A   1      35.929  21.976  25.727  1.00  0.00     0.124 C 
ATOM      9  C   UNL A   1      33.538  22.299  25.647  1.00  0.00     0.107 C 
ATOM     10  C   UNL A   1      34.082  22.002  24.287  1.00  0.00    -0.006 C 
ATOM     11  C   UNL A   1      34.796  22.767  26.392  1.00  0.00     0.048 C 
ATOM     12  C   UNL A   1      35.407  21.808  24.330  1.00  0.00    -0.014 C 
BRANCH   9  13
ATOM     13  N   UNL A   1      32.525  23.311  25.556  1.00  0.00    -0.332 N 
ATOM     14  O   UNL A   1      30.764  21.877  25.754  1.00  0.00    -0.248 OA
ATOM     15  C   UNL A   1      31.197  23.016  25.584  1.00  0.00     0.319 C 
ATOM     16  N   UNL A   1      30.321  24.058  25.539  1.00  0.00    -0.308 N 
ATOM     17  H   UNL A   1      29.406  23.827  25.820  1.00  0.00     0.171 HD
ATOM     18  H   UNL A   1      32.801  24.252  25.472  1.00  0.00     0.165 HD
BRANCH  16  19
ATOM     19  C   UNL A   1      30.485  25.402  25.166  1.00  0.00     0.046 A 
ATOM     20  C   UNL A   1      31.419  26.265  25.775  1.00  0.00     0.030 A 
ATOM     21  C   UNL A   1      29.692  25.868  24.109  1.00  0.00     0.076 A 
ATOM     22  C   UNL A   1      31.513  27.607  25.388  1.00  0.00     0.053 A 
ATOM     23  C   UNL A   1      29.789  27.200  23.767  1.00  0.00     0.167 A 
ATOM     24  C   UNL A   1      30.668  28.047  24.395  1.00  0.00     0.165 A 
ATOM     25  O   UNL A   1      29.046  27.830  22.818  1.00  0.00    -0.454 OA
ATOM     26  O   UNL A   1      30.594  29.315  23.916  1.00  0.00    -0.454 OA
ATOM     27  C   UNL A   1      29.509  29.193  22.975  1.00  0.00     0.468 C 
ENDBRANCH  16  19
ENDBRANCH   9  13
ENDBRANCH   6   8
ENDBRANCH   5   6
ENDBRANCH   4   5
ENDBRANCH   3   4
ENDBRANCH   2   3
ENDBRANCH   1   2
BRANCH   1  28
ATOM     28  C   UNL A   1      43.801  21.724  25.212  1.00  0.00     0.261 C 
BRANCH  28  29
ATOM     29  O   UNL A   1      44.400  22.791  25.967  1.00  0.00    -0.460 OA
BRANCH  29  30
ATOM     30  C   UNL A   1      44.316  24.013  25.386  1.00  0.00     0.338 C 
ATOM     31  O   UNL A   1      44.670  24.314  24.252  1.00  0.00    -0.246 OA
BRANCH  30  32
ATOM     32  C   UNL A   1      43.558  24.944  26.242  1.00  0.00     0.060 A 
ATOM     33  C   UNL A   1      44.114  26.211  26.467  1.00  0.00     0.016 A 
ATOM     34  C   UNL A   1      42.378  24.561  26.882  1.00  0.00     0.016 A 
ATOM     35  C   UNL A   1      43.519  27.082  27.377  1.00  0.00     0.010 A 
ATOM     36  C   UNL A   1      41.787  25.436  27.801  1.00  0.00     0.010 A 
ATOM     37  C   UNL A   1      42.375  26.683  28.081  1.00  0.00    -0.014 A 
BRANCH  37  38
ATOM     38  C   UNL A   1      41.881  27.517  29.203  1.00  0.00     0.031 A 
ATOM     39  C   UNL A   1      42.566  27.431  30.539  1.00  0.00     0.074 A 
ATOM     40  C   UNL A   1      40.837  28.348  29.033  1.00  0.00     0.049 A 
ATOM     41  N   UNL A   1      42.287  28.055  31.654  1.00  0.00    -0.248 NA
ATOM     42  C   UNL A   1      43.717  26.519  30.632  1.00  0.00     0.031 C 
ATOM     43  C   UNL A   1      40.091  28.518  27.788  1.00  0.00     0.029 A 
ATOM     44  N   UNL A   1      40.211  29.186  29.922  1.00  0.00    -0.354 N 
ATOM     45  C   UNL A   1      43.212  27.600  32.585  1.00  0.00     0.074 A 
ATOM     46  C   UNL A   1      44.048  26.630  31.910  1.00  0.00     0.031 C 
ATOM     47  C   UNL A   1      39.082  29.380  28.001  1.00  0.00     0.029 A 
ATOM     48  C   UNL A   1      39.103  29.808  29.400  1.00  0.00     0.049 A 
ATOM     49  H   UNL A   1      40.527  29.328  30.843  1.00  0.00     0.167 HD
ATOM     50  C   UNL A   1      43.366  27.968  33.879  1.00  0.00     0.034 A 
ATOM     51  C   UNL A   1      38.195  30.611  29.988  1.00  0.00     0.034 A 
ATOM     52  C   UNL A   1      42.545  28.942  34.545  1.00  0.00     0.049 A 
ATOM     53  C   UNL A   1      38.374  30.993  31.435  1.00  0.00     0.074 A 
ATOM     54  C   UNL A   1      42.647  29.410  35.845  1.00  0.00     0.029 A 
ATOM     55  N   UNL A   1      41.464  29.592  33.972  1.00  0.00    -0.354 N 
ATOM     56  N   UNL A   1      39.324  30.645  32.268  1.00  0.00    -0.248 NA
ATOM     57  C   UNL A   1      37.377  31.908  32.010  1.00  0.00     0.031 C 
ATOM     58  C   UNL A   1      41.614  30.329  36.060  1.00  0.00     0.029 A 
ATOM     59  C   UNL A   1      40.882  30.449  34.890  1.00  0.00     0.049 A 
ATOM     60  H   UNL A   1      41.155  29.462  33.046  1.00  0.00     0.167 HD
ATOM     61  C   UNL A   1      39.058  31.319  33.455  1.00  0.00     0.074 A 
ATOM     62  C   UNL A   1      37.869  32.114  33.225  1.00  0.00     0.031 C 
ATOM     63  C   UNL A   1      39.729  31.274  34.633  1.00  0.00     0.034 A 
BRANCH  50  64
ATOM     64  C   UNL A   1      44.493  27.333  34.651  1.00  0.00     0.023 A 
ATOM     65  C   UNL A   1      45.752  27.966  34.689  1.00  0.00     0.012 A 
ATOM     66  C   UNL A   1      44.299  26.135  35.367  1.00  0.00     0.148 A 
ATOM     67  C   UNL A   1      46.810  27.400  35.400  1.00  0.00     0.002 A 
ATOM     68  C   UNL A   1      45.347  25.600  36.107  1.00  0.00     0.091 A 
ATOM     69  F   UNL A   1      43.103  25.534  35.296  1.00  0.00    -0.205 F 
ATOM     70  C   UNL A   1      46.606  26.224  36.116  1.00  0.00     0.022 A 
BRANCH  68  71
ATOM     71  S   UNL A   1      45.158  24.126  37.117  1.00  0.00     0.127 S 
ATOM     72  O   UNL A   1      46.514  23.946  37.633  1.00  0.00    -0.237 OA
ATOM     73  O   UNL A   1      44.179  24.558  38.115  1.00  0.00    -0.237 OA
ATOM     74  O   UNL A   1      44.684  23.085  36.216  1.00  0.00    -0.744 OA
ENDBRANCH  68  71
ENDBRANCH  50  64
BRANCH  51  75
ATOM     75  C   UNL A   1      37.048  31.133  29.192  1.00  0.00     0.023 A 
ATOM     76  C   UNL A   1      36.950  32.512  28.929  1.00  0.00     0.012 A 
ATOM     77  C   UNL A   1      36.078  30.261  28.662  1.00  0.00     0.148 A 
ATOM     78  C   UNL A   1      35.893  33.017  28.170  1.00  0.00     0.002 A 
ATOM     79  C   UNL A   1      35.060  30.762  27.861  1.00  0.00     0.091 A 
ATOM     80  F   UNL A   1      36.179  28.953  28.941  1.00  0.00    -0.205 F 
ATOM     81  C   UNL A   1      34.955  32.142  27.627  1.00  0.00     0.022 A 
BRANCH  79  82
ATOM     82  S   UNL A   1      33.894  29.694  27.008  1.00  0.00     0.127 S 
ATOM     83  O   UNL A   1      34.779  28.909  26.151  1.00  0.00    -0.237 OA
ATOM     84  O   UNL A   1      33.293  28.955  28.119  1.00  0.00    -0.237 OA
ATOM     85  O   UNL A   1      32.973  30.589  26.319  1.00  0.00    -0.744 OA
ENDBRANCH  79  82
ENDBRANCH  51  75
BRANCH  63  86
ATOM     86  C   UNL A   1      39.216  32.125  35.767  1.00  0.00     0.023 A 
ATOM     87  C   UNL A   1      39.448  33.515  35.758  1.00  0.00     0.012 A 
ATOM     88  C   UNL A   1      38.437  31.560  36.797  1.00  0.00     0.148 A 
ATOM     89  C   UNL A   1      38.937  34.325  36.772  1.00  0.00     0.002 A 
ATOM     90  C   UNL A   1      37.893  32.381  37.779  1.00  0.00     0.091 A 
ATOM     91  F   UNL A   1      38.243  30.234  36.798  1.00  0.00    -0.205 F 
ATOM     92  C   UNL A   1      38.151  33.761  37.774  1.00  0.00     0.022 A 
BRANCH  90  93
ATOM     93  S   UNL A   1      36.793  31.754  39.055  1.00  0.00     0.127 S 
ATOM     94  O   UNL A   1      37.629  31.865  40.248  1.00  0.00    -0.237 OA
ATOM     95  O   UNL A   1      35.679  32.703  38.999  1.00  0.00    -0.237 OA
ATOM     96  O   UNL A   1      36.448  30.397  38.653  1.00  0.00    -0.744 OA
ENDBRANCH  90  93
ENDBRANCH  63  86
ENDBRANCH  37  38
ENDBRANCH  30  32
ENDBRANCH  29  30
ENDBRANCH  28  29
ENDBRANCH   1  28
TORSDOF 19
ENDMDL
