MODEL 1
REMARK VINA RESULT:     -10.7      0.000      0.000
REMARK SMILES C[C@@H](C(=O)OCCOCCOC(=O)c1ccc(-c2c3nc(c(-c4cccc(S(=O)(=O)[O-])c4F)c4ccc([nH]4)c(-c4cccc(S(=O)(=O)[O-])c4F)c4nc(c(-c5cccc(S(=O)(=O)[O-])c5F)c5ccc2[nH]5)C=C4)C=C3)cc1)c1ccc(C(=O)c2cccs2)cc1
REMARK SMILES IDX 8 1 7 2 6 3 5 4 3 5 4 6 2 7 1 8 77 9 78 10 89 11 79 12 88 13
REMARK SMILES IDX 80 14 81 15 82 16 83 17 84 18 87 19 85 20 86 21 9 22 10 23
REMARK SMILES IDX 11 24 12 25 13 26 14 27 15 28 76 29 16 30 75 31 17 32 18 33
REMARK SMILES IDX 19 34 69 35 20 36 74 37 68 38 70 39 21 40 73 41 67 42 66 43
REMARK SMILES IDX 22 45 54 46 34 47 53 48 35 49 38 50 52 51 71 52 36 53 37 54
REMARK SMILES IDX 51 56 72 57 39 58 23 59 24 60 32 61 25 62 27 63 33 64 26 65
REMARK SMILES IDX 28 66 29 67 30 68 31 69 55 70 56 71 64 72 57 73 59 74 65 75
REMARK SMILES IDX 58 76 60 77 61 78 62 79 63 80 40 81 41 82 49 83 42 84 44 85
REMARK SMILES IDX 50 86 43 87 45 88 46 89 47 90 48 91
REMARK H PARENT 70 44 38 55
REMARK Flexibility Score: inf
ROOT
ATOM      1  O   UNL A   1      35.804  22.829  25.744  1.00  0.00    -0.374 OA
ENDROOT
BRANCH   1   2
ATOM      2  C   UNL A   1      35.184  23.784  24.874  1.00  0.00     0.202 C 
BRANCH   2   3
ATOM      3  C   UNL A   1      33.775  23.436  24.380  1.00  0.00     0.261 C 
BRANCH   3   4
ATOM      4  O   UNL A   1      33.423  24.245  23.237  1.00  0.00    -0.463 OA
BRANCH   4   5
ATOM      5  C   UNL A   1      32.102  24.299  22.914  1.00  0.00     0.313 C 
ATOM      6  O   UNL A   1      31.277  23.455  23.246  1.00  0.00    -0.252 OA
BRANCH   5   7
ATOM      7  C   UNL A   1      31.745  25.555  22.100  1.00  0.00     0.126 C 
ATOM      8  C   UNL A   1      32.538  25.740  20.802  1.00  0.00     0.025 C 
BRANCH   7   9
ATOM      9  C   UNL A   1      31.834  26.802  22.982  1.00  0.00    -0.034 A 
ATOM     10  C   UNL A   1      31.049  26.910  24.136  1.00  0.00     0.005 A 
ATOM     11  C   UNL A   1      32.761  27.820  22.719  1.00  0.00     0.005 A 
ATOM     12  C   UNL A   1      31.217  27.989  25.014  1.00  0.00     0.012 A 
ATOM     13  C   UNL A   1      32.956  28.879  23.611  1.00  0.00     0.012 A 
ATOM     14  C   UNL A   1      32.187  28.974  24.773  1.00  0.00     0.023 A 
BRANCH  14  15
ATOM     15  C   UNL A   1      32.394  30.047  25.804  1.00  0.00     0.202 C 
ATOM     16  O   UNL A   1      31.535  30.922  25.907  1.00  0.00    -0.288 OA
BRANCH  15  17
ATOM     17  C   UNL A   1      33.560  30.000  26.671  1.00  0.00     0.075 A 
ATOM     18  C   UNL A   1      34.480  28.990  26.873  1.00  0.00     0.024 A 
ATOM     19  S   UNL A   1      33.943  31.391  27.596  1.00  0.00    -0.140 S 
ATOM     20  C   UNL A   1      35.468  29.341  27.842  1.00  0.00     0.012 A 
ATOM     21  C   UNL A   1      35.288  30.621  28.318  1.00  0.00     0.065 A 
ENDBRANCH  15  17
ENDBRANCH  14  15
ENDBRANCH   7   9
ENDBRANCH   5   7
ENDBRANCH   4   5
ENDBRANCH   3   4
ENDBRANCH   2   3
ENDBRANCH   1   2
BRANCH   1  22
ATOM     22  C   UNL A   1      35.729  21.465  25.347  1.00  0.00     0.202 C 
BRANCH  22  23
ATOM     23  C   UNL A   1      37.053  20.740  25.078  1.00  0.00     0.261 C 
BRANCH  23  24
ATOM     24  O   UNL A   1      38.166  21.642  25.042  1.00  0.00    -0.460 OA
BRANCH  24  25
ATOM     25  C   UNL A   1      39.126  21.363  25.955  1.00  0.00     0.338 C 
ATOM     26  O   UNL A   1      39.678  20.285  26.139  1.00  0.00    -0.246 OA
BRANCH  25  27
ATOM     27  C   UNL A   1      39.573  22.601  26.611  1.00  0.00     0.060 A 
ATOM     28  C   UNL A   1      38.977  23.795  26.189  1.00  0.00     0.016 A 
ATOM     29  C   UNL A   1      40.585  22.609  27.574  1.00  0.00     0.016 A 
ATOM     30  C   UNL A   1      39.435  25.012  26.681  1.00  0.00     0.010 A 
ATOM     31  C   UNL A   1      41.048  23.835  28.063  1.00  0.00     0.010 A 
ATOM     32  C   UNL A   1      40.503  25.040  27.586  1.00  0.00    -0.014 A 
BRANCH  32  33
ATOM     33  C   UNL A   1      41.142  26.338  27.906  1.00  0.00     0.031 A 
ATOM     34  C   UNL A   1      42.537  26.602  27.407  1.00  0.00     0.074 A 
ATOM     35  C   UNL A   1      40.480  27.275  28.606  1.00  0.00     0.049 A 
ATOM     36  N   UNL A   1      43.279  27.666  27.557  1.00  0.00    -0.248 NA
ATOM     37  C   UNL A   1      43.177  25.523  26.635  1.00  0.00     0.031 C 
ATOM     38  C   UNL A   1      39.123  27.133  29.132  1.00  0.00     0.029 A 
ATOM     39  N   UNL A   1      40.871  28.527  29.008  1.00  0.00    -0.354 N 
ATOM     40  C   UNL A   1      44.485  27.377  26.928  1.00  0.00     0.074 A 
ATOM     41  C   UNL A   1      44.378  26.034  26.403  1.00  0.00     0.031 C 
ATOM     42  C   UNL A   1      38.802  28.250  29.808  1.00  0.00     0.029 A 
ATOM     43  C   UNL A   1      39.935  29.172  29.781  1.00  0.00     0.049 A 
ATOM     44  H   UNL A   1      41.738  28.925  28.766  1.00  0.00     0.167 HD
ATOM     45  C   UNL A   1      45.577  28.165  26.787  1.00  0.00     0.034 A 
ATOM     46  C   UNL A   1      39.997  30.363  30.408  1.00  0.00     0.034 A 
ATOM     47  C   UNL A   1      45.669  29.508  27.288  1.00  0.00     0.049 A 
ATOM     48  C   UNL A   1      41.232  31.211  30.253  1.00  0.00     0.074 A 
ATOM     49  C   UNL A   1      46.711  30.409  27.149  1.00  0.00     0.029 A 
ATOM     50  N   UNL A   1      44.691  30.141  28.039  1.00  0.00    -0.354 N 
ATOM     51  N   UNL A   1      42.314  30.974  29.551  1.00  0.00    -0.248 NA
ATOM     52  C   UNL A   1      41.242  32.505  30.951  1.00  0.00     0.031 C 
ATOM     53  C   UNL A   1      46.373  31.575  27.843  1.00  0.00     0.029 A 
ATOM     54  C   UNL A   1      45.109  31.413  28.387  1.00  0.00     0.049 A 
ATOM     55  H   UNL A   1      43.825  29.743  28.288  1.00  0.00     0.167 HD
ATOM     56  C   UNL A   1      43.115  32.102  29.689  1.00  0.00     0.074 A 
ATOM     57  C   UNL A   1      42.386  33.030  30.530  1.00  0.00     0.031 C 
ATOM     58  C   UNL A   1      44.349  32.346  29.180  1.00  0.00     0.034 A 
BRANCH  45  59
ATOM     59  C   UNL A   1      46.756  27.598  26.041  1.00  0.00     0.023 A 
ATOM     60  C   UNL A   1      46.859  27.781  24.648  1.00  0.00     0.012 A 
ATOM     61  C   UNL A   1      47.789  26.933  26.731  1.00  0.00     0.148 A 
ATOM     62  C   UNL A   1      47.957  27.284  23.946  1.00  0.00     0.002 A 
ATOM     63  C   UNL A   1      48.901  26.479  26.031  1.00  0.00     0.091 A 
ATOM     64  F   UNL A   1      47.661  26.748  28.052  1.00  0.00    -0.205 F 
ATOM     65  C   UNL A   1      48.982  26.644  24.639  1.00  0.00     0.022 A 
BRANCH  63  66
ATOM     66  S   UNL A   1      50.307  25.710  26.843  1.00  0.00     0.127 S 
ATOM     67  O   UNL A   1      51.230  25.526  25.725  1.00  0.00    -0.237 OA
ATOM     68  O   UNL A   1      50.708  26.739  27.803  1.00  0.00    -0.237 OA
ATOM     69  O   UNL A   1      49.801  24.484  27.444  1.00  0.00    -0.744 OA
ENDBRANCH  63  66
ENDBRANCH  45  59
BRANCH  46  70
ATOM     70  C   UNL A   1      38.836  30.843  31.212  1.00  0.00     0.023 A 
ATOM     71  C   UNL A   1      38.689  30.414  32.545  1.00  0.00     0.012 A 
ATOM     72  C   UNL A   1      37.891  31.734  30.667  1.00  0.00     0.148 A 
ATOM     73  C   UNL A   1      37.603  30.840  33.312  1.00  0.00     0.002 A 
ATOM     74  C   UNL A   1      36.843  32.197  31.454  1.00  0.00     0.091 A 
ATOM     75  F   UNL A   1      38.039  32.117  29.392  1.00  0.00    -0.205 F 
ATOM     76  C   UNL A   1      36.688  31.739  32.771  1.00  0.00     0.022 A 
BRANCH  74  77
ATOM     77  S   UNL A   1      35.694  33.454  30.883  1.00  0.00     0.127 S 
ATOM     78  O   UNL A   1      34.417  32.751  30.966  1.00  0.00    -0.237 OA
ATOM     79  O   UNL A   1      35.884  34.510  31.877  1.00  0.00    -0.237 OA
ATOM     80  O   UNL A   1      36.135  33.808  29.540  1.00  0.00    -0.744 OA
ENDBRANCH  74  77
ENDBRANCH  46  70
BRANCH  58  81
ATOM     81  C   UNL A   1      44.981  33.681  29.478  1.00  0.00     0.023 A 
ATOM     82  C   UNL A   1      45.710  33.862  30.669  1.00  0.00     0.012 A 
ATOM     83  C   UNL A   1      44.918  34.730  28.539  1.00  0.00     0.148 A 
ATOM     84  C   UNL A   1      46.339  35.078  30.936  1.00  0.00     0.002 A 
ATOM     85  C   UNL A   1      45.590  35.919  28.788  1.00  0.00     0.091 A 
ATOM     86  F   UNL A   1      44.204  34.543  27.418  1.00  0.00    -0.205 F 
ATOM     87  C   UNL A   1      46.290  36.100  29.992  1.00  0.00     0.022 A 
BRANCH  85  88
ATOM     88  S   UNL A   1      45.663  37.253  27.587  1.00  0.00     0.127 S 
ATOM     89  O   UNL A   1      46.153  36.557  26.398  1.00  0.00    -0.237 OA
ATOM     90  O   UNL A   1      44.266  37.681  27.511  1.00  0.00    -0.237 OA
ATOM     91  O   UNL A   1      46.569  38.247  28.146  1.00  0.00    -0.744 OA
ENDBRANCH  85  88
ENDBRANCH  58  81
ENDBRANCH  32  33
ENDBRANCH  25  27
ENDBRANCH  24  25
ENDBRANCH  23  24
ENDBRANCH  22  23
ENDBRANCH   1  22
TORSDOF 20
ENDMDL
MODEL 2
REMARK VINA RESULT:     -10.7      4.556      6.900
REMARK SMILES C[C@@H](C(=O)OCCOCCOC(=O)c1ccc(-c2c3nc(c(-c4cccc(S(=O)(=O)[O-])c4F)c4ccc([nH]4)c(-c4cccc(S(=O)(=O)[O-])c4F)c4nc(c(-c5cccc(S(=O)(=O)[O-])c5F)c5ccc2[nH]5)C=C4)C=C3)cc1)c1ccc(C(=O)c2cccs2)cc1
REMARK SMILES IDX 8 1 7 2 6 3 5 4 3 5 4 6 2 7 1 8 77 9 78 10 89 11 79 12 88 13
REMARK SMILES IDX 80 14 81 15 82 16 83 17 84 18 87 19 85 20 86 21 9 22 10 23
REMARK SMILES IDX 11 24 12 25 13 26 14 27 15 28 76 29 16 30 75 31 17 32 18 33
REMARK SMILES IDX 19 34 69 35 20 36 74 37 68 38 70 39 21 40 73 41 67 42 66 43
REMARK SMILES IDX 22 45 54 46 34 47 53 48 35 49 38 50 52 51 71 52 36 53 37 54
REMARK SMILES IDX 51 56 72 57 39 58 23 59 24 60 32 61 25 62 27 63 33 64 26 65
REMARK SMILES IDX 28 66 29 67 30 68 31 69 55 70 56 71 64 72 57 73 59 74 65 75
REMARK SMILES IDX 58 76 60 77 61 78 62 79 63 80 40 81 41 82 49 83 42 84 44 85
REMARK SMILES IDX 50 86 43 87 45 88 46 89 47 90 48 91
REMARK H PARENT 70 44 38 55
REMARK Flexibility Score: inf
ROOT
ATOM      1  O   UNL A   1      41.522  20.874  25.568  1.00  0.00    -0.374 OA
ENDROOT
BRANCH   1   2
ATOM      2  C   UNL A   1      40.472  21.038  26.529  1.00  0.00     0.202 C 
BRANCH   2   3
ATOM      3  C   UNL A   1      39.622  22.307  26.394  1.00  0.00     0.261 C 
BRANCH   3   4
ATOM      4  O   UNL A   1      38.276  21.976  25.991  1.00  0.00    -0.463 OA
BRANCH   4   5
ATOM      5  C   UNL A   1      37.464  23.019  25.666  1.00  0.00     0.313 C 
ATOM      6  O   UNL A   1      37.610  24.162  26.087  1.00  0.00    -0.252 OA
BRANCH   5   7
ATOM      7  C   UNL A   1      36.346  22.615  24.689  1.00  0.00     0.126 C 
ATOM      8  C   UNL A   1      36.722  22.671  23.205  1.00  0.00     0.025 C 
BRANCH   7   9
ATOM      9  C   UNL A   1      35.080  23.427  24.968  1.00  0.00    -0.034 A 
ATOM     10  C   UNL A   1      34.377  23.254  26.165  1.00  0.00     0.005 A 
ATOM     11  C   UNL A   1      34.643  24.426  24.087  1.00  0.00     0.005 A 
ATOM     12  C   UNL A   1      33.292  24.082  26.481  1.00  0.00     0.012 A 
ATOM     13  C   UNL A   1      33.583  25.277  24.414  1.00  0.00     0.012 A 
ATOM     14  C   UNL A   1      32.896  25.117  25.620  1.00  0.00     0.023 A 
BRANCH  14  15
ATOM     15  C   UNL A   1      31.795  26.039  26.061  1.00  0.00     0.202 C 
ATOM     16  O   UNL A   1      31.578  26.143  27.268  1.00  0.00    -0.288 OA
BRANCH  15  17
ATOM     17  C   UNL A   1      31.057  26.808  25.072  1.00  0.00     0.075 A 
ATOM     18  C   UNL A   1      31.247  28.103  24.627  1.00  0.00     0.024 A 
ATOM     19  S   UNL A   1      29.754  26.050  24.258  1.00  0.00    -0.140 S 
ATOM     20  C   UNL A   1      30.274  28.491  23.658  1.00  0.00     0.012 A 
ATOM     21  C   UNL A   1      29.399  27.467  23.370  1.00  0.00     0.065 A 
ENDBRANCH  15  17
ENDBRANCH  14  15
ENDBRANCH   7   9
ENDBRANCH   5   7
ENDBRANCH   4   5
ENDBRANCH   3   4
ENDBRANCH   2   3
ENDBRANCH   1   2
BRANCH   1  22
ATOM     22  C   UNL A   1      42.852  20.885  26.072  1.00  0.00     0.202 C 
BRANCH  22  23
ATOM     23  C   UNL A   1      43.896  21.676  25.276  1.00  0.00     0.261 C 
BRANCH  23  24
ATOM     24  O   UNL A   1      43.354  22.881  24.721  1.00  0.00    -0.460 OA
BRANCH  24  25
ATOM     25  C   UNL A   1      44.083  23.988  25.000  1.00  0.00     0.338 C 
ATOM     26  O   UNL A   1      45.153  24.311  24.499  1.00  0.00    -0.246 OA
BRANCH  25  27
ATOM     27  C   UNL A   1      43.321  24.884  25.882  1.00  0.00     0.060 A 
ATOM     28  C   UNL A   1      43.767  26.208  25.983  1.00  0.00     0.016 A 
ATOM     29  C   UNL A   1      42.233  24.438  26.637  1.00  0.00     0.016 A 
ATOM     30  C   UNL A   1      43.166  27.077  26.886  1.00  0.00     0.010 A 
ATOM     31  C   UNL A   1      41.635  25.312  27.549  1.00  0.00     0.010 A 
ATOM     32  C   UNL A   1      42.127  26.620  27.707  1.00  0.00    -0.014 A 
BRANCH  32  33
ATOM     33  C   UNL A   1      41.670  27.470  28.831  1.00  0.00     0.031 A 
ATOM     34  C   UNL A   1      42.434  27.432  30.127  1.00  0.00     0.074 A 
ATOM     35  C   UNL A   1      40.609  28.283  28.689  1.00  0.00     0.049 A 
ATOM     36  N   UNL A   1      42.221  28.097  31.230  1.00  0.00    -0.248 NA
ATOM     37  C   UNL A   1      43.592  26.523  30.184  1.00  0.00     0.031 C 
ATOM     38  C   UNL A   1      39.799  28.410  27.479  1.00  0.00     0.029 A 
ATOM     39  N   UNL A   1      40.022  29.143  29.582  1.00  0.00    -0.354 N 
ATOM     40  C   UNL A   1      43.196  27.667  32.124  1.00  0.00     0.074 A 
ATOM     41  C   UNL A   1      43.995  26.677  31.437  1.00  0.00     0.031 C 
ATOM     42  C   UNL A   1      38.804  29.283  27.712  1.00  0.00     0.029 A 
ATOM     43  C   UNL A   1      38.895  29.757  29.091  1.00  0.00     0.049 A 
ATOM     44  H   UNL A   1      40.374  29.305  30.486  1.00  0.00     0.167 HD
ATOM     45  C   UNL A   1      43.415  28.073  33.397  1.00  0.00     0.034 A 
ATOM     46  C   UNL A   1      38.027  30.593  29.695  1.00  0.00     0.034 A 
ATOM     47  C   UNL A   1      42.634  29.076  34.067  1.00  0.00     0.049 A 
ATOM     48  C   UNL A   1      38.282  31.011  31.120  1.00  0.00     0.074 A 
ATOM     49  C   UNL A   1      42.810  29.596  35.337  1.00  0.00     0.029 A 
ATOM     50  N   UNL A   1      41.519  29.700  33.529  1.00  0.00    -0.354 N 
ATOM     51  N   UNL A   1      39.278  30.691  31.909  1.00  0.00    -0.248 NA
ATOM     52  C   UNL A   1      37.309  31.931  31.727  1.00  0.00     0.031 C 
ATOM     53  C   UNL A   1      41.782  30.513  35.578  1.00  0.00     0.029 A 
ATOM     54  C   UNL A   1      40.984  30.587  34.447  1.00  0.00     0.049 A 
ATOM     55  H   UNL A   1      41.160  29.535  32.628  1.00  0.00     0.167 HD
ATOM     56  C   UNL A   1      39.076  31.399  33.089  1.00  0.00     0.074 A 
ATOM     57  C   UNL A   1      37.868  32.179  32.904  1.00  0.00     0.031 C 
ATOM     58  C   UNL A   1      39.812  31.396  34.228  1.00  0.00     0.034 A 
BRANCH  45  59
ATOM     59  C   UNL A   1      44.561  27.443  34.144  1.00  0.00     0.023 A 
ATOM     60  C   UNL A   1      45.857  27.981  34.023  1.00  0.00     0.012 A 
ATOM     61  C   UNL A   1      44.341  26.352  35.008  1.00  0.00     0.148 A 
ATOM     62  C   UNL A   1      46.925  27.424  34.726  1.00  0.00     0.002 A 
ATOM     63  C   UNL A   1      45.402  25.831  35.740  1.00  0.00     0.091 A 
ATOM     64  F   UNL A   1      43.105  25.839  35.091  1.00  0.00    -0.205 F 
ATOM     65  C   UNL A   1      46.695  26.358  35.593  1.00  0.00     0.022 A 
BRANCH  63  66
ATOM     66  S   UNL A   1      45.192  24.508  36.937  1.00  0.00     0.127 S 
ATOM     67  O   UNL A   1      46.418  24.627  37.726  1.00  0.00    -0.237 OA
ATOM     68  O   UNL A   1      43.974  24.916  37.637  1.00  0.00    -0.237 OA
ATOM     69  O   UNL A   1      45.066  23.282  36.161  1.00  0.00    -0.744 OA
ENDBRANCH  63  66
ENDBRANCH  45  59
BRANCH  46  70
ATOM     70  C   UNL A   1      36.854  31.121  28.942  1.00  0.00     0.023 A 
ATOM     71  C   UNL A   1      36.743  32.505  28.707  1.00  0.00     0.012 A 
ATOM     72  C   UNL A   1      35.859  30.257  28.444  1.00  0.00     0.148 A 
ATOM     73  C   UNL A   1      35.647  33.023  28.017  1.00  0.00     0.002 A 
ATOM     74  C   UNL A   1      34.799  30.774  27.709  1.00  0.00     0.091 A 
ATOM     75  F   UNL A   1      35.973  28.946  28.692  1.00  0.00    -0.205 F 
ATOM     76  C   UNL A   1      34.681  32.158  27.508  1.00  0.00     0.022 A 
BRANCH  74  77
ATOM     77  S   UNL A   1      33.582  29.724  26.907  1.00  0.00     0.127 S 
ATOM     78  O   UNL A   1      32.971  30.647  25.954  1.00  0.00    -0.237 OA
ATOM     79  O   UNL A   1      34.423  28.687  26.311  1.00  0.00    -0.237 OA
ATOM     80  O   UNL A   1      32.710  29.248  27.974  1.00  0.00    -0.744 OA
ENDBRANCH  74  77
ENDBRANCH  46  70
BRANCH  58  81
ATOM     81  C   UNL A   1      39.364  32.289  35.356  1.00  0.00     0.023 A 
ATOM     82  C   UNL A   1      38.526  31.778  36.366  1.00  0.00     0.012 A 
ATOM     83  C   UNL A   1      39.840  33.612  35.456  1.00  0.00     0.148 A 
ATOM     84  C   UNL A   1      38.141  32.579  37.441  1.00  0.00     0.002 A 
ATOM     85  C   UNL A   1      39.494  34.387  36.555  1.00  0.00     0.091 A 
ATOM     86  F   UNL A   1      40.623  34.086  34.476  1.00  0.00    -0.205 F 
ATOM     87  C   UNL A   1      38.634  33.878  37.542  1.00  0.00     0.022 A 
BRANCH  85  88
ATOM     88  S   UNL A   1      40.161  36.035  36.819  1.00  0.00     0.127 S 
ATOM     89  O   UNL A   1      39.405  36.479  37.989  1.00  0.00    -0.237 OA
ATOM     90  O   UNL A   1      41.575  35.760  37.074  1.00  0.00    -0.237 OA
ATOM     91  O   UNL A   1      39.902  36.774  35.591  1.00  0.00    -0.744 OA
ENDBRANCH  85  88
ENDBRANCH  58  81
ENDBRANCH  32  33
ENDBRANCH  25  27
ENDBRANCH  24  25
ENDBRANCH  23  24
ENDBRANCH  22  23
ENDBRANCH   1  22
TORSDOF 20
ENDMDL
MODEL 3
REMARK VINA RESULT:     -10.5      2.655      8.798
REMARK SMILES C[C@@H](C(=O)OCCOCCOC(=O)c1ccc(-c2c3nc(c(-c4cccc(S(=O)(=O)[O-])c4F)c4ccc([nH]4)c(-c4cccc(S(=O)(=O)[O-])c4F)c4nc(c(-c5cccc(S(=O)(=O)[O-])c5F)c5ccc2[nH]5)C=C4)C=C3)cc1)c1ccc(C(=O)c2cccs2)cc1
REMARK SMILES IDX 8 1 7 2 6 3 5 4 3 5 4 6 2 7 1 8 77 9 78 10 89 11 79 12 88 13
REMARK SMILES IDX 80 14 81 15 82 16 83 17 84 18 87 19 85 20 86 21 9 22 10 23
REMARK SMILES IDX 11 24 12 25 13 26 14 27 15 28 76 29 16 30 75 31 17 32 18 33
REMARK SMILES IDX 19 34 69 35 20 36 74 37 68 38 70 39 21 40 73 41 67 42 66 43
REMARK SMILES IDX 22 45 54 46 34 47 53 48 35 49 38 50 52 51 71 52 36 53 37 54
REMARK SMILES IDX 51 56 72 57 39 58 23 59 24 60 32 61 25 62 27 63 33 64 26 65
REMARK SMILES IDX 28 66 29 67 30 68 31 69 55 70 56 71 64 72 57 73 59 74 65 75
REMARK SMILES IDX 58 76 60 77 61 78 62 79 63 80 40 81 41 82 49 83 42 84 44 85
REMARK SMILES IDX 50 86 43 87 45 88 46 89 47 90 48 91
REMARK H PARENT 70 44 38 55
REMARK Flexibility Score: inf
ROOT
ATOM      1  O   UNL A   1      36.808  22.459  24.876  1.00  0.00    -0.374 OA
ENDROOT
BRANCH   1   2
ATOM      2  C   UNL A   1      35.655  22.909  24.155  1.00  0.00     0.202 C 
BRANCH   2   3
ATOM      3  C   UNL A   1      34.870  24.066  24.785  1.00  0.00     0.261 C 
BRANCH   3   4
ATOM      4  O   UNL A   1      33.632  24.286  24.075  1.00  0.00    -0.463 OA
BRANCH   4   5
ATOM      5  C   UNL A   1      32.573  24.709  24.818  1.00  0.00     0.313 C 
ATOM      6  O   UNL A   1      32.556  25.753  25.461  1.00  0.00    -0.252 OA
BRANCH   5   7
ATOM      7  C   UNL A   1      31.379  23.740  24.748  1.00  0.00     0.126 C 
ATOM      8  C   UNL A   1      30.542  23.640  26.027  1.00  0.00     0.025 C 
BRANCH   7   9
ATOM      9  C   UNL A   1      31.844  22.359  24.284  1.00  0.00    -0.034 A 
ATOM     10  C   UNL A   1      32.160  21.367  25.220  1.00  0.00     0.005 A 
ATOM     11  C   UNL A   1      31.876  22.015  22.925  1.00  0.00     0.005 A 
ATOM     12  C   UNL A   1      32.463  20.064  24.803  1.00  0.00     0.012 A 
ATOM     13  C   UNL A   1      32.144  20.708  22.508  1.00  0.00     0.012 A 
ATOM     14  C   UNL A   1      32.438  19.715  23.444  1.00  0.00     0.023 A 
BRANCH  14  15
ATOM     15  C   UNL A   1      32.667  18.278  23.067  1.00  0.00     0.202 C 
ATOM     16  O   UNL A   1      32.221  17.886  21.990  1.00  0.00    -0.288 OA
BRANCH  15  17
ATOM     17  C   UNL A   1      33.438  17.415  23.947  1.00  0.00     0.075 A 
ATOM     18  C   UNL A   1      34.802  17.345  24.157  1.00  0.00     0.024 A 
ATOM     19  S   UNL A   1      32.593  16.304  24.941  1.00  0.00    -0.140 S 
ATOM     20  C   UNL A   1      35.155  16.328  25.093  1.00  0.00     0.012 A 
ATOM     21  C   UNL A   1      34.047  15.682  25.593  1.00  0.00     0.065 A 
ENDBRANCH  15  17
ENDBRANCH  14  15
ENDBRANCH   7   9
ENDBRANCH   5   7
ENDBRANCH   4   5
ENDBRANCH   3   4
ENDBRANCH   2   3
ENDBRANCH   1   2
BRANCH   1  22
ATOM     22  C   UNL A   1      36.781  21.116  25.344  1.00  0.00     0.202 C 
BRANCH  22  23
ATOM     23  C   UNL A   1      38.089  20.321  25.264  1.00  0.00     0.261 C 
BRANCH  23  24
ATOM     24  O   UNL A   1      39.242  21.162  25.383  1.00  0.00    -0.460 OA
BRANCH  24  25
ATOM     25  C   UNL A   1      39.939  20.976  26.529  1.00  0.00     0.338 C 
ATOM     26  O   UNL A   1      40.339  19.911  26.984  1.00  0.00    -0.246 OA
BRANCH  25  27
ATOM     27  C   UNL A   1      40.329  22.275  27.098  1.00  0.00     0.060 A 
ATOM     28  C   UNL A   1      39.717  23.414  26.562  1.00  0.00     0.016 A 
ATOM     29  C   UNL A   1      41.305  22.389  28.092  1.00  0.00     0.016 A 
ATOM     30  C   UNL A   1      40.124  24.679  26.971  1.00  0.00     0.010 A 
ATOM     31  C   UNL A   1      41.716  23.662  28.496  1.00  0.00     0.010 A 
ATOM     32  C   UNL A   1      41.157  24.810  27.907  1.00  0.00    -0.014 A 
BRANCH  32  33
ATOM     33  C   UNL A   1      41.749  26.147  28.143  1.00  0.00     0.031 A 
ATOM     34  C   UNL A   1      40.908  27.207  28.801  1.00  0.00     0.074 A 
ATOM     35  C   UNL A   1      43.025  26.403  27.803  1.00  0.00     0.049 A 
ATOM     36  N   UNL A   1      41.223  28.435  29.113  1.00  0.00    -0.248 NA
ATOM     37  C   UNL A   1      39.528  26.831  29.152  1.00  0.00     0.031 C 
ATOM     38  C   UNL A   1      43.936  25.451  27.170  1.00  0.00     0.029 A 
ATOM     39  N   UNL A   1      43.765  27.550  27.929  1.00  0.00    -0.354 N 
ATOM     40  C   UNL A   1      40.076  28.990  29.669  1.00  0.00     0.074 A 
ATOM     41  C   UNL A   1      39.054  27.967  29.642  1.00  0.00     0.031 C 
ATOM     42  C   UNL A   1      45.112  26.063  26.942  1.00  0.00     0.029 A 
ATOM     43  C   UNL A   1      45.027  27.450  27.392  1.00  0.00     0.049 A 
ATOM     44  H   UNL A   1      43.427  28.367  28.362  1.00  0.00     0.167 HD
ATOM     45  C   UNL A   1      39.895  30.234  30.171  1.00  0.00     0.034 A 
ATOM     46  C   UNL A   1      45.994  28.380  27.265  1.00  0.00     0.034 A 
ATOM     47  C   UNL A   1      40.921  31.239  30.219  1.00  0.00     0.049 A 
ATOM     48  C   UNL A   1      45.759  29.764  27.813  1.00  0.00     0.074 A 
ATOM     49  C   UNL A   1      40.854  32.512  30.758  1.00  0.00     0.029 A 
ATOM     50  N   UNL A   1      42.196  31.093  29.695  1.00  0.00    -0.354 N 
ATOM     51  N   UNL A   1      44.712  30.234  28.447  1.00  0.00    -0.248 NA
ATOM     52  C   UNL A   1      46.850  30.735  27.655  1.00  0.00     0.031 C 
ATOM     53  C   UNL A   1      42.079  33.146  30.532  1.00  0.00     0.029 A 
ATOM     54  C   UNL A   1      42.921  32.258  29.881  1.00  0.00     0.049 A 
ATOM     55  H   UNL A   1      42.536  30.281  29.256  1.00  0.00     0.167 HD
ATOM     56  C   UNL A   1      45.033  31.541  28.799  1.00  0.00     0.074 A 
ATOM     57  C   UNL A   1      46.379  31.782  28.320  1.00  0.00     0.031 C 
ATOM     58  C   UNL A   1      44.279  32.464  29.446  1.00  0.00     0.034 A 
BRANCH  45  59
ATOM     59  C   UNL A   1      38.537  30.573  30.728  1.00  0.00     0.023 A 
ATOM     60  C   UNL A   1      38.222  30.238  32.060  1.00  0.00     0.012 A 
ATOM     61  C   UNL A   1      37.595  31.271  29.949  1.00  0.00     0.148 A 
ATOM     62  C   UNL A   1      36.979  30.565  32.599  1.00  0.00     0.002 A 
ATOM     63  C   UNL A   1      36.374  31.633  30.507  1.00  0.00     0.091 A 
ATOM     64  F   UNL A   1      37.904  31.560  28.677  1.00  0.00    -0.205 F 
ATOM     65  C   UNL A   1      36.061  31.272  31.827  1.00  0.00     0.022 A 
BRANCH  63  66
ATOM     66  S   UNL A   1      35.157  32.609  29.618  1.00  0.00     0.127 S 
ATOM     67  O   UNL A   1      34.734  31.676  28.576  1.00  0.00    -0.237 OA
ATOM     68  O   UNL A   1      34.153  32.866  30.651  1.00  0.00    -0.237 OA
ATOM     69  O   UNL A   1      35.859  33.795  29.147  1.00  0.00    -0.744 OA
ENDBRANCH  63  66
ENDBRANCH  45  59
BRANCH  46  70
ATOM     70  C   UNL A   1      47.291  28.023  26.623  1.00  0.00     0.023 A 
ATOM     71  C   UNL A   1      48.411  27.738  27.427  1.00  0.00     0.012 A 
ATOM     72  C   UNL A   1      47.414  27.948  25.222  1.00  0.00     0.148 A 
ATOM     73  C   UNL A   1      49.638  27.415  26.848  1.00  0.00     0.002 A 
ATOM     74  C   UNL A   1      48.625  27.571  24.653  1.00  0.00     0.091 A 
ATOM     75  F   UNL A   1      46.342  28.239  24.473  1.00  0.00    -0.205 F 
ATOM     76  C   UNL A   1      49.743  27.320  25.462  1.00  0.00     0.022 A 
BRANCH  74  77
ATOM     77  S   UNL A   1      48.814  27.298  22.887  1.00  0.00     0.127 S 
ATOM     78  O   UNL A   1      50.264  27.376  22.726  1.00  0.00    -0.237 OA
ATOM     79  O   UNL A   1      48.246  25.959  22.726  1.00  0.00    -0.237 OA
ATOM     80  O   UNL A   1      48.048  28.355  22.242  1.00  0.00    -0.744 OA
ENDBRANCH  74  77
ENDBRANCH  46  70
BRANCH  58  81
ATOM     81  C   UNL A   1      44.897  33.811  29.716  1.00  0.00     0.023 A 
ATOM     82  C   UNL A   1      45.672  34.009  30.875  1.00  0.00     0.012 A 
ATOM     83  C   UNL A   1      44.776  34.857  28.778  1.00  0.00     0.148 A 
ATOM     84  C   UNL A   1      46.289  35.237  31.114  1.00  0.00     0.002 A 
ATOM     85  C   UNL A   1      45.435  36.059  28.997  1.00  0.00     0.091 A 
ATOM     86  F   UNL A   1      44.020  34.654  27.689  1.00  0.00    -0.205 F 
ATOM     87  C   UNL A   1      46.181  36.256  30.170  1.00  0.00     0.022 A 
BRANCH  85  88
ATOM     88  S   UNL A   1      45.433  37.392  27.792  1.00  0.00     0.127 S 
ATOM     89  O   UNL A   1      44.012  37.497  27.466  1.00  0.00    -0.237 OA
ATOM     90  O   UNL A   1      45.966  38.512  28.566  1.00  0.00    -0.237 OA
ATOM     91  O   UNL A   1      46.292  36.948  26.703  1.00  0.00    -0.744 OA
ENDBRANCH  85  88
ENDBRANCH  58  81
ENDBRANCH  32  33
ENDBRANCH  25  27
ENDBRANCH  24  25
ENDBRANCH  23  24
ENDBRANCH  22  23
ENDBRANCH   1  22
TORSDOF 20
ENDMDL
