MODEL 1
REMARK VINA RESULT:     -11.3      0.000      0.000
REMARK SMILES O=C(CSc1nnc(-c2cccc(C(F)(F)F)c2F)o1)OCCOCCOC(=O)c1ccc(-c2c3nc(c(-c4cccc(S(=O)(=O)[O-])c4F)c4ccc([nH]4)c(-c4cccc(S(=O)(=O)[O-])c4F)c4nc(c(-c5cccc(S(=O)(=O)[O-])c5F)c5ccc2[nH]5)C=C4)C=C3)cc1
REMARK SMILES IDX 23 1 22 2 21 3 2 4 1 5 3 6 4 7 5 8 6 9 20 10 7 11 8 12 9 13
REMARK SMILES IDX 10 14 18 15 11 16 13 17 19 18 12 19 14 20 15 21 16 22 17 23
REMARK SMILES IDX 24 24 25 25 26 26 27 27 28 28 29 29 30 30 31 31 92 32 32 33
REMARK SMILES IDX 91 34 33 35 34 36 35 37 85 38 36 39 90 40 84 41 86 42 37 43
REMARK SMILES IDX 89 44 83 45 82 46 38 48 70 49 50 50 69 51 51 52 54 53 68 54
REMARK SMILES IDX 87 55 52 56 53 57 67 59 88 60 55 61 39 62 40 63 48 64 41 65
REMARK SMILES IDX 43 66 49 67 42 68 44 69 45 70 46 71 47 72 71 73 72 74 80 75
REMARK SMILES IDX 73 76 75 77 81 78 74 79 76 80 77 81 78 82 79 83 56 84 57 85
REMARK SMILES IDX 65 86 58 87 60 88 66 89 59 90 61 91 62 92 63 93 64 94
REMARK H PARENT 86 47 54 58
REMARK Flexibility Score: inf
ROOT
ATOM      1  C   UNL A   1      36.579  22.626  23.213  1.00  0.00     0.202 C 
ENDROOT
BRANCH   1   2
ATOM      2  C   UNL A   1      35.274  23.390  23.402  1.00  0.00     0.261 C 
BRANCH   2   3
ATOM      3  O   UNL A   1      34.129  22.534  23.557  1.00  0.00    -0.463 OA
BRANCH   3   4
ATOM      4  C   UNL A   1      33.621  22.059  24.713  1.00  0.00     0.316 C 
ATOM      5  O   UNL A   1      32.700  21.238  24.667  1.00  0.00    -0.251 OA
BRANCH   4   6
ATOM      6  C   UNL A   1      34.052  22.599  26.055  1.00  0.00     0.202 C 
BRANCH   6   7
ATOM      7  S   UNL A   1      32.954  22.338  27.450  1.00  0.00    -0.054 SA
BRANCH   7   8
ATOM      8  C   UNL A   1      31.765  23.532  27.100  1.00  0.00     0.277 A 
ATOM      9  N   UNL A   1      30.462  23.390  27.212  1.00  0.00    -0.101 NA
ATOM     10  O   UNL A   1      32.122  24.749  26.624  1.00  0.00    -0.411 OA
ATOM     11  N   UNL A   1      29.899  24.572  26.771  1.00  0.00    -0.107 NA
ATOM     12  C   UNL A   1      30.909  25.329  26.406  1.00  0.00     0.251 A 
BRANCH  12  13
ATOM     13  C   UNL A   1      30.978  26.672  25.898  1.00  0.00     0.075 A 
ATOM     14  C   UNL A   1      31.529  27.696  26.669  1.00  0.00     0.017 A 
ATOM     15  C   UNL A   1      30.572  26.932  24.583  1.00  0.00     0.148 A 
ATOM     16  C   UNL A   1      31.719  28.956  26.105  1.00  0.00     0.002 A 
ATOM     17  C   UNL A   1      30.754  28.181  24.004  1.00  0.00     0.092 A 
ATOM     18  F   UNL A   1      30.008  25.950  23.863  1.00  0.00    -0.205 F 
ATOM     19  C   UNL A   1      31.343  29.194  24.778  1.00  0.00     0.016 A 
BRANCH  17  20
ATOM     20  C   UNL A   1      30.353  28.429  22.582  1.00  0.00     0.419 C 
ATOM     21  F   UNL A   1      30.953  29.540  22.068  1.00  0.00    -0.166 F 
ATOM     22  F   UNL A   1      30.722  27.402  21.763  1.00  0.00    -0.166 F 
ATOM     23  F   UNL A   1      29.021  28.602  22.371  1.00  0.00    -0.166 F 
ENDBRANCH  17  20
ENDBRANCH  12  13
ENDBRANCH   7   8
ENDBRANCH   6   7
ENDBRANCH   4   6
ENDBRANCH   3   4
ENDBRANCH   2   3
ENDBRANCH   1   2
BRANCH   1  24
ATOM     24  O   UNL A   1      37.303  22.318  24.403  1.00  0.00    -0.374 OA
BRANCH  24  25
ATOM     25  C   UNL A   1      37.106  20.993  24.920  1.00  0.00     0.202 C 
BRANCH  25  26
ATOM     26  C   UNL A   1      38.364  20.249  25.370  1.00  0.00     0.261 C 
BRANCH  26  27
ATOM     27  O   UNL A   1      39.509  21.111  25.358  1.00  0.00    -0.460 OA
BRANCH  27  28
ATOM     28  C   UNL A   1      40.345  20.942  26.407  1.00  0.00     0.338 C 
ATOM     29  O   UNL A   1      40.978  19.933  26.688  1.00  0.00    -0.246 OA
BRANCH  28  30
ATOM     30  C   UNL A   1      40.566  22.239  27.074  1.00  0.00     0.060 A 
ATOM     31  C   UNL A   1      39.941  23.358  26.509  1.00  0.00     0.016 A 
ATOM     32  C   UNL A   1      41.371  22.367  28.209  1.00  0.00     0.016 A 
ATOM     33  C   UNL A   1      40.200  24.623  27.018  1.00  0.00     0.010 A 
ATOM     34  C   UNL A   1      41.628  23.640  28.721  1.00  0.00     0.010 A 
ATOM     35  C   UNL A   1      41.091  24.773  28.087  1.00  0.00    -0.014 A 
BRANCH  35  36
ATOM     36  C   UNL A   1      41.582  26.130  28.413  1.00  0.00     0.031 A 
ATOM     37  C   UNL A   1      42.987  26.502  28.028  1.00  0.00     0.074 A 
ATOM     38  C   UNL A   1      40.763  27.031  28.982  1.00  0.00     0.049 A 
ATOM     39  N   UNL A   1      43.594  27.652  28.139  1.00  0.00    -0.248 NA
ATOM     40  C   UNL A   1      43.819  25.438  27.438  1.00  0.00     0.031 C 
ATOM     41  C   UNL A   1      39.385  26.769  29.392  1.00  0.00     0.029 A 
ATOM     42  N   UNL A   1      40.974  28.343  29.315  1.00  0.00    -0.354 N 
ATOM     43  C   UNL A   1      44.882  27.447  27.662  1.00  0.00     0.074 A 
ATOM     44  C   UNL A   1      44.980  26.058  27.277  1.00  0.00     0.031 C 
ATOM     45  C   UNL A   1      38.872  27.889  29.924  1.00  0.00     0.029 A 
ATOM     46  C   UNL A   1      39.891  28.937  29.914  1.00  0.00     0.049 A 
ATOM     47  H   UNL A   1      41.821  28.814  29.141  1.00  0.00     0.167 HD
ATOM     48  C   UNL A   1      45.886  28.344  27.536  1.00  0.00     0.034 A 
ATOM     49  C   UNL A   1      39.742  30.184  30.406  1.00  0.00     0.034 A 
ATOM     50  C   UNL A   1      45.765  29.729  27.898  1.00  0.00     0.049 A 
ATOM     51  C   UNL A   1      40.876  31.162  30.268  1.00  0.00     0.074 A 
ATOM     52  C   UNL A   1      46.700  30.736  27.752  1.00  0.00     0.029 A 
ATOM     53  N   UNL A   1      44.648  30.297  28.491  1.00  0.00    -0.354 N 
ATOM     54  N   UNL A   1      42.048  30.987  29.707  1.00  0.00    -0.248 NA
ATOM     55  C   UNL A   1      40.663  32.517  30.798  1.00  0.00     0.031 C 
ATOM     56  C   UNL A   1      46.167  31.903  28.302  1.00  0.00     0.029 A 
ATOM     57  C   UNL A   1      44.880  31.637  28.743  1.00  0.00     0.049 A 
ATOM     58  H   UNL A   1      43.814  29.818  28.703  1.00  0.00     0.167 HD
ATOM     59  C   UNL A   1      42.700  32.211  29.786  1.00  0.00     0.074 A 
ATOM     60  C   UNL A   1      41.788  33.126  30.444  1.00  0.00     0.031 C 
ATOM     61  C   UNL A   1      43.943  32.545  29.357  1.00  0.00     0.034 A 
BRANCH  48  62
ATOM     62  C   UNL A   1      47.199  27.868  26.971  1.00  0.00     0.023 A 
ATOM     63  C   UNL A   1      48.215  27.416  27.835  1.00  0.00     0.012 A 
ATOM     64  C   UNL A   1      47.393  27.793  25.578  1.00  0.00     0.148 A 
ATOM     65  C   UNL A   1      49.415  26.923  27.324  1.00  0.00     0.002 A 
ATOM     66  C   UNL A   1      48.570  27.253  25.074  1.00  0.00     0.091 A 
ATOM     67  F   UNL A   1      46.424  28.251  24.772  1.00  0.00    -0.205 F 
ATOM     68  C   UNL A   1      49.586  26.828  25.945  1.00  0.00     0.022 A 
BRANCH  66  69
ATOM     69  S   UNL A   1      48.847  27.006  23.317  1.00  0.00     0.127 S 
ATOM     70  O   UNL A   1      48.089  25.781  23.068  1.00  0.00    -0.237 OA
ATOM     71  O   UNL A   1      48.257  28.215  22.741  1.00  0.00    -0.237 OA
ATOM     72  O   UNL A   1      50.289  26.893  23.149  1.00  0.00    -0.744 OA
ENDBRANCH  66  69
ENDBRANCH  48  62
BRANCH  49  73
ATOM     73  C   UNL A   1      38.440  30.568  31.015  1.00  0.00     0.023 A 
ATOM     74  C   UNL A   1      38.235  30.390  32.396  1.00  0.00     0.012 A 
ATOM     75  C   UNL A   1      37.444  31.205  30.248  1.00  0.00     0.148 A 
ATOM     76  C   UNL A   1      37.060  30.838  33.003  1.00  0.00     0.002 A 
ATOM     77  C   UNL A   1      36.303  31.701  30.868  1.00  0.00     0.091 A 
ATOM     78  F   UNL A   1      37.657  31.355  28.933  1.00  0.00    -0.205 F 
ATOM     79  C   UNL A   1      36.103  31.506  32.243  1.00  0.00     0.022 A 
BRANCH  77  80
ATOM     80  S   UNL A   1      35.089  32.702  30.002  1.00  0.00     0.127 S 
ATOM     81  O   UNL A   1      34.140  33.011  31.069  1.00  0.00    -0.237 OA
ATOM     82  O   UNL A   1      35.903  33.833  29.554  1.00  0.00    -0.237 OA
ATOM     83  O   UNL A   1      34.574  31.863  28.929  1.00  0.00    -0.744 OA
ENDBRANCH  77  80
ENDBRANCH  49  73
BRANCH  61  84
ATOM     84  C   UNL A   1      44.410  33.964  29.543  1.00  0.00     0.023 A 
ATOM     85  C   UNL A   1      45.042  34.341  30.744  1.00  0.00     0.012 A 
ATOM     86  C   UNL A   1      44.375  34.868  28.461  1.00  0.00     0.148 A 
ATOM     87  C   UNL A   1      45.628  35.600  30.866  1.00  0.00     0.002 A 
ATOM     88  C   UNL A   1      45.009  36.099  28.573  1.00  0.00     0.091 A 
ATOM     89  F   UNL A   1      43.758  34.487  27.333  1.00  0.00    -0.205 F 
ATOM     90  C   UNL A   1      45.628  36.470  29.777  1.00  0.00     0.022 A 
BRANCH  88  91
ATOM     91  S   UNL A   1      45.161  37.236  27.190  1.00  0.00     0.127 S 
ATOM     92  O   UNL A   1      45.954  38.314  27.778  1.00  0.00    -0.237 OA
ATOM     93  O   UNL A   1      45.872  36.424  26.202  1.00  0.00    -0.237 OA
ATOM     94  O   UNL A   1      43.803  37.603  26.813  1.00  0.00    -0.744 OA
ENDBRANCH  88  91
ENDBRANCH  61  84
ENDBRANCH  35  36
ENDBRANCH  28  30
ENDBRANCH  27  28
ENDBRANCH  26  27
ENDBRANCH  25  26
ENDBRANCH  24  25
ENDBRANCH   1  24
TORSDOF 21
ENDMDL
MODEL 2
REMARK VINA RESULT:     -10.7      5.432      9.051
REMARK SMILES O=C(CSc1nnc(-c2cccc(C(F)(F)F)c2F)o1)OCCOCCOC(=O)c1ccc(-c2c3nc(c(-c4cccc(S(=O)(=O)[O-])c4F)c4ccc([nH]4)c(-c4cccc(S(=O)(=O)[O-])c4F)c4nc(c(-c5cccc(S(=O)(=O)[O-])c5F)c5ccc2[nH]5)C=C4)C=C3)cc1
REMARK SMILES IDX 23 1 22 2 21 3 2 4 1 5 3 6 4 7 5 8 6 9 20 10 7 11 8 12 9 13
REMARK SMILES IDX 10 14 18 15 11 16 13 17 19 18 12 19 14 20 15 21 16 22 17 23
REMARK SMILES IDX 24 24 25 25 26 26 27 27 28 28 29 29 30 30 31 31 92 32 32 33
REMARK SMILES IDX 91 34 33 35 34 36 35 37 85 38 36 39 90 40 84 41 86 42 37 43
REMARK SMILES IDX 89 44 83 45 82 46 38 48 70 49 50 50 69 51 51 52 54 53 68 54
REMARK SMILES IDX 87 55 52 56 53 57 67 59 88 60 55 61 39 62 40 63 48 64 41 65
REMARK SMILES IDX 43 66 49 67 42 68 44 69 45 70 46 71 47 72 71 73 72 74 80 75
REMARK SMILES IDX 73 76 75 77 81 78 74 79 76 80 77 81 78 82 79 83 56 84 57 85
REMARK SMILES IDX 65 86 58 87 60 88 66 89 59 90 61 91 62 92 63 93 64 94
REMARK H PARENT 86 47 54 58
REMARK Flexibility Score: inf
ROOT
ATOM      1  C   UNL A   1      31.144  30.520  25.373  1.00  0.00     0.202 C 
ENDROOT
BRANCH   1   2
ATOM      2  C   UNL A   1      32.085  29.619  26.164  1.00  0.00     0.261 C 
BRANCH   2   3
ATOM      3  O   UNL A   1      31.661  28.246  26.202  1.00  0.00    -0.463 OA
BRANCH   3   4
ATOM      4  C   UNL A   1      31.349  27.462  25.149  1.00  0.00     0.316 C 
ATOM      5  O   UNL A   1      30.418  26.659  25.257  1.00  0.00    -0.251 OA
BRANCH   4   6
ATOM      6  C   UNL A   1      32.187  27.443  23.893  1.00  0.00     0.202 C 
BRANCH   6   7
ATOM      7  S   UNL A   1      31.405  26.887  22.377  1.00  0.00    -0.054 SA
BRANCH   7   8
ATOM      8  C   UNL A   1      32.301  25.442  22.112  1.00  0.00     0.277 A 
ATOM      9  N   UNL A   1      32.897  25.089  20.994  1.00  0.00    -0.101 NA
ATOM     10  O   UNL A   1      32.420  24.509  23.087  1.00  0.00    -0.411 OA
ATOM     11  N   UNL A   1      33.438  23.838  21.215  1.00  0.00    -0.107 NA
ATOM     12  C   UNL A   1      33.106  23.523  22.446  1.00  0.00     0.251 A 
BRANCH  12  13
ATOM     13  C   UNL A   1      33.396  22.376  23.264  1.00  0.00     0.075 A 
ATOM     14  C   UNL A   1      32.440  21.376  23.450  1.00  0.00     0.017 A 
ATOM     15  C   UNL A   1      34.680  22.220  23.801  1.00  0.00     0.148 A 
ATOM     16  C   UNL A   1      32.789  20.208  24.125  1.00  0.00     0.002 A 
ATOM     17  C   UNL A   1      35.045  21.063  24.476  1.00  0.00     0.092 A 
ATOM     18  F   UNL A   1      35.579  23.205  23.650  1.00  0.00    -0.205 F 
ATOM     19  C   UNL A   1      34.085  20.048  24.625  1.00  0.00     0.016 A 
BRANCH  17  20
ATOM     20  C   UNL A   1      36.436  20.896  25.006  1.00  0.00     0.419 C 
ATOM     21  F   UNL A   1      37.378  21.285  24.101  1.00  0.00    -0.166 F 
ATOM     22  F   UNL A   1      36.654  21.661  26.114  1.00  0.00    -0.166 F 
ATOM     23  F   UNL A   1      36.776  19.629  25.366  1.00  0.00    -0.166 F 
ENDBRANCH  17  20
ENDBRANCH  12  13
ENDBRANCH   7   8
ENDBRANCH   6   7
ENDBRANCH   4   6
ENDBRANCH   3   4
ENDBRANCH   2   3
ENDBRANCH   1   2
BRANCH   1  24
ATOM     24  O   UNL A   1      30.967  31.842  25.880  1.00  0.00    -0.374 OA
BRANCH  24  25
ATOM     25  C   UNL A   1      31.808  32.194  26.989  1.00  0.00     0.202 C 
BRANCH  25  26
ATOM     26  C   UNL A   1      32.247  33.658  27.065  1.00  0.00     0.261 C 
BRANCH  26  27
ATOM     27  O   UNL A   1      32.458  34.068  28.422  1.00  0.00    -0.460 OA
BRANCH  27  28
ATOM     28  C   UNL A   1      33.567  34.817  28.613  1.00  0.00     0.338 C 
ATOM     29  O   UNL A   1      33.627  36.037  28.676  1.00  0.00    -0.246 OA
BRANCH  28  30
ATOM     30  C   UNL A   1      34.701  33.939  28.955  1.00  0.00     0.060 A 
ATOM     31  C   UNL A   1      34.402  32.750  29.634  1.00  0.00     0.016 A 
ATOM     32  C   UNL A   1      36.022  34.268  28.640  1.00  0.00     0.016 A 
ATOM     33  C   UNL A   1      35.431  31.936  30.087  1.00  0.00     0.010 A 
ATOM     34  C   UNL A   1      37.055  33.446  29.095  1.00  0.00     0.010 A 
ATOM     35  C   UNL A   1      36.762  32.313  29.871  1.00  0.00    -0.014 A 
BRANCH  35  36
ATOM     36  C   UNL A   1      37.826  31.603  30.613  1.00  0.00     0.031 A 
ATOM     37  C   UNL A   1      38.621  30.546  29.901  1.00  0.00     0.074 A 
ATOM     38  C   UNL A   1      38.116  31.947  31.880  1.00  0.00     0.049 A 
ATOM     39  N   UNL A   1      39.648  29.861  30.327  1.00  0.00    -0.248 NA
ATOM     40  C   UNL A   1      38.209  30.215  28.524  1.00  0.00     0.031 C 
ATOM     41  C   UNL A   1      37.405  32.959  32.657  1.00  0.00     0.029 A 
ATOM     42  N   UNL A   1      39.082  31.479  32.731  1.00  0.00    -0.354 N 
ATOM     43  C   UNL A   1      39.986  29.002  29.289  1.00  0.00     0.074 A 
ATOM     44  C   UNL A   1      39.046  29.235  28.217  1.00  0.00     0.031 C 
ATOM     45  C   UNL A   1      37.960  33.037  33.877  1.00  0.00     0.029 A 
ATOM     46  C   UNL A   1      39.047  32.065  33.973  1.00  0.00     0.049 A 
ATOM     47  H   UNL A   1      39.738  30.791  32.477  1.00  0.00     0.167 HD
ATOM     48  C   UNL A   1      41.004  28.114  29.228  1.00  0.00     0.034 A 
ATOM     49  C   UNL A   1      39.803  31.835  35.066  1.00  0.00     0.034 A 
ATOM     50  C   UNL A   1      41.948  27.913  30.293  1.00  0.00     0.049 A 
ATOM     51  C   UNL A   1      40.922  30.834  34.982  1.00  0.00     0.074 A 
ATOM     52  C   UNL A   1      43.054  27.084  30.310  1.00  0.00     0.029 A 
ATOM     53  N   UNL A   1      41.888  28.533  31.532  1.00  0.00    -0.354 N 
ATOM     54  N   UNL A   1      41.304  30.114  33.954  1.00  0.00    -0.248 NA
ATOM     55  C   UNL A   1      41.736  30.632  36.190  1.00  0.00     0.031 C 
ATOM     56  C   UNL A   1      43.635  27.166  31.577  1.00  0.00     0.029 A 
ATOM     57  C   UNL A   1      42.922  28.085  32.332  1.00  0.00     0.049 A 
ATOM     58  H   UNL A   1      41.209  29.193  31.802  1.00  0.00     0.167 HD
ATOM     59  C   UNL A   1      42.418  29.400  34.378  1.00  0.00     0.074 A 
ATOM     60  C   UNL A   1      42.656  29.779  35.756  1.00  0.00     0.031 C 
ATOM     61  C   UNL A   1      43.171  28.508  33.688  1.00  0.00     0.034 A 
BRANCH  48  62
ATOM     62  C   UNL A   1      41.167  27.303  27.970  1.00  0.00     0.023 A 
ATOM     63  C   UNL A   1      41.777  27.877  26.836  1.00  0.00     0.012 A 
ATOM     64  C   UNL A   1      40.789  25.947  27.938  1.00  0.00     0.148 A 
ATOM     65  C   UNL A   1      41.983  27.122  25.682  1.00  0.00     0.002 A 
ATOM     66  C   UNL A   1      41.044  25.186  26.803  1.00  0.00     0.091 A 
ATOM     67  F   UNL A   1      40.188  25.425  29.017  1.00  0.00    -0.205 F 
ATOM     68  C   UNL A   1      41.630  25.775  25.671  1.00  0.00     0.022 A 
BRANCH  66  69
ATOM     69  S   UNL A   1      40.709  23.424  26.723  1.00  0.00     0.127 S 
ATOM     70  O   UNL A   1      41.756  22.966  25.811  1.00  0.00    -0.237 OA
ATOM     71  O   UNL A   1      40.892  23.014  28.116  1.00  0.00    -0.237 OA
ATOM     72  O   UNL A   1      39.347  23.295  26.224  1.00  0.00    -0.744 OA
ENDBRANCH  66  69
ENDBRANCH  48  62
BRANCH  49  73
ATOM     73  C   UNL A   1      39.543  32.624  36.301  1.00  0.00     0.023 A 
ATOM     74  C   UNL A   1      40.148  33.884  36.465  1.00  0.00     0.012 A 
ATOM     75  C   UNL A   1      38.616  32.175  37.263  1.00  0.00     0.148 A 
ATOM     76  C   UNL A   1      39.837  34.683  37.567  1.00  0.00     0.002 A 
ATOM     77  C   UNL A   1      38.267  32.999  38.326  1.00  0.00     0.091 A 
ATOM     78  F   UNL A   1      38.060  30.967  37.090  1.00  0.00    -0.205 F 
ATOM     79  C   UNL A   1      38.886  34.247  38.487  1.00  0.00     0.022 A 
BRANCH  77  80
ATOM     80  S   UNL A   1      36.949  32.589  39.475  1.00  0.00     0.127 S 
ATOM     81  O   UNL A   1      37.308  31.229  39.870  1.00  0.00    -0.237 OA
ATOM     82  O   UNL A   1      37.136  33.602  40.514  1.00  0.00    -0.237 OA
ATOM     83  O   UNL A   1      35.710  32.716  38.721  1.00  0.00    -0.744 OA
ENDBRANCH  77  80
ENDBRANCH  49  73
BRANCH  61  84
ATOM     84  C   UNL A   1      44.354  27.881  34.377  1.00  0.00     0.023 A 
ATOM     85  C   UNL A   1      45.576  28.578  34.442  1.00  0.00     0.012 A 
ATOM     86  C   UNL A   1      44.197  26.683  35.104  1.00  0.00     0.148 A 
ATOM     87  C   UNL A   1      46.627  28.088  35.218  1.00  0.00     0.002 A 
ATOM     88  C   UNL A   1      45.228  26.231  35.917  1.00  0.00     0.091 A 
ATOM     89  F   UNL A   1      43.027  26.034  35.016  1.00  0.00    -0.205 F 
ATOM     90  C   UNL A   1      46.447  26.927  35.968  1.00  0.00     0.022 A 
BRANCH  88  91
ATOM     91  S   UNL A   1      45.050  24.814  37.006  1.00  0.00     0.127 S 
ATOM     92  O   UNL A   1      46.437  24.559  37.392  1.00  0.00    -0.237 OA
ATOM     93  O   UNL A   1      44.208  25.352  38.075  1.00  0.00    -0.237 OA
ATOM     94  O   UNL A   1      44.428  23.764  36.211  1.00  0.00    -0.744 OA
ENDBRANCH  88  91
ENDBRANCH  61  84
ENDBRANCH  35  36
ENDBRANCH  28  30
ENDBRANCH  27  28
ENDBRANCH  26  27
ENDBRANCH  25  26
ENDBRANCH  24  25
ENDBRANCH   1  24
TORSDOF 21
ENDMDL
MODEL 3
REMARK VINA RESULT:     -10.4      5.172     10.433
REMARK SMILES O=C(CSc1nnc(-c2cccc(C(F)(F)F)c2F)o1)OCCOCCOC(=O)c1ccc(-c2c3nc(c(-c4cccc(S(=O)(=O)[O-])c4F)c4ccc([nH]4)c(-c4cccc(S(=O)(=O)[O-])c4F)c4nc(c(-c5cccc(S(=O)(=O)[O-])c5F)c5ccc2[nH]5)C=C4)C=C3)cc1
REMARK SMILES IDX 23 1 22 2 21 3 2 4 1 5 3 6 4 7 5 8 6 9 20 10 7 11 8 12 9 13
REMARK SMILES IDX 10 14 18 15 11 16 13 17 19 18 12 19 14 20 15 21 16 22 17 23
REMARK SMILES IDX 24 24 25 25 26 26 27 27 28 28 29 29 30 30 31 31 92 32 32 33
REMARK SMILES IDX 91 34 33 35 34 36 35 37 85 38 36 39 90 40 84 41 86 42 37 43
REMARK SMILES IDX 89 44 83 45 82 46 38 48 70 49 50 50 69 51 51 52 54 53 68 54
REMARK SMILES IDX 87 55 52 56 53 57 67 59 88 60 55 61 39 62 40 63 48 64 41 65
REMARK SMILES IDX 43 66 49 67 42 68 44 69 45 70 46 71 47 72 71 73 72 74 80 75
REMARK SMILES IDX 73 76 75 77 81 78 74 79 76 80 77 81 78 82 79 83 56 84 57 85
REMARK SMILES IDX 65 86 58 87 60 88 66 89 59 90 61 91 62 92 63 93 64 94
REMARK H PARENT 86 47 54 58
REMARK Flexibility Score: inf
ROOT
ATOM      1  C   UNL A   1      33.417  28.877  25.215  1.00  0.00     0.202 C 
ENDROOT
BRANCH   1   2
ATOM      2  C   UNL A   1      33.005  27.886  24.132  1.00  0.00     0.261 C 
BRANCH   2   3
ATOM      3  O   UNL A   1      32.323  28.501  23.026  1.00  0.00    -0.463 OA
BRANCH   3   4
ATOM      4  C   UNL A   1      31.003  28.766  22.933  1.00  0.00     0.316 C 
ATOM      5  O   UNL A   1      30.604  29.503  22.026  1.00  0.00    -0.251 OA
BRANCH   4   6
ATOM      6  C   UNL A   1      30.019  28.299  23.978  1.00  0.00     0.202 C 
BRANCH   6   7
ATOM      7  S   UNL A   1      29.137  26.768  23.668  1.00  0.00    -0.054 SA
BRANCH   7   8
ATOM      8  C   UNL A   1      30.125  25.686  24.570  1.00  0.00     0.277 A 
ATOM      9  N   UNL A   1      30.038  25.440  25.859  1.00  0.00    -0.101 NA
ATOM     10  O   UNL A   1      31.138  25.010  23.976  1.00  0.00    -0.411 OA
ATOM     11  N   UNL A   1      31.059  24.562  26.163  1.00  0.00    -0.107 NA
ATOM     12  C   UNL A   1      31.699  24.361  25.034  1.00  0.00     0.251 A 
BRANCH  12  13
ATOM     13  C   UNL A   1      32.822  23.531  24.691  1.00  0.00     0.075 A 
ATOM     14  C   UNL A   1      34.053  24.101  24.362  1.00  0.00     0.017 A 
ATOM     15  C   UNL A   1      32.701  22.139  24.778  1.00  0.00     0.148 A 
ATOM     16  C   UNL A   1      35.163  23.281  24.176  1.00  0.00     0.002 A 
ATOM     17  C   UNL A   1      33.797  21.306  24.594  1.00  0.00     0.092 A 
ATOM     18  F   UNL A   1      31.504  21.599  25.055  1.00  0.00    -0.205 F 
ATOM     19  C   UNL A   1      35.038  21.894  24.301  1.00  0.00     0.016 A 
BRANCH  17  20
ATOM     20  C   UNL A   1      33.658  19.820  24.734  1.00  0.00     0.419 C 
ATOM     21  F   UNL A   1      32.819  19.295  23.797  1.00  0.00    -0.166 F 
ATOM     22  F   UNL A   1      34.849  19.179  24.561  1.00  0.00    -0.166 F 
ATOM     23  F   UNL A   1      33.183  19.388  25.933  1.00  0.00    -0.166 F 
ENDBRANCH  17  20
ENDBRANCH  12  13
ENDBRANCH   7   8
ENDBRANCH   6   7
ENDBRANCH   4   6
ENDBRANCH   3   4
ENDBRANCH   2   3
ENDBRANCH   1   2
BRANCH   1  24
ATOM     24  O   UNL A   1      32.446  29.140  26.226  1.00  0.00    -0.374 OA
BRANCH  24  25
ATOM     25  C   UNL A   1      32.238  30.527  26.536  1.00  0.00     0.202 C 
BRANCH  25  26
ATOM     26  C   UNL A   1      33.407  31.250  27.206  1.00  0.00     0.261 C 
BRANCH  26  27
ATOM     27  O   UNL A   1      33.109  32.636  27.417  1.00  0.00    -0.460 OA
BRANCH  27  28
ATOM     28  C   UNL A   1      33.777  33.201  28.448  1.00  0.00     0.338 C 
ATOM     29  O   UNL A   1      33.350  34.041  29.228  1.00  0.00    -0.246 OA
BRANCH  28  30
ATOM     30  C   UNL A   1      35.059  32.500  28.647  1.00  0.00     0.060 A 
ATOM     31  C   UNL A   1      34.998  31.199  29.164  1.00  0.00     0.016 A 
ATOM     32  C   UNL A   1      36.289  33.095  28.354  1.00  0.00     0.016 A 
ATOM     33  C   UNL A   1      36.169  30.527  29.483  1.00  0.00     0.010 A 
ATOM     34  C   UNL A   1      37.466  32.416  28.674  1.00  0.00     0.010 A 
ATOM     35  C   UNL A   1      37.405  31.158  29.295  1.00  0.00    -0.014 A 
BRANCH  35  36
ATOM     36  C   UNL A   1      38.606  30.557  29.914  1.00  0.00     0.031 A 
ATOM     37  C   UNL A   1      38.964  30.944  31.322  1.00  0.00     0.074 A 
ATOM     38  C   UNL A   1      39.324  29.634  29.251  1.00  0.00     0.049 A 
ATOM     39  N   UNL A   1      39.917  30.483  32.086  1.00  0.00    -0.248 NA
ATOM     40  C   UNL A   1      38.138  31.988  31.956  1.00  0.00     0.031 C 
ATOM     41  C   UNL A   1      39.058  29.190  27.885  1.00  0.00     0.029 A 
ATOM     42  N   UNL A   1      40.420  28.909  29.639  1.00  0.00    -0.354 N 
ATOM     43  C   UNL A   1      39.825  31.196  33.275  1.00  0.00     0.074 A 
ATOM     44  C   UNL A   1      38.737  32.135  33.129  1.00  0.00     0.031 C 
ATOM     45  C   UNL A   1      39.971  28.266  27.545  1.00  0.00     0.029 A 
ATOM     46  C   UNL A   1      40.897  28.071  28.660  1.00  0.00     0.049 A 
ATOM     47  H   UNL A   1      40.826  28.981  30.532  1.00  0.00     0.167 HD
ATOM     48  C   UNL A   1      40.570  31.063  34.396  1.00  0.00     0.034 A 
ATOM     49  C   UNL A   1      41.964  27.248  28.662  1.00  0.00     0.034 A 
ATOM     50  C   UNL A   1      41.631  30.105  34.536  1.00  0.00     0.049 A 
ATOM     51  C   UNL A   1      42.787  27.124  29.915  1.00  0.00     0.074 A 
ATOM     52  C   UNL A   1      42.407  29.844  35.650  1.00  0.00     0.029 A 
ATOM     53  N   UNL A   1      42.078  29.265  33.527  1.00  0.00    -0.354 N 
ATOM     54  N   UNL A   1      42.616  27.717  31.071  1.00  0.00    -0.248 NA
ATOM     55  C   UNL A   1      43.928  26.197  29.880  1.00  0.00     0.031 C 
ATOM     56  C   UNL A   1      43.355  28.880  35.300  1.00  0.00     0.029 A 
ATOM     57  C   UNL A   1      43.137  28.503  33.984  1.00  0.00     0.049 A 
ATOM     58  H   UNL A   1      41.699  29.219  32.619  1.00  0.00     0.167 HD
ATOM     59  C   UNL A   1      43.603  27.216  31.911  1.00  0.00     0.074 A 
ATOM     60  C   UNL A   1      44.367  26.262  31.132  1.00  0.00     0.031 C 
ATOM     61  C   UNL A   1      43.856  27.523  33.208  1.00  0.00     0.034 A 
BRANCH  48  62
ATOM     62  C   UNL A   1      40.258  31.956  35.568  1.00  0.00     0.023 A 
ATOM     63  C   UNL A   1      41.029  33.113  35.796  1.00  0.00     0.012 A 
ATOM     64  C   UNL A   1      39.149  31.690  36.395  1.00  0.00     0.148 A 
ATOM     65  C   UNL A   1      40.719  33.978  36.845  1.00  0.00     0.002 A 
ATOM     66  C   UNL A   1      38.814  32.582  37.406  1.00  0.00     0.091 A 
ATOM     67  F   UNL A   1      38.443  30.571  36.178  1.00  0.00    -0.205 F 
ATOM     68  C   UNL A   1      39.604  33.720  37.640  1.00  0.00     0.022 A 
BRANCH  66  69
ATOM     69  S   UNL A   1      37.348  32.386  38.425  1.00  0.00     0.127 S 
ATOM     70  O   UNL A   1      37.213  30.931  38.469  1.00  0.00    -0.237 OA
ATOM     71  O   UNL A   1      37.769  32.997  39.686  1.00  0.00    -0.237 OA
ATOM     72  O   UNL A   1      36.279  33.091  37.733  1.00  0.00    -0.744 OA
ENDBRANCH  66  69
ENDBRANCH  48  62
BRANCH  49  73
ATOM     73  C   UNL A   1      42.256  26.444  27.444  1.00  0.00     0.023 A 
ATOM     74  C   UNL A   1      42.998  27.014  26.393  1.00  0.00     0.012 A 
ATOM     75  C   UNL A   1      41.891  25.084  27.372  1.00  0.00     0.148 A 
ATOM     76  C   UNL A   1      43.370  26.244  25.289  1.00  0.00     0.002 A 
ATOM     77  C   UNL A   1      42.313  24.310  26.298  1.00  0.00     0.091 A 
ATOM     78  F   UNL A   1      41.176  24.567  28.381  1.00  0.00    -0.205 F 
ATOM     79  C   UNL A   1      43.042  24.891  25.249  1.00  0.00     0.022 A 
BRANCH  77  80
ATOM     80  S   UNL A   1      42.068  22.532  26.232  1.00  0.00     0.127 S 
ATOM     81  O   UNL A   1      40.611  22.430  26.247  1.00  0.00    -0.237 OA
ATOM     82  O   UNL A   1      42.696  22.194  24.955  1.00  0.00    -0.237 OA
ATOM     83  O   UNL A   1      42.746  21.993  27.402  1.00  0.00    -0.744 OA
ENDBRANCH  77  80
ENDBRANCH  49  73
BRANCH  61  84
ATOM     84  C   UNL A   1      44.984  26.812  33.907  1.00  0.00     0.023 A 
ATOM     85  C   UNL A   1      46.278  27.369  33.894  1.00  0.00     0.012 A 
ATOM     86  C   UNL A   1      44.719  25.689  34.717  1.00  0.00     0.148 A 
ATOM     87  C   UNL A   1      47.292  26.814  34.673  1.00  0.00     0.002 A 
ATOM     88  C   UNL A   1      45.719  25.176  35.532  1.00  0.00     0.091 A 
ATOM     89  F   UNL A   1      43.481  25.172  34.704  1.00  0.00    -0.205 F 
ATOM     90  C   UNL A   1      47.009  25.732  35.505  1.00  0.00     0.022 A 
BRANCH  88  91
ATOM     91  S   UNL A   1      45.421  23.862  36.719  1.00  0.00     0.127 S 
ATOM     92  O   UNL A   1      46.769  23.602  37.221  1.00  0.00    -0.237 OA
ATOM     93  O   UNL A   1      44.527  24.511  37.679  1.00  0.00    -0.237 OA
ATOM     94  O   UNL A   1      44.819  22.766  35.971  1.00  0.00    -0.744 OA
ENDBRANCH  88  91
ENDBRANCH  61  84
ENDBRANCH  35  36
ENDBRANCH  28  30
ENDBRANCH  27  28
ENDBRANCH  26  27
ENDBRANCH  25  26
ENDBRANCH  24  25
ENDBRANCH   1  24
TORSDOF 21
ENDMDL
