MODEL 1
REMARK VINA RESULT:     -11.7      0.000      0.000
REMARK SMILES C[C@H]1OCC[C@@H]1C(=O)Nc1sc2c(c1C(=O)OCCOCCOC(=O)c1ccc(-c3c4nc(c(-c5cccc(S(=O)(=O)[O-])c5F)c5ccc([nH]5)c(-c5cccc(S(=O)(=O)[O-])c5F)c5nc(c(-c6cccc(S(=O)(=O)[O-])c6F)c6ccc3[nH]6)C=C5)C=C4)cc1)CCC2
REMARK SMILES IDX 21 1 20 2 19 3 18 4 17 5 15 6 16 7 14 8 10 9 11 10 12 11
REMARK SMILES IDX 13 12 91 13 89 14 90 15 9 16 7 17 8 18 6 20 1 21 2 22 3 23
REMARK SMILES IDX 4 24 5 25 22 26 23 27 24 28 25 29 26 30 27 31 88 32 28 33
REMARK SMILES IDX 87 34 29 35 30 36 31 37 81 38 32 39 86 40 80 41 82 42 33 43
REMARK SMILES IDX 85 44 79 45 78 46 34 48 66 49 46 50 65 51 47 52 50 53 64 54
REMARK SMILES IDX 83 55 48 56 49 57 63 59 84 60 51 61 35 62 36 63 44 64 37 65
REMARK SMILES IDX 39 66 45 67 38 68 40 69 41 70 42 71 43 72 67 73 68 74 76 75
REMARK SMILES IDX 69 76 71 77 77 78 70 79 72 80 73 81 74 82 75 83 52 84 53 85
REMARK SMILES IDX 61 86 54 87 56 88 62 89 55 90 57 91 58 92 59 93 60 94
REMARK H PARENT 9 19 82 47 50 58
REMARK Flexibility Score: inf
ROOT
ATOM      1  C   UNL A   1      39.976  21.272  26.497  1.00  0.00     0.202 C 
ENDROOT
BRANCH   1   2
ATOM      2  O   UNL A   1      39.130  22.400  26.320  1.00  0.00    -0.374 OA
BRANCH   2   3
ATOM      3  C   UNL A   1      37.964  22.138  25.505  1.00  0.00     0.202 C 
BRANCH   3   4
ATOM      4  C   UNL A   1      36.765  23.080  25.777  1.00  0.00     0.261 C 
BRANCH   4   5
ATOM      5  O   UNL A   1      36.393  23.883  24.616  1.00  0.00    -0.460 OA
BRANCH   5   6
ATOM      6  C   UNL A   1      35.934  23.176  23.521  1.00  0.00     0.341 C 
ATOM      7  O   UNL A   1      36.622  22.955  22.531  1.00  0.00    -0.246 OA
BRANCH   6   8
ATOM      8  C   UNL A   1      34.558  22.663  23.649  1.00  0.00     0.098 A 
ATOM      9  C   UNL A   1      33.420  23.270  23.107  1.00  0.00     0.110 A 
ATOM     10  S   UNL A   1      31.934  22.616  23.668  1.00  0.00    -0.122 S 
ATOM     11  C   UNL A   1      32.759  21.338  24.336  1.00  0.00     0.011 A 
ATOM     12  C   UNL A   1      34.125  21.450  24.276  1.00  0.00    -0.017 A 
ATOM     13  C   UNL A   1      32.256  20.086  24.940  1.00  0.00     0.047 C 
ATOM     14  C   UNL A   1      34.757  20.238  24.865  1.00  0.00     0.038 C 
ATOM     15  C   UNL A   1      33.556  19.235  24.941  1.00  0.00     0.010 C 
BRANCH   9  16
ATOM     16  N   UNL A   1      33.217  24.337  22.262  1.00  0.00    -0.317 N 
ATOM     17  C   UNL A   1      33.530  25.632  22.594  1.00  0.00     0.230 C 
ATOM     18  O   UNL A   1      33.912  26.367  21.671  1.00  0.00    -0.274 OA
ATOM     19  H   UNL A   1      32.828  24.164  21.374  1.00  0.00     0.170 HD
BRANCH  17  20
ATOM     20  C   UNL A   1      33.359  26.244  23.976  1.00  0.00     0.110 C 
ATOM     21  C   UNL A   1      32.107  25.851  26.120  1.00  0.00     0.039 C 
ATOM     22  C   UNL A   1      31.995  26.251  24.645  1.00  0.00     0.127 C 
ATOM     23  O   UNL A   1      31.507  27.600  24.644  1.00  0.00    -0.378 OA
ATOM     24  C   UNL A   1      32.588  28.486  24.403  1.00  0.00     0.161 C 
ATOM     25  C   UNL A   1      33.817  27.650  24.116  1.00  0.00     0.044 C 
ENDBRANCH  17  20
ENDBRANCH   9  16
ENDBRANCH   6   8
ENDBRANCH   5   6
ENDBRANCH   4   5
ENDBRANCH   3   4
ENDBRANCH   2   3
ENDBRANCH   1   2
BRANCH   1  26
ATOM     26  C   UNL A   1      41.463  21.446  26.185  1.00  0.00     0.261 C 
BRANCH  26  27
ATOM     27  O   UNL A   1      42.046  22.255  27.190  1.00  0.00    -0.460 OA
BRANCH  27  28
ATOM     28  C   UNL A   1      42.509  23.439  26.748  1.00  0.00     0.338 C 
ATOM     29  O   UNL A   1      43.316  23.647  25.852  1.00  0.00    -0.246 OA
BRANCH  28  30
ATOM     30  C   UNL A   1      42.025  24.433  27.693  1.00  0.00     0.060 A 
ATOM     31  C   UNL A   1      40.892  25.101  27.258  1.00  0.00     0.016 A 
ATOM     32  C   UNL A   1      42.835  24.900  28.749  1.00  0.00     0.016 A 
ATOM     33  C   UNL A   1      40.724  26.381  27.700  1.00  0.00     0.010 A 
ATOM     34  C   UNL A   1      42.642  26.178  29.217  1.00  0.00     0.010 A 
ATOM     35  C   UNL A   1      41.640  26.927  28.621  1.00  0.00    -0.014 A 
BRANCH  35  36
ATOM     36  C   UNL A   1      41.318  28.257  29.078  1.00  0.00     0.031 A 
ATOM     37  C   UNL A   1      42.271  29.230  28.498  1.00  0.00     0.074 A 
ATOM     38  C   UNL A   1      40.345  28.545  29.957  1.00  0.00     0.049 A 
ATOM     39  N   UNL A   1      43.270  29.771  29.107  1.00  0.00    -0.248 NA
ATOM     40  C   UNL A   1      42.306  29.359  27.033  1.00  0.00     0.031 C 
ATOM     41  C   UNL A   1      39.219  27.723  30.394  1.00  0.00     0.029 A 
ATOM     42  N   UNL A   1      40.122  29.728  30.579  1.00  0.00    -0.354 N 
ATOM     43  C   UNL A   1      43.931  30.508  28.134  1.00  0.00     0.074 A 
ATOM     44  C   UNL A   1      43.445  30.031  26.868  1.00  0.00     0.031 C 
ATOM     45  C   UNL A   1      38.302  28.523  30.991  1.00  0.00     0.029 A 
ATOM     46  C   UNL A   1      38.842  29.869  31.096  1.00  0.00     0.049 A 
ATOM     47  H   UNL A   1      40.809  30.429  30.656  1.00  0.00     0.167 HD
ATOM     48  C   UNL A   1      44.594  31.643  28.475  1.00  0.00     0.034 A 
ATOM     49  C   UNL A   1      38.272  31.041  31.479  1.00  0.00     0.034 A 
ATOM     50  C   UNL A   1      44.926  31.637  29.882  1.00  0.00     0.049 A 
ATOM     51  C   UNL A   1      39.375  32.008  31.713  1.00  0.00     0.074 A 
ATOM     52  C   UNL A   1      45.677  30.815  30.699  1.00  0.00     0.029 A 
ATOM     53  N   UNL A   1      44.101  32.352  30.717  1.00  0.00    -0.354 N 
ATOM     54  N   UNL A   1      40.227  31.897  32.693  1.00  0.00    -0.248 NA
ATOM     55  C   UNL A   1      39.807  32.831  30.595  1.00  0.00     0.031 C 
ATOM     56  C   UNL A   1      44.952  30.747  31.925  1.00  0.00     0.029 A 
ATOM     57  C   UNL A   1      43.839  31.583  31.819  1.00  0.00     0.049 A 
ATOM     58  H   UNL A   1      43.758  33.260  30.552  1.00  0.00     0.167 HD
ATOM     59  C   UNL A   1      41.450  32.227  32.121  1.00  0.00     0.074 A 
ATOM     60  C   UNL A   1      41.117  32.886  30.859  1.00  0.00     0.031 C 
ATOM     61  C   UNL A   1      42.610  31.670  32.578  1.00  0.00     0.034 A 
BRANCH  48  62
ATOM     62  C   UNL A   1      44.513  32.922  27.668  1.00  0.00     0.023 A 
ATOM     63  C   UNL A   1      45.595  33.188  26.800  1.00  0.00     0.012 A 
ATOM     64  C   UNL A   1      43.622  33.994  27.917  1.00  0.00     0.148 A 
ATOM     65  C   UNL A   1      45.833  34.470  26.297  1.00  0.00     0.002 A 
ATOM     66  C   UNL A   1      43.826  35.251  27.364  1.00  0.00     0.091 A 
ATOM     67  F   UNL A   1      42.618  33.862  28.781  1.00  0.00    -0.205 F 
ATOM     68  C   UNL A   1      44.951  35.505  26.583  1.00  0.00     0.022 A 
BRANCH  66  69
ATOM     69  S   UNL A   1      42.693  36.614  27.680  1.00  0.00     0.127 S 
ATOM     70  O   UNL A   1      43.131  37.592  26.688  1.00  0.00    -0.237 OA
ATOM     71  O   UNL A   1      41.400  35.987  27.409  1.00  0.00    -0.237 OA
ATOM     72  O   UNL A   1      42.892  36.992  29.074  1.00  0.00    -0.744 OA
ENDBRANCH  66  69
ENDBRANCH  48  62
BRANCH  49  73
ATOM     73  C   UNL A   1      36.869  31.504  31.356  1.00  0.00     0.023 A 
ATOM     74  C   UNL A   1      36.207  32.005  32.497  1.00  0.00     0.012 A 
ATOM     75  C   UNL A   1      36.291  31.753  30.092  1.00  0.00     0.148 A 
ATOM     76  C   UNL A   1      35.041  32.771  32.380  1.00  0.00     0.002 A 
ATOM     77  C   UNL A   1      35.131  32.514  29.981  1.00  0.00     0.091 A 
ATOM     78  F   UNL A   1      36.932  31.334  28.993  1.00  0.00    -0.205 F 
ATOM     79  C   UNL A   1      34.509  33.036  31.121  1.00  0.00     0.022 A 
BRANCH  77  80
ATOM     80  S   UNL A   1      34.414  32.936  28.386  1.00  0.00     0.127 S 
ATOM     81  O   UNL A   1      33.922  31.639  27.922  1.00  0.00    -0.237 OA
ATOM     82  O   UNL A   1      33.374  33.887  28.766  1.00  0.00    -0.237 OA
ATOM     83  O   UNL A   1      35.508  33.481  27.591  1.00  0.00    -0.744 OA
ENDBRANCH  77  80
ENDBRANCH  49  73
BRANCH  61  84
ATOM     84  C   UNL A   1      42.562  30.897  33.872  1.00  0.00     0.023 A 
ATOM     85  C   UNL A   1      42.641  31.513  35.139  1.00  0.00     0.012 A 
ATOM     86  C   UNL A   1      42.282  29.523  33.802  1.00  0.00     0.148 A 
ATOM     87  C   UNL A   1      42.469  30.766  36.310  1.00  0.00     0.002 A 
ATOM     88  C   UNL A   1      42.063  28.794  34.964  1.00  0.00     0.091 A 
ATOM     89  F   UNL A   1      42.213  28.952  32.590  1.00  0.00    -0.205 F 
ATOM     90  C   UNL A   1      42.167  29.408  36.221  1.00  0.00     0.022 A 
BRANCH  88  91
ATOM     91  S   UNL A   1      41.552  27.077  34.899  1.00  0.00     0.127 S 
ATOM     92  O   UNL A   1      40.413  27.133  33.985  1.00  0.00    -0.237 OA
ATOM     93  O   UNL A   1      42.740  26.415  34.357  1.00  0.00    -0.237 OA
ATOM     94  O   UNL A   1      41.238  26.701  36.272  1.00  0.00    -0.744 OA
ENDBRANCH  88  91
ENDBRANCH  61  84
ENDBRANCH  35  36
ENDBRANCH  28  30
ENDBRANCH  27  28
ENDBRANCH  26  27
ENDBRANCH   1  26
TORSDOF 19
ENDMDL
MODEL 2
REMARK VINA RESULT:     -11.6      3.332      6.963
REMARK SMILES C[C@H]1OCC[C@@H]1C(=O)Nc1sc2c(c1C(=O)OCCOCCOC(=O)c1ccc(-c3c4nc(c(-c5cccc(S(=O)(=O)[O-])c5F)c5ccc([nH]5)c(-c5cccc(S(=O)(=O)[O-])c5F)c5nc(c(-c6cccc(S(=O)(=O)[O-])c6F)c6ccc3[nH]6)C=C5)C=C4)cc1)CCC2
REMARK SMILES IDX 21 1 20 2 19 3 18 4 17 5 15 6 16 7 14 8 10 9 11 10 12 11
REMARK SMILES IDX 13 12 91 13 89 14 90 15 9 16 7 17 8 18 6 20 1 21 2 22 3 23
REMARK SMILES IDX 4 24 5 25 22 26 23 27 24 28 25 29 26 30 27 31 88 32 28 33
REMARK SMILES IDX 87 34 29 35 30 36 31 37 81 38 32 39 86 40 80 41 82 42 33 43
REMARK SMILES IDX 85 44 79 45 78 46 34 48 66 49 46 50 65 51 47 52 50 53 64 54
REMARK SMILES IDX 83 55 48 56 49 57 63 59 84 60 51 61 35 62 36 63 44 64 37 65
REMARK SMILES IDX 39 66 45 67 38 68 40 69 41 70 42 71 43 72 67 73 68 74 76 75
REMARK SMILES IDX 69 76 71 77 77 78 70 79 72 80 73 81 74 82 75 83 52 84 53 85
REMARK SMILES IDX 61 86 54 87 56 88 62 89 55 90 57 91 58 92 59 93 60 94
REMARK H PARENT 9 19 82 47 50 58
REMARK Flexibility Score: inf
ROOT
ATOM      1  C   UNL A   1      39.273  21.360  26.095  1.00  0.00     0.202 C 
ENDROOT
BRANCH   1   2
ATOM      2  O   UNL A   1      38.160  21.841  25.355  1.00  0.00    -0.374 OA
BRANCH   2   3
ATOM      3  C   UNL A   1      37.302  22.738  26.099  1.00  0.00     0.202 C 
BRANCH   3   4
ATOM      4  C   UNL A   1      36.965  24.060  25.366  1.00  0.00     0.261 C 
BRANCH   4   5
ATOM      5  O   UNL A   1      35.644  24.050  24.747  1.00  0.00    -0.460 OA
BRANCH   5   6
ATOM      6  C   UNL A   1      35.541  23.341  23.565  1.00  0.00     0.341 C 
ATOM      7  O   UNL A   1      36.410  23.352  22.701  1.00  0.00    -0.246 OA
BRANCH   6   8
ATOM      8  C   UNL A   1      34.320  22.525  23.438  1.00  0.00     0.098 A 
ATOM      9  C   UNL A   1      33.243  22.816  22.595  1.00  0.00     0.110 A 
ATOM     10  S   UNL A   1      31.844  21.859  22.879  1.00  0.00    -0.122 S 
ATOM     11  C   UNL A   1      32.742  20.850  23.844  1.00  0.00     0.011 A 
ATOM     12  C   UNL A   1      34.023  21.277  24.078  1.00  0.00    -0.017 A 
ATOM     13  C   UNL A   1      32.393  19.547  24.451  1.00  0.00     0.047 C 
ATOM     14  C   UNL A   1      34.744  20.282  24.918  1.00  0.00     0.038 C 
ATOM     15  C   UNL A   1      33.808  19.028  24.831  1.00  0.00     0.010 C 
BRANCH   9  16
ATOM     16  N   UNL A   1      33.022  23.760  21.618  1.00  0.00    -0.317 N 
ATOM     17  C   UNL A   1      32.910  25.103  21.878  1.00  0.00     0.230 C 
ATOM     18  O   UNL A   1      33.335  25.877  21.008  1.00  0.00    -0.274 OA
ATOM     19  H   UNL A   1      32.940  23.457  20.685  1.00  0.00     0.170 HD
BRANCH  17  20
ATOM     20  C   UNL A   1      32.229  25.701  23.101  1.00  0.00     0.110 C 
ATOM     21  C   UNL A   1      32.799  26.882  25.245  1.00  0.00     0.039 C 
ATOM     22  C   UNL A   1      32.861  25.558  24.474  1.00  0.00     0.127 C 
ATOM     23  O   UNL A   1      32.074  24.630  25.232  1.00  0.00    -0.378 OA
ATOM     24  C   UNL A   1      30.805  24.484  24.616  1.00  0.00     0.161 C 
ATOM     25  C   UNL A   1      30.824  25.274  23.324  1.00  0.00     0.044 C 
ENDBRANCH  17  20
ENDBRANCH   9  16
ENDBRANCH   6   8
ENDBRANCH   5   6
ENDBRANCH   4   5
ENDBRANCH   3   4
ENDBRANCH   2   3
ENDBRANCH   1   2
BRANCH   1  26
ATOM     26  C   UNL A   1      39.793  19.961  25.764  1.00  0.00     0.261 C 
BRANCH  26  27
ATOM     27  O   UNL A   1      40.965  19.721  26.522  1.00  0.00    -0.460 OA
BRANCH  27  28
ATOM     28  C   UNL A   1      42.112  19.983  25.868  1.00  0.00     0.338 C 
ATOM     29  O   UNL A   1      42.669  19.298  25.020  1.00  0.00    -0.246 OA
BRANCH  28  30
ATOM     30  C   UNL A   1      42.686  21.148  26.520  1.00  0.00     0.060 A 
ATOM     31  C   UNL A   1      42.662  21.073  27.903  1.00  0.00     0.016 A 
ATOM     32  C   UNL A   1      42.899  22.353  25.819  1.00  0.00     0.016 A 
ATOM     33  C   UNL A   1      42.578  22.253  28.582  1.00  0.00     0.010 A 
ATOM     34  C   UNL A   1      42.848  23.540  26.510  1.00  0.00     0.010 A 
ATOM     35  C   UNL A   1      42.602  23.470  27.873  1.00  0.00    -0.014 A 
BRANCH  35  36
ATOM     36  C   UNL A   1      42.587  24.653  28.699  1.00  0.00     0.031 A 
ATOM     37  C   UNL A   1      41.395  25.470  28.382  1.00  0.00     0.074 A 
ATOM     38  C   UNL A   1      43.556  24.987  29.566  1.00  0.00     0.049 A 
ATOM     39  N   UNL A   1      41.376  26.543  27.666  1.00  0.00    -0.248 NA
ATOM     40  C   UNL A   1      40.074  24.865  28.610  1.00  0.00     0.031 C 
ATOM     41  C   UNL A   1      44.626  24.162  30.123  1.00  0.00     0.029 A 
ATOM     42  N   UNL A   1      43.707  26.167  30.216  1.00  0.00    -0.354 N 
ATOM     43  C   UNL A   1      40.034  26.877  27.553  1.00  0.00     0.074 A 
ATOM     44  C   UNL A   1      39.292  25.707  27.936  1.00  0.00     0.031 C 
ATOM     45  C   UNL A   1      45.135  24.787  31.213  1.00  0.00     0.029 A 
ATOM     46  C   UNL A   1      44.525  26.101  31.336  1.00  0.00     0.049 A 
ATOM     47  H   UNL A   1      43.274  27.000  29.920  1.00  0.00     0.167 HD
ATOM     48  C   UNL A   1      39.667  28.180  27.440  1.00  0.00     0.034 A 
ATOM     49  C   UNL A   1      44.590  27.036  32.318  1.00  0.00     0.034 A 
ATOM     50  C   UNL A   1      40.767  28.980  26.953  1.00  0.00     0.049 A 
ATOM     51  C   UNL A   1      44.049  28.300  31.756  1.00  0.00     0.074 A 
ATOM     52  C   UNL A   1      41.537  28.978  25.806  1.00  0.00     0.029 A 
ATOM     53  N   UNL A   1      41.484  29.686  27.890  1.00  0.00    -0.354 N 
ATOM     54  N   UNL A   1      44.650  28.983  30.822  1.00  0.00    -0.248 NA
ATOM     55  C   UNL A   1      42.625  28.557  31.903  1.00  0.00     0.031 C 
ATOM     56  C   UNL A   1      42.859  29.282  26.246  1.00  0.00     0.029 A 
ATOM     57  C   UNL A   1      42.816  29.522  27.620  1.00  0.00     0.049 A 
ATOM     58  H   UNL A   1      41.105  30.216  28.628  1.00  0.00     0.167 HD
ATOM     59  C   UNL A   1      43.623  29.379  29.974  1.00  0.00     0.074 A 
ATOM     60  C   UNL A   1      42.394  29.173  30.740  1.00  0.00     0.031 C 
ATOM     61  C   UNL A   1      43.844  29.550  28.638  1.00  0.00     0.034 A 
BRANCH  48  62
ATOM     62  C   UNL A   1      38.505  28.781  28.203  1.00  0.00     0.023 A 
ATOM     63  C   UNL A   1      37.589  29.551  27.452  1.00  0.00     0.012 A 
ATOM     64  C   UNL A   1      38.417  28.889  29.612  1.00  0.00     0.148 A 
ATOM     65  C   UNL A   1      36.712  30.451  28.065  1.00  0.00     0.002 A 
ATOM     66  C   UNL A   1      37.502  29.737  30.220  1.00  0.00     0.091 A 
ATOM     67  F   UNL A   1      39.288  28.262  30.401  1.00  0.00    -0.205 F 
ATOM     68  C   UNL A   1      36.672  30.549  29.450  1.00  0.00     0.022 A 
BRANCH  66  69
ATOM     69  S   UNL A   1      37.390  29.874  32.012  1.00  0.00     0.127 S 
ATOM     70  O   UNL A   1      37.344  28.470  32.409  1.00  0.00    -0.237 OA
ATOM     71  O   UNL A   1      38.637  30.571  32.329  1.00  0.00    -0.237 OA
ATOM     72  O   UNL A   1      36.187  30.651  32.284  1.00  0.00    -0.744 OA
ENDBRANCH  66  69
ENDBRANCH  48  62
BRANCH  49  73
ATOM     73  C   UNL A   1      44.773  26.872  33.781  1.00  0.00     0.023 A 
ATOM     74  C   UNL A   1      45.918  27.420  34.397  1.00  0.00     0.012 A 
ATOM     75  C   UNL A   1      43.702  26.472  34.609  1.00  0.00     0.148 A 
ATOM     76  C   UNL A   1      45.974  27.611  35.783  1.00  0.00     0.002 A 
ATOM     77  C   UNL A   1      43.763  26.662  35.987  1.00  0.00     0.091 A 
ATOM     78  F   UNL A   1      42.585  26.001  34.041  1.00  0.00    -0.205 F 
ATOM     79  C   UNL A   1      44.892  27.244  36.577  1.00  0.00     0.022 A 
BRANCH  77  80
ATOM     80  S   UNL A   1      42.385  26.255  37.069  1.00  0.00     0.127 S 
ATOM     81  O   UNL A   1      42.083  24.880  36.672  1.00  0.00    -0.237 OA
ATOM     82  O   UNL A   1      42.990  26.393  38.390  1.00  0.00    -0.237 OA
ATOM     83  O   UNL A   1      41.335  27.215  36.752  1.00  0.00    -0.744 OA
ENDBRANCH  77  80
ENDBRANCH  49  73
BRANCH  61  84
ATOM     84  C   UNL A   1      45.272  29.551  28.152  1.00  0.00     0.023 A 
ATOM     85  C   UNL A   1      46.096  30.697  28.187  1.00  0.00     0.012 A 
ATOM     86  C   UNL A   1      45.839  28.320  27.786  1.00  0.00     0.148 A 
ATOM     87  C   UNL A   1      47.449  30.616  27.838  1.00  0.00     0.002 A 
ATOM     88  C   UNL A   1      47.192  28.234  27.488  1.00  0.00     0.091 A 
ATOM     89  F   UNL A   1      45.042  27.241  27.755  1.00  0.00    -0.205 F 
ATOM     90  C   UNL A   1      48.000  29.381  27.502  1.00  0.00     0.022 A 
BRANCH  88  91
ATOM     91  S   UNL A   1      47.973  26.651  27.170  1.00  0.00     0.127 S 
ATOM     92  O   UNL A   1      49.381  27.025  27.048  1.00  0.00    -0.237 OA
ATOM     93  O   UNL A   1      47.644  25.890  28.377  1.00  0.00    -0.237 OA
ATOM     94  O   UNL A   1      47.351  26.136  25.957  1.00  0.00    -0.744 OA
ENDBRANCH  88  91
ENDBRANCH  61  84
ENDBRANCH  35  36
ENDBRANCH  28  30
ENDBRANCH  27  28
ENDBRANCH  26  27
ENDBRANCH   1  26
TORSDOF 19
ENDMDL
MODEL 3
REMARK VINA RESULT:     -11.6      2.906      7.220
REMARK SMILES C[C@H]1OCC[C@@H]1C(=O)Nc1sc2c(c1C(=O)OCCOCCOC(=O)c1ccc(-c3c4nc(c(-c5cccc(S(=O)(=O)[O-])c5F)c5ccc([nH]5)c(-c5cccc(S(=O)(=O)[O-])c5F)c5nc(c(-c6cccc(S(=O)(=O)[O-])c6F)c6ccc3[nH]6)C=C5)C=C4)cc1)CCC2
REMARK SMILES IDX 21 1 20 2 19 3 18 4 17 5 15 6 16 7 14 8 10 9 11 10 12 11
REMARK SMILES IDX 13 12 91 13 89 14 90 15 9 16 7 17 8 18 6 20 1 21 2 22 3 23
REMARK SMILES IDX 4 24 5 25 22 26 23 27 24 28 25 29 26 30 27 31 88 32 28 33
REMARK SMILES IDX 87 34 29 35 30 36 31 37 81 38 32 39 86 40 80 41 82 42 33 43
REMARK SMILES IDX 85 44 79 45 78 46 34 48 66 49 46 50 65 51 47 52 50 53 64 54
REMARK SMILES IDX 83 55 48 56 49 57 63 59 84 60 51 61 35 62 36 63 44 64 37 65
REMARK SMILES IDX 39 66 45 67 38 68 40 69 41 70 42 71 43 72 67 73 68 74 76 75
REMARK SMILES IDX 69 76 71 77 77 78 70 79 72 80 73 81 74 82 75 83 52 84 53 85
REMARK SMILES IDX 61 86 54 87 56 88 62 89 55 90 57 91 58 92 59 93 60 94
REMARK H PARENT 9 19 82 47 50 58
REMARK Flexibility Score: inf
ROOT
ATOM      1  C   UNL A   1      39.501  21.351  26.676  1.00  0.00     0.202 C 
ENDROOT
BRANCH   1   2
ATOM      2  O   UNL A   1      39.115  22.529  25.982  1.00  0.00    -0.374 OA
BRANCH   2   3
ATOM      3  C   UNL A   1      37.846  22.418  25.295  1.00  0.00     0.202 C 
BRANCH   3   4
ATOM      4  C   UNL A   1      36.788  23.463  25.727  1.00  0.00     0.261 C 
BRANCH   4   5
ATOM      5  O   UNL A   1      36.176  24.156  24.597  1.00  0.00    -0.460 OA
BRANCH   5   6
ATOM      6  C   UNL A   1      35.797  23.356  23.536  1.00  0.00     0.341 C 
ATOM      7  O   UNL A   1      36.544  23.084  22.603  1.00  0.00    -0.246 OA
BRANCH   6   8
ATOM      8  C   UNL A   1      34.431  22.810  23.631  1.00  0.00     0.098 A 
ATOM      9  C   UNL A   1      33.297  23.372  23.035  1.00  0.00     0.110 A 
ATOM     10  S   UNL A   1      31.810  22.692  23.563  1.00  0.00    -0.122 S 
ATOM     11  C   UNL A   1      32.645  21.454  24.290  1.00  0.00     0.011 A 
ATOM     12  C   UNL A   1      34.008  21.601  24.273  1.00  0.00    -0.017 A 
ATOM     13  C   UNL A   1      32.154  20.204  24.908  1.00  0.00     0.047 C 
ATOM     14  C   UNL A   1      34.651  20.421  24.913  1.00  0.00     0.038 C 
ATOM     15  C   UNL A   1      33.475  19.388  24.974  1.00  0.00     0.010 C 
BRANCH   9  16
ATOM     16  N   UNL A   1      33.096  24.413  22.158  1.00  0.00    -0.317 N 
ATOM     17  C   UNL A   1      33.390  25.720  22.457  1.00  0.00     0.230 C 
ATOM     18  O   UNL A   1      33.777  26.433  21.520  1.00  0.00    -0.274 OA
ATOM     19  H   UNL A   1      32.722  24.210  21.269  1.00  0.00     0.170 HD
BRANCH  17  20
ATOM     20  C   UNL A   1      33.190  26.369  23.819  1.00  0.00     0.110 C 
ATOM     21  C   UNL A   1      31.772  26.134  25.881  1.00  0.00     0.039 C 
ATOM     22  C   UNL A   1      31.794  26.518  24.398  1.00  0.00     0.127 C 
ATOM     23  O   UNL A   1      31.440  27.907  24.351  1.00  0.00    -0.378 OA
ATOM     24  C   UNL A   1      32.614  28.682  24.172  1.00  0.00     0.161 C 
ATOM     25  C   UNL A   1      33.772  27.727  23.974  1.00  0.00     0.044 C 
ENDBRANCH  17  20
ENDBRANCH   9  16
ENDBRANCH   6   8
ENDBRANCH   5   6
ENDBRANCH   4   5
ENDBRANCH   3   4
ENDBRANCH   2   3
ENDBRANCH   1   2
BRANCH   1  26
ATOM     26  C   UNL A   1      40.020  20.176  25.845  1.00  0.00     0.261 C 
BRANCH  26  27
ATOM     27  O   UNL A   1      41.218  19.701  26.431  1.00  0.00    -0.460 OA
BRANCH  27  28
ATOM     28  C   UNL A   1      42.333  20.019  25.748  1.00  0.00     0.338 C 
ATOM     29  O   UNL A   1      42.888  19.375  24.866  1.00  0.00    -0.246 OA
BRANCH  28  30
ATOM     30  C   UNL A   1      42.885  21.190  26.410  1.00  0.00     0.060 A 
ATOM     31  C   UNL A   1      42.897  21.087  27.791  1.00  0.00     0.016 A 
ATOM     32  C   UNL A   1      43.043  22.414  25.729  1.00  0.00     0.016 A 
ATOM     33  C   UNL A   1      42.791  22.250  28.497  1.00  0.00     0.010 A 
ATOM     34  C   UNL A   1      42.971  23.586  26.446  1.00  0.00     0.010 A 
ATOM     35  C   UNL A   1      42.760  23.481  27.812  1.00  0.00    -0.014 A 
BRANCH  35  36
ATOM     36  C   UNL A   1      42.727  24.646  28.662  1.00  0.00     0.031 A 
ATOM     37  C   UNL A   1      41.473  25.397  28.433  1.00  0.00     0.074 A 
ATOM     38  C   UNL A   1      43.725  25.021  29.477  1.00  0.00     0.049 A 
ATOM     39  N   UNL A   1      41.350  26.480  27.742  1.00  0.00    -0.248 NA
ATOM     40  C   UNL A   1      40.205  24.713  28.725  1.00  0.00     0.031 C 
ATOM     41  C   UNL A   1      44.872  24.250  29.953  1.00  0.00     0.029 A 
ATOM     42  N   UNL A   1      43.848  26.195  30.142  1.00  0.00    -0.354 N 
ATOM     43  C   UNL A   1      39.987  26.737  27.715  1.00  0.00     0.074 A 
ATOM     44  C   UNL A   1      39.337  25.520  28.116  1.00  0.00     0.031 C 
ATOM     45  C   UNL A   1      45.409  24.884  31.024  1.00  0.00     0.029 A 
ATOM     46  C   UNL A   1      44.733  26.158  31.210  1.00  0.00     0.049 A 
ATOM     47  H   UNL A   1      43.350  27.007  29.890  1.00  0.00     0.167 HD
ATOM     48  C   UNL A   1      39.540  28.019  27.651  1.00  0.00     0.034 A 
ATOM     49  C   UNL A   1      44.804  27.078  32.207  1.00  0.00     0.034 A 
ATOM     50  C   UNL A   1      40.562  28.890  27.118  1.00  0.00     0.049 A 
ATOM     51  C   UNL A   1      44.159  28.318  31.704  1.00  0.00     0.074 A 
ATOM     52  C   UNL A   1      41.261  28.953  25.928  1.00  0.00     0.029 A 
ATOM     53  N   UNL A   1      41.292  29.619  28.026  1.00  0.00    -0.354 N 
ATOM     54  N   UNL A   1      44.663  29.050  30.751  1.00  0.00    -0.248 NA
ATOM     55  C   UNL A   1      42.734  28.488  31.940  1.00  0.00     0.031 C 
ATOM     56  C   UNL A   1      42.587  29.325  26.295  1.00  0.00     0.029 A 
ATOM     57  C   UNL A   1      42.612  29.539  27.675  1.00  0.00     0.049 A 
ATOM     58  H   UNL A   1      40.928  30.114  28.795  1.00  0.00     0.167 HD
ATOM     59  C   UNL A   1      43.566  29.401  29.973  1.00  0.00     0.074 A 
ATOM     60  C   UNL A   1      42.399  29.111  30.805  1.00  0.00     0.031 C 
ATOM     61  C   UNL A   1      43.697  29.608  28.630  1.00  0.00     0.034 A 
BRANCH  48  62
ATOM     62  C   UNL A   1      38.393  28.537  28.494  1.00  0.00     0.023 A 
ATOM     63  C   UNL A   1      37.371  29.230  27.808  1.00  0.00     0.012 A 
ATOM     64  C   UNL A   1      38.398  28.650  29.906  1.00  0.00     0.148 A 
ATOM     65  C   UNL A   1      36.475  30.067  28.480  1.00  0.00     0.002 A 
ATOM     66  C   UNL A   1      37.468  29.432  30.575  1.00  0.00     0.091 A 
ATOM     67  F   UNL A   1      39.367  28.096  30.632  1.00  0.00    -0.205 F 
ATOM     68  C   UNL A   1      36.526  30.174  29.864  1.00  0.00     0.022 A 
BRANCH  66  69
ATOM     69  S   UNL A   1      37.473  29.576  32.370  1.00  0.00     0.127 S 
ATOM     70  O   UNL A   1      38.723  30.295  32.600  1.00  0.00    -0.237 OA
ATOM     71  O   UNL A   1      36.255  30.351  32.604  1.00  0.00    -0.237 OA
ATOM     72  O   UNL A   1      37.421  28.213  32.885  1.00  0.00    -0.744 OA
ENDBRANCH  66  69
ENDBRANCH  48  62
BRANCH  49  73
ATOM     73  C   UNL A   1      45.083  26.899  33.652  1.00  0.00     0.023 A 
ATOM     74  C   UNL A   1      46.106  27.661  34.255  1.00  0.00     0.012 A 
ATOM     75  C   UNL A   1      44.164  26.238  34.496  1.00  0.00     0.148 A 
ATOM     76  C   UNL A   1      46.180  27.803  35.646  1.00  0.00     0.002 A 
ATOM     77  C   UNL A   1      44.243  26.381  35.878  1.00  0.00     0.091 A 
ATOM     78  F   UNL A   1      43.153  25.555  33.944  1.00  0.00    -0.205 F 
ATOM     79  C   UNL A   1      45.241  27.173  36.457  1.00  0.00     0.022 A 
BRANCH  77  80
ATOM     80  S   UNL A   1      43.037  25.636  36.986  1.00  0.00     0.127 S 
ATOM     81  O   UNL A   1      42.158  26.766  37.284  1.00  0.00    -0.237 OA
ATOM     82  O   UNL A   1      42.445  24.606  36.137  1.00  0.00    -0.237 OA
ATOM     83  O   UNL A   1      43.797  25.150  38.131  1.00  0.00    -0.744 OA
ENDBRANCH  77  80
ENDBRANCH  49  73
BRANCH  61  84
ATOM     84  C   UNL A   1      45.090  29.701  28.061  1.00  0.00     0.023 A 
ATOM     85  C   UNL A   1      45.797  28.583  27.571  1.00  0.00     0.012 A 
ATOM     86  C   UNL A   1      45.639  30.981  27.884  1.00  0.00     0.148 A 
ATOM     87  C   UNL A   1      47.038  28.740  26.942  1.00  0.00     0.002 A 
ATOM     88  C   UNL A   1      46.846  31.138  27.216  1.00  0.00     0.091 A 
ATOM     89  F   UNL A   1      44.956  32.035  28.357  1.00  0.00    -0.205 F 
ATOM     90  C   UNL A   1      47.555  30.020  26.753  1.00  0.00     0.022 A 
BRANCH  88  91
ATOM     91  S   UNL A   1      47.493  32.767  26.839  1.00  0.00     0.127 S 
ATOM     92  O   UNL A   1      48.822  32.455  26.317  1.00  0.00    -0.237 OA
ATOM     93  O   UNL A   1      46.542  33.261  25.840  1.00  0.00    -0.237 OA
ATOM     94  O   UNL A   1      47.469  33.507  28.095  1.00  0.00    -0.744 OA
ENDBRANCH  88  91
ENDBRANCH  61  84
ENDBRANCH  35  36
ENDBRANCH  28  30
ENDBRANCH  27  28
ENDBRANCH  26  27
ENDBRANCH   1  26
TORSDOF 19
ENDMDL
