MODEL 1
REMARK VINA RESULT:     -11.0      0.000      0.000
REMARK SMILES Cc1nccn1CCC[NH+]1CCC2(CC1)[C@@H](C(=O)OCCOCCOC(=O)c1ccc(-c3c4nc(c(-c5cccc(S(=O)(=O)[O-])c5F)c5ccc([nH]5)c(-c5cccc(S(=O)(=O)[O-])c5F)c5nc(c(-c6cccc(S(=O)(=O)[O-])c6F)c6ccc3[nH]6)C=C5)C=C4)cc1)CC(=O)N2C
REMARK SMILES IDX 21 1 20 2 19 3 17 4 18 5 16 6 10 7 11 8 15 9 12 11 14 12
REMARK SMILES IDX 13 13 94 14 91 15 92 16 95 17 93 18 9 19 8 20 7 21 6 22 1 23
REMARK SMILES IDX 2 24 3 25 4 26 5 27 22 28 23 29 24 30 25 31 26 32 27 33
REMARK SMILES IDX 28 34 29 35 90 36 30 37 89 38 31 39 32 40 33 41 83 42 34 43
REMARK SMILES IDX 88 44 82 45 84 46 35 47 87 48 81 49 80 50 36 52 68 53 48 54
REMARK SMILES IDX 67 55 49 56 52 57 66 58 85 59 50 60 51 61 65 63 86 64 53 65
REMARK SMILES IDX 37 66 38 67 46 68 39 69 41 70 47 71 40 72 42 73 43 74 44 75
REMARK SMILES IDX 45 76 69 77 70 78 78 79 71 80 73 81 79 82 72 83 74 84 75 85
REMARK SMILES IDX 76 86 77 87 54 88 55 89 63 90 56 91 58 92 64 93 57 94 59 95
REMARK SMILES IDX 60 96 61 97 62 98
REMARK H PARENT 10 10 84 51 52 62
REMARK Flexibility Score: inf
ROOT
ATOM      1  C   UNL A   1      34.419  32.168  28.523  1.00  0.00     0.202 C 
ENDROOT
BRANCH   1   2
ATOM      2  C   UNL A   1      34.592  31.008  27.545  1.00  0.00     0.261 C 
BRANCH   2   3
ATOM      3  O   UNL A   1      33.342  30.612  26.934  1.00  0.00    -0.463 OA
BRANCH   3   4
ATOM      4  C   UNL A   1      33.206  29.331  26.532  1.00  0.00     0.311 C 
ATOM      5  O   UNL A   1      34.090  28.492  26.689  1.00  0.00    -0.252 OA
BRANCH   4   6
ATOM      6  C   UNL A   1      31.870  28.942  25.895  1.00  0.00     0.134 C 
ATOM      7  N   UNL A   1      32.179  24.921  24.630  1.00  0.00    -0.335 N 
ATOM      8  C   UNL A   1      30.830  25.291  24.975  1.00  0.00     0.264 C 
ATOM      9  C   UNL A   1      32.788  25.777  23.644  1.00  0.00     0.264 C 
ATOM     10  H   UNL A   1      32.064  24.049  24.113  1.00  0.00     0.348 HD
ATOM     11  C   UNL A   1      30.757  26.694  25.560  1.00  0.00     0.091 C 
ATOM     12  C   UNL A   1      32.835  27.233  24.114  1.00  0.00     0.091 C 
ATOM     13  C   UNL A   1      31.595  27.793  24.841  1.00  0.00     0.067 C 
ATOM     14  N   UNL A   1      30.719  28.491  23.861  1.00  0.00    -0.339 N 
ATOM     15  C   UNL A   1      31.278  30.227  25.316  1.00  0.00     0.118 C 
ATOM     16  C   UNL A   1      30.436  29.806  24.165  1.00  0.00     0.223 C 
ATOM     17  C   UNL A   1      30.149  27.895  22.665  1.00  0.00     0.147 C 
ATOM     18  O   UNL A   1      29.671  30.550  23.573  1.00  0.00    -0.275 OA
BRANCH   7  19
ATOM     19  C   UNL A   1      32.980  24.108  25.523  1.00  0.00     0.264 C 
BRANCH  19  20
ATOM     20  C   UNL A   1      34.447  24.463  25.813  1.00  0.00     0.083 C 
BRANCH  20  21
ATOM     21  C   UNL A   1      35.542  24.104  24.809  1.00  0.00     0.129 C 
BRANCH  21  22
ATOM     22  N   UNL A   1      36.311  22.882  24.865  1.00  0.00    -0.335 N 
ATOM     23  C   UNL A   1      38.296  23.824  26.189  1.00  0.00     0.087 C 
ATOM     24  C   UNL A   1      37.505  22.731  25.562  1.00  0.00     0.105 A 
ATOM     25  N   UNL A   1      37.842  21.459  25.637  1.00  0.00    -0.242 NA
ATOM     26  C   UNL A   1      36.858  20.771  24.993  1.00  0.00     0.131 A 
ATOM     27  C   UNL A   1      35.916  21.631  24.484  1.00  0.00     0.107 A 
ENDBRANCH  21  22
ENDBRANCH  20  21
ENDBRANCH  19  20
ENDBRANCH   7  19
ENDBRANCH   4   6
ENDBRANCH   3   4
ENDBRANCH   2   3
ENDBRANCH   1   2
BRANCH   1  28
ATOM     28  O   UNL A   1      33.730  33.316  28.029  1.00  0.00    -0.374 OA
BRANCH  28  29
ATOM     29  C   UNL A   1      34.208  34.605  28.396  1.00  0.00     0.202 C 
BRANCH  29  30
ATOM     30  C   UNL A   1      33.350  35.417  29.351  1.00  0.00     0.261 C 
BRANCH  30  31
ATOM     31  O   UNL A   1      32.916  34.650  30.462  1.00  0.00    -0.460 OA
BRANCH  31  32
ATOM     32  C   UNL A   1      33.159  35.226  31.665  1.00  0.00     0.338 C 
ATOM     33  O   UNL A   1      32.624  36.209  32.133  1.00  0.00    -0.246 OA
BRANCH  32  34
ATOM     34  C   UNL A   1      34.319  34.552  32.255  1.00  0.00     0.060 A 
ATOM     35  C   UNL A   1      35.368  35.352  32.697  1.00  0.00     0.016 A 
ATOM     36  C   UNL A   1      34.472  33.171  32.072  1.00  0.00     0.016 A 
ATOM     37  C   UNL A   1      36.624  34.791  32.713  1.00  0.00     0.010 A 
ATOM     38  C   UNL A   1      35.703  32.594  32.154  1.00  0.00     0.010 A 
ATOM     39  C   UNL A   1      36.770  33.446  32.340  1.00  0.00    -0.014 A 
BRANCH  39  40
ATOM     40  C   UNL A   1      38.094  32.903  32.206  1.00  0.00     0.031 A 
ATOM     41  C   UNL A   1      38.794  32.913  33.500  1.00  0.00     0.074 A 
ATOM     42  C   UNL A   1      38.555  32.397  31.048  1.00  0.00     0.049 A 
ATOM     43  N   UNL A   1      39.683  33.766  33.874  1.00  0.00    -0.248 NA
ATOM     44  C   UNL A   1      38.253  32.082  34.587  1.00  0.00     0.031 C 
ATOM     45  C   UNL A   1      37.818  32.084  29.818  1.00  0.00     0.029 A 
ATOM     46  N   UNL A   1      39.796  31.927  30.778  1.00  0.00    -0.354 N 
ATOM     47  C   UNL A   1      40.027  33.373  35.159  1.00  0.00     0.074 A 
ATOM     48  C   UNL A   1      38.948  32.547  35.628  1.00  0.00     0.031 C 
ATOM     49  C   UNL A   1      38.562  31.241  29.063  1.00  0.00     0.029 A 
ATOM     50  C   UNL A   1      39.861  31.068  29.689  1.00  0.00     0.049 A 
ATOM     51  H   UNL A   1      40.586  32.174  31.310  1.00  0.00     0.167 HD
ATOM     52  C   UNL A   1      41.316  33.484  35.576  1.00  0.00     0.034 A 
ATOM     53  C   UNL A   1      40.881  30.215  29.414  1.00  0.00     0.034 A 
ATOM     54  C   UNL A   1      42.060  34.381  34.722  1.00  0.00     0.049 A 
ATOM     55  C   UNL A   1      42.073  30.707  30.156  1.00  0.00     0.074 A 
ATOM     56  C   UNL A   1      41.894  35.692  34.317  1.00  0.00     0.029 A 
ATOM     57  N   UNL A   1      42.908  33.806  33.802  1.00  0.00    -0.354 N 
ATOM     58  N   UNL A   1      42.655  31.845  29.889  1.00  0.00    -0.248 NA
ATOM     59  C   UNL A   1      42.290  30.192  31.500  1.00  0.00     0.031 C 
ATOM     60  C   UNL A   1      42.247  35.696  32.935  1.00  0.00     0.029 A 
ATOM     61  C   UNL A   1      42.694  34.418  32.595  1.00  0.00     0.049 A 
ATOM     62  H   UNL A   1      43.552  33.083  33.979  1.00  0.00     0.167 HD
ATOM     63  C   UNL A   1      42.894  32.408  31.137  1.00  0.00     0.074 A 
ATOM     64  C   UNL A   1      42.730  31.308  32.090  1.00  0.00     0.031 C 
ATOM     65  C   UNL A   1      42.885  33.762  31.319  1.00  0.00     0.034 A 
BRANCH  52  66
ATOM     66  C   UNL A   1      42.003  32.471  36.459  1.00  0.00     0.023 A 
ATOM     67  C   UNL A   1      42.805  32.981  37.500  1.00  0.00     0.012 A 
ATOM     68  C   UNL A   1      42.136  31.092  36.163  1.00  0.00     0.148 A 
ATOM     69  C   UNL A   1      43.742  32.181  38.160  1.00  0.00     0.002 A 
ATOM     70  C   UNL A   1      43.011  30.284  36.874  1.00  0.00     0.091 A 
ATOM     71  F   UNL A   1      41.526  30.563  35.103  1.00  0.00    -0.205 F 
ATOM     72  C   UNL A   1      43.843  30.831  37.851  1.00  0.00     0.022 A 
BRANCH  70  73
ATOM     73  S   UNL A   1      43.147  28.523  36.537  1.00  0.00     0.127 S 
ATOM     74  O   UNL A   1      43.720  28.527  35.194  1.00  0.00    -0.237 OA
ATOM     75  O   UNL A   1      44.053  28.089  37.600  1.00  0.00    -0.237 OA
ATOM     76  O   UNL A   1      41.795  27.991  36.652  1.00  0.00    -0.744 OA
ENDBRANCH  70  73
ENDBRANCH  52  66
BRANCH  53  77
ATOM     77  C   UNL A   1      40.811  28.838  28.860  1.00  0.00     0.023 A 
ATOM     78  C   UNL A   1      39.767  27.973  29.248  1.00  0.00     0.012 A 
ATOM     79  C   UNL A   1      41.598  28.462  27.748  1.00  0.00     0.148 A 
ATOM     80  C   UNL A   1      39.504  26.790  28.541  1.00  0.00     0.002 A 
ATOM     81  C   UNL A   1      41.342  27.281  27.055  1.00  0.00     0.091 A 
ATOM     82  F   UNL A   1      42.537  29.306  27.305  1.00  0.00    -0.205 F 
ATOM     83  C   UNL A   1      40.287  26.447  27.442  1.00  0.00     0.022 A 
BRANCH  81  84
ATOM     84  S   UNL A   1      42.307  26.794  25.617  1.00  0.00     0.127 S 
ATOM     85  O   UNL A   1      43.610  26.499  26.213  1.00  0.00    -0.237 OA
ATOM     86  O   UNL A   1      41.571  25.627  25.140  1.00  0.00    -0.237 OA
ATOM     87  O   UNL A   1      42.303  27.949  24.726  1.00  0.00    -0.744 OA
ENDBRANCH  81  84
ENDBRANCH  53  77
BRANCH  65  88
ATOM     88  C   UNL A   1      42.843  34.653  30.102  1.00  0.00     0.023 A 
ATOM     89  C   UNL A   1      41.638  35.081  29.503  1.00  0.00     0.012 A 
ATOM     90  C   UNL A   1      44.052  35.223  29.671  1.00  0.00     0.148 A 
ATOM     91  C   UNL A   1      41.646  36.044  28.488  1.00  0.00     0.002 A 
ATOM     92  C   UNL A   1      44.052  36.212  28.696  1.00  0.00     0.091 A 
ATOM     93  F   UNL A   1      45.188  34.808  30.253  1.00  0.00    -0.205 F 
ATOM     94  C   UNL A   1      42.851  36.620  28.094  1.00  0.00     0.022 A 
BRANCH  92  95
ATOM     95  S   UNL A   1      45.556  37.075  28.241  1.00  0.00     0.127 S 
ATOM     96  O   UNL A   1      46.391  35.986  27.738  1.00  0.00    -0.237 OA
ATOM     97  O   UNL A   1      45.086  38.009  27.219  1.00  0.00    -0.237 OA
ATOM     98  O   UNL A   1      46.034  37.719  29.459  1.00  0.00    -0.744 OA
ENDBRANCH  92  95
ENDBRANCH  65  88
ENDBRANCH  39  40
ENDBRANCH  32  34
ENDBRANCH  31  32
ENDBRANCH  30  31
ENDBRANCH  29  30
ENDBRANCH  28  29
ENDBRANCH   1  28
TORSDOF 21
ENDMDL
MODEL 2
REMARK VINA RESULT:     -10.9      2.976      8.467
REMARK SMILES Cc1nccn1CCC[NH+]1CCC2(CC1)[C@@H](C(=O)OCCOCCOC(=O)c1ccc(-c3c4nc(c(-c5cccc(S(=O)(=O)[O-])c5F)c5ccc([nH]5)c(-c5cccc(S(=O)(=O)[O-])c5F)c5nc(c(-c6cccc(S(=O)(=O)[O-])c6F)c6ccc3[nH]6)C=C5)C=C4)cc1)CC(=O)N2C
REMARK SMILES IDX 21 1 20 2 19 3 17 4 18 5 16 6 10 7 11 8 15 9 12 11 14 12
REMARK SMILES IDX 13 13 94 14 91 15 92 16 95 17 93 18 9 19 8 20 7 21 6 22 1 23
REMARK SMILES IDX 2 24 3 25 4 26 5 27 22 28 23 29 24 30 25 31 26 32 27 33
REMARK SMILES IDX 28 34 29 35 90 36 30 37 89 38 31 39 32 40 33 41 83 42 34 43
REMARK SMILES IDX 88 44 82 45 84 46 35 47 87 48 81 49 80 50 36 52 68 53 48 54
REMARK SMILES IDX 67 55 49 56 52 57 66 58 85 59 50 60 51 61 65 63 86 64 53 65
REMARK SMILES IDX 37 66 38 67 46 68 39 69 41 70 47 71 40 72 42 73 43 74 44 75
REMARK SMILES IDX 45 76 69 77 70 78 78 79 71 80 73 81 79 82 72 83 74 84 75 85
REMARK SMILES IDX 76 86 77 87 54 88 55 89 63 90 56 91 58 92 64 93 57 94 59 95
REMARK SMILES IDX 60 96 61 97 62 98
REMARK H PARENT 10 10 84 51 52 62
REMARK Flexibility Score: inf
ROOT
ATOM      1  C   UNL A   1      36.502  22.955  23.292  1.00  0.00     0.202 C 
ENDROOT
BRANCH   1   2
ATOM      2  C   UNL A   1      35.140  23.587  23.570  1.00  0.00     0.261 C 
BRANCH   2   3
ATOM      3  O   UNL A   1      34.281  23.578  22.405  1.00  0.00    -0.463 OA
BRANCH   3   4
ATOM      4  C   UNL A   1      33.688  24.734  22.041  1.00  0.00     0.311 C 
ATOM      5  O   UNL A   1      33.254  24.924  20.907  1.00  0.00    -0.252 OA
BRANCH   4   6
ATOM      6  C   UNL A   1      33.537  25.806  23.122  1.00  0.00     0.134 C 
ATOM      7  N   UNL A   1      31.052  24.227  26.155  1.00  0.00    -0.335 N 
ATOM      8  C   UNL A   1      31.995  25.193  26.658  1.00  0.00     0.264 C 
ATOM      9  C   UNL A   1      30.232  24.715  25.075  1.00  0.00     0.264 C 
ATOM     10  H   UNL A   1      30.374  24.136  26.912  1.00  0.00     0.348 HD
ATOM     11  C   UNL A   1      32.973  25.647  25.584  1.00  0.00     0.091 C 
ATOM     12  C   UNL A   1      31.080  25.169  23.884  1.00  0.00     0.091 C 
ATOM     13  C   UNL A   1      32.370  25.961  24.181  1.00  0.00     0.067 C 
ATOM     14  N   UNL A   1      32.087  27.419  24.102  1.00  0.00    -0.339 N 
ATOM     15  C   UNL A   1      33.674  27.154  22.413  1.00  0.00     0.118 C 
ATOM     16  C   UNL A   1      32.876  28.119  23.214  1.00  0.00     0.223 C 
ATOM     17  C   UNL A   1      31.087  28.127  24.883  1.00  0.00     0.147 C 
ATOM     18  O   UNL A   1      32.899  29.328  23.045  1.00  0.00    -0.275 OA
BRANCH   7  19
ATOM     19  C   UNL A   1      31.254  22.808  26.368  1.00  0.00     0.264 C 
BRANCH  19  20
ATOM     20  C   UNL A   1      32.661  22.238  26.604  1.00  0.00     0.083 C 
BRANCH  20  21
ATOM     21  C   UNL A   1      33.333  21.373  25.538  1.00  0.00     0.129 C 
BRANCH  21  22
ATOM     22  N   UNL A   1      32.819  20.095  25.101  1.00  0.00    -0.335 N 
ATOM     23  C   UNL A   1      32.154  20.820  22.732  1.00  0.00     0.087 C 
ATOM     24  C   UNL A   1      32.373  19.822  23.812  1.00  0.00     0.105 A 
ATOM     25  N   UNL A   1      32.200  18.525  23.646  1.00  0.00    -0.242 NA
ATOM     26  C   UNL A   1      32.544  17.945  24.830  1.00  0.00     0.131 A 
ATOM     27  C   UNL A   1      32.902  18.897  25.752  1.00  0.00     0.107 A 
ENDBRANCH  21  22
ENDBRANCH  20  21
ENDBRANCH  19  20
ENDBRANCH   7  19
ENDBRANCH   4   6
ENDBRANCH   3   4
ENDBRANCH   2   3
ENDBRANCH   1   2
BRANCH   1  28
ATOM     28  O   UNL A   1      36.765  21.708  23.935  1.00  0.00    -0.374 OA
BRANCH  28  29
ATOM     29  C   UNL A   1      37.079  21.711  25.323  1.00  0.00     0.202 C 
BRANCH  29  30
ATOM     30  C   UNL A   1      38.550  21.716  25.702  1.00  0.00     0.261 C 
BRANCH  30  31
ATOM     31  O   UNL A   1      38.891  22.836  26.503  1.00  0.00    -0.460 OA
BRANCH  31  32
ATOM     32  C   UNL A   1      40.112  22.751  27.087  1.00  0.00     0.338 C 
ATOM     33  O   UNL A   1      40.642  21.761  27.546  1.00  0.00    -0.246 OA
BRANCH  32  34
ATOM     34  C   UNL A   1      40.634  24.114  27.227  1.00  0.00     0.060 A 
ATOM     35  C   UNL A   1      41.657  24.316  28.147  1.00  0.00     0.016 A 
ATOM     36  C   UNL A   1      39.904  25.183  26.689  1.00  0.00     0.016 A 
ATOM     37  C   UNL A   1      41.768  25.570  28.699  1.00  0.00     0.010 A 
ATOM     38  C   UNL A   1      40.057  26.443  27.184  1.00  0.00     0.010 A 
ATOM     39  C   UNL A   1      40.891  26.579  28.273  1.00  0.00    -0.014 A 
BRANCH  39  40
ATOM     40  C   UNL A   1      40.901  27.843  28.957  1.00  0.00     0.031 A 
ATOM     41  C   UNL A   1      41.925  28.733  28.390  1.00  0.00     0.074 A 
ATOM     42  C   UNL A   1      40.019  28.148  29.927  1.00  0.00     0.049 A 
ATOM     43  N   UNL A   1      43.085  28.975  28.897  1.00  0.00    -0.248 NA
ATOM     44  C   UNL A   1      41.772  29.166  26.992  1.00  0.00     0.031 C 
ATOM     45  C   UNL A   1      38.801  27.435  30.326  1.00  0.00     0.029 A 
ATOM     46  N   UNL A   1      39.972  29.266  30.689  1.00  0.00    -0.354 N 
ATOM     47  C   UNL A   1      43.684  29.847  28.002  1.00  0.00     0.074 A 
ATOM     48  C   UNL A   1      42.973  29.700  26.761  1.00  0.00     0.031 C 
ATOM     49  C   UNL A   1      38.017  28.273  31.045  1.00  0.00     0.029 A 
ATOM     50  C   UNL A   1      38.734  29.517  31.265  1.00  0.00     0.049 A 
ATOM     51  H   UNL A   1      40.752  29.852  30.823  1.00  0.00     0.167 HD
ATOM     52  C   UNL A   1      44.478  30.848  28.465  1.00  0.00     0.034 A 
ATOM     53  C   UNL A   1      38.327  30.706  31.779  1.00  0.00     0.034 A 
ATOM     54  C   UNL A   1      44.891  30.593  29.826  1.00  0.00     0.049 A 
ATOM     55  C   UNL A   1      39.552  31.498  32.067  1.00  0.00     0.074 A 
ATOM     56  C   UNL A   1      45.537  29.550  30.461  1.00  0.00     0.029 A 
ATOM     57  N   UNL A   1      44.242  31.294  30.816  1.00  0.00    -0.354 N 
ATOM     58  N   UNL A   1      40.427  31.151  32.972  1.00  0.00    -0.248 NA
ATOM     59  C   UNL A   1      40.052  32.370  31.014  1.00  0.00     0.031 C 
ATOM     60  C   UNL A   1      44.853  29.397  31.704  1.00  0.00     0.029 A 
ATOM     61  C   UNL A   1      43.893  30.406  31.799  1.00  0.00     0.049 A 
ATOM     62  H   UNL A   1      44.059  32.262  30.817  1.00  0.00     0.167 HD
ATOM     63  C   UNL A   1      41.656  31.351  32.355  1.00  0.00     0.074 A 
ATOM     64  C   UNL A   1      41.365  32.186  31.186  1.00  0.00     0.031 C 
ATOM     65  C   UNL A   1      42.736  30.570  32.654  1.00  0.00     0.034 A 
BRANCH  52  66
ATOM     66  C   UNL A   1      44.518  32.233  27.866  1.00  0.00     0.023 A 
ATOM     67  C   UNL A   1      45.658  32.558  27.102  1.00  0.00     0.012 A 
ATOM     68  C   UNL A   1      43.665  33.302  28.233  1.00  0.00     0.148 A 
ATOM     69  C   UNL A   1      45.971  33.883  26.785  1.00  0.00     0.002 A 
ATOM     70  C   UNL A   1      43.938  34.607  27.849  1.00  0.00     0.091 A 
ATOM     71  F   UNL A   1      42.650  33.104  29.074  1.00  0.00    -0.205 F 
ATOM     72  C   UNL A   1      45.109  34.908  27.153  1.00  0.00     0.022 A 
BRANCH  70  73
ATOM     73  S   UNL A   1      42.832  35.961  28.268  1.00  0.00     0.127 S 
ATOM     74  O   UNL A   1      41.660  35.641  27.457  1.00  0.00    -0.237 OA
ATOM     75  O   UNL A   1      42.665  35.770  29.708  1.00  0.00    -0.237 OA
ATOM     76  O   UNL A   1      43.543  37.181  27.906  1.00  0.00    -0.744 OA
ENDBRANCH  70  73
ENDBRANCH  52  66
BRANCH  53  77
ATOM     77  C   UNL A   1      36.982  31.333  31.706  1.00  0.00     0.023 A 
ATOM     78  C   UNL A   1      36.384  31.860  32.870  1.00  0.00     0.012 A 
ATOM     79  C   UNL A   1      36.403  31.667  30.461  1.00  0.00     0.148 A 
ATOM     80  C   UNL A   1      35.266  32.703  32.794  1.00  0.00     0.002 A 
ATOM     81  C   UNL A   1      35.286  32.496  30.389  1.00  0.00     0.091 A 
ATOM     82  F   UNL A   1      37.002  31.255  29.337  1.00  0.00    -0.205 F 
ATOM     83  C   UNL A   1      34.720  33.026  31.554  1.00  0.00     0.022 A 
BRANCH  81  84
ATOM     84  S   UNL A   1      34.548  32.963  28.816  1.00  0.00     0.127 S 
ATOM     85  O   UNL A   1      33.502  33.896  29.238  1.00  0.00    -0.237 OA
ATOM     86  O   UNL A   1      35.676  33.578  28.123  1.00  0.00    -0.237 OA
ATOM     87  O   UNL A   1      34.046  31.726  28.229  1.00  0.00    -0.744 OA
ENDBRANCH  81  84
ENDBRANCH  53  77
BRANCH  65  88
ATOM     88  C   UNL A   1      42.646  29.635  33.834  1.00  0.00     0.023 A 
ATOM     89  C   UNL A   1      42.042  28.360  33.761  1.00  0.00     0.012 A 
ATOM     90  C   UNL A   1      43.357  29.979  34.994  1.00  0.00     0.148 A 
ATOM     91  C   UNL A   1      42.136  27.461  34.828  1.00  0.00     0.002 A 
ATOM     92  C   UNL A   1      43.488  29.068  36.033  1.00  0.00     0.091 A 
ATOM     93  F   UNL A   1      43.928  31.193  35.047  1.00  0.00    -0.205 F 
ATOM     94  C   UNL A   1      42.872  27.808  35.959  1.00  0.00     0.022 A 
BRANCH  92  95
ATOM     95  S   UNL A   1      44.525  29.413  37.454  1.00  0.00     0.127 S 
ATOM     96  O   UNL A   1      43.780  30.477  38.123  1.00  0.00    -0.237 OA
ATOM     97  O   UNL A   1      44.530  28.132  38.160  1.00  0.00    -0.237 OA
ATOM     98  O   UNL A   1      45.825  29.801  36.918  1.00  0.00    -0.744 OA
ENDBRANCH  92  95
ENDBRANCH  65  88
ENDBRANCH  39  40
ENDBRANCH  32  34
ENDBRANCH  31  32
ENDBRANCH  30  31
ENDBRANCH  29  30
ENDBRANCH  28  29
ENDBRANCH   1  28
TORSDOF 21
ENDMDL
MODEL 3
REMARK VINA RESULT:     -10.5      5.069     11.091
REMARK SMILES Cc1nccn1CCC[NH+]1CCC2(CC1)[C@@H](C(=O)OCCOCCOC(=O)c1ccc(-c3c4nc(c(-c5cccc(S(=O)(=O)[O-])c5F)c5ccc([nH]5)c(-c5cccc(S(=O)(=O)[O-])c5F)c5nc(c(-c6cccc(S(=O)(=O)[O-])c6F)c6ccc3[nH]6)C=C5)C=C4)cc1)CC(=O)N2C
REMARK SMILES IDX 21 1 20 2 19 3 17 4 18 5 16 6 10 7 11 8 15 9 12 11 14 12
REMARK SMILES IDX 13 13 94 14 91 15 92 16 95 17 93 18 9 19 8 20 7 21 6 22 1 23
REMARK SMILES IDX 2 24 3 25 4 26 5 27 22 28 23 29 24 30 25 31 26 32 27 33
REMARK SMILES IDX 28 34 29 35 90 36 30 37 89 38 31 39 32 40 33 41 83 42 34 43
REMARK SMILES IDX 88 44 82 45 84 46 35 47 87 48 81 49 80 50 36 52 68 53 48 54
REMARK SMILES IDX 67 55 49 56 52 57 66 58 85 59 50 60 51 61 65 63 86 64 53 65
REMARK SMILES IDX 37 66 38 67 46 68 39 69 41 70 47 71 40 72 42 73 43 74 44 75
REMARK SMILES IDX 45 76 69 77 70 78 78 79 71 80 73 81 79 82 72 83 74 84 75 85
REMARK SMILES IDX 76 86 77 87 54 88 55 89 63 90 56 91 58 92 64 93 57 94 59 95
REMARK SMILES IDX 60 96 61 97 62 98
REMARK H PARENT 10 10 84 51 52 62
REMARK Flexibility Score: inf
ROOT
ATOM      1  C   UNL A   1      41.254  20.398  26.821  1.00  0.00     0.202 C 
ENDROOT
BRANCH   1   2
ATOM      2  C   UNL A   1      40.332  21.529  26.371  1.00  0.00     0.261 C 
BRANCH   2   3
ATOM      3  O   UNL A   1      39.130  21.039  25.734  1.00  0.00    -0.463 OA
BRANCH   3   4
ATOM      4  C   UNL A   1      38.076  21.875  25.630  1.00  0.00     0.311 C 
ATOM      5  O   UNL A   1      38.094  23.019  26.081  1.00  0.00    -0.252 OA
BRANCH   4   6
ATOM      6  C   UNL A   1      36.847  21.353  24.884  1.00  0.00     0.134 C 
ATOM      7  N   UNL A   1      33.677  24.060  25.590  1.00  0.00    -0.335 N 
ATOM      8  C   UNL A   1      33.563  23.392  24.318  1.00  0.00     0.264 C 
ATOM      9  C   UNL A   1      33.797  23.165  26.713  1.00  0.00     0.264 C 
ATOM     10  H   UNL A   1      32.750  24.460  25.735  1.00  0.00     0.348 HD
ATOM     11  C   UNL A   1      34.779  22.529  24.018  1.00  0.00     0.091 C 
ATOM     12  C   UNL A   1      35.020  22.254  26.580  1.00  0.00     0.091 C 
ATOM     13  C   UNL A   1      35.323  21.658  25.190  1.00  0.00     0.067 C 
ATOM     14  N   UNL A   1      34.722  20.301  25.089  1.00  0.00    -0.339 N 
ATOM     15  C   UNL A   1      36.992  19.833  24.824  1.00  0.00     0.118 C 
ATOM     16  C   UNL A   1      35.608  19.292  24.774  1.00  0.00     0.223 C 
ATOM     17  C   UNL A   1      33.316  19.985  25.275  1.00  0.00     0.147 C 
ATOM     18  O   UNL A   1      35.341  18.124  24.543  1.00  0.00    -0.275 OA
BRANCH   7  19
ATOM     19  C   UNL A   1      34.118  25.437  25.671  1.00  0.00     0.264 C 
BRANCH  19  20
ATOM     20  C   UNL A   1      33.115  26.596  25.548  1.00  0.00     0.083 C 
BRANCH  20  21
ATOM     21  C   UNL A   1      32.944  27.331  24.219  1.00  0.00     0.129 C 
BRANCH  21  22
ATOM     22  N   UNL A   1      32.549  26.682  22.989  1.00  0.00    -0.335 N 
ATOM     23  C   UNL A   1      30.079  27.371  23.050  1.00  0.00     0.087 C 
ATOM     24  C   UNL A   1      31.285  26.775  22.416  1.00  0.00     0.105 A 
ATOM     25  N   UNL A   1      31.294  26.292  21.190  1.00  0.00    -0.242 NA
ATOM     26  C   UNL A   1      32.574  25.888  20.954  1.00  0.00     0.131 A 
ATOM     27  C   UNL A   1      33.360  26.093  22.061  1.00  0.00     0.107 A 
ENDBRANCH  21  22
ENDBRANCH  20  21
ENDBRANCH  19  20
ENDBRANCH   7  19
ENDBRANCH   4   6
ENDBRANCH   3   4
ENDBRANCH   2   3
ENDBRANCH   1   2
BRANCH   1  28
ATOM     28  O   UNL A   1      41.499  19.363  25.869  1.00  0.00    -0.374 OA
BRANCH  28  29
ATOM     29  C   UNL A   1      42.578  18.465  26.104  1.00  0.00     0.202 C 
BRANCH  29  30
ATOM     30  C   UNL A   1      43.807  18.612  25.224  1.00  0.00     0.261 C 
BRANCH  30  31
ATOM     31  O   UNL A   1      44.438  19.871  25.396  1.00  0.00    -0.460 OA
BRANCH  31  32
ATOM     32  C   UNL A   1      44.559  20.593  24.254  1.00  0.00     0.338 C 
ATOM     33  O   UNL A   1      44.527  20.179  23.114  1.00  0.00    -0.246 OA
BRANCH  32  34
ATOM     34  C   UNL A   1      44.911  21.965  24.630  1.00  0.00     0.060 A 
ATOM     35  C   UNL A   1      45.952  22.134  25.537  1.00  0.00     0.016 A 
ATOM     36  C   UNL A   1      44.021  23.005  24.327  1.00  0.00     0.016 A 
ATOM     37  C   UNL A   1      45.933  23.271  26.311  1.00  0.00     0.010 A 
ATOM     38  C   UNL A   1      44.040  24.163  25.044  1.00  0.00     0.010 A 
ATOM     39  C   UNL A   1      44.912  24.211  26.111  1.00  0.00    -0.014 A 
BRANCH  39  40
ATOM     40  C   UNL A   1      44.800  25.320  27.018  1.00  0.00     0.031 A 
ATOM     41  C   UNL A   1      46.006  26.160  26.964  1.00  0.00     0.074 A 
ATOM     42  C   UNL A   1      43.689  25.554  27.740  1.00  0.00     0.049 A 
ATOM     43  N   UNL A   1      46.971  26.157  27.818  1.00  0.00    -0.248 NA
ATOM     44  C   UNL A   1      46.313  26.853  25.703  1.00  0.00     0.031 C 
ATOM     45  C   UNL A   1      42.361  24.942  27.619  1.00  0.00     0.029 A 
ATOM     46  N   UNL A   1      43.490  26.514  28.675  1.00  0.00    -0.354 N 
ATOM     47  C   UNL A   1      47.871  27.093  27.333  1.00  0.00     0.074 A 
ATOM     48  C   UNL A   1      47.561  27.263  25.939  1.00  0.00     0.031 C 
ATOM     49  C   UNL A   1      41.456  25.729  28.246  1.00  0.00     0.029 A 
ATOM     50  C   UNL A   1      42.155  26.813  28.916  1.00  0.00     0.049 A 
ATOM     51  H   UNL A   1      44.230  26.962  29.144  1.00  0.00     0.167 HD
ATOM     52  C   UNL A   1      48.554  27.885  28.201  1.00  0.00     0.034 A 
ATOM     53  C   UNL A   1      41.693  27.931  29.531  1.00  0.00     0.034 A 
ATOM     54  C   UNL A   1      48.517  27.339  29.538  1.00  0.00     0.049 A 
ATOM     55  C   UNL A   1      42.825  28.497  30.314  1.00  0.00     0.074 A 
ATOM     56  C   UNL A   1      48.868  26.124  30.097  1.00  0.00     0.029 A 
ATOM     57  N   UNL A   1      47.648  27.927  30.428  1.00  0.00    -0.354 N 
ATOM     58  N   UNL A   1      43.358  27.883  31.336  1.00  0.00    -0.248 NA
ATOM     59  C   UNL A   1      43.678  29.473  29.653  1.00  0.00     0.031 C 
ATOM     60  C   UNL A   1      47.831  25.839  31.034  1.00  0.00     0.029 A 
ATOM     61  C   UNL A   1      46.958  26.928  31.063  1.00  0.00     0.049 A 
ATOM     62  H   UNL A   1      47.539  28.894  30.580  1.00  0.00     0.167 HD
ATOM     63  C   UNL A   1      44.728  28.034  31.148  1.00  0.00     0.074 A 
ATOM     64  C   UNL A   1      44.862  29.095  30.147  1.00  0.00     0.031 C 
ATOM     65  C   UNL A   1      45.611  27.081  31.570  1.00  0.00     0.034 A 
BRANCH  52  66
ATOM     66  C   UNL A   1      48.867  29.339  27.942  1.00  0.00     0.023 A 
ATOM     67  C   UNL A   1      47.806  30.253  28.111  1.00  0.00     0.012 A 
ATOM     68  C   UNL A   1      50.027  29.817  27.286  1.00  0.00     0.148 A 
ATOM     69  C   UNL A   1      47.868  31.548  27.589  1.00  0.00     0.002 A 
ATOM     70  C   UNL A   1      50.115  31.127  26.839  1.00  0.00     0.091 A 
ATOM     71  F   UNL A   1      51.013  28.983  26.957  1.00  0.00    -0.205 F 
ATOM     72  C   UNL A   1      49.024  31.988  26.957  1.00  0.00     0.022 A 
BRANCH  70  73
ATOM     73  S   UNL A   1      51.605  31.753  26.052  1.00  0.00     0.127 S 
ATOM     74  O   UNL A   1      51.681  30.910  24.861  1.00  0.00    -0.237 OA
ATOM     75  O   UNL A   1      51.244  33.149  25.805  1.00  0.00    -0.237 OA
ATOM     76  O   UNL A   1      52.674  31.577  27.027  1.00  0.00    -0.744 OA
ENDBRANCH  70  73
ENDBRANCH  52  66
BRANCH  53  77
ATOM     77  C   UNL A   1      40.479  28.727  29.214  1.00  0.00     0.023 A 
ATOM     78  C   UNL A   1      40.042  28.847  27.878  1.00  0.00     0.012 A 
ATOM     79  C   UNL A   1      39.592  29.136  30.235  1.00  0.00     0.148 A 
ATOM     80  C   UNL A   1      38.763  29.336  27.574  1.00  0.00     0.002 A 
ATOM     81  C   UNL A   1      38.327  29.632  29.930  1.00  0.00     0.091 A 
ATOM     82  F   UNL A   1      39.945  28.950  31.513  1.00  0.00    -0.205 F 
ATOM     83  C   UNL A   1      37.904  29.723  28.599  1.00  0.00     0.022 A 
BRANCH  81  84
ATOM     84  S   UNL A   1      37.165  30.130  31.211  1.00  0.00     0.127 S 
ATOM     85  O   UNL A   1      37.940  31.126  31.951  1.00  0.00    -0.237 OA
ATOM     86  O   UNL A   1      36.061  30.670  30.424  1.00  0.00    -0.237 OA
ATOM     87  O   UNL A   1      36.867  28.920  31.969  1.00  0.00    -0.744 OA
ENDBRANCH  81  84
ENDBRANCH  53  77
BRANCH  65  88
ATOM     88  C   UNL A   1      45.104  25.967  32.453  1.00  0.00     0.023 A 
ATOM     89  C   UNL A   1      44.701  24.710  31.950  1.00  0.00     0.012 A 
ATOM     90  C   UNL A   1      45.218  26.134  33.842  1.00  0.00     0.148 A 
ATOM     91  C   UNL A   1      44.405  23.654  32.818  1.00  0.00     0.002 A 
ATOM     92  C   UNL A   1      44.969  25.071  34.698  1.00  0.00     0.091 A 
ATOM     93  F   UNL A   1      45.606  27.334  34.303  1.00  0.00    -0.205 F 
ATOM     94  C   UNL A   1      44.553  23.829  34.192  1.00  0.00     0.022 A 
BRANCH  92  95
ATOM     95  S   UNL A   1      45.265  25.203  36.462  1.00  0.00     0.127 S 
ATOM     96  O   UNL A   1      44.688  23.957  36.962  1.00  0.00    -0.237 OA
ATOM     97  O   UNL A   1      46.724  25.273  36.532  1.00  0.00    -0.237 OA
ATOM     98  O   UNL A   1      44.590  26.422  36.893  1.00  0.00    -0.744 OA
ENDBRANCH  92  95
ENDBRANCH  65  88
ENDBRANCH  39  40
ENDBRANCH  32  34
ENDBRANCH  31  32
ENDBRANCH  30  31
ENDBRANCH  29  30
ENDBRANCH  28  29
ENDBRANCH   1  28
TORSDOF 21
ENDMDL
