MODEL 1
REMARK VINA RESULT:     -11.6      0.000      0.000
REMARK SMILES CCCc1cc2c(cc1Cl)C=C(C(=O)OCCOCCOC(=O)c1ccc(-c3c4nc(c(-c5cccc(S(=O)(=O)[O-])c5F)c5ccc([nH]5)c(-c5cccc(S(=O)(=O)[O-])c5F)c5nc(c(-c6cccc(S(=O)(=O)[O-])c6F)c6ccc3[nH]6)C=C5)C=C4)cc1)[C@@H](C(F)(F)F)O2
REMARK SMILES IDX 19 1 18 2 17 3 16 4 15 5 13 6 14 7 12 8 4 9 5 10 9 11 6 12
REMARK SMILES IDX 8 13 10 14 7 15 92 16 11 17 87 18 3 19 2 20 1 21 88 22 89 23
REMARK SMILES IDX 90 24 91 25 20 26 21 27 22 28 23 29 24 30 25 31 86 32 26 33
REMARK SMILES IDX 85 34 27 35 28 36 29 37 79 38 30 39 84 40 78 41 80 42 31 43
REMARK SMILES IDX 83 44 77 45 76 46 32 48 64 49 44 50 63 51 45 52 48 53 62 54
REMARK SMILES IDX 81 55 46 56 47 57 61 59 82 60 49 61 33 62 34 63 42 64 35 65
REMARK SMILES IDX 37 66 43 67 36 68 38 69 39 70 40 71 41 72 65 73 66 74 74 75
REMARK SMILES IDX 67 76 69 77 75 78 68 79 70 80 71 81 72 82 73 83 50 84 51 85
REMARK SMILES IDX 59 86 52 87 54 88 60 89 53 90 55 91 56 92 57 93 58 94
REMARK H PARENT 80 47 48 58
REMARK Flexibility Score: inf
ROOT
ATOM      1  C   UNL A   1      31.365  29.747  25.027  1.00  0.00     0.202 C 
ENDROOT
BRANCH   1   2
ATOM      2  O   UNL A   1      31.376  29.150  23.732  1.00  0.00    -0.374 OA
BRANCH   2   3
ATOM      3  C   UNL A   1      30.651  27.937  23.539  1.00  0.00     0.202 C 
BRANCH   3   4
ATOM      4  C   UNL A   1      30.949  27.126  22.273  1.00  0.00     0.261 C 
BRANCH   4   5
ATOM      5  O   UNL A   1      31.330  25.773  22.571  1.00  0.00    -0.460 OA
BRANCH   5   6
ATOM      6  C   UNL A   1      32.643  25.504  22.385  1.00  0.00     0.338 C 
ATOM      7  O   UNL A   1      33.485  26.241  21.897  1.00  0.00    -0.246 OA
BRANCH   6   8
ATOM      8  C   UNL A   1      32.982  24.219  23.021  1.00  0.00     0.087 C 
ATOM      9  C   UNL A   1      32.810  19.380  24.389  1.00  0.00    -0.026 A 
ATOM     10  C   UNL A   1      33.305  20.563  24.978  1.00  0.00     0.052 A 
ATOM     11  C   UNL A   1      32.380  19.447  23.055  1.00  0.00     0.045 A 
ATOM     12  C   UNL A   1      33.284  21.781  24.291  1.00  0.00     0.128 A 
ATOM     13  C   UNL A   1      32.284  20.677  22.399  1.00  0.00     0.032 A 
ATOM     14  Cl  UNL A   1      32.009  18.042  22.121  1.00  0.00    -0.084 Cl
ATOM     15  C   UNL A   1      32.703  21.848  23.030  1.00  0.00     0.019 A 
ATOM     16  O   UNL A   1      33.822  22.859  24.932  1.00  0.00    -0.475 OA
ATOM     17  C   UNL A   1      32.477  23.138  22.414  1.00  0.00     0.027 C 
ATOM     18  C   UNL A   1      33.832  24.158  24.262  1.00  0.00     0.316 C 
BRANCH   9  19
ATOM     19  C   UNL A   1      32.774  18.115  25.219  1.00  0.00     0.037 C 
BRANCH  19  20
ATOM     20  C   UNL A   1      33.809  17.043  24.830  1.00  0.00     0.001 C 
ATOM     21  C   UNL A   1      33.585  15.673  25.455  1.00  0.00     0.004 C 
ENDBRANCH  19  20
ENDBRANCH   9  19
BRANCH  18  22
ATOM     22  C   UNL A   1      33.446  25.205  25.318  1.00  0.00     0.430 C 
ATOM     23  F   UNL A   1      34.010  24.913  26.515  1.00  0.00    -0.167 F 
ATOM     24  F   UNL A   1      33.860  26.447  24.985  1.00  0.00    -0.167 F 
ATOM     25  F   UNL A   1      32.107  25.255  25.502  1.00  0.00    -0.167 F 
ENDBRANCH  18  22
ENDBRANCH   6   8
ENDBRANCH   5   6
ENDBRANCH   4   5
ENDBRANCH   3   4
ENDBRANCH   2   3
ENDBRANCH   1   2
BRANCH   1  26
ATOM     26  C   UNL A   1      32.707  30.085  25.691  1.00  0.00     0.261 C 
BRANCH  26  27
ATOM     27  O   UNL A   1      32.564  30.554  27.041  1.00  0.00    -0.460 OA
BRANCH  27  28
ATOM     28  C   UNL A   1      33.269  31.680  27.328  1.00  0.00     0.338 C 
ATOM     29  O   UNL A   1      32.852  32.823  27.337  1.00  0.00    -0.246 OA
BRANCH  28  30
ATOM     30  C   UNL A   1      34.604  31.297  27.832  1.00  0.00     0.060 A 
ATOM     31  C   UNL A   1      35.615  32.245  27.987  1.00  0.00     0.016 A 
ATOM     32  C   UNL A   1      34.820  29.958  28.184  1.00  0.00     0.016 A 
ATOM     33  C   UNL A   1      36.844  31.850  28.518  1.00  0.00     0.010 A 
ATOM     34  C   UNL A   1      36.049  29.568  28.719  1.00  0.00     0.010 A 
ATOM     35  C   UNL A   1      37.065  30.514  28.905  1.00  0.00    -0.014 A 
BRANCH  35  36
ATOM     36  C   UNL A   1      38.317  30.153  29.613  1.00  0.00     0.031 A 
ATOM     37  C   UNL A   1      38.628  30.683  30.982  1.00  0.00     0.074 A 
ATOM     38  C   UNL A   1      39.186  29.328  28.998  1.00  0.00     0.049 A 
ATOM     39  N   UNL A   1      39.621  30.365  31.771  1.00  0.00    -0.248 NA
ATOM     40  C   UNL A   1      37.719  31.698  31.536  1.00  0.00     0.031 C 
ATOM     41  C   UNL A   1      39.026  28.805  27.638  1.00  0.00     0.029 A 
ATOM     42  N   UNL A   1      40.369  28.782  29.428  1.00  0.00    -0.354 N 
ATOM     43  C   UNL A   1      39.464  31.139  32.913  1.00  0.00     0.074 A 
ATOM     44  C   UNL A   1      38.291  31.961  32.706  1.00  0.00     0.031 C 
ATOM     45  C   UNL A   1      40.055  27.989  27.359  1.00  0.00     0.029 A 
ATOM     46  C   UNL A   1      40.955  27.946  28.508  1.00  0.00     0.049 A 
ATOM     47  H   UNL A   1      40.760  28.971  30.312  1.00  0.00     0.167 HD
ATOM     48  C   UNL A   1      40.215  31.141  34.039  1.00  0.00     0.034 A 
ATOM     49  C   UNL A   1      42.085  27.216  28.580  1.00  0.00     0.034 A 
ATOM     50  C   UNL A   1      41.370  30.309  34.248  1.00  0.00     0.049 A 
ATOM     51  C   UNL A   1      42.892  27.226  29.845  1.00  0.00     0.074 A 
ATOM     52  C   UNL A   1      42.149  30.198  35.387  1.00  0.00     0.029 A 
ATOM     53  N   UNL A   1      41.923  29.464  33.300  1.00  0.00    -0.354 N 
ATOM     54  N   UNL A   1      42.643  27.853  30.968  1.00  0.00    -0.248 NA
ATOM     55  C   UNL A   1      44.116  26.413  29.866  1.00  0.00     0.031 C 
ATOM     56  C   UNL A   1      43.187  29.300  35.120  1.00  0.00     0.029 A 
ATOM     57  C   UNL A   1      43.041  28.836  33.823  1.00  0.00     0.049 A 
ATOM     58  H   UNL A   1      41.573  29.329  32.390  1.00  0.00     0.167 HD
ATOM     59  C   UNL A   1      43.668  27.498  31.837  1.00  0.00     0.074 A 
ATOM     60  C   UNL A   1      44.534  26.589  31.115  1.00  0.00     0.031 C 
ATOM     61  C   UNL A   1      43.875  27.903  33.112  1.00  0.00     0.034 A 
BRANCH  48  62
ATOM     62  C   UNL A   1      39.786  32.024  35.177  1.00  0.00     0.023 A 
ATOM     63  C   UNL A   1      40.093  33.398  35.130  1.00  0.00     0.012 A 
ATOM     64  C   UNL A   1      38.978  31.526  36.219  1.00  0.00     0.148 A 
ATOM     65  C   UNL A   1      39.607  34.266  36.106  1.00  0.00     0.002 A 
ATOM     66  C   UNL A   1      38.476  32.402  37.173  1.00  0.00     0.091 A 
ATOM     67  F   UNL A   1      38.706  30.215  36.243  1.00  0.00    -0.205 F 
ATOM     68  C   UNL A   1      38.792  33.771  37.120  1.00  0.00     0.022 A 
BRANCH  66  69
ATOM     69  S   UNL A   1      37.377  31.880  38.494  1.00  0.00     0.127 S 
ATOM     70  O   UNL A   1      38.218  32.084  39.673  1.00  0.00    -0.237 OA
ATOM     71  O   UNL A   1      36.269  32.826  38.362  1.00  0.00    -0.237 OA
ATOM     72  O   UNL A   1      37.037  30.492  38.213  1.00  0.00    -0.744 OA
ENDBRANCH  66  69
ENDBRANCH  48  62
BRANCH  49  73
ATOM     73  C   UNL A   1      42.466  26.358  27.426  1.00  0.00     0.023 A 
ATOM     74  C   UNL A   1      43.303  26.882  26.424  1.00  0.00     0.012 A 
ATOM     75  C   UNL A   1      42.066  25.009  27.361  1.00  0.00     0.148 A 
ATOM     76  C   UNL A   1      43.733  26.076  25.369  1.00  0.00     0.002 A 
ATOM     77  C   UNL A   1      42.527  24.203  26.328  1.00  0.00     0.091 A 
ATOM     78  F   UNL A   1      41.271  24.538  28.331  1.00  0.00    -0.205 F 
ATOM     79  C   UNL A   1      43.354  24.736  25.326  1.00  0.00     0.022 A 
BRANCH  77  80
ATOM     80  S   UNL A   1      42.169  22.446  26.235  1.00  0.00     0.127 S 
ATOM     81  O   UNL A   1      42.744  21.959  27.487  1.00  0.00    -0.237 OA
ATOM     82  O   UNL A   1      40.707  22.443  26.186  1.00  0.00    -0.237 OA
ATOM     83  O   UNL A   1      42.821  21.971  25.023  1.00  0.00    -0.744 OA
ENDBRANCH  77  80
ENDBRANCH  49  73
BRANCH  61  84
ATOM     84  C   UNL A   1      45.079  27.375  33.842  1.00  0.00     0.023 A 
ATOM     85  C   UNL A   1      46.264  28.135  33.857  1.00  0.00     0.012 A 
ATOM     86  C   UNL A   1      44.988  26.210  34.628  1.00  0.00     0.148 A 
ATOM     87  C   UNL A   1      47.344  27.740  34.647  1.00  0.00     0.002 A 
ATOM     88  C   UNL A   1      46.055  25.841  35.437  1.00  0.00     0.091 A 
ATOM     89  F   UNL A   1      43.847  25.504  34.591  1.00  0.00    -0.205 F 
ATOM     90  C   UNL A   1      47.235  26.603  35.446  1.00  0.00     0.022 A 
BRANCH  88  91
ATOM     91  S   UNL A   1      45.987  24.436  36.555  1.00  0.00     0.127 S 
ATOM     92  O   UNL A   1      44.710  24.658  37.232  1.00  0.00    -0.237 OA
ATOM     93  O   UNL A   1      45.998  23.304  35.627  1.00  0.00    -0.237 OA
ATOM     94  O   UNL A   1      47.163  24.539  37.409  1.00  0.00    -0.744 OA
ENDBRANCH  88  91
ENDBRANCH  61  84
ENDBRANCH  35  36
ENDBRANCH  28  30
ENDBRANCH  27  28
ENDBRANCH  26  27
ENDBRANCH   1  26
TORSDOF 20
ENDMDL
MODEL 2
REMARK VINA RESULT:     -11.2      1.355      1.694
REMARK SMILES CCCc1cc2c(cc1Cl)C=C(C(=O)OCCOCCOC(=O)c1ccc(-c3c4nc(c(-c5cccc(S(=O)(=O)[O-])c5F)c5ccc([nH]5)c(-c5cccc(S(=O)(=O)[O-])c5F)c5nc(c(-c6cccc(S(=O)(=O)[O-])c6F)c6ccc3[nH]6)C=C5)C=C4)cc1)[C@@H](C(F)(F)F)O2
REMARK SMILES IDX 19 1 18 2 17 3 16 4 15 5 13 6 14 7 12 8 4 9 5 10 9 11 6 12
REMARK SMILES IDX 8 13 10 14 7 15 92 16 11 17 87 18 3 19 2 20 1 21 88 22 89 23
REMARK SMILES IDX 90 24 91 25 20 26 21 27 22 28 23 29 24 30 25 31 86 32 26 33
REMARK SMILES IDX 85 34 27 35 28 36 29 37 79 38 30 39 84 40 78 41 80 42 31 43
REMARK SMILES IDX 83 44 77 45 76 46 32 48 64 49 44 50 63 51 45 52 48 53 62 54
REMARK SMILES IDX 81 55 46 56 47 57 61 59 82 60 49 61 33 62 34 63 42 64 35 65
REMARK SMILES IDX 37 66 43 67 36 68 38 69 39 70 40 71 41 72 65 73 66 74 74 75
REMARK SMILES IDX 67 76 69 77 75 78 68 79 70 80 71 81 72 82 73 83 50 84 51 85
REMARK SMILES IDX 59 86 52 87 54 88 60 89 53 90 55 91 56 92 57 93 58 94
REMARK H PARENT 80 47 48 58
REMARK Flexibility Score: inf
ROOT
ATOM      1  C   UNL A   1      31.224  30.019  25.145  1.00  0.00     0.202 C 
ENDROOT
BRANCH   1   2
ATOM      2  O   UNL A   1      30.991  29.287  23.943  1.00  0.00    -0.374 OA
BRANCH   2   3
ATOM      3  C   UNL A   1      30.593  27.922  24.049  1.00  0.00     0.202 C 
BRANCH   3   4
ATOM      4  C   UNL A   1      30.615  27.076  22.770  1.00  0.00     0.261 C 
BRANCH   4   5
ATOM      5  O   UNL A   1      31.145  25.760  22.999  1.00  0.00    -0.460 OA
BRANCH   5   6
ATOM      6  C   UNL A   1      32.400  25.570  22.529  1.00  0.00     0.338 C 
ATOM      7  O   UNL A   1      33.086  26.369  21.910  1.00  0.00    -0.246 OA
BRANCH   6   8
ATOM      8  C   UNL A   1      32.923  24.281  23.017  1.00  0.00     0.087 C 
ATOM      9  C   UNL A   1      33.241  19.403  24.204  1.00  0.00    -0.026 A 
ATOM     10  C   UNL A   1      33.824  20.587  24.702  1.00  0.00     0.052 A 
ATOM     11  C   UNL A   1      32.500  19.490  23.016  1.00  0.00     0.045 A 
ATOM     12  C   UNL A   1      33.600  21.822  24.085  1.00  0.00     0.128 A 
ATOM     13  C   UNL A   1      32.209  20.734  22.448  1.00  0.00     0.032 A 
ATOM     14  Cl  UNL A   1      31.960  18.098  22.146  1.00  0.00    -0.084 Cl
ATOM     15  C   UNL A   1      32.730  21.902  23.004  1.00  0.00     0.019 A 
ATOM     16  O   UNL A   1      34.242  22.902  24.618  1.00  0.00    -0.475 OA
ATOM     17  C   UNL A   1      32.321  23.199  22.508  1.00  0.00     0.027 C 
ATOM     18  C   UNL A   1      34.048  24.219  24.014  1.00  0.00     0.316 C 
BRANCH   9  19
ATOM     19  C   UNL A   1      33.446  18.114  24.971  1.00  0.00     0.037 C 
BRANCH  19  20
ATOM     20  C   UNL A   1      34.417  17.110  24.322  1.00  0.00     0.001 C 
ATOM     21  C   UNL A   1      34.907  16.000  25.242  1.00  0.00     0.004 C 
ENDBRANCH  19  20
ENDBRANCH   9  19
BRANCH  18  22
ATOM     22  C   UNL A   1      33.895  25.220  25.170  1.00  0.00     0.430 C 
ATOM     23  F   UNL A   1      32.633  25.198  25.662  1.00  0.00    -0.167 F 
ATOM     24  F   UNL A   1      34.720  24.941  26.202  1.00  0.00    -0.167 F 
ATOM     25  F   UNL A   1      34.153  26.485  24.770  1.00  0.00    -0.167 F 
ENDBRANCH  18  22
ENDBRANCH   6   8
ENDBRANCH   5   6
ENDBRANCH   4   5
ENDBRANCH   3   4
ENDBRANCH   2   3
ENDBRANCH   1   2
BRANCH   1  26
ATOM     26  C   UNL A   1      32.657  30.097  25.691  1.00  0.00     0.261 C 
BRANCH  26  27
ATOM     27  O   UNL A   1      32.709  30.412  27.091  1.00  0.00    -0.460 OA
BRANCH  27  28
ATOM     28  C   UNL A   1      33.419  31.531  27.395  1.00  0.00     0.338 C 
ATOM     29  O   UNL A   1      33.003  32.673  27.436  1.00  0.00    -0.246 OA
BRANCH  28  30
ATOM     30  C   UNL A   1      34.760  31.135  27.871  1.00  0.00     0.060 A 
ATOM     31  C   UNL A   1      35.784  32.073  28.002  1.00  0.00     0.016 A 
ATOM     32  C   UNL A   1      34.970  29.794  28.222  1.00  0.00     0.016 A 
ATOM     33  C   UNL A   1      37.020  31.666  28.508  1.00  0.00     0.010 A 
ATOM     34  C   UNL A   1      36.206  29.393  28.733  1.00  0.00     0.010 A 
ATOM     35  C   UNL A   1      37.235  30.329  28.894  1.00  0.00    -0.014 A 
BRANCH  35  36
ATOM     36  C   UNL A   1      38.498  29.957  29.577  1.00  0.00     0.031 A 
ATOM     37  C   UNL A   1      38.855  30.506  30.927  1.00  0.00     0.074 A 
ATOM     38  C   UNL A   1      39.335  29.104  28.955  1.00  0.00     0.049 A 
ATOM     39  N   UNL A   1      39.862  30.183  31.695  1.00  0.00    -0.248 NA
ATOM     40  C   UNL A   1      37.981  31.549  31.485  1.00  0.00     0.031 C 
ATOM     41  C   UNL A   1      39.130  28.559  27.610  1.00  0.00     0.029 A 
ATOM     42  N   UNL A   1      40.518  28.543  29.364  1.00  0.00    -0.354 N 
ATOM     43  C   UNL A   1      39.750  30.981  32.826  1.00  0.00     0.074 A 
ATOM     44  C   UNL A   1      38.588  31.823  32.634  1.00  0.00     0.031 C 
ATOM     45  C   UNL A   1      40.135  27.718  27.320  1.00  0.00     0.029 A 
ATOM     46  C   UNL A   1      41.064  27.679  28.446  1.00  0.00     0.049 A 
ATOM     47  H   UNL A   1      40.936  28.740  30.234  1.00  0.00     0.167 HD
ATOM     48  C   UNL A   1      40.530  30.989  33.932  1.00  0.00     0.034 A 
ATOM     49  C   UNL A   1      42.181  26.928  28.503  1.00  0.00     0.034 A 
ATOM     50  C   UNL A   1      41.674  30.140  34.127  1.00  0.00     0.049 A 
ATOM     51  C   UNL A   1      43.021  26.946  29.746  1.00  0.00     0.074 A 
ATOM     52  C   UNL A   1      42.480  30.034  35.247  1.00  0.00     0.029 A 
ATOM     53  N   UNL A   1      42.186  29.266  33.181  1.00  0.00    -0.354 N 
ATOM     54  N   UNL A   1      42.814  27.598  30.863  1.00  0.00    -0.248 NA
ATOM     55  C   UNL A   1      44.230  26.109  29.751  1.00  0.00     0.031 C 
ATOM     56  C   UNL A   1      43.493  29.111  34.971  1.00  0.00     0.029 A 
ATOM     57  C   UNL A   1      43.305  28.627  33.687  1.00  0.00     0.049 A 
ATOM     58  H   UNL A   1      41.809  29.121  32.283  1.00  0.00     0.167 HD
ATOM     59  C   UNL A   1      43.855  27.239  31.711  1.00  0.00     0.074 A 
ATOM     60  C   UNL A   1      44.683  26.300  30.985  1.00  0.00     0.031 C 
ATOM     61  C   UNL A   1      44.102  27.664  32.973  1.00  0.00     0.034 A 
BRANCH  48  62
ATOM     62  C   UNL A   1      40.148  31.902  35.064  1.00  0.00     0.023 A 
ATOM     63  C   UNL A   1      40.597  33.237  35.047  1.00  0.00     0.012 A 
ATOM     64  C   UNL A   1      39.251  31.481  36.065  1.00  0.00     0.148 A 
ATOM     65  C   UNL A   1      40.164  34.142  36.015  1.00  0.00     0.002 A 
ATOM     66  C   UNL A   1      38.803  32.396  37.010  1.00  0.00     0.091 A 
ATOM     67  F   UNL A   1      38.844  30.205  36.061  1.00  0.00    -0.205 F 
ATOM     68  C   UNL A   1      39.260  33.725  36.988  1.00  0.00     0.022 A 
BRANCH  66  69
ATOM     69  S   UNL A   1      37.601  31.978  38.279  1.00  0.00     0.127 S 
ATOM     70  O   UNL A   1      37.234  30.615  37.898  1.00  0.00    -0.237 OA
ATOM     71  O   UNL A   1      38.400  32.077  39.501  1.00  0.00    -0.237 OA
ATOM     72  O   UNL A   1      36.532  32.959  38.162  1.00  0.00    -0.744 OA
ENDBRANCH  66  69
ENDBRANCH  48  62
BRANCH  49  73
ATOM     73  C   UNL A   1      42.516  26.041  27.356  1.00  0.00     0.023 A 
ATOM     74  C   UNL A   1      43.284  26.549  26.292  1.00  0.00     0.012 A 
ATOM     75  C   UNL A   1      42.142  24.684  27.355  1.00  0.00     0.148 A 
ATOM     76  C   UNL A   1      43.672  25.719  25.240  1.00  0.00     0.002 A 
ATOM     77  C   UNL A   1      42.561  23.855  26.323  1.00  0.00     0.091 A 
ATOM     78  F   UNL A   1      41.413  24.228  28.383  1.00  0.00    -0.205 F 
ATOM     79  C   UNL A   1      43.320  24.371  25.260  1.00  0.00     0.022 A 
BRANCH  77  80
ATOM     80  S   UNL A   1      42.237  22.089  26.304  1.00  0.00     0.127 S 
ATOM     81  O   UNL A   1      40.803  22.053  26.022  1.00  0.00    -0.237 OA
ATOM     82  O   UNL A   1      43.093  21.641  25.206  1.00  0.00    -0.237 OA
ATOM     83  O   UNL A   1      42.626  21.598  27.618  1.00  0.00    -0.744 OA
ENDBRANCH  77  80
ENDBRANCH  49  73
BRANCH  61  84
ATOM     84  C   UNL A   1      45.314  27.126  33.682  1.00  0.00     0.023 A 
ATOM     85  C   UNL A   1      45.208  25.930  34.417  1.00  0.00     0.012 A 
ATOM     86  C   UNL A   1      46.577  27.721  33.496  1.00  0.00     0.148 A 
ATOM     87  C   UNL A   1      46.347  25.332  34.959  1.00  0.00     0.002 A 
ATOM     88  C   UNL A   1      47.710  27.103  34.011  1.00  0.00     0.091 A 
ATOM     89  F   UNL A   1      46.647  28.862  32.795  1.00  0.00    -0.205 F 
ATOM     90  C   UNL A   1      47.596  25.910  34.744  1.00  0.00     0.022 A 
BRANCH  88  91
ATOM     91  S   UNL A   1      49.371  27.728  33.729  1.00  0.00     0.127 S 
ATOM     92  O   UNL A   1      50.190  26.582  34.122  1.00  0.00    -0.237 OA
ATOM     93  O   UNL A   1      49.356  28.005  32.293  1.00  0.00    -0.237 OA
ATOM     94  O   UNL A   1      49.511  28.905  34.578  1.00  0.00    -0.744 OA
ENDBRANCH  88  91
ENDBRANCH  61  84
ENDBRANCH  35  36
ENDBRANCH  28  30
ENDBRANCH  27  28
ENDBRANCH  26  27
ENDBRANCH   1  26
TORSDOF 20
ENDMDL
MODEL 3
REMARK VINA RESULT:     -11.1      5.326      8.482
REMARK SMILES CCCc1cc2c(cc1Cl)C=C(C(=O)OCCOCCOC(=O)c1ccc(-c3c4nc(c(-c5cccc(S(=O)(=O)[O-])c5F)c5ccc([nH]5)c(-c5cccc(S(=O)(=O)[O-])c5F)c5nc(c(-c6cccc(S(=O)(=O)[O-])c6F)c6ccc3[nH]6)C=C5)C=C4)cc1)[C@@H](C(F)(F)F)O2
REMARK SMILES IDX 19 1 18 2 17 3 16 4 15 5 13 6 14 7 12 8 4 9 5 10 9 11 6 12
REMARK SMILES IDX 8 13 10 14 7 15 92 16 11 17 87 18 3 19 2 20 1 21 88 22 89 23
REMARK SMILES IDX 90 24 91 25 20 26 21 27 22 28 23 29 24 30 25 31 86 32 26 33
REMARK SMILES IDX 85 34 27 35 28 36 29 37 79 38 30 39 84 40 78 41 80 42 31 43
REMARK SMILES IDX 83 44 77 45 76 46 32 48 64 49 44 50 63 51 45 52 48 53 62 54
REMARK SMILES IDX 81 55 46 56 47 57 61 59 82 60 49 61 33 62 34 63 42 64 35 65
REMARK SMILES IDX 37 66 43 67 36 68 38 69 39 70 40 71 41 72 65 73 66 74 74 75
REMARK SMILES IDX 67 76 69 77 75 78 68 79 70 80 71 81 72 82 73 83 50 84 51 85
REMARK SMILES IDX 59 86 52 87 54 88 60 89 53 90 55 91 56 92 57 93 58 94
REMARK H PARENT 80 47 48 58
REMARK Flexibility Score: inf
ROOT
ATOM      1  C   UNL A   1      37.936  20.424  24.426  1.00  0.00     0.202 C 
ENDROOT
BRANCH   1   2
ATOM      2  O   UNL A   1      36.708  21.116  24.639  1.00  0.00    -0.374 OA
BRANCH   2   3
ATOM      3  C   UNL A   1      36.410  21.576  25.956  1.00  0.00     0.202 C 
BRANCH   3   4
ATOM      4  C   UNL A   1      34.940  21.849  26.297  1.00  0.00     0.261 C 
BRANCH   4   5
ATOM      5  O   UNL A   1      34.551  23.195  25.980  1.00  0.00    -0.460 OA
BRANCH   5   6
ATOM      6  C   UNL A   1      33.326  23.547  26.435  1.00  0.00     0.338 C 
ATOM      7  O   UNL A   1      32.774  23.154  27.451  1.00  0.00    -0.246 OA
BRANCH   6   8
ATOM      8  C   UNL A   1      32.780  24.634  25.603  1.00  0.00     0.087 C 
ATOM      9  C   UNL A   1      30.658  28.983  24.226  1.00  0.00    -0.026 A 
ATOM     10  C   UNL A   1      30.731  27.690  23.664  1.00  0.00     0.052 A 
ATOM     11  C   UNL A   1      31.449  29.250  25.353  1.00  0.00     0.045 A 
ATOM     12  C   UNL A   1      31.493  26.681  24.261  1.00  0.00     0.128 A 
ATOM     13  C   UNL A   1      32.144  28.220  25.995  1.00  0.00     0.032 A 
ATOM     14  Cl  UNL A   1      31.673  30.842  25.983  1.00  0.00    -0.084 Cl
ATOM     15  C   UNL A   1      32.137  26.929  25.468  1.00  0.00     0.019 A 
ATOM     16  O   UNL A   1      31.531  25.477  23.619  1.00  0.00    -0.475 OA
ATOM     17  C   UNL A   1      32.736  25.832  26.199  1.00  0.00     0.027 C 
ATOM     18  C   UNL A   1      32.315  24.385  24.194  1.00  0.00     0.316 C 
BRANCH   9  19
ATOM     19  C   UNL A   1      29.742  30.003  23.585  1.00  0.00     0.037 C 
BRANCH  19  20
ATOM     20  C   UNL A   1      28.813  29.454  22.486  1.00  0.00     0.001 C 
ATOM     21  C   UNL A   1      27.424  29.045  22.959  1.00  0.00     0.004 C 
ENDBRANCH  19  20
ENDBRANCH   9  19
BRANCH  18  22
ATOM     22  C   UNL A   1      31.471  23.109  24.047  1.00  0.00     0.430 C 
ATOM     23  F   UNL A   1      30.641  22.954  25.106  1.00  0.00    -0.167 F 
ATOM     24  F   UNL A   1      30.693  23.132  22.943  1.00  0.00    -0.167 F 
ATOM     25  F   UNL A   1      32.249  22.005  23.976  1.00  0.00    -0.167 F 
ENDBRANCH  18  22
ENDBRANCH   6   8
ENDBRANCH   5   6
ENDBRANCH   4   5
ENDBRANCH   3   4
ENDBRANCH   2   3
ENDBRANCH   1   2
BRANCH   1  26
ATOM     26  C   UNL A   1      38.663  19.828  25.639  1.00  0.00     0.261 C 
BRANCH  26  27
ATOM     27  O   UNL A   1      40.018  20.288  25.765  1.00  0.00    -0.460 OA
BRANCH  27  28
ATOM     28  C   UNL A   1      40.471  20.376  27.044  1.00  0.00     0.338 C 
ATOM     29  O   UNL A   1      40.754  19.454  27.785  1.00  0.00    -0.246 OA
BRANCH  28  30
ATOM     30  C   UNL A   1      40.765  21.790  27.354  1.00  0.00     0.060 A 
ATOM     31  C   UNL A   1      41.670  22.134  28.357  1.00  0.00     0.016 A 
ATOM     32  C   UNL A   1      40.136  22.782  26.589  1.00  0.00     0.016 A 
ATOM     33  C   UNL A   1      41.961  23.481  28.581  1.00  0.00     0.010 A 
ATOM     34  C   UNL A   1      40.434  24.127  26.812  1.00  0.00     0.010 A 
ATOM     35  C   UNL A   1      41.360  24.486  27.799  1.00  0.00    -0.014 A 
BRANCH  35  36
ATOM     36  C   UNL A   1      41.804  25.894  27.945  1.00  0.00     0.031 A 
ATOM     37  C   UNL A   1      40.939  26.928  28.603  1.00  0.00     0.074 A 
ATOM     38  C   UNL A   1      43.017  26.235  27.468  1.00  0.00     0.049 A 
ATOM     39  N   UNL A   1      41.238  28.165  28.906  1.00  0.00    -0.248 NA
ATOM     40  C   UNL A   1      39.568  26.534  28.961  1.00  0.00     0.031 C 
ATOM     41  C   UNL A   1      43.918  25.333  26.746  1.00  0.00     0.029 A 
ATOM     42  N   UNL A   1      43.703  27.422  27.519  1.00  0.00    -0.354 N 
ATOM     43  C   UNL A   1      40.097  28.701  29.488  1.00  0.00     0.074 A 
ATOM     44  C   UNL A   1      39.089  27.662  29.474  1.00  0.00     0.031 C 
ATOM     45  C   UNL A   1      45.051  25.990  26.450  1.00  0.00     0.029 A 
ATOM     46  C   UNL A   1      44.949  27.361  26.942  1.00  0.00     0.049 A 
ATOM     47  H   UNL A   1      43.338  28.239  27.929  1.00  0.00     0.167 HD
ATOM     48  C   UNL A   1      39.919  29.937  30.008  1.00  0.00     0.034 A 
ATOM     49  C   UNL A   1      45.911  28.298  26.829  1.00  0.00     0.034 A 
ATOM     50  C   UNL A   1      40.928  30.962  30.035  1.00  0.00     0.049 A 
ATOM     51  C   UNL A   1      45.692  29.657  27.427  1.00  0.00     0.074 A 
ATOM     52  C   UNL A   1      40.854  32.221  30.606  1.00  0.00     0.029 A 
ATOM     53  N   UNL A   1      42.182  30.858  29.457  1.00  0.00    -0.354 N 
ATOM     54  N   UNL A   1      44.660  30.096  28.104  1.00  0.00    -0.248 NA
ATOM     55  C   UNL A   1      46.774  30.640  27.271  1.00  0.00     0.031 C 
ATOM     56  C   UNL A   1      42.057  32.887  30.354  1.00  0.00     0.029 A 
ATOM     57  C   UNL A   1      42.887  32.034  29.645  1.00  0.00     0.049 A 
ATOM     58  H   UNL A   1      42.522  30.064  28.983  1.00  0.00     0.167 HD
ATOM     59  C   UNL A   1      44.973  31.400  28.471  1.00  0.00     0.074 A 
ATOM     60  C   UNL A   1      46.297  31.675  27.954  1.00  0.00     0.031 C 
ATOM     61  C   UNL A   1      44.219  32.288  29.162  1.00  0.00     0.034 A 
BRANCH  48  62
ATOM     62  C   UNL A   1      38.600  30.251  30.659  1.00  0.00     0.023 A 
ATOM     63  C   UNL A   1      38.382  29.849  31.991  1.00  0.00     0.012 A 
ATOM     64  C   UNL A   1      37.638  31.046  30.004  1.00  0.00     0.148 A 
ATOM     65  C   UNL A   1      37.221  30.228  32.664  1.00  0.00     0.002 A 
ATOM     66  C   UNL A   1      36.497  31.442  30.691  1.00  0.00     0.091 A 
ATOM     67  F   UNL A   1      37.868  31.410  28.736  1.00  0.00    -0.205 F 
ATOM     68  C   UNL A   1      36.286  31.031  32.019  1.00  0.00     0.022 A 
BRANCH  66  69
ATOM     69  S   UNL A   1      35.250  32.516  29.972  1.00  0.00     0.127 S 
ATOM     70  O   UNL A   1      34.740  31.686  28.881  1.00  0.00    -0.237 OA
ATOM     71  O   UNL A   1      34.321  32.697  31.087  1.00  0.00    -0.237 OA
ATOM     72  O   UNL A   1      35.948  33.723  29.552  1.00  0.00    -0.744 OA
ENDBRANCH  66  69
ENDBRANCH  48  62
BRANCH  49  73
ATOM     73  C   UNL A   1      47.198  27.938  26.177  1.00  0.00     0.023 A 
ATOM     74  C   UNL A   1      48.239  27.398  26.955  1.00  0.00     0.012 A 
ATOM     75  C   UNL A   1      47.364  28.058  24.784  1.00  0.00     0.148 A 
ATOM     76  C   UNL A   1      49.430  26.986  26.355  1.00  0.00     0.002 A 
ATOM     77  C   UNL A   1      48.537  27.613  24.189  1.00  0.00     0.091 A 
ATOM     78  F   UNL A   1      46.354  28.573  24.069  1.00  0.00    -0.205 F 
ATOM     79  C   UNL A   1      49.575  27.084  24.973  1.00  0.00     0.022 A 
BRANCH  77  80
ATOM     80  S   UNL A   1      48.784  27.612  22.410  1.00  0.00     0.127 S 
ATOM     81  O   UNL A   1      50.152  28.112  22.299  1.00  0.00    -0.237 OA
ATOM     82  O   UNL A   1      48.617  26.195  22.088  1.00  0.00    -0.237 OA
ATOM     83  O   UNL A   1      47.754  28.485  21.866  1.00  0.00    -0.744 OA
ENDBRANCH  77  80
ENDBRANCH  49  73
BRANCH  61  84
ATOM     84  C   UNL A   1      44.789  33.654  29.424  1.00  0.00     0.023 A 
ATOM     85  C   UNL A   1      45.534  33.878  30.598  1.00  0.00     0.012 A 
ATOM     86  C   UNL A   1      44.712  34.664  28.445  1.00  0.00     0.148 A 
ATOM     87  C   UNL A   1      46.196  35.090  30.793  1.00  0.00     0.002 A 
ATOM     88  C   UNL A   1      45.401  35.856  28.631  1.00  0.00     0.091 A 
ATOM     89  F   UNL A   1      43.992  34.424  27.338  1.00  0.00    -0.205 F 
ATOM     90  C   UNL A   1      46.141  36.072  29.805  1.00  0.00     0.022 A 
BRANCH  88  91
ATOM     91  S   UNL A   1      45.451  37.153  27.388  1.00  0.00     0.127 S 
ATOM     92  O   UNL A   1      46.056  36.454  26.255  1.00  0.00    -0.237 OA
ATOM     93  O   UNL A   1      44.034  37.475  27.222  1.00  0.00    -0.237 OA
ATOM     94  O   UNL A   1      46.260  38.225  27.953  1.00  0.00    -0.744 OA
ENDBRANCH  88  91
ENDBRANCH  61  84
ENDBRANCH  35  36
ENDBRANCH  28  30
ENDBRANCH  27  28
ENDBRANCH  26  27
ENDBRANCH   1  26
TORSDOF 20
ENDMDL
