MODEL 1
REMARK VINA RESULT:     -10.9      0.000      0.000
REMARK SMILES COc1ccc(-c2cc(C(=O)OCCOCCOC(=O)c3ccc(-c4c5nc(c(-c6cccc(S(=O)(=O)[O-])c6F)c6ccc([nH]6)c(-c6cccc(S(=O)(=O)[O-])c6F)c6nc(c(-c7cccc(S(=O)(=O)[O-])c7F)c7ccc4[nH]7)C=C6)C=C5)cc3)nn2C)cc1
REMARK SMILES IDX 16 1 15 2 14 3 13 4 12 5 10 6 11 7 9 8 7 9 8 10 85 11 84 12
REMARK SMILES IDX 86 13 6 14 3 15 4 16 88 17 5 18 87 19 2 20 1 21 17 22 18 23
REMARK SMILES IDX 19 24 20 25 21 26 22 27 83 28 23 29 82 30 24 31 25 32 26 33
REMARK SMILES IDX 76 34 27 35 81 36 75 37 77 38 28 39 80 40 74 41 73 42 29 44
REMARK SMILES IDX 61 45 41 46 60 47 42 48 45 49 59 50 78 51 43 52 44 53 58 55
REMARK SMILES IDX 79 56 46 57 30 58 31 59 39 60 32 61 34 62 40 63 33 64 35 65
REMARK SMILES IDX 36 66 37 67 38 68 62 69 63 70 71 71 64 72 66 73 72 74 65 75
REMARK SMILES IDX 67 76 68 77 69 78 70 79 47 80 48 81 56 82 49 83 51 84 57 85
REMARK SMILES IDX 50 86 52 87 53 88 54 89 55 90
REMARK H PARENT 77 43 45 54
REMARK Flexibility Score: inf
ROOT
ATOM      1  C   UNL A   1      31.856  30.584  26.531  1.00  0.00     0.202 C 
ENDROOT
BRANCH   1   2
ATOM      2  O   UNL A   1      31.958  30.095  25.190  1.00  0.00    -0.374 OA
BRANCH   2   3
ATOM      3  C   UNL A   1      32.822  28.970  25.002  1.00  0.00     0.202 C 
BRANCH   3   4
ATOM      4  C   UNL A   1      32.973  28.541  23.538  1.00  0.00     0.261 C 
BRANCH   4   5
ATOM      5  O   UNL A   1      33.963  27.505  23.426  1.00  0.00    -0.458 OA
BRANCH   5   6
ATOM      6  C   UNL A   1      33.658  26.481  22.573  1.00  0.00     0.358 C 
ATOM      7  O   UNL A   1      33.657  26.582  21.348  1.00  0.00    -0.244 OA
BRANCH   6   8
ATOM      8  C   UNL A   1      33.435  25.216  23.290  1.00  0.00     0.170 A 
ATOM      9  C   UNL A   1      33.276  23.051  23.870  1.00  0.00     0.069 A 
ATOM     10  C   UNL A   1      33.626  23.886  22.823  1.00  0.00     0.066 A 
ATOM     11  N   UNL A   1      32.864  23.901  24.868  1.00  0.00    -0.267 N 
ATOM     12  N   UNL A   1      32.943  25.202  24.542  1.00  0.00    -0.165 NA
ATOM     13  C   UNL A   1      32.389  23.572  26.192  1.00  0.00     0.174 C 
BRANCH   9  14
ATOM     14  C   UNL A   1      33.405  21.602  23.999  1.00  0.00     0.000 A 
ATOM     15  C   UNL A   1      33.642  18.831  24.417  1.00  0.00     0.118 A 
ATOM     16  C   UNL A   1      34.639  19.696  24.864  1.00  0.00     0.047 A 
ATOM     17  C   UNL A   1      32.526  19.345  23.757  1.00  0.00     0.047 A 
ATOM     18  C   UNL A   1      34.529  21.071  24.644  1.00  0.00     0.014 A 
ATOM     19  C   UNL A   1      32.413  20.726  23.542  1.00  0.00     0.014 A 
BRANCH  15  20
ATOM     20  O   UNL A   1      33.817  17.512  24.730  1.00  0.00    -0.497 OA
ATOM     21  C   UNL A   1      32.852  16.989  25.637  1.00  0.00     0.278 C 
ENDBRANCH  15  20
ENDBRANCH   9  14
ENDBRANCH   6   8
ENDBRANCH   5   6
ENDBRANCH   4   5
ENDBRANCH   3   4
ENDBRANCH   2   3
ENDBRANCH   1   2
BRANCH   1  22
ATOM     22  C   UNL A   1      31.856  32.111  26.647  1.00  0.00     0.261 C 
BRANCH  22  23
ATOM     23  O   UNL A   1      32.471  32.525  27.880  1.00  0.00    -0.460 OA
BRANCH  23  24
ATOM     24  C   UNL A   1      33.504  33.390  27.744  1.00  0.00     0.338 C 
ATOM     25  O   UNL A   1      33.439  34.576  27.466  1.00  0.00    -0.246 OA
BRANCH  24  26
ATOM     26  C   UNL A   1      34.765  32.731  28.147  1.00  0.00     0.060 A 
ATOM     27  C   UNL A   1      34.680  31.410  28.606  1.00  0.00     0.016 A 
ATOM     28  C   UNL A   1      35.998  33.391  28.122  1.00  0.00     0.016 A 
ATOM     29  C   UNL A   1      35.814  30.764  29.091  1.00  0.00     0.010 A 
ATOM     30  C   UNL A   1      37.135  32.741  28.612  1.00  0.00     0.010 A 
ATOM     31  C   UNL A   1      37.042  31.437  29.133  1.00  0.00    -0.014 A 
BRANCH  31  32
ATOM     32  C   UNL A   1      38.189  30.820  29.841  1.00  0.00     0.031 A 
ATOM     33  C   UNL A   1      38.494  31.246  31.252  1.00  0.00     0.074 A 
ATOM     34  C   UNL A   1      38.945  29.885  29.240  1.00  0.00     0.049 A 
ATOM     35  N   UNL A   1      39.429  30.818  32.059  1.00  0.00    -0.248 NA
ATOM     36  C   UNL A   1      37.632  32.291  31.827  1.00  0.00     0.031 C 
ATOM     37  C   UNL A   1      38.758  29.397  27.874  1.00  0.00     0.029 A 
ATOM     38  N   UNL A   1      40.036  29.190  29.701  1.00  0.00    -0.354 N 
ATOM     39  C   UNL A   1      39.282  31.553  33.230  1.00  0.00     0.074 A 
ATOM     40  C   UNL A   1      38.178  32.464  33.022  1.00  0.00     0.031 C 
ATOM     41  C   UNL A   1      39.719  28.499  27.598  1.00  0.00     0.029 A 
ATOM     42  C   UNL A   1      40.593  28.356  28.762  1.00  0.00     0.049 A 
ATOM     43  H   UNL A   1      40.385  29.281  30.616  1.00  0.00     0.167 HD
ATOM     44  C   UNL A   1      39.987  31.461  34.383  1.00  0.00     0.034 A 
ATOM     45  C   UNL A   1      41.690  27.575  28.829  1.00  0.00     0.034 A 
ATOM     46  C   UNL A   1      41.067  30.538  34.600  1.00  0.00     0.049 A 
ATOM     47  C   UNL A   1      42.462  27.497  30.122  1.00  0.00     0.074 A 
ATOM     48  C   UNL A   1      41.803  30.332  35.753  1.00  0.00     0.029 A 
ATOM     49  N   UNL A   1      41.574  29.674  33.642  1.00  0.00    -0.354 N 
ATOM     50  N   UNL A   1      42.221  28.091  31.265  1.00  0.00    -0.248 NA
ATOM     51  C   UNL A   1      43.637  26.612  30.142  1.00  0.00     0.031 C 
ATOM     52  C   UNL A   1      42.767  29.353  35.486  1.00  0.00     0.029 A 
ATOM     53  C   UNL A   1      42.621  28.941  34.172  1.00  0.00     0.049 A 
ATOM     54  H   UNL A   1      41.238  29.594  32.720  1.00  0.00     0.167 HD
ATOM     55  C   UNL A   1      43.190  27.629  32.149  1.00  0.00     0.074 A 
ATOM     56  C   UNL A   1      44.011  26.690  31.413  1.00  0.00     0.031 C 
ATOM     57  C   UNL A   1      43.394  27.966  33.447  1.00  0.00     0.034 A 
BRANCH  44  58
ATOM     58  C   UNL A   1      39.576  32.357  35.519  1.00  0.00     0.023 A 
ATOM     59  C   UNL A   1      38.773  31.837  36.554  1.00  0.00     0.012 A 
ATOM     60  C   UNL A   1      40.024  33.689  35.593  1.00  0.00     0.148 A 
ATOM     61  C   UNL A   1      38.398  32.637  37.632  1.00  0.00     0.002 A 
ATOM     62  C   UNL A   1      39.677  34.471  36.690  1.00  0.00     0.091 A 
ATOM     63  F   UNL A   1      40.764  34.173  34.586  1.00  0.00    -0.205 F 
ATOM     64  C   UNL A   1      38.858  33.949  37.705  1.00  0.00     0.022 A 
BRANCH  62  65
ATOM     65  S   UNL A   1      40.277  36.151  36.902  1.00  0.00     0.127 S 
ATOM     66  O   UNL A   1      41.719  35.938  37.007  1.00  0.00    -0.237 OA
ATOM     67  O   UNL A   1      39.843  36.796  35.663  1.00  0.00    -0.237 OA
ATOM     68  O   UNL A   1      39.627  36.655  38.104  1.00  0.00    -0.744 OA
ENDBRANCH  62  65
ENDBRANCH  44  58
BRANCH  45  69
ATOM     69  C   UNL A   1      42.092  26.759  27.650  1.00  0.00     0.023 A 
ATOM     70  C   UNL A   1      42.843  27.354  26.619  1.00  0.00     0.012 A 
ATOM     71  C   UNL A   1      41.759  25.393  27.559  1.00  0.00     0.148 A 
ATOM     72  C   UNL A   1      43.235  26.609  25.505  1.00  0.00     0.002 A 
ATOM     73  C   UNL A   1      42.197  24.645  26.472  1.00  0.00     0.091 A 
ATOM     74  F   UNL A   1      41.023  24.851  28.539  1.00  0.00    -0.205 F 
ATOM     75  C   UNL A   1      42.922  25.254  25.436  1.00  0.00     0.022 A 
BRANCH  73  76
ATOM     76  S   UNL A   1      41.949  22.869  26.372  1.00  0.00     0.127 S 
ATOM     77  O   UNL A   1      42.610  22.404  27.588  1.00  0.00    -0.237 OA
ATOM     78  O   UNL A   1      40.489  22.763  26.385  1.00  0.00    -0.237 OA
ATOM     79  O   UNL A   1      42.564  22.461  25.116  1.00  0.00    -0.744 OA
ENDBRANCH  73  76
ENDBRANCH  45  69
BRANCH  57  80
ATOM     80  C   UNL A   1      44.536  27.303  34.172  1.00  0.00     0.023 A 
ATOM     81  C   UNL A   1      45.817  27.888  34.135  1.00  0.00     0.012 A 
ATOM     82  C   UNL A   1      44.326  26.149  34.954  1.00  0.00     0.148 A 
ATOM     83  C   UNL A   1      46.877  27.321  34.842  1.00  0.00     0.002 A 
ATOM     84  C   UNL A   1      45.377  25.615  35.691  1.00  0.00     0.091 A 
ATOM     85  F   UNL A   1      43.106  25.594  34.962  1.00  0.00    -0.205 F 
ATOM     86  C   UNL A   1      46.655  26.194  35.628  1.00  0.00     0.022 A 
BRANCH  84  87
ATOM     87  S   UNL A   1      45.154  24.219  36.799  1.00  0.00     0.127 S 
ATOM     88  O   UNL A   1      44.039  24.671  37.630  1.00  0.00    -0.237 OA
ATOM     89  O   UNL A   1      44.824  23.132  35.876  1.00  0.00    -0.237 OA
ATOM     90  O   UNL A   1      46.427  24.054  37.488  1.00  0.00    -0.744 OA
ENDBRANCH  84  87
ENDBRANCH  57  80
ENDBRANCH  31  32
ENDBRANCH  24  26
ENDBRANCH  23  24
ENDBRANCH  22  23
ENDBRANCH   1  22
TORSDOF 19
ENDMDL
MODEL 2
REMARK VINA RESULT:     -10.9      1.646      2.018
REMARK SMILES COc1ccc(-c2cc(C(=O)OCCOCCOC(=O)c3ccc(-c4c5nc(c(-c6cccc(S(=O)(=O)[O-])c6F)c6ccc([nH]6)c(-c6cccc(S(=O)(=O)[O-])c6F)c6nc(c(-c7cccc(S(=O)(=O)[O-])c7F)c7ccc4[nH]7)C=C6)C=C5)cc3)nn2C)cc1
REMARK SMILES IDX 16 1 15 2 14 3 13 4 12 5 10 6 11 7 9 8 7 9 8 10 85 11 84 12
REMARK SMILES IDX 86 13 6 14 3 15 4 16 88 17 5 18 87 19 2 20 1 21 17 22 18 23
REMARK SMILES IDX 19 24 20 25 21 26 22 27 83 28 23 29 82 30 24 31 25 32 26 33
REMARK SMILES IDX 76 34 27 35 81 36 75 37 77 38 28 39 80 40 74 41 73 42 29 44
REMARK SMILES IDX 61 45 41 46 60 47 42 48 45 49 59 50 78 51 43 52 44 53 58 55
REMARK SMILES IDX 79 56 46 57 30 58 31 59 39 60 32 61 34 62 40 63 33 64 35 65
REMARK SMILES IDX 36 66 37 67 38 68 62 69 63 70 71 71 64 72 66 73 72 74 65 75
REMARK SMILES IDX 67 76 68 77 69 78 70 79 47 80 48 81 56 82 49 83 51 84 57 85
REMARK SMILES IDX 50 86 52 87 53 88 54 89 55 90
REMARK H PARENT 77 43 45 54
REMARK Flexibility Score: inf
ROOT
ATOM      1  C   UNL A   1      31.771  30.869  26.551  1.00  0.00     0.202 C 
ENDROOT
BRANCH   1   2
ATOM      2  O   UNL A   1      31.004  30.411  25.434  1.00  0.00    -0.374 OA
BRANCH   2   3
ATOM      3  C   UNL A   1      31.520  29.262  24.755  1.00  0.00     0.202 C 
BRANCH   3   4
ATOM      4  C   UNL A   1      30.589  28.712  23.669  1.00  0.00     0.261 C 
BRANCH   4   5
ATOM      5  O   UNL A   1      31.090  27.460  23.175  1.00  0.00    -0.458 OA
BRANCH   5   6
ATOM      6  C   UNL A   1      30.376  26.350  23.535  1.00  0.00     0.358 C 
ATOM      7  O   UNL A   1      29.154  26.327  23.660  1.00  0.00    -0.244 OA
BRANCH   6   8
ATOM      8  C   UNL A   1      31.233  25.160  23.652  1.00  0.00     0.170 A 
ATOM      9  C   UNL A   1      32.022  23.076  23.943  1.00  0.00     0.069 A 
ATOM     10  C   UNL A   1      30.854  23.820  23.940  1.00  0.00     0.066 A 
ATOM     11  N   UNL A   1      33.017  23.994  23.705  1.00  0.00    -0.267 N 
ATOM     12  N   UNL A   1      32.570  25.249  23.535  1.00  0.00    -0.165 NA
ATOM     13  C   UNL A   1      34.440  23.771  23.600  1.00  0.00     0.174 C 
BRANCH   9  14
ATOM     14  C   UNL A   1      32.217  21.632  24.044  1.00  0.00     0.000 A 
ATOM     15  C   UNL A   1      32.727  18.869  24.140  1.00  0.00     0.118 A 
ATOM     16  C   UNL A   1      32.358  19.473  22.940  1.00  0.00     0.047 A 
ATOM     17  C   UNL A   1      32.840  19.639  25.297  1.00  0.00     0.047 A 
ATOM     18  C   UNL A   1      32.089  20.844  22.895  1.00  0.00     0.014 A 
ATOM     19  C   UNL A   1      32.577  21.016  25.250  1.00  0.00     0.014 A 
BRANCH  15  20
ATOM     20  O   UNL A   1      33.021  17.535  24.067  1.00  0.00    -0.497 OA
ATOM     21  C   UNL A   1      32.620  16.782  25.206  1.00  0.00     0.278 C 
ENDBRANCH  15  20
ENDBRANCH   9  14
ENDBRANCH   6   8
ENDBRANCH   5   6
ENDBRANCH   4   5
ENDBRANCH   3   4
ENDBRANCH   2   3
ENDBRANCH   1   2
BRANCH   1  22
ATOM     22  C   UNL A   1      31.624  32.365  26.846  1.00  0.00     0.261 C 
BRANCH  22  23
ATOM     23  O   UNL A   1      32.895  33.031  26.733  1.00  0.00    -0.460 OA
BRANCH  23  24
ATOM     24  C   UNL A   1      33.373  33.554  27.887  1.00  0.00     0.338 C 
ATOM     25  O   UNL A   1      32.818  34.362  28.613  1.00  0.00    -0.246 OA
BRANCH  24  26
ATOM     26  C   UNL A   1      34.633  32.876  28.261  1.00  0.00     0.060 A 
ATOM     27  C   UNL A   1      34.541  31.551  28.704  1.00  0.00     0.016 A 
ATOM     28  C   UNL A   1      35.872  33.523  28.223  1.00  0.00     0.016 A 
ATOM     29  C   UNL A   1      35.675  30.885  29.162  1.00  0.00     0.010 A 
ATOM     30  C   UNL A   1      37.010  32.854  28.686  1.00  0.00     0.010 A 
ATOM     31  C   UNL A   1      36.911  31.545  29.192  1.00  0.00    -0.014 A 
BRANCH  31  32
ATOM     32  C   UNL A   1      38.062  30.906  29.873  1.00  0.00     0.031 A 
ATOM     33  C   UNL A   1      38.373  31.282  31.296  1.00  0.00     0.074 A 
ATOM     34  C   UNL A   1      38.818  29.994  29.236  1.00  0.00     0.049 A 
ATOM     35  N   UNL A   1      39.312  30.828  32.084  1.00  0.00    -0.248 NA
ATOM     36  C   UNL A   1      37.510  32.303  31.912  1.00  0.00     0.031 C 
ATOM     37  C   UNL A   1      38.627  29.555  27.854  1.00  0.00     0.029 A 
ATOM     38  N   UNL A   1      39.913  29.287  29.667  1.00  0.00    -0.354 N 
ATOM     39  C   UNL A   1      39.169  31.520  33.281  1.00  0.00     0.074 A 
ATOM     40  C   UNL A   1      38.061  32.436  33.111  1.00  0.00     0.031 C 
ATOM     41  C   UNL A   1      39.589  28.670  27.542  1.00  0.00     0.029 A 
ATOM     42  C   UNL A   1      40.469  28.489  28.696  1.00  0.00     0.049 A 
ATOM     43  H   UNL A   1      40.266  29.346  30.584  1.00  0.00     0.167 HD
ATOM     44  C   UNL A   1      39.878  31.389  34.427  1.00  0.00     0.034 A 
ATOM     45  C   UNL A   1      41.568  27.708  28.731  1.00  0.00     0.034 A 
ATOM     46  C   UNL A   1      40.961  30.462  34.607  1.00  0.00     0.049 A 
ATOM     47  C   UNL A   1      42.346  27.586  30.017  1.00  0.00     0.074 A 
ATOM     48  C   UNL A   1      41.703  30.217  35.749  1.00  0.00     0.029 A 
ATOM     49  N   UNL A   1      41.466  29.635  33.616  1.00  0.00    -0.354 N 
ATOM     50  N   UNL A   1      42.108  28.139  31.181  1.00  0.00    -0.248 NA
ATOM     51  C   UNL A   1      43.523  26.705  30.001  1.00  0.00     0.031 C 
ATOM     52  C   UNL A   1      42.669  29.251  35.443  1.00  0.00     0.029 A 
ATOM     53  C   UNL A   1      42.518  28.886  34.116  1.00  0.00     0.049 A 
ATOM     54  H   UNL A   1      41.127  29.586  32.694  1.00  0.00     0.167 HD
ATOM     55  C   UNL A   1      43.082  27.649  32.044  1.00  0.00     0.074 A 
ATOM     56  C   UNL A   1      43.902  26.738  31.272  1.00  0.00     0.031 C 
ATOM     57  C   UNL A   1      43.291  27.939  33.353  1.00  0.00     0.034 A 
BRANCH  44  58
ATOM     58  C   UNL A   1      39.470  32.243  35.596  1.00  0.00     0.023 A 
ATOM     59  C   UNL A   1      39.936  33.571  35.678  1.00  0.00     0.012 A 
ATOM     60  C   UNL A   1      38.591  31.756  36.582  1.00  0.00     0.148 A 
ATOM     61  C   UNL A   1      39.556  34.393  36.737  1.00  0.00     0.002 A 
ATOM     62  C   UNL A   1      38.185  32.593  37.615  1.00  0.00     0.091 A 
ATOM     63  F   UNL A   1      38.181  30.482  36.502  1.00  0.00    -0.205 F 
ATOM     64  C   UNL A   1      38.673  33.908  37.699  1.00  0.00     0.022 A 
BRANCH  62  65
ATOM     65  S   UNL A   1      37.000  32.078  38.863  1.00  0.00     0.127 S 
ATOM     66  O   UNL A   1      35.798  32.795  38.442  1.00  0.00    -0.237 OA
ATOM     67  O   UNL A   1      36.948  30.630  38.663  1.00  0.00    -0.237 OA
ATOM     68  O   UNL A   1      37.564  32.491  40.140  1.00  0.00    -0.744 OA
ENDBRANCH  62  65
ENDBRANCH  44  58
BRANCH  45  69
ATOM     69  C   UNL A   1      41.968  26.936  27.522  1.00  0.00     0.023 A 
ATOM     70  C   UNL A   1      42.584  27.602  26.446  1.00  0.00     0.012 A 
ATOM     71  C   UNL A   1      41.764  25.544  27.444  1.00  0.00     0.148 A 
ATOM     72  C   UNL A   1      42.971  26.900  25.303  1.00  0.00     0.002 A 
ATOM     73  C   UNL A   1      42.199  24.843  26.326  1.00  0.00     0.091 A 
ATOM     74  F   UNL A   1      41.154  24.933  28.469  1.00  0.00    -0.205 F 
ATOM     75  C   UNL A   1      42.789  25.521  25.247  1.00  0.00     0.022 A 
BRANCH  73  76
ATOM     76  S   UNL A   1      42.120  23.051  26.230  1.00  0.00     0.127 S 
ATOM     77  O   UNL A   1      40.681  22.811  26.289  1.00  0.00    -0.237 OA
ATOM     78  O   UNL A   1      42.737  22.787  24.930  1.00  0.00    -0.237 OA
ATOM     79  O   UNL A   1      42.894  22.567  27.366  1.00  0.00    -0.744 OA
ENDBRANCH  73  76
ENDBRANCH  45  69
BRANCH  57  80
ATOM     80  C   UNL A   1      44.437  27.254  34.049  1.00  0.00     0.023 A 
ATOM     81  C   UNL A   1      45.731  27.805  33.964  1.00  0.00     0.012 A 
ATOM     82  C   UNL A   1      44.222  26.115  34.851  1.00  0.00     0.148 A 
ATOM     83  C   UNL A   1      46.798  27.218  34.644  1.00  0.00     0.002 A 
ATOM     84  C   UNL A   1      45.281  25.562  35.560  1.00  0.00     0.091 A 
ATOM     85  F   UNL A   1      42.989  25.592  34.904  1.00  0.00    -0.205 F 
ATOM     86  C   UNL A   1      46.572  26.105  35.450  1.00  0.00     0.022 A 
BRANCH  84  87
ATOM     87  S   UNL A   1      45.057  24.184  36.692  1.00  0.00     0.127 S 
ATOM     88  O   UNL A   1      44.596  23.129  35.792  1.00  0.00    -0.237 OA
ATOM     89  O   UNL A   1      46.408  23.987  37.220  1.00  0.00    -0.237 OA
ATOM     90  O   UNL A   1      44.089  24.638  37.680  1.00  0.00    -0.744 OA
ENDBRANCH  84  87
ENDBRANCH  57  80
ENDBRANCH  31  32
ENDBRANCH  24  26
ENDBRANCH  23  24
ENDBRANCH  22  23
ENDBRANCH   1  22
TORSDOF 19
ENDMDL
MODEL 3
REMARK VINA RESULT:     -10.3      2.388      3.361
REMARK SMILES COc1ccc(-c2cc(C(=O)OCCOCCOC(=O)c3ccc(-c4c5nc(c(-c6cccc(S(=O)(=O)[O-])c6F)c6ccc([nH]6)c(-c6cccc(S(=O)(=O)[O-])c6F)c6nc(c(-c7cccc(S(=O)(=O)[O-])c7F)c7ccc4[nH]7)C=C6)C=C5)cc3)nn2C)cc1
REMARK SMILES IDX 16 1 15 2 14 3 13 4 12 5 10 6 11 7 9 8 7 9 8 10 85 11 84 12
REMARK SMILES IDX 86 13 6 14 3 15 4 16 88 17 5 18 87 19 2 20 1 21 17 22 18 23
REMARK SMILES IDX 19 24 20 25 21 26 22 27 83 28 23 29 82 30 24 31 25 32 26 33
REMARK SMILES IDX 76 34 27 35 81 36 75 37 77 38 28 39 80 40 74 41 73 42 29 44
REMARK SMILES IDX 61 45 41 46 60 47 42 48 45 49 59 50 78 51 43 52 44 53 58 55
REMARK SMILES IDX 79 56 46 57 30 58 31 59 39 60 32 61 34 62 40 63 33 64 35 65
REMARK SMILES IDX 36 66 37 67 38 68 62 69 63 70 71 71 64 72 66 73 72 74 65 75
REMARK SMILES IDX 67 76 68 77 69 78 70 79 47 80 48 81 56 82 49 83 51 84 57 85
REMARK SMILES IDX 50 86 52 87 53 88 54 89 55 90
REMARK H PARENT 77 43 45 54
REMARK Flexibility Score: inf
ROOT
ATOM      1  C   UNL A   1      33.843  28.242  26.448  1.00  0.00     0.202 C 
ENDROOT
BRANCH   1   2
ATOM      2  O   UNL A   1      32.946  27.163  26.168  1.00  0.00    -0.374 OA
BRANCH   2   3
ATOM      3  C   UNL A   1      33.499  26.071  25.426  1.00  0.00     0.202 C 
BRANCH   3   4
ATOM      4  C   UNL A   1      32.602  24.829  25.388  1.00  0.00     0.261 C 
BRANCH   4   5
ATOM      5  O   UNL A   1      32.242  24.520  24.031  1.00  0.00    -0.458 OA
BRANCH   5   6
ATOM      6  C   UNL A   1      33.237  23.985  23.259  1.00  0.00     0.358 C 
ATOM      7  O   UNL A   1      33.697  24.527  22.257  1.00  0.00    -0.244 OA
BRANCH   6   8
ATOM      8  C   UNL A   1      33.764  22.736  23.829  1.00  0.00     0.170 A 
ATOM      9  C   UNL A   1      34.028  20.626  24.554  1.00  0.00     0.069 A 
ATOM     10  C   UNL A   1      33.117  21.475  23.951  1.00  0.00     0.066 A 
ATOM     11  N   UNL A   1      35.128  21.413  24.795  1.00  0.00    -0.267 N 
ATOM     12  N   UNL A   1      34.991  22.682  24.377  1.00  0.00    -0.165 NA
ATOM     13  C   UNL A   1      36.383  21.044  25.408  1.00  0.00     0.174 C 
BRANCH   9  14
ATOM     14  C   UNL A   1      33.953  19.187  24.798  1.00  0.00     0.000 A 
ATOM     15  C   UNL A   1      33.667  16.416  25.174  1.00  0.00     0.118 A 
ATOM     16  C   UNL A   1      32.737  17.298  25.721  1.00  0.00     0.047 A 
ATOM     17  C   UNL A   1      34.745  16.913  24.442  1.00  0.00     0.047 A 
ATOM     18  C   UNL A   1      32.887  18.676  25.547  1.00  0.00     0.014 A 
ATOM     19  C   UNL A   1      34.891  18.295  24.261  1.00  0.00     0.014 A 
BRANCH  15  20
ATOM     20  O   UNL A   1      33.401  15.086  25.354  1.00  0.00    -0.497 OA
ATOM     21  C   UNL A   1      32.040  14.794  25.649  1.00  0.00     0.278 C 
ENDBRANCH  15  20
ENDBRANCH   9  14
ENDBRANCH   6   8
ENDBRANCH   5   6
ENDBRANCH   4   5
ENDBRANCH   3   4
ENDBRANCH   2   3
ENDBRANCH   1   2
BRANCH   1  22
ATOM     22  C   UNL A   1      33.193  29.434  27.156  1.00  0.00     0.261 C 
BRANCH  22  23
ATOM     23  O   UNL A   1      33.963  30.631  26.941  1.00  0.00    -0.460 OA
BRANCH  23  24
ATOM     24  C   UNL A   1      34.576  31.124  28.044  1.00  0.00     0.338 C 
ATOM     25  O   UNL A   1      34.137  31.956  28.820  1.00  0.00    -0.246 OA
BRANCH  24  26
ATOM     26  C   UNL A   1      35.830  30.380  28.294  1.00  0.00     0.060 A 
ATOM     27  C   UNL A   1      35.947  29.717  29.521  1.00  0.00     0.016 A 
ATOM     28  C   UNL A   1      36.886  30.361  27.377  1.00  0.00     0.016 A 
ATOM     29  C   UNL A   1      37.137  29.078  29.861  1.00  0.00     0.010 A 
ATOM     30  C   UNL A   1      38.082  29.721  27.721  1.00  0.00     0.010 A 
ATOM     31  C   UNL A   1      38.226  29.108  28.980  1.00  0.00    -0.014 A 
BRANCH  31  32
ATOM     32  C   UNL A   1      39.547  28.613  29.434  1.00  0.00     0.031 A 
ATOM     33  C   UNL A   1      40.274  29.355  30.522  1.00  0.00     0.074 A 
ATOM     34  C   UNL A   1      40.090  27.508  28.892  1.00  0.00     0.049 A 
ATOM     35  N   UNL A   1      41.422  29.082  31.084  1.00  0.00    -0.248 NA
ATOM     36  C   UNL A   1      39.620  30.566  31.045  1.00  0.00     0.031 C 
ATOM     37  C   UNL A   1      39.490  26.709  27.824  1.00  0.00     0.029 A 
ATOM     38  N   UNL A   1      41.281  26.880  29.157  1.00  0.00    -0.354 N 
ATOM     39  C   UNL A   1      41.639  30.093  32.012  1.00  0.00     0.074 A 
ATOM     40  C   UNL A   1      40.512  30.996  31.926  1.00  0.00     0.031 C 
ATOM     41  C   UNL A   1      40.330  25.708  27.507  1.00  0.00     0.029 A 
ATOM     42  C   UNL A   1      41.528  25.803  28.341  1.00  0.00     0.049 A 
ATOM     43  H   UNL A   1      41.899  27.173  29.865  1.00  0.00     0.167 HD
ATOM     44  C   UNL A   1      42.672  30.245  32.875  1.00  0.00     0.034 A 
ATOM     45  C   UNL A   1      42.602  24.991  28.267  1.00  0.00     0.034 A 
ATOM     46  C   UNL A   1      43.780  29.336  32.979  1.00  0.00     0.049 A 
ATOM     47  C   UNL A   1      43.743  25.187  29.233  1.00  0.00     0.074 A 
ATOM     48  C   UNL A   1      44.845  29.376  33.862  1.00  0.00     0.029 A 
ATOM     49  N   UNL A   1      43.973  28.229  32.169  1.00  0.00    -0.354 N 
ATOM     50  N   UNL A   1      43.864  26.062  30.200  1.00  0.00    -0.248 NA
ATOM     51  C   UNL A   1      44.879  24.259  29.118  1.00  0.00     0.031 C 
ATOM     52  C   UNL A   1      45.691  28.299  33.573  1.00  0.00     0.029 A 
ATOM     53  C   UNL A   1      45.146  27.583  32.521  1.00  0.00     0.049 A 
ATOM     54  H   UNL A   1      43.366  27.943  31.448  1.00  0.00     0.167 HD
ATOM     55  C   UNL A   1      45.070  25.773  30.830  1.00  0.00     0.074 A 
ATOM     56  C   UNL A   1      45.632  24.626  30.147  1.00  0.00     0.031 C 
ATOM     57  C   UNL A   1      45.667  26.408  31.870  1.00  0.00     0.034 A 
BRANCH  44  58
ATOM     58  C   UNL A   1      42.626  31.422  33.811  1.00  0.00     0.023 A 
ATOM     59  C   UNL A   1      43.301  32.609  33.461  1.00  0.00     0.012 A 
ATOM     60  C   UNL A   1      41.879  31.376  35.002  1.00  0.00     0.148 A 
ATOM     61  C   UNL A   1      43.256  33.723  34.297  1.00  0.00     0.002 A 
ATOM     62  C   UNL A   1      41.807  32.503  35.813  1.00  0.00     0.091 A 
ATOM     63  F   UNL A   1      41.267  30.229  35.331  1.00  0.00    -0.205 F 
ATOM     64  C   UNL A   1      42.501  33.674  35.466  1.00  0.00     0.022 A 
BRANCH  62  65
ATOM     65  S   UNL A   1      40.808  32.554  37.305  1.00  0.00     0.127 S 
ATOM     66  O   UNL A   1      40.478  33.976  37.390  1.00  0.00    -0.237 OA
ATOM     67  O   UNL A   1      39.682  31.687  36.955  1.00  0.00    -0.237 OA
ATOM     68  O   UNL A   1      41.658  32.041  38.370  1.00  0.00    -0.744 OA
ENDBRANCH  62  65
ENDBRANCH  44  58
BRANCH  45  69
ATOM     69  C   UNL A   1      42.626  23.882  27.273  1.00  0.00     0.023 A 
ATOM     70  C   UNL A   1      43.265  24.074  26.034  1.00  0.00     0.012 A 
ATOM     71  C   UNL A   1      42.043  22.632  27.560  1.00  0.00     0.148 A 
ATOM     72  C   UNL A   1      43.304  23.049  25.087  1.00  0.00     0.002 A 
ATOM     73  C   UNL A   1      42.131  21.599  26.634  1.00  0.00     0.091 A 
ATOM     74  F   UNL A   1      41.419  22.476  28.736  1.00  0.00    -0.205 F 
ATOM     75  C   UNL A   1      42.748  21.809  25.391  1.00  0.00     0.022 A 
BRANCH  73  76
ATOM     76  S   UNL A   1      41.555  19.937  26.999  1.00  0.00     0.127 S 
ATOM     77  O   UNL A   1      40.915  19.559  25.742  1.00  0.00    -0.237 OA
ATOM     78  O   UNL A   1      42.807  19.236  27.288  1.00  0.00    -0.237 OA
ATOM     79  O   UNL A   1      40.671  20.075  28.149  1.00  0.00    -0.744 OA
ENDBRANCH  73  76
ENDBRANCH  45  69
BRANCH  57  80
ATOM     80  C   UNL A   1      46.989  25.872  32.353  1.00  0.00     0.023 A 
ATOM     81  C   UNL A   1      48.185  26.360  31.790  1.00  0.00     0.012 A 
ATOM     82  C   UNL A   1      47.052  24.950  33.417  1.00  0.00     0.148 A 
ATOM     83  C   UNL A   1      49.422  25.918  32.259  1.00  0.00     0.002 A 
ATOM     84  C   UNL A   1      48.288  24.547  33.907  1.00  0.00     0.091 A 
ATOM     85  F   UNL A   1      45.904  24.480  33.927  1.00  0.00    -0.205 F 
ATOM     86  C   UNL A   1      49.474  25.022  33.323  1.00  0.00     0.022 A 
BRANCH  84  87
ATOM     87  S   UNL A   1      48.444  23.466  35.334  1.00  0.00     0.127 S 
ATOM     88  O   UNL A   1      49.894  23.313  35.437  1.00  0.00    -0.237 OA
ATOM     89  O   UNL A   1      47.838  24.263  36.402  1.00  0.00    -0.237 OA
ATOM     90  O   UNL A   1      47.705  22.257  34.997  1.00  0.00    -0.744 OA
ENDBRANCH  84  87
ENDBRANCH  57  80
ENDBRANCH  31  32
ENDBRANCH  24  26
ENDBRANCH  23  24
ENDBRANCH  22  23
ENDBRANCH   1  22
TORSDOF 19
ENDMDL
