MODEL 1
REMARK VINA RESULT:     -12.4      0.000      0.000
REMARK SMILES O=C(CCC(=O)N1N=C(c2ccc(F)cc2)C[C@@H]1c1ccc2nccnc2c1)OCCOCCOC(=O)c1ccc(-c2c3nc(c(-c4cccc(S(=O)(=O)[O-])c4F)c4ccc([nH]4)c(-c4cccc(S(=O)(=O)[O-])c4F)c4nc(c(-c5cccc(S(=O)(=O)[O-])c5F)c5ccc2[nH]5)C=C4)C=C3)cc1
REMARK SMILES IDX 31 1 30 2 29 3 2 4 1 5 3 6 4 7 5 8 6 9 7 10 8 11 18 12 9 13
REMARK SMILES IDX 17 14 19 15 20 16 28 17 21 18 27 19 22 20 26 21 23 22 25 23
REMARK SMILES IDX 24 24 10 25 11 26 16 27 12 28 15 29 13 30 14 31 32 32 33 33
REMARK SMILES IDX 34 34 35 35 36 36 37 37 38 38 39 39 100 40 40 41 99 42 41 43
REMARK SMILES IDX 42 44 43 45 93 46 44 47 98 48 92 49 94 50 45 51 97 52 91 53
REMARK SMILES IDX 90 54 46 56 78 57 58 58 77 59 59 60 62 61 76 62 95 63 60 64
REMARK SMILES IDX 61 65 75 67 96 68 63 69 47 70 48 71 56 72 49 73 51 74 57 75
REMARK SMILES IDX 50 76 52 77 53 78 54 79 55 80 79 81 80 82 88 83 81 84 83 85
REMARK SMILES IDX 89 86 82 87 84 88 85 89 86 90 87 91 64 92 65 93 73 94 66 95
REMARK SMILES IDX 68 96 74 97 67 98 69 99 70 100 71 101 72 102
REMARK H PARENT 94 55 62 66
REMARK Flexibility Score: inf
ROOT
ATOM      1  C   UNL A   1      42.620  18.733  26.109  1.00  0.00     0.202 C 
ENDROOT
BRANCH   1   2
ATOM      2  C   UNL A   1      41.791  19.624  27.024  1.00  0.00     0.261 C 
BRANCH   2   3
ATOM      3  O   UNL A   1      40.820  20.271  26.187  1.00  0.00    -0.463 OA
BRANCH   3   4
ATOM      4  C   UNL A   1      40.611  21.603  26.242  1.00  0.00     0.306 C 
ATOM      5  O   UNL A   1      41.271  22.408  25.595  1.00  0.00    -0.252 OA
BRANCH   4   6
ATOM      6  C   UNL A   1      39.280  21.933  26.822  1.00  0.00     0.132 C 
BRANCH   6   7
ATOM      7  C   UNL A   1      38.311  22.035  25.655  1.00  0.00     0.114 C 
BRANCH   7   8
ATOM      8  C   UNL A   1      37.292  23.144  25.867  1.00  0.00     0.243 C 
ATOM      9  O   UNL A   1      37.713  24.228  26.294  1.00  0.00    -0.273 OA
BRANCH   8  10
ATOM     10  N   UNL A   1      35.971  22.948  25.471  1.00  0.00    -0.225 N 
ATOM     11  N   UNL A   1      35.809  21.693  24.958  1.00  0.00    -0.174 NA
ATOM     12  C   UNL A   1      34.663  23.500  25.951  1.00  0.00     0.147 C 
ATOM     13  C   UNL A   1      34.618  21.285  25.254  1.00  0.00     0.071 C 
ATOM     14  C   UNL A   1      33.703  22.308  25.850  1.00  0.00     0.091 C 
BRANCH  12  15
ATOM     15  C   UNL A   1      34.068  24.720  25.215  1.00  0.00    -0.021 A 
ATOM     16  C   UNL A   1      34.084  24.672  23.420  1.00  0.00     0.008 A 
ATOM     17  C   UNL A   1      33.215  26.079  26.023  1.00  0.00     0.036 A 
ATOM     18  C   UNL A   1      33.264  25.952  22.451  1.00  0.00     0.031 A 
ATOM     19  C   UNL A   1      32.408  27.419  25.082  1.00  0.00     0.089 A 
ATOM     20  C   UNL A   1      32.378  27.315  23.260  1.00  0.00     0.089 A 
ATOM     21  N   UNL A   1      31.824  28.490  25.635  1.00  0.00    -0.253 NA
ATOM     22  N   UNL A   1      31.710  28.256  22.587  1.00  0.00    -0.253 NA
ATOM     23  C   UNL A   1      31.263  29.370  24.754  1.00  0.00     0.132 A 
ATOM     24  C   UNL A   1      31.202  29.257  23.349  1.00  0.00     0.132 A 
ENDBRANCH  12  15
BRANCH  13  25
ATOM     25  C   UNL A   1      34.267  19.868  25.093  1.00  0.00    -0.002 A 
ATOM     26  C   UNL A   1      32.965  19.393  25.229  1.00  0.00     0.013 A 
ATOM     27  C   UNL A   1      35.316  19.004  24.724  1.00  0.00     0.013 A 
ATOM     28  C   UNL A   1      32.703  18.062  24.897  1.00  0.00     0.040 A 
ATOM     29  C   UNL A   1      35.047  17.687  24.392  1.00  0.00     0.040 A 
ATOM     30  C   UNL A   1      33.737  17.246  24.438  1.00  0.00     0.123 A 
ATOM     31  F   UNL A   1      33.467  16.040  23.943  1.00  0.00    -0.207 F 
ENDBRANCH  13  25
ENDBRANCH   8  10
ENDBRANCH   7   8
ENDBRANCH   6   7
ENDBRANCH   4   6
ENDBRANCH   3   4
ENDBRANCH   2   3
ENDBRANCH   1   2
BRANCH   1  32
ATOM     32  O   UNL A   1      43.106  19.526  25.030  1.00  0.00    -0.374 OA
BRANCH  32  33
ATOM     33  C   UNL A   1      44.132  20.494  25.319  1.00  0.00     0.202 C 
BRANCH  33  34
ATOM     34  C   UNL A   1      44.225  21.949  24.478  1.00  0.00     0.261 C 
BRANCH  34  35
ATOM     35  O   UNL A   1      45.112  23.695  24.960  1.00  0.00    -0.460 OA
BRANCH  35  36
ATOM     36  C   UNL A   1      45.363  25.095  25.093  1.00  0.00     0.338 C 
ATOM     37  O   UNL A   1      46.359  25.702  24.709  1.00  0.00    -0.246 OA
BRANCH  36  38
ATOM     38  C   UNL A   1      44.315  25.909  25.730  1.00  0.00     0.060 A 
ATOM     39  C   UNL A   1      44.265  27.296  25.552  1.00  0.00     0.016 A 
ATOM     40  C   UNL A   1      43.642  25.305  26.799  1.00  0.00     0.016 A 
ATOM     41  C   UNL A   1      43.577  28.084  26.476  1.00  0.00     0.010 A 
ATOM     42  C   UNL A   1      42.955  26.090  27.715  1.00  0.00     0.010 A 
ATOM     43  C   UNL A   1      42.967  27.486  27.585  1.00  0.00    -0.014 A 
BRANCH  43  44
ATOM     44  C   UNL A   1      42.448  28.304  28.701  1.00  0.00     0.031 A 
ATOM     45  C   UNL A   1      43.192  28.323  30.007  1.00  0.00     0.074 A 
ATOM     46  C   UNL A   1      41.276  28.944  28.555  1.00  0.00     0.049 A 
ATOM     47  N   UNL A   1      42.848  28.873  31.139  1.00  0.00    -0.248 NA
ATOM     48  C   UNL A   1      44.501  27.645  30.041  1.00  0.00     0.031 C 
ATOM     49  C   UNL A   1      40.504  29.009  27.316  1.00  0.00     0.029 A 
ATOM     50  N   UNL A   1      40.501  29.606  29.472  1.00  0.00    -0.354 N 
ATOM     51  C   UNL A   1      43.895  28.622  32.018  1.00  0.00     0.074 A 
ATOM     52  C   UNL A   1      44.872  27.832  31.302  1.00  0.00     0.031 C 
ATOM     53  C   UNL A   1      39.319  29.585  27.575  1.00  0.00     0.029 A 
ATOM     54  C   UNL A   1      39.249  29.905  28.992  1.00  0.00     0.049 A 
ATOM     55  H   UNL A   1      40.809  29.840  30.377  1.00  0.00     0.167 HD
ATOM     56  C   UNL A   1      44.037  29.050  33.295  1.00  0.00     0.034 A 
ATOM     57  C   UNL A   1      38.154  30.351  29.634  1.00  0.00     0.034 A 
ATOM     58  C   UNL A   1      43.051  29.852  33.969  1.00  0.00     0.049 A 
ATOM     59  C   UNL A   1      38.291  30.739  31.075  1.00  0.00     0.074 A 
ATOM     60  C   UNL A   1      43.122  30.434  35.221  1.00  0.00     0.029 A 
ATOM     61  N   UNL A   1      41.806  30.172  33.445  1.00  0.00    -0.354 N 
ATOM     62  N   UNL A   1      39.338  30.618  31.855  1.00  0.00    -0.248 NA
ATOM     63  C   UNL A   1      37.136  31.392  31.701  1.00  0.00     0.031 C 
ATOM     64  C   UNL A   1      41.908  31.085  35.464  1.00  0.00     0.029 A 
ATOM     65  C   UNL A   1      41.090  30.927  34.355  1.00  0.00     0.049 A 
ATOM     66  H   UNL A   1      41.482  29.900  32.557  1.00  0.00     0.167 HD
ATOM     67  C   UNL A   1      38.995  31.239  33.047  1.00  0.00     0.074 A 
ATOM     68  C   UNL A   1      37.631  31.711  32.892  1.00  0.00     0.031 C 
ATOM     69  C   UNL A   1      39.748  31.418  34.159  1.00  0.00     0.034 A 
BRANCH  56  70
ATOM     70  C   UNL A   1      45.320  28.731  34.017  1.00  0.00     0.023 A 
ATOM     71  C   UNL A   1      45.435  27.506  34.707  1.00  0.00     0.012 A 
ATOM     72  C   UNL A   1      46.436  29.589  33.947  1.00  0.00     0.148 A 
ATOM     73  C   UNL A   1      46.629  27.151  35.335  1.00  0.00     0.002 A 
ATOM     74  C   UNL A   1      47.634  29.211  34.546  1.00  0.00     0.091 A 
ATOM     75  F   UNL A   1      46.304  30.758  33.305  1.00  0.00    -0.205 F 
ATOM     76  C   UNL A   1      47.731  27.997  35.246  1.00  0.00     0.022 A 
BRANCH  74  77
ATOM     77  S   UNL A   1      49.132  30.199  34.427  1.00  0.00     0.127 S 
ATOM     78  O   UNL A   1      49.353  30.229  32.982  1.00  0.00    -0.237 OA
ATOM     79  O   UNL A   1      48.710  31.474  35.006  1.00  0.00    -0.237 OA
ATOM     80  O   UNL A   1      50.141  29.489  35.200  1.00  0.00    -0.744 OA
ENDBRANCH  74  77
ENDBRANCH  56  70
BRANCH  57  81
ATOM     81  C   UNL A   1      36.877  30.492  28.889  1.00  0.00     0.023 A 
ATOM     82  C   UNL A   1      36.238  29.346  28.386  1.00  0.00     0.012 A 
ATOM     83  C   UNL A   1      36.244  31.747  28.765  1.00  0.00     0.148 A 
ATOM     84  C   UNL A   1      34.987  29.445  27.772  1.00  0.00     0.002 A 
ATOM     85  C   UNL A   1      34.993  31.837  28.162  1.00  0.00     0.091 A 
ATOM     86  F   UNL A   1      36.867  32.828  29.256  1.00  0.00    -0.205 F 
ATOM     87  C   UNL A   1      34.360  30.687  27.667  1.00  0.00     0.022 A 
BRANCH  85  88
ATOM     88  S   UNL A   1      34.095  33.400  28.110  1.00  0.00     0.127 S 
ATOM     89  O   UNL A   1      32.813  32.992  27.544  1.00  0.00    -0.237 OA
ATOM     90  O   UNL A   1      34.035  33.798  29.519  1.00  0.00    -0.237 OA
ATOM     91  O   UNL A   1      34.911  34.277  27.275  1.00  0.00    -0.744 OA
ENDBRANCH  85  88
ENDBRANCH  57  81
BRANCH  69  92
ATOM     92  C   UNL A   1      39.140  32.194  35.291  1.00  0.00     0.023 A 
ATOM     93  C   UNL A   1      39.016  33.590  35.192  1.00  0.00     0.012 A 
ATOM     94  C   UNL A   1      38.585  31.517  36.396  1.00  0.00     0.148 A 
ATOM     95  C   UNL A   1      38.353  34.309  36.185  1.00  0.00     0.002 A 
ATOM     96  C   UNL A   1      37.887  32.233  37.358  1.00  0.00     0.091 A 
ATOM     97  F   UNL A   1      38.736  30.187  36.471  1.00  0.00    -0.205 F 
ATOM     98  C   UNL A   1      37.777  33.630  37.258  1.00  0.00     0.022 A 
BRANCH  96  99
ATOM     99  S   UNL A   1      37.030  31.437  38.718  1.00  0.00     0.127 S 
ATOM    100  O   UNL A   1      36.924  30.060  38.238  1.00  0.00    -0.237 OA
ATOM    101  O   UNL A   1      37.966  31.627  39.827  1.00  0.00    -0.237 OA
ATOM    102  O   UNL A   1      35.763  32.141  38.868  1.00  0.00    -0.744 OA
ENDBRANCH  96  99
ENDBRANCH  69  92
ENDBRANCH  43  44
ENDBRANCH  36  38
ENDBRANCH  35  36
ENDBRANCH  34  35
ENDBRANCH  33  34
ENDBRANCH  32  33
ENDBRANCH   1  32
TORSDOF 22
ENDMDL
MODEL 2
REMARK VINA RESULT:     -11.4      5.401     11.023
REMARK SMILES O=C(CCC(=O)N1N=C(c2ccc(F)cc2)C[C@@H]1c1ccc2nccnc2c1)OCCOCCOC(=O)c1ccc(-c2c3nc(c(-c4cccc(S(=O)(=O)[O-])c4F)c4ccc([nH]4)c(-c4cccc(S(=O)(=O)[O-])c4F)c4nc(c(-c5cccc(S(=O)(=O)[O-])c5F)c5ccc2[nH]5)C=C4)C=C3)cc1
REMARK SMILES IDX 31 1 30 2 29 3 2 4 1 5 3 6 4 7 5 8 6 9 7 10 8 11 18 12 9 13
REMARK SMILES IDX 17 14 19 15 20 16 28 17 21 18 27 19 22 20 26 21 23 22 25 23
REMARK SMILES IDX 24 24 10 25 11 26 16 27 12 28 15 29 13 30 14 31 32 32 33 33
REMARK SMILES IDX 34 34 35 35 36 36 37 37 38 38 39 39 100 40 40 41 99 42 41 43
REMARK SMILES IDX 42 44 43 45 93 46 44 47 98 48 92 49 94 50 45 51 97 52 91 53
REMARK SMILES IDX 90 54 46 56 78 57 58 58 77 59 59 60 62 61 76 62 95 63 60 64
REMARK SMILES IDX 61 65 75 67 96 68 63 69 47 70 48 71 56 72 49 73 51 74 57 75
REMARK SMILES IDX 50 76 52 77 53 78 54 79 55 80 79 81 80 82 88 83 81 84 83 85
REMARK SMILES IDX 89 86 82 87 84 88 85 89 86 90 87 91 64 92 65 93 73 94 66 95
REMARK SMILES IDX 68 96 74 97 67 98 69 99 70 100 71 101 72 102
REMARK H PARENT 94 55 62 66
REMARK Flexibility Score: inf
ROOT
ATOM      1  C   UNL A   1      33.765  35.315  32.209  1.00  0.00     0.202 C 
ENDROOT
BRANCH   1   2
ATOM      2  C   UNL A   1      32.554  35.740  31.390  1.00  0.00     0.261 C 
BRANCH   2   3
ATOM      3  O   UNL A   1      32.658  35.059  30.130  1.00  0.00    -0.463 OA
BRANCH   3   4
ATOM      4  C   UNL A   1      33.109  35.683  29.021  1.00  0.00     0.306 C 
ATOM      5  O   UNL A   1      32.647  36.744  28.620  1.00  0.00    -0.252 OA
BRANCH   4   6
ATOM      6  C   UNL A   1      34.445  35.175  28.603  1.00  0.00     0.132 C 
BRANCH   6   7
ATOM      7  C   UNL A   1      34.265  33.702  28.272  1.00  0.00     0.114 C 
BRANCH   7   8
ATOM      8  C   UNL A   1      35.602  33.003  28.081  1.00  0.00     0.243 C 
ATOM      9  O   UNL A   1      36.624  33.700  28.158  1.00  0.00    -0.273 OA
BRANCH   8  10
ATOM     10  N   UNL A   1      35.640  31.616  27.951  1.00  0.00    -0.225 N 
ATOM     11  N   UNL A   1      36.924  31.162  28.064  1.00  0.00    -0.174 NA
ATOM     12  C   UNL A   1      34.661  30.529  28.272  1.00  0.00     0.147 C 
ATOM     13  C   UNL A   1      36.894  30.001  28.631  1.00  0.00     0.071 C 
ATOM     14  C   UNL A   1      35.539  29.390  28.807  1.00  0.00     0.091 C 
BRANCH  12  15
ATOM     15  C   UNL A   1      33.751  30.004  27.139  1.00  0.00    -0.021 A 
ATOM     16  C   UNL A   1      32.237  30.917  26.826  1.00  0.00     0.008 A 
ATOM     17  C   UNL A   1      34.189  28.670  26.018  1.00  0.00     0.036 A 
ATOM     18  C   UNL A   1      31.182  30.509  25.423  1.00  0.00     0.031 A 
ATOM     19  C   UNL A   1      33.130  28.196  24.608  1.00  0.00     0.089 A 
ATOM     20  C   UNL A   1      31.630  29.180  24.269  1.00  0.00     0.089 A 
ATOM     21  N   UNL A   1      33.373  27.165  23.789  1.00  0.00    -0.253 NA
ATOM     22  N   UNL A   1      30.911  28.877  23.186  1.00  0.00    -0.253 NA
ATOM     23  C   UNL A   1      32.464  26.989  22.785  1.00  0.00     0.132 A 
ATOM     24  C   UNL A   1      31.334  27.785  22.501  1.00  0.00     0.132 A 
ENDBRANCH  12  15
BRANCH  13  25
ATOM     25  C   UNL A   1      38.134  29.406  29.148  1.00  0.00    -0.002 A 
ATOM     26  C   UNL A   1      38.175  28.642  30.312  1.00  0.00     0.013 A 
ATOM     27  C   UNL A   1      39.289  29.593  28.365  1.00  0.00     0.013 A 
ATOM     28  C   UNL A   1      39.364  27.984  30.634  1.00  0.00     0.040 A 
ATOM     29  C   UNL A   1      40.462  28.932  28.688  1.00  0.00     0.040 A 
ATOM     30  C   UNL A   1      40.470  28.100  29.793  1.00  0.00     0.123 A 
ATOM     31  F   UNL A   1      41.541  27.332  29.987  1.00  0.00    -0.207 F 
ENDBRANCH  13  25
ENDBRANCH   8  10
ENDBRANCH   7   8
ENDBRANCH   6   7
ENDBRANCH   4   6
ENDBRANCH   3   4
ENDBRANCH   2   3
ENDBRANCH   1   2
BRANCH   1  32
ATOM     32  O   UNL A   1      33.687  33.910  32.431  1.00  0.00    -0.374 OA
BRANCH  32  33
ATOM     33  C   UNL A   1      34.827  33.263  33.025  1.00  0.00     0.202 C 
BRANCH  33  34
ATOM     34  C   UNL A   1      35.902  34.108  34.007  1.00  0.00     0.261 C 
BRANCH  34  35
ATOM     35  O   UNL A   1      37.656  33.548  34.828  1.00  0.00    -0.460 OA
BRANCH  35  36
ATOM     36  C   UNL A   1      38.611  32.974  35.723  1.00  0.00     0.338 C 
ATOM     37  O   UNL A   1      38.714  33.196  36.927  1.00  0.00    -0.246 OA
BRANCH  36  38
ATOM     38  C   UNL A   1      39.557  31.997  35.163  1.00  0.00     0.060 A 
ATOM     39  C   UNL A   1      40.938  32.151  35.321  1.00  0.00     0.016 A 
ATOM     40  C   UNL A   1      39.045  31.158  34.165  1.00  0.00     0.016 A 
ATOM     41  C   UNL A   1      41.808  31.499  34.446  1.00  0.00     0.010 A 
ATOM     42  C   UNL A   1      39.912  30.508  33.297  1.00  0.00     0.010 A 
ATOM     43  C   UNL A   1      41.294  30.721  33.402  1.00  0.00    -0.014 A 
BRANCH  43  44
ATOM     44  C   UNL A   1      42.170  30.224  32.321  1.00  0.00     0.031 A 
ATOM     45  C   UNL A   1      42.911  28.930  32.513  1.00  0.00     0.074 A 
ATOM     46  C   UNL A   1      42.354  30.978  31.225  1.00  0.00     0.049 A 
ATOM     47  N   UNL A   1      43.814  28.380  31.747  1.00  0.00    -0.248 NA
ATOM     48  C   UNL A   1      42.587  28.145  33.718  1.00  0.00     0.031 C 
ATOM     49  C   UNL A   1      41.652  32.227  30.939  1.00  0.00     0.029 A 
ATOM     50  N   UNL A   1      43.232  30.838  30.183  1.00  0.00    -0.354 N 
ATOM     51  C   UNL A   1      44.159  27.183  32.365  1.00  0.00     0.074 A 
ATOM     52  C   UNL A   1      43.400  27.103  33.593  1.00  0.00     0.031 C 
ATOM     53  C   UNL A   1      42.199  32.792  29.850  1.00  0.00     0.029 A 
ATOM     54  C   UNL A   1      43.293  31.954  29.384  1.00  0.00     0.049 A 
ATOM     55  H   UNL A   1      43.763  30.024  30.024  1.00  0.00     0.167 HD
ATOM     56  C   UNL A   1      45.005  26.225  31.918  1.00  0.00     0.034 A 
ATOM     57  C   UNL A   1      44.161  32.281  28.410  1.00  0.00     0.034 A 
ATOM     58  C   UNL A   1      45.729  26.331  30.680  1.00  0.00     0.049 A 
ATOM     59  C   UNL A   1      45.159  31.251  27.979  1.00  0.00     0.074 A 
ATOM     60  C   UNL A   1      46.535  25.388  30.068  1.00  0.00     0.029 A 
ATOM     61  N   UNL A   1      45.743  27.459  29.871  1.00  0.00    -0.354 N 
ATOM     62  N   UNL A   1      45.378  30.064  28.492  1.00  0.00    -0.248 NA
ATOM     63  C   UNL A   1      45.970  31.562  26.797  1.00  0.00     0.031 C 
ATOM     64  C   UNL A   1      47.055  25.957  28.901  1.00  0.00     0.029 A 
ATOM     65  C   UNL A   1      46.558  27.246  28.774  1.00  0.00     0.049 A 
ATOM     66  H   UNL A   1      45.246  28.289  30.053  1.00  0.00     0.167 HD
ATOM     67  C   UNL A   1      46.305  29.456  27.659  1.00  0.00     0.074 A 
ATOM     68  C   UNL A   1      46.625  30.420  26.621  1.00  0.00     0.031 C 
ATOM     69  C   UNL A   1      46.827  28.208  27.736  1.00  0.00     0.034 A 
BRANCH  56  70
ATOM     70  C   UNL A   1      45.138  24.958  32.723  1.00  0.00     0.023 A 
ATOM     71  C   UNL A   1      44.213  23.913  32.520  1.00  0.00     0.012 A 
ATOM     72  C   UNL A   1      46.215  24.762  33.610  1.00  0.00     0.148 A 
ATOM     73  C   UNL A   1      44.343  22.704  33.203  1.00  0.00     0.002 A 
ATOM     74  C   UNL A   1      46.358  23.539  34.261  1.00  0.00     0.091 A 
ATOM     75  F   UNL A   1      47.074  25.772  33.808  1.00  0.00    -0.205 F 
ATOM     76  C   UNL A   1      45.419  22.512  34.064  1.00  0.00     0.022 A 
BRANCH  74  77
ATOM     77  S   UNL A   1      47.750  23.169  35.336  1.00  0.00     0.127 S 
ATOM     78  O   UNL A   1      47.431  21.812  35.777  1.00  0.00    -0.237 OA
ATOM     79  O   UNL A   1      48.885  23.261  34.418  1.00  0.00    -0.237 OA
ATOM     80  O   UNL A   1      47.732  24.186  36.378  1.00  0.00    -0.744 OA
ENDBRANCH  74  77
ENDBRANCH  56  70
BRANCH  57  81
ATOM     81  C   UNL A   1      44.066  33.617  27.767  1.00  0.00     0.023 A 
ATOM     82  C   UNL A   1      43.385  33.751  26.544  1.00  0.00     0.012 A 
ATOM     83  C   UNL A   1      44.560  34.770  28.413  1.00  0.00     0.148 A 
ATOM     84  C   UNL A   1      43.196  35.012  25.975  1.00  0.00     0.002 A 
ATOM     85  C   UNL A   1      44.359  36.025  27.845  1.00  0.00     0.091 A 
ATOM     86  F   UNL A   1      45.202  34.622  29.580  1.00  0.00    -0.205 F 
ATOM     87  C   UNL A   1      43.674  36.149  26.627  1.00  0.00     0.022 A 
BRANCH  85  88
ATOM     88  S   UNL A   1      44.855  37.528  28.708  1.00  0.00     0.127 S 
ATOM     89  O   UNL A   1      46.308  37.391  28.741  1.00  0.00    -0.237 OA
ATOM     90  O   UNL A   1      44.368  38.595  27.829  1.00  0.00    -0.237 OA
ATOM     91  O   UNL A   1      44.179  37.462  30.000  1.00  0.00    -0.744 OA
ENDBRANCH  85  88
ENDBRANCH  57  81
BRANCH  69  92
ATOM     92  C   UNL A   1      47.771  27.783  26.648  1.00  0.00     0.023 A 
ATOM     93  C   UNL A   1      47.264  27.193  25.478  1.00  0.00     0.012 A 
ATOM     94  C   UNL A   1      49.144  28.082  26.745  1.00  0.00     0.148 A 
ATOM     95  C   UNL A   1      48.115  26.897  24.415  1.00  0.00     0.002 A 
ATOM     96  C   UNL A   1      49.979  27.826  25.667  1.00  0.00     0.091 A 
ATOM     97  F   UNL A   1      49.600  28.628  27.882  1.00  0.00    -0.205 F 
ATOM     98  C   UNL A   1      49.467  27.226  24.504  1.00  0.00     0.022 A 
BRANCH  96  99
ATOM     99  S   UNL A   1      51.708  28.305  25.651  1.00  0.00     0.127 S 
ATOM    100  O   UNL A   1      52.204  27.593  24.475  1.00  0.00    -0.237 OA
ATOM    101  O   UNL A   1      51.624  29.758  25.496  1.00  0.00    -0.237 OA
ATOM    102  O   UNL A   1      52.263  27.864  26.924  1.00  0.00    -0.744 OA
ENDBRANCH  96  99
ENDBRANCH  69  92
ENDBRANCH  43  44
ENDBRANCH  36  38
ENDBRANCH  35  36
ENDBRANCH  34  35
ENDBRANCH  33  34
ENDBRANCH  32  33
ENDBRANCH   1  32
TORSDOF 22
ENDMDL
MODEL 3
REMARK VINA RESULT:     -11.3      5.999      9.220
REMARK SMILES O=C(CCC(=O)N1N=C(c2ccc(F)cc2)C[C@@H]1c1ccc2nccnc2c1)OCCOCCOC(=O)c1ccc(-c2c3nc(c(-c4cccc(S(=O)(=O)[O-])c4F)c4ccc([nH]4)c(-c4cccc(S(=O)(=O)[O-])c4F)c4nc(c(-c5cccc(S(=O)(=O)[O-])c5F)c5ccc2[nH]5)C=C4)C=C3)cc1
REMARK SMILES IDX 31 1 30 2 29 3 2 4 1 5 3 6 4 7 5 8 6 9 7 10 8 11 18 12 9 13
REMARK SMILES IDX 17 14 19 15 20 16 28 17 21 18 27 19 22 20 26 21 23 22 25 23
REMARK SMILES IDX 24 24 10 25 11 26 16 27 12 28 15 29 13 30 14 31 32 32 33 33
REMARK SMILES IDX 34 34 35 35 36 36 37 37 38 38 39 39 100 40 40 41 99 42 41 43
REMARK SMILES IDX 42 44 43 45 93 46 44 47 98 48 92 49 94 50 45 51 97 52 91 53
REMARK SMILES IDX 90 54 46 56 78 57 58 58 77 59 59 60 62 61 76 62 95 63 60 64
REMARK SMILES IDX 61 65 75 67 96 68 63 69 47 70 48 71 56 72 49 73 51 74 57 75
REMARK SMILES IDX 50 76 52 77 53 78 54 79 55 80 79 81 80 82 88 83 81 84 83 85
REMARK SMILES IDX 89 86 82 87 84 88 85 89 86 90 87 91 64 92 65 93 73 94 66 95
REMARK SMILES IDX 68 96 74 97 67 98 69 99 70 100 71 101 72 102
REMARK H PARENT 94 55 62 66
REMARK Flexibility Score: inf
ROOT
ATOM      1  C   UNL A   1      39.682  25.666  28.079  1.00  0.00     0.202 C 
ENDROOT
BRANCH   1   2
ATOM      2  C   UNL A   1      40.082  24.999  26.770  1.00  0.00     0.261 C 
BRANCH   2   3
ATOM      3  O   UNL A   1      40.296  23.612  27.072  1.00  0.00    -0.463 OA
BRANCH   3   4
ATOM      4  C   UNL A   1      39.484  22.647  26.592  1.00  0.00     0.306 C 
ATOM      5  O   UNL A   1      39.573  21.473  26.929  1.00  0.00    -0.252 OA
BRANCH   4   6
ATOM      6  C   UNL A   1      38.260  23.215  25.962  1.00  0.00     0.132 C 
BRANCH   6   7
ATOM      7  C   UNL A   1      37.202  22.125  26.009  1.00  0.00     0.114 C 
BRANCH   7   8
ATOM      8  C   UNL A   1      36.370  22.096  24.735  1.00  0.00     0.243 C 
ATOM      9  O   UNL A   1      36.973  22.226  23.661  1.00  0.00    -0.273 OA
BRANCH   8  10
ATOM     10  N   UNL A   1      35.009  21.808  24.810  1.00  0.00    -0.225 N 
ATOM     11  N   UNL A   1      34.754  20.572  24.287  1.00  0.00    -0.174 NA
ATOM     12  C   UNL A   1      33.924  22.219  25.758  1.00  0.00     0.147 C 
ATOM     13  C   UNL A   1      33.773  20.049  24.946  1.00  0.00     0.071 C 
ATOM     14  C   UNL A   1      33.066  20.956  25.903  1.00  0.00     0.091 C 
BRANCH  12  15
ATOM     15  C   UNL A   1      33.033  23.420  25.374  1.00  0.00    -0.021 A 
ATOM     16  C   UNL A   1      32.278  24.334  26.722  1.00  0.00     0.008 A 
ATOM     17  C   UNL A   1      32.850  24.059  23.704  1.00  0.00     0.036 A 
ATOM     18  C   UNL A   1      31.361  25.855  26.413  1.00  0.00     0.031 A 
ATOM     19  C   UNL A   1      31.895  25.572  23.340  1.00  0.00     0.089 A 
ATOM     20  C   UNL A   1      31.194  26.522  24.733  1.00  0.00     0.089 A 
ATOM     21  N   UNL A   1      31.667  26.049  22.109  1.00  0.00    -0.253 NA
ATOM     22  N   UNL A   1      30.572  27.672  24.459  1.00  0.00    -0.253 NA
ATOM     23  C   UNL A   1      30.943  27.205  22.055  1.00  0.00     0.132 A 
ATOM     24  C   UNL A   1      30.446  27.958  23.139  1.00  0.00     0.132 A 
ENDBRANCH  12  15
BRANCH  13  25
ATOM     25  C   UNL A   1      33.476  18.617  24.804  1.00  0.00    -0.002 A 
ATOM     26  C   UNL A   1      33.991  17.838  23.771  1.00  0.00     0.013 A 
ATOM     27  C   UNL A   1      32.683  18.042  25.816  1.00  0.00     0.013 A 
ATOM     28  C   UNL A   1      33.787  16.457  23.813  1.00  0.00     0.040 A 
ATOM     29  C   UNL A   1      32.490  16.672  25.853  1.00  0.00     0.040 A 
ATOM     30  C   UNL A   1      33.083  15.893  24.877  1.00  0.00     0.123 A 
ATOM     31  F   UNL A   1      33.044  14.570  25.026  1.00  0.00    -0.207 F 
ENDBRANCH  13  25
ENDBRANCH   8  10
ENDBRANCH   7   8
ENDBRANCH   6   7
ENDBRANCH   4   6
ENDBRANCH   3   4
ENDBRANCH   2   3
ENDBRANCH   1   2
BRANCH   1  32
ATOM     32  O   UNL A   1      40.300  26.948  28.137  1.00  0.00    -0.374 OA
BRANCH  32  33
ATOM     33  C   UNL A   1      39.476  28.100  27.881  1.00  0.00     0.202 C 
BRANCH  33  34
ATOM     34  C   UNL A   1      38.161  28.472  28.864  1.00  0.00     0.261 C 
BRANCH  34  35
ATOM     35  O   UNL A   1      37.906  28.274  30.854  1.00  0.00    -0.460 OA
BRANCH  35  36
ATOM     36  C   UNL A   1      38.186  28.138  32.249  1.00  0.00     0.338 C 
ATOM     37  O   UNL A   1      38.102  27.112  32.918  1.00  0.00    -0.246 OA
BRANCH  36  38
ATOM     38  C   UNL A   1      38.648  29.340  32.963  1.00  0.00     0.060 A 
ATOM     39  C   UNL A   1      37.873  30.503  33.002  1.00  0.00     0.016 A 
ATOM     40  C   UNL A   1      40.018  29.388  33.248  1.00  0.00     0.016 A 
ATOM     41  C   UNL A   1      38.482  31.727  33.281  1.00  0.00     0.010 A 
ATOM     42  C   UNL A   1      40.622  30.607  33.528  1.00  0.00     0.010 A 
ATOM     43  C   UNL A   1      39.865  31.786  33.491  1.00  0.00    -0.014 A 
BRANCH  43  44
ATOM     44  C   UNL A   1      40.573  33.082  33.544  1.00  0.00     0.031 A 
ATOM     45  C   UNL A   1      41.277  33.585  32.315  1.00  0.00     0.074 A 
ATOM     46  C   UNL A   1      40.647  33.742  34.711  1.00  0.00     0.049 A 
ATOM     47  N   UNL A   1      42.050  34.628  32.181  1.00  0.00    -0.248 NA
ATOM     48  C   UNL A   1      41.076  32.822  31.069  1.00  0.00     0.031 C 
ATOM     49  C   UNL A   1      39.968  33.348  35.943  1.00  0.00     0.029 A 
ATOM     50  N   UNL A   1      41.378  34.846  35.067  1.00  0.00    -0.354 N 
ATOM     51  C   UNL A   1      42.420  34.658  30.841  1.00  0.00     0.074 A 
ATOM     52  C   UNL A   1      41.822  33.504  30.209  1.00  0.00     0.031 C 
ATOM     53  C   UNL A   1      40.394  34.135  36.944  1.00  0.00     0.029 A 
ATOM     54  C   UNL A   1      41.383  35.066  36.423  1.00  0.00     0.049 A 
ATOM     55  H   UNL A   1      41.849  35.418  34.419  1.00  0.00     0.167 HD
ATOM     56  C   UNL A   1      43.160  35.592  30.199  1.00  0.00     0.034 A 
ATOM     57  C   UNL A   1      42.132  35.900  37.166  1.00  0.00     0.034 A 
ATOM     58  C   UNL A   1      43.724  36.739  30.859  1.00  0.00     0.049 A 
ATOM     59  C   UNL A   1      43.022  36.873  36.455  1.00  0.00     0.074 A 
ATOM     60  C   UNL A   1      44.404  37.807  30.303  1.00  0.00     0.029 A 
ATOM     61  N   UNL A   1      43.682  36.957  32.229  1.00  0.00    -0.354 N 
ATOM     62  N   UNL A   1      43.254  36.974  35.168  1.00  0.00    -0.248 NA
ATOM     63  C   UNL A   1      43.687  37.891  37.276  1.00  0.00     0.031 C 
ATOM     64  C   UNL A   1      44.794  38.658  31.343  1.00  0.00     0.029 A 
ATOM     65  C   UNL A   1      44.340  38.132  32.543  1.00  0.00     0.049 A 
ATOM     66  H   UNL A   1      43.248  36.361  32.882  1.00  0.00     0.167 HD
ATOM     67  C   UNL A   1      44.040  38.106  35.013  1.00  0.00     0.074 A 
ATOM     68  C   UNL A   1      44.265  38.640  36.344  1.00  0.00     0.031 C 
ATOM     69  C   UNL A   1      44.514  38.661  33.872  1.00  0.00     0.034 A 
BRANCH  56  70
ATOM     70  C   UNL A   1      43.342  35.459  28.709  1.00  0.00     0.023 A 
ATOM     71  C   UNL A   1      42.540  36.234  27.846  1.00  0.00     0.012 A 
ATOM     72  C   UNL A   1      44.352  34.642  28.162  1.00  0.00     0.148 A 
ATOM     73  C   UNL A   1      42.723  36.182  26.464  1.00  0.00     0.002 A 
ATOM     74  C   UNL A   1      44.551  34.623  26.785  1.00  0.00     0.091 A 
ATOM     75  F   UNL A   1      45.092  33.896  28.994  1.00  0.00    -0.205 F 
ATOM     76  C   UNL A   1      43.734  35.386  25.934  1.00  0.00     0.022 A 
BRANCH  74  77
ATOM     77  S   UNL A   1      45.874  33.683  26.009  1.00  0.00     0.127 S 
ATOM     78  O   UNL A   1      45.202  32.420  25.708  1.00  0.00    -0.237 OA
ATOM     79  O   UNL A   1      46.189  34.500  24.837  1.00  0.00    -0.237 OA
ATOM     80  O   UNL A   1      46.941  33.606  26.996  1.00  0.00    -0.744 OA
ENDBRANCH  74  77
ENDBRANCH  56  70
BRANCH  57  81
ATOM     81  C   UNL A   1      42.012  35.865  38.647  1.00  0.00     0.023 A 
ATOM     82  C   UNL A   1      42.884  35.053  39.393  1.00  0.00     0.012 A 
ATOM     83  C   UNL A   1      41.107  36.709  39.322  1.00  0.00     0.148 A 
ATOM     84  C   UNL A   1      42.857  35.083  40.789  1.00  0.00     0.002 A 
ATOM     85  C   UNL A   1      41.092  36.742  40.714  1.00  0.00     0.091 A 
ATOM     86  F   UNL A   1      40.287  37.480  38.593  1.00  0.00    -0.205 F 
ATOM     87  C   UNL A   1      41.969  35.932  41.450  1.00  0.00     0.022 A 
BRANCH  85  88
ATOM     88  S   UNL A   1      40.044  37.907  41.607  1.00  0.00     0.127 S 
ATOM     89  O   UNL A   1      39.782  37.185  42.848  1.00  0.00    -0.237 OA
ATOM     90  O   UNL A   1      40.907  39.081  41.761  1.00  0.00    -0.237 OA
ATOM     91  O   UNL A   1      38.891  38.121  40.738  1.00  0.00    -0.744 OA
ENDBRANCH  85  88
ENDBRANCH  57  81
BRANCH  69  92
ATOM     92  C   UNL A   1      45.292  39.940  33.994  1.00  0.00     0.023 A 
ATOM     93  C   UNL A   1      46.693  39.896  34.092  1.00  0.00     0.012 A 
ATOM     94  C   UNL A   1      44.634  41.181  33.888  1.00  0.00     0.148 A 
ATOM     95  C   UNL A   1      47.434  41.076  34.093  1.00  0.00     0.002 A 
ATOM     96  C   UNL A   1      45.381  42.350  33.844  1.00  0.00     0.091 A 
ATOM     97  F   UNL A   1      43.295  41.191  33.814  1.00  0.00    -0.205 F 
ATOM     98  C   UNL A   1      46.780  42.300  33.954  1.00  0.00     0.022 A 
BRANCH  96  99
ATOM     99  S   UNL A   1      44.636  43.959  33.568  1.00  0.00     0.127 S 
ATOM    100  O   UNL A   1      43.669  44.031  34.662  1.00  0.00    -0.237 OA
ATOM    101  O   UNL A   1      45.783  44.858  33.707  1.00  0.00    -0.237 OA
ATOM    102  O   UNL A   1      44.059  43.916  32.231  1.00  0.00    -0.744 OA
ENDBRANCH  96  99
ENDBRANCH  69  92
ENDBRANCH  43  44
ENDBRANCH  36  38
ENDBRANCH  35  36
ENDBRANCH  34  35
ENDBRANCH  33  34
ENDBRANCH  32  33
ENDBRANCH   1  32
TORSDOF 22
ENDMDL
