MODEL 1
REMARK VINA RESULT:     -11.4      0.000      0.000
REMARK SMILES O=C(Nc1ccc(O)cc1C(=O)OCCOCCOC(=O)c1ccc(-c2c3nc(c(-c4cccc(S(=O)(=O)[O-])c4F)c4ccc([nH]4)c(-c4cccc(S(=O)(=O)[O-])c4F)c4nc(c(-c5cccc(S(=O)(=O)[O-])c5F)c5ccc2[nH]5)C=C4)C=C3)cc1)c1ccc(Br)nc1
REMARK SMILES IDX 17 1 16 2 15 3 14 4 13 5 11 6 12 7 10 8 4 9 5 10 6 11 9 12
REMARK SMILES IDX 7 13 3 14 1 15 2 16 85 18 86 19 91 20 87 21 90 22 88 23
REMARK SMILES IDX 89 24 8 25 18 27 19 28 20 29 21 30 22 31 23 32 84 33 24 34
REMARK SMILES IDX 83 35 25 36 26 37 27 38 77 39 28 40 82 41 76 42 78 43 29 44
REMARK SMILES IDX 81 45 75 46 74 47 30 49 62 50 42 51 61 52 43 53 46 54 60 55
REMARK SMILES IDX 79 56 44 57 45 58 59 60 80 61 47 62 31 63 32 64 40 65 33 66
REMARK SMILES IDX 35 67 41 68 34 69 36 70 37 71 38 72 39 73 63 74 64 75 72 76
REMARK SMILES IDX 65 77 67 78 73 79 66 80 68 81 69 82 70 83 71 84 48 85 49 86
REMARK SMILES IDX 57 87 50 88 52 89 58 90 51 91 53 92 54 93 55 94 56 95
REMARK H PARENT 3 17 8 26 78 48 46 59
REMARK Flexibility Score: inf
ROOT
ATOM      1  C   UNL A   1      31.128  30.772  25.191  1.00  0.00     0.202 C 
ENDROOT
BRANCH   1   2
ATOM      2  O   UNL A   1      29.863  30.943  24.551  1.00  0.00    -0.374 OA
BRANCH   2   3
ATOM      3  C   UNL A   1      29.714  30.399  23.239  1.00  0.00     0.202 C 
BRANCH   3   4
ATOM      4  C   UNL A   1      28.873  29.124  23.126  1.00  0.00     0.261 C 
BRANCH   4   5
ATOM      5  O   UNL A   1      29.694  27.994  22.780  1.00  0.00    -0.460 OA
BRANCH   5   6
ATOM      6  C   UNL A   1      29.848  27.074  23.761  1.00  0.00     0.340 C 
ATOM      7  O   UNL A   1      29.108  26.122  23.973  1.00  0.00    -0.246 OA
BRANCH   6   8
ATOM      8  C   UNL A   1      31.128  27.256  24.498  1.00  0.00     0.087 A 
ATOM      9  C   UNL A   1      32.423  27.238  23.939  1.00  0.00     0.056 A 
ATOM     10  C   UNL A   1      33.499  27.588  24.773  1.00  0.00     0.031 A 
ATOM     11  C   UNL A   1      33.340  27.740  26.151  1.00  0.00     0.048 A 
ATOM     12  C   UNL A   1      30.977  27.402  25.891  1.00  0.00     0.064 A 
ATOM     13  C   UNL A   1      32.082  27.596  26.705  1.00  0.00     0.116 A 
BRANCH   9  14
ATOM     14  N   UNL A   1      32.638  26.869  22.591  1.00  0.00    -0.321 N 
ATOM     15  O   UNL A   1      33.278  25.603  20.822  1.00  0.00    -0.269 OA
ATOM     16  C   UNL A   1      32.999  25.665  22.016  1.00  0.00     0.257 C 
ATOM     17  H   UNL A   1      32.508  27.602  21.947  1.00  0.00     0.170 HD
BRANCH  16  18
ATOM     18  C   UNL A   1      32.976  24.404  22.777  1.00  0.00     0.058 A 
ATOM     19  C   UNL A   1      31.764  23.809  23.127  1.00  0.00     0.018 A 
ATOM     20  C   UNL A   1      34.152  23.774  23.160  1.00  0.00     0.126 A 
ATOM     21  C   UNL A   1      31.777  22.571  23.770  1.00  0.00     0.037 A 
ATOM     22  N   UNL A   1      34.196  22.564  23.768  1.00  0.00    -0.249 NA
ATOM     23  C   UNL A   1      33.006  21.986  24.055  1.00  0.00     0.106 A 
ATOM     24  Br  UNL A   1      33.040  20.263  24.847  1.00  0.00    -0.029 Br
ENDBRANCH  16  18
ENDBRANCH   9  14
BRANCH  13  25
ATOM     25  O   UNL A   1      31.886  27.648  28.051  1.00  0.00    -0.508 OA
ATOM     26  H   UNL A   1      31.714  26.861  28.531  1.00  0.00     0.293 HD
ENDBRANCH  13  25
ENDBRANCH   6   8
ENDBRANCH   5   6
ENDBRANCH   4   5
ENDBRANCH   3   4
ENDBRANCH   2   3
ENDBRANCH   1   2
BRANCH   1  27
ATOM     27  C   UNL A   1      31.395  31.618  26.442  1.00  0.00     0.261 C 
BRANCH  27  28
ATOM     28  O   UNL A   1      32.567  31.185  27.153  1.00  0.00    -0.460 OA
BRANCH  28  29
ATOM     29  C   UNL A   1      33.417  32.182  27.499  1.00  0.00     0.338 C 
ATOM     30  O   UNL A   1      33.142  33.370  27.626  1.00  0.00    -0.246 OA
BRANCH  29  31
ATOM     31  C   UNL A   1      34.721  31.628  27.905  1.00  0.00     0.060 A 
ATOM     32  C   UNL A   1      34.765  30.272  28.257  1.00  0.00     0.016 A 
ATOM     33  C   UNL A   1      35.863  32.424  28.007  1.00  0.00     0.016 A 
ATOM     34  C   UNL A   1      35.939  29.719  28.763  1.00  0.00     0.010 A 
ATOM     35  C   UNL A   1      37.039  31.867  28.523  1.00  0.00     0.010 A 
ATOM     36  C   UNL A   1      37.072  30.524  28.938  1.00  0.00    -0.014 A 
BRANCH  36  37
ATOM     37  C   UNL A   1      38.246  29.990  29.669  1.00  0.00     0.031 A 
ATOM     38  C   UNL A   1      38.546  30.505  31.052  1.00  0.00     0.074 A 
ATOM     39  C   UNL A   1      39.034  29.052  29.112  1.00  0.00     0.049 A 
ATOM     40  N   UNL A   1      39.534  30.201  31.852  1.00  0.00    -0.248 NA
ATOM     41  C   UNL A   1      37.607  31.496  31.603  1.00  0.00     0.031 C 
ATOM     42  C   UNL A   1      38.847  28.479  27.780  1.00  0.00     0.029 A 
ATOM     43  N   UNL A   1      40.166  28.441  29.589  1.00  0.00    -0.354 N 
ATOM     44  C   UNL A   1      39.352  30.978  32.990  1.00  0.00     0.074 A 
ATOM     45  C   UNL A   1      38.167  31.778  32.771  1.00  0.00     0.031 C 
ATOM     46  C   UNL A   1      39.853  27.624  27.530  1.00  0.00     0.029 A 
ATOM     47  C   UNL A   1      40.765  27.608  28.673  1.00  0.00     0.049 A 
ATOM     48  H   UNL A   1      40.515  28.585  30.497  1.00  0.00     0.167 HD
ATOM     49  C   UNL A   1      40.093  31.008  34.124  1.00  0.00     0.034 A 
ATOM     50  C   UNL A   1      41.931  26.935  28.739  1.00  0.00     0.034 A 
ATOM     51  C   UNL A   1      41.263  30.202  34.345  1.00  0.00     0.049 A 
ATOM     52  C   UNL A   1      42.749  27.001  30.002  1.00  0.00     0.074 A 
ATOM     53  C   UNL A   1      42.063  30.136  35.472  1.00  0.00     0.029 A 
ATOM     54  N   UNL A   1      41.809  29.328  33.418  1.00  0.00    -0.354 N 
ATOM     55  N   UNL A   1      42.503  27.652  31.114  1.00  0.00    -0.248 NA
ATOM     56  C   UNL A   1      43.989  26.210  30.035  1.00  0.00     0.031 C 
ATOM     57  C   UNL A   1      43.105  29.239  35.218  1.00  0.00     0.029 A 
ATOM     58  C   UNL A   1      42.937  28.722  33.943  1.00  0.00     0.049 A 
ATOM     59  H   UNL A   1      41.446  29.161  32.517  1.00  0.00     0.167 HD
ATOM     60  C   UNL A   1      43.534  27.323  31.987  1.00  0.00     0.074 A 
ATOM     61  C   UNL A   1      44.397  26.397  31.283  1.00  0.00     0.031 C 
ATOM     62  C   UNL A   1      43.757  27.760  33.252  1.00  0.00     0.034 A 
BRANCH  49  63
ATOM     63  C   UNL A   1      39.639  31.922  35.232  1.00  0.00     0.023 A 
ATOM     64  C   UNL A   1      39.968  33.292  35.178  1.00  0.00     0.012 A 
ATOM     65  C   UNL A   1      38.842  31.443  36.289  1.00  0.00     0.148 A 
ATOM     66  C   UNL A   1      39.534  34.166  36.175  1.00  0.00     0.002 A 
ATOM     67  C   UNL A   1      38.378  32.328  37.256  1.00  0.00     0.091 A 
ATOM     68  F   UNL A   1      38.558  30.134  36.335  1.00  0.00    -0.205 F 
ATOM     69  C   UNL A   1      38.732  33.687  37.207  1.00  0.00     0.022 A 
BRANCH  67  70
ATOM     70  S   UNL A   1      37.277  31.826  38.584  1.00  0.00     0.127 S 
ATOM     71  O   UNL A   1      37.028  30.425  38.247  1.00  0.00    -0.237 OA
ATOM     72  O   UNL A   1      38.112  32.028  39.768  1.00  0.00    -0.237 OA
ATOM     73  O   UNL A   1      36.119  32.703  38.500  1.00  0.00    -0.744 OA
ENDBRANCH  67  70
ENDBRANCH  49  63
BRANCH  50  74
ATOM     74  C   UNL A   1      42.384  26.118  27.577  1.00  0.00     0.023 A 
ATOM     75  C   UNL A   1      43.217  26.697  26.601  1.00  0.00     0.012 A 
ATOM     76  C   UNL A   1      42.003  24.769  27.443  1.00  0.00     0.148 A 
ATOM     77  C   UNL A   1      43.637  25.955  25.495  1.00  0.00     0.002 A 
ATOM     78  C   UNL A   1      42.471  24.020  26.369  1.00  0.00     0.091 A 
ATOM     79  F   UNL A   1      41.194  24.242  28.373  1.00  0.00    -0.205 F 
ATOM     80  C   UNL A   1      43.273  24.615  25.386  1.00  0.00     0.022 A 
BRANCH  78  81
ATOM     81  S   UNL A   1      42.158  22.257  26.216  1.00  0.00     0.127 S 
ATOM     82  O   UNL A   1      42.712  21.746  27.467  1.00  0.00    -0.237 OA
ATOM     83  O   UNL A   1      40.698  22.216  26.126  1.00  0.00    -0.237 OA
ATOM     84  O   UNL A   1      42.845  21.840  25.001  1.00  0.00    -0.744 OA
ENDBRANCH  78  81
ENDBRANCH  50  74
BRANCH  62  85
ATOM     85  C   UNL A   1      44.960  27.216  33.981  1.00  0.00     0.023 A 
ATOM     86  C   UNL A   1      46.183  27.914  33.933  1.00  0.00     0.012 A 
ATOM     87  C   UNL A   1      44.855  26.058  34.776  1.00  0.00     0.148 A 
ATOM     88  C   UNL A   1      47.293  27.447  34.637  1.00  0.00     0.002 A 
ATOM     89  C   UNL A   1      45.951  25.627  35.515  1.00  0.00     0.091 A 
ATOM     90  F   UNL A   1      43.687  25.400  34.798  1.00  0.00    -0.205 F 
ATOM     91  C   UNL A   1      47.173  26.312  35.437  1.00  0.00     0.022 A 
BRANCH  89  92
ATOM     92  S   UNL A   1      45.863  24.233  36.644  1.00  0.00     0.127 S 
ATOM     93  O   UNL A   1      45.598  23.124  35.728  1.00  0.00    -0.237 OA
ATOM     94  O   UNL A   1      47.202  24.227  37.236  1.00  0.00    -0.237 OA
ATOM     95  O   UNL A   1      44.791  24.540  37.580  1.00  0.00    -0.744 OA
ENDBRANCH  89  92
ENDBRANCH  62  85
ENDBRANCH  36  37
ENDBRANCH  29  31
ENDBRANCH  28  29
ENDBRANCH  27  28
ENDBRANCH   1  27
TORSDOF 20
ENDMDL
MODEL 2
REMARK VINA RESULT:     -11.3      5.304     10.422
REMARK SMILES O=C(Nc1ccc(O)cc1C(=O)OCCOCCOC(=O)c1ccc(-c2c3nc(c(-c4cccc(S(=O)(=O)[O-])c4F)c4ccc([nH]4)c(-c4cccc(S(=O)(=O)[O-])c4F)c4nc(c(-c5cccc(S(=O)(=O)[O-])c5F)c5ccc2[nH]5)C=C4)C=C3)cc1)c1ccc(Br)nc1
REMARK SMILES IDX 17 1 16 2 15 3 14 4 13 5 11 6 12 7 10 8 4 9 5 10 6 11 9 12
REMARK SMILES IDX 7 13 3 14 1 15 2 16 85 18 86 19 91 20 87 21 90 22 88 23
REMARK SMILES IDX 89 24 8 25 18 27 19 28 20 29 21 30 22 31 23 32 84 33 24 34
REMARK SMILES IDX 83 35 25 36 26 37 27 38 77 39 28 40 82 41 76 42 78 43 29 44
REMARK SMILES IDX 81 45 75 46 74 47 30 49 62 50 42 51 61 52 43 53 46 54 60 55
REMARK SMILES IDX 79 56 44 57 45 58 59 60 80 61 47 62 31 63 32 64 40 65 33 66
REMARK SMILES IDX 35 67 41 68 34 69 36 70 37 71 38 72 39 73 63 74 64 75 72 76
REMARK SMILES IDX 65 77 67 78 73 79 66 80 68 81 69 82 70 83 71 84 48 85 49 86
REMARK SMILES IDX 57 87 50 88 52 89 58 90 51 91 53 92 54 93 55 94 56 95
REMARK H PARENT 3 17 8 26 78 48 46 59
REMARK Flexibility Score: inf
ROOT
ATOM      1  C   UNL A   1      35.783  20.629  25.204  1.00  0.00     0.202 C 
ENDROOT
BRANCH   1   2
ATOM      2  O   UNL A   1      35.561  22.000  25.537  1.00  0.00    -0.374 OA
BRANCH   2   3
ATOM      3  C   UNL A   1      34.962  22.278  26.804  1.00  0.00     0.202 C 
BRANCH   3   4
ATOM      4  C   UNL A   1      33.541  21.746  27.011  1.00  0.00     0.261 C 
BRANCH   4   5
ATOM      5  O   UNL A   1      32.572  22.804  26.895  1.00  0.00    -0.460 OA
BRANCH   5   6
ATOM      6  C   UNL A   1      31.866  22.811  25.740  1.00  0.00     0.340 C 
ATOM      7  O   UNL A   1      30.805  22.233  25.546  1.00  0.00    -0.246 OA
BRANCH   6   8
ATOM      8  C   UNL A   1      32.454  23.738  24.734  1.00  0.00     0.087 A 
ATOM      9  C   UNL A   1      32.769  25.098  24.936  1.00  0.00     0.056 A 
ATOM     10  C   UNL A   1      33.465  25.766  23.914  1.00  0.00     0.031 A 
ATOM     11  C   UNL A   1      33.654  25.188  22.657  1.00  0.00     0.048 A 
ATOM     12  C   UNL A   1      32.641  23.165  23.461  1.00  0.00     0.064 A 
ATOM     13  C   UNL A   1      33.194  23.905  22.428  1.00  0.00     0.116 A 
BRANCH   9  14
ATOM     14  N   UNL A   1      32.390  25.773  26.119  1.00  0.00    -0.321 N 
ATOM     15  O   UNL A   1      31.628  27.447  27.445  1.00  0.00    -0.269 OA
ATOM     16  C   UNL A   1      31.724  26.968  26.319  1.00  0.00     0.257 C 
ATOM     17  H   UNL A   1      32.647  25.310  26.948  1.00  0.00     0.170 HD
BRANCH  16  18
ATOM     18  C   UNL A   1      31.030  27.664  25.221  1.00  0.00     0.058 A 
ATOM     19  C   UNL A   1      30.053  27.008  24.473  1.00  0.00     0.018 A 
ATOM     20  C   UNL A   1      31.325  28.984  24.907  1.00  0.00     0.126 A 
ATOM     21  C   UNL A   1      29.354  27.722  23.498  1.00  0.00     0.037 A 
ATOM     22  N   UNL A   1      30.651  29.706  23.980  1.00  0.00    -0.249 NA
ATOM     23  C   UNL A   1      29.675  29.061  23.300  1.00  0.00     0.106 A 
ATOM     24  Br  UNL A   1      28.672  30.068  22.043  1.00  0.00    -0.029 Br
ENDBRANCH  16  18
ENDBRANCH   9  14
BRANCH  13  25
ATOM     25  O   UNL A   1      33.276  23.329  21.197  1.00  0.00    -0.508 OA
ATOM     26  H   UNL A   1      34.115  23.139  20.824  1.00  0.00     0.293 HD
ENDBRANCH  13  25
ENDBRANCH   6   8
ENDBRANCH   5   6
ENDBRANCH   4   5
ENDBRANCH   3   4
ENDBRANCH   2   3
ENDBRANCH   1   2
BRANCH   1  27
ATOM     27  C   UNL A   1      37.238  20.193  24.989  1.00  0.00     0.261 C 
BRANCH  27  28
ATOM     28  O   UNL A   1      38.158  21.292  25.101  1.00  0.00    -0.460 OA
BRANCH  28  29
ATOM     29  C   UNL A   1      39.187  21.080  25.957  1.00  0.00     0.338 C 
ATOM     30  O   UNL A   1      39.794  20.029  26.128  1.00  0.00    -0.246 OA
BRANCH  29  31
ATOM     31  C   UNL A   1      39.636  22.354  26.547  1.00  0.00     0.060 A 
ATOM     32  C   UNL A   1      38.997  23.525  26.118  1.00  0.00     0.016 A 
ATOM     33  C   UNL A   1      40.701  22.416  27.448  1.00  0.00     0.016 A 
ATOM     34  C   UNL A   1      39.454  24.769  26.548  1.00  0.00     0.010 A 
ATOM     35  C   UNL A   1      41.163  23.668  27.871  1.00  0.00     0.010 A 
ATOM     36  C   UNL A   1      40.567  24.849  27.394  1.00  0.00    -0.014 A 
BRANCH  36  37
ATOM     37  C   UNL A   1      41.179  26.170  27.678  1.00  0.00     0.031 A 
ATOM     38  C   UNL A   1      42.595  26.431  27.239  1.00  0.00     0.074 A 
ATOM     39  C   UNL A   1      40.481  27.128  28.314  1.00  0.00     0.049 A 
ATOM     40  N   UNL A   1      43.332  27.497  27.412  1.00  0.00    -0.248 NA
ATOM     41  C   UNL A   1      43.270  25.344  26.509  1.00  0.00     0.031 C 
ATOM     42  C   UNL A   1      39.105  26.992  28.790  1.00  0.00     0.029 A 
ATOM     43  N   UNL A   1      40.848  28.395  28.694  1.00  0.00    -0.354 N 
ATOM     44  C   UNL A   1      44.563  27.205  26.837  1.00  0.00     0.074 A 
ATOM     45  C   UNL A   1      44.479  25.855  26.322  1.00  0.00     0.031 C 
ATOM     46  C   UNL A   1      38.754  28.119  29.432  1.00  0.00     0.029 A 
ATOM     47  C   UNL A   1      39.886  29.044  29.432  1.00  0.00     0.049 A 
ATOM     48  H   UNL A   1      41.714  28.799  28.460  1.00  0.00     0.167 HD
ATOM     49  C   UNL A   1      45.658  27.995  26.728  1.00  0.00     0.034 A 
ATOM     50  C   UNL A   1      39.927  30.235  30.061  1.00  0.00     0.034 A 
ATOM     51  C   UNL A   1      45.734  29.341  27.229  1.00  0.00     0.049 A 
ATOM     52  C   UNL A   1      41.165  31.087  29.944  1.00  0.00     0.074 A 
ATOM     53  C   UNL A   1      46.788  30.233  27.139  1.00  0.00     0.029 A 
ATOM     54  N   UNL A   1      44.722  29.986  27.922  1.00  0.00    -0.354 N 
ATOM     55  N   UNL A   1      42.280  30.843  29.299  1.00  0.00    -0.248 NA
ATOM     56  C   UNL A   1      41.137  32.397  30.613  1.00  0.00     0.031 C 
ATOM     57  C   UNL A   1      46.421  31.411  27.798  1.00  0.00     0.029 A 
ATOM     58  C   UNL A   1      45.127  31.263  28.271  1.00  0.00     0.049 A 
ATOM     59  H   UNL A   1      43.844  29.594  28.133  1.00  0.00     0.167 HD
ATOM     60  C   UNL A   1      43.069  31.976  29.453  1.00  0.00     0.074 A 
ATOM     61  C   UNL A   1      42.296  32.919  30.236  1.00  0.00     0.031 C 
ATOM     62  C   UNL A   1      44.327  32.212  29.003  1.00  0.00     0.034 A 
BRANCH  49  63
ATOM     63  C   UNL A   1      46.857  27.433  26.009  1.00  0.00     0.023 A 
ATOM     64  C   UNL A   1      47.693  26.513  26.671  1.00  0.00     0.012 A 
ATOM     65  C   UNL A   1      47.121  27.768  24.667  1.00  0.00     0.148 A 
ATOM     66  C   UNL A   1      48.792  25.955  26.019  1.00  0.00     0.002 A 
ATOM     67  C   UNL A   1      48.194  27.175  24.009  1.00  0.00     0.091 A 
ATOM     68  F   UNL A   1      46.327  28.661  24.060  1.00  0.00    -0.205 F 
ATOM     69  C   UNL A   1      49.036  26.277  24.686  1.00  0.00     0.022 A 
BRANCH  67  70
ATOM     70  S   UNL A   1      48.548  27.465  22.272  1.00  0.00     0.127 S 
ATOM     71  O   UNL A   1      48.648  26.100  21.759  1.00  0.00    -0.237 OA
ATOM     72  O   UNL A   1      47.359  28.195  21.834  1.00  0.00    -0.237 OA
ATOM     73  O   UNL A   1      49.782  28.237  22.237  1.00  0.00    -0.744 OA
ENDBRANCH  67  70
ENDBRANCH  49  63
BRANCH  50  74
ATOM     74  C   UNL A   1      38.747  30.705  30.842  1.00  0.00     0.023 A 
ATOM     75  C   UNL A   1      38.716  30.520  32.237  1.00  0.00     0.012 A 
ATOM     76  C   UNL A   1      37.664  31.344  30.208  1.00  0.00     0.148 A 
ATOM     77  C   UNL A   1      37.611  30.935  32.983  1.00  0.00     0.002 A 
ATOM     78  C   UNL A   1      36.593  31.806  30.965  1.00  0.00     0.091 A 
ATOM     79  F   UNL A   1      37.705  31.494  28.877  1.00  0.00    -0.205 F 
ATOM     80  C   UNL A   1      36.556  31.587  32.349  1.00  0.00     0.022 A 
BRANCH  78  81
ATOM     81  S   UNL A   1      35.253  32.767  30.251  1.00  0.00     0.127 S 
ATOM     82  O   UNL A   1      34.380  32.965  31.406  1.00  0.00    -0.237 OA
ATOM     83  O   UNL A   1      35.953  33.969  29.795  1.00  0.00    -0.237 OA
ATOM     84  O   UNL A   1      34.708  31.948  29.178  1.00  0.00    -0.744 OA
ENDBRANCH  78  81
ENDBRANCH  50  74
BRANCH  62  85
ATOM     85  C   UNL A   1      44.942  33.555  29.306  1.00  0.00     0.023 A 
ATOM     86  C   UNL A   1      45.634  33.752  30.518  1.00  0.00     0.012 A 
ATOM     87  C   UNL A   1      44.899  34.595  28.357  1.00  0.00     0.148 A 
ATOM     88  C   UNL A   1      46.245  34.975  30.794  1.00  0.00     0.002 A 
ATOM     89  C   UNL A   1      45.553  35.794  28.618  1.00  0.00     0.091 A 
ATOM     90  F   UNL A   1      44.223  34.394  27.217  1.00  0.00    -0.205 F 
ATOM     91  C   UNL A   1      46.215  35.991  29.840  1.00  0.00     0.022 A 
BRANCH  89  92
ATOM     92  S   UNL A   1      45.648  37.122  27.411  1.00  0.00     0.127 S 
ATOM     93  O   UNL A   1      44.250  37.538  27.316  1.00  0.00    -0.237 OA
ATOM     94  O   UNL A   1      46.525  38.085  28.078  1.00  0.00    -0.237 OA
ATOM     95  O   UNL A   1      46.208  36.530  26.205  1.00  0.00    -0.744 OA
ENDBRANCH  89  92
ENDBRANCH  62  85
ENDBRANCH  36  37
ENDBRANCH  29  31
ENDBRANCH  28  29
ENDBRANCH  27  28
ENDBRANCH   1  27
TORSDOF 20
ENDMDL
MODEL 3
REMARK VINA RESULT:     -11.3      1.622      2.083
REMARK SMILES O=C(Nc1ccc(O)cc1C(=O)OCCOCCOC(=O)c1ccc(-c2c3nc(c(-c4cccc(S(=O)(=O)[O-])c4F)c4ccc([nH]4)c(-c4cccc(S(=O)(=O)[O-])c4F)c4nc(c(-c5cccc(S(=O)(=O)[O-])c5F)c5ccc2[nH]5)C=C4)C=C3)cc1)c1ccc(Br)nc1
REMARK SMILES IDX 17 1 16 2 15 3 14 4 13 5 11 6 12 7 10 8 4 9 5 10 6 11 9 12
REMARK SMILES IDX 7 13 3 14 1 15 2 16 85 18 86 19 91 20 87 21 90 22 88 23
REMARK SMILES IDX 89 24 8 25 18 27 19 28 20 29 21 30 22 31 23 32 84 33 24 34
REMARK SMILES IDX 83 35 25 36 26 37 27 38 77 39 28 40 82 41 76 42 78 43 29 44
REMARK SMILES IDX 81 45 75 46 74 47 30 49 62 50 42 51 61 52 43 53 46 54 60 55
REMARK SMILES IDX 79 56 44 57 45 58 59 60 80 61 47 62 31 63 32 64 40 65 33 66
REMARK SMILES IDX 35 67 41 68 34 69 36 70 37 71 38 72 39 73 63 74 64 75 72 76
REMARK SMILES IDX 65 77 67 78 73 79 66 80 68 81 69 82 70 83 71 84 48 85 49 86
REMARK SMILES IDX 57 87 50 88 52 89 58 90 51 91 53 92 54 93 55 94 56 95
REMARK H PARENT 3 17 8 26 78 48 46 59
REMARK Flexibility Score: inf
ROOT
ATOM      1  C   UNL A   1      31.375  30.045  25.159  1.00  0.00     0.202 C 
ENDROOT
BRANCH   1   2
ATOM      2  O   UNL A   1      30.459  30.215  24.077  1.00  0.00    -0.374 OA
BRANCH   2   3
ATOM      3  C   UNL A   1      29.880  29.035  23.517  1.00  0.00     0.202 C 
BRANCH   3   4
ATOM      4  C   UNL A   1      30.754  28.256  22.529  1.00  0.00     0.261 C 
BRANCH   4   5
ATOM      5  O   UNL A   1      30.449  26.850  22.570  1.00  0.00    -0.460 OA
BRANCH   5   6
ATOM      6  C   UNL A   1      31.523  26.033  22.676  1.00  0.00     0.340 C 
ATOM      7  O   UNL A   1      32.386  25.870  21.823  1.00  0.00    -0.246 OA
BRANCH   6   8
ATOM      8  C   UNL A   1      31.635  25.435  24.034  1.00  0.00     0.087 A 
ATOM      9  C   UNL A   1      32.784  24.832  24.589  1.00  0.00     0.056 A 
ATOM     10  C   UNL A   1      32.740  24.468  25.945  1.00  0.00     0.031 A 
ATOM     11  C   UNL A   1      31.549  24.495  26.674  1.00  0.00     0.048 A 
ATOM     12  C   UNL A   1      30.436  25.450  24.773  1.00  0.00     0.064 A 
ATOM     13  C   UNL A   1      30.393  24.941  26.062  1.00  0.00     0.116 A 
BRANCH   9  14
ATOM     14  N   UNL A   1      33.937  24.589  23.808  1.00  0.00    -0.321 N 
ATOM     15  O   UNL A   1      35.716  23.469  22.956  1.00  0.00    -0.269 OA
ATOM     16  C   UNL A   1      34.643  23.428  23.550  1.00  0.00     0.257 C 
ATOM     17  H   UNL A   1      34.304  25.390  23.370  1.00  0.00     0.170 HD
BRANCH  16  18
ATOM     18  C   UNL A   1      34.103  22.100  23.891  1.00  0.00     0.058 A 
ATOM     19  C   UNL A   1      32.841  21.711  23.442  1.00  0.00     0.018 A 
ATOM     20  C   UNL A   1      34.833  21.204  24.661  1.00  0.00     0.126 A 
ATOM     21  C   UNL A   1      32.397  20.416  23.708  1.00  0.00     0.037 A 
ATOM     22  N   UNL A   1      34.435  19.934  24.919  1.00  0.00    -0.249 NA
ATOM     23  C   UNL A   1      33.227  19.566  24.431  1.00  0.00     0.106 A 
ATOM     24  Br  UNL A   1      32.677  17.774  24.723  1.00  0.00    -0.029 Br
ENDBRANCH  16  18
ENDBRANCH   9  14
BRANCH  13  25
ATOM     25  O   UNL A   1      29.191  24.907  26.699  1.00  0.00    -0.508 OA
ATOM     26  H   UNL A   1      29.157  24.789  27.628  1.00  0.00     0.293 HD
ENDBRANCH  13  25
ENDBRANCH   6   8
ENDBRANCH   5   6
ENDBRANCH   4   5
ENDBRANCH   3   4
ENDBRANCH   2   3
ENDBRANCH   1   2
BRANCH   1  27
ATOM     27  C   UNL A   1      31.511  31.213  26.144  1.00  0.00     0.261 C 
BRANCH  27  28
ATOM     28  O   UNL A   1      32.505  30.961  27.153  1.00  0.00    -0.460 OA
BRANCH  28  29
ATOM     29  C   UNL A   1      33.323  32.010  27.411  1.00  0.00     0.338 C 
ATOM     30  O   UNL A   1      33.008  33.194  27.453  1.00  0.00    -0.246 OA
BRANCH  29  31
ATOM     31  C   UNL A   1      34.651  31.534  27.837  1.00  0.00     0.060 A 
ATOM     32  C   UNL A   1      34.804  30.158  28.056  1.00  0.00     0.016 A 
ATOM     33  C   UNL A   1      35.708  32.412  28.083  1.00  0.00     0.016 A 
ATOM     34  C   UNL A   1      35.998  29.660  28.573  1.00  0.00     0.010 A 
ATOM     35  C   UNL A   1      36.903  31.910  28.611  1.00  0.00     0.010 A 
ATOM     36  C   UNL A   1      37.040  30.539  28.893  1.00  0.00    -0.014 A 
BRANCH  36  37
ATOM     37  C   UNL A   1      38.221  30.037  29.636  1.00  0.00     0.031 A 
ATOM     38  C   UNL A   1      38.463  30.519  31.042  1.00  0.00     0.074 A 
ATOM     39  C   UNL A   1      39.066  29.158  29.069  1.00  0.00     0.049 A 
ATOM     40  N   UNL A   1      39.445  30.237  31.856  1.00  0.00    -0.248 NA
ATOM     41  C   UNL A   1      37.464  31.445  31.601  1.00  0.00     0.031 C 
ATOM     42  C   UNL A   1      38.939  28.621  27.715  1.00  0.00     0.029 A 
ATOM     43  N   UNL A   1      40.216  28.585  29.555  1.00  0.00    -0.354 N 
ATOM     44  C   UNL A   1      39.199  30.965  33.015  1.00  0.00     0.074 A 
ATOM     45  C   UNL A   1      37.982  31.714  32.791  1.00  0.00     0.031 C 
ATOM     46  C   UNL A   1      39.992  27.824  27.463  1.00  0.00     0.029 A 
ATOM     47  C   UNL A   1      40.876  27.813  28.628  1.00  0.00     0.049 A 
ATOM     48  H   UNL A   1      40.535  28.715  30.476  1.00  0.00     0.167 HD
ATOM     49  C   UNL A   1      39.910  30.992  34.167  1.00  0.00     0.034 A 
ATOM     50  C   UNL A   1      42.070  27.194  28.702  1.00  0.00     0.034 A 
ATOM     51  C   UNL A   1      41.112  30.236  34.391  1.00  0.00     0.049 A 
ATOM     52  C   UNL A   1      42.854  27.257  29.987  1.00  0.00     0.074 A 
ATOM     53  C   UNL A   1      41.887  30.171  35.536  1.00  0.00     0.029 A 
ATOM     54  N   UNL A   1      41.721  29.420  33.451  1.00  0.00    -0.354 N 
ATOM     55  N   UNL A   1      42.551  27.857  31.113  1.00  0.00    -0.248 NA
ATOM     56  C   UNL A   1      44.130  26.525  30.026  1.00  0.00     0.031 C 
ATOM     57  C   UNL A   1      42.977  29.333  35.280  1.00  0.00     0.029 A 
ATOM     58  C   UNL A   1      42.865  28.852  33.985  1.00  0.00     0.049 A 
ATOM     59  H   UNL A   1      41.389  29.267  32.536  1.00  0.00     0.167 HD
ATOM     60  C   UNL A   1      43.575  27.549  32.001  1.00  0.00     0.074 A 
ATOM     61  C   UNL A   1      44.499  26.689  31.289  1.00  0.00     0.031 C 
ATOM     62  C   UNL A   1      43.747  27.953  33.284  1.00  0.00     0.034 A 
BRANCH  49  63
ATOM     63  C   UNL A   1      39.386  31.846  35.292  1.00  0.00     0.023 A 
ATOM     64  C   UNL A   1      38.478  31.293  36.217  1.00  0.00     0.012 A 
ATOM     65  C   UNL A   1      39.835  33.169  35.469  1.00  0.00     0.148 A 
ATOM     66  C   UNL A   1      38.001  32.053  37.285  1.00  0.00     0.002 A 
ATOM     67  C   UNL A   1      39.388  33.906  36.561  1.00  0.00     0.091 A 
ATOM     68  F   UNL A   1      40.682  33.685  34.568  1.00  0.00    -0.205 F 
ATOM     69  C   UNL A   1      38.464  33.354  37.464  1.00  0.00     0.022 A 
BRANCH  67  70
ATOM     70  S   UNL A   1      39.981  35.563  36.921  1.00  0.00     0.127 S 
ATOM     71  O   UNL A   1      41.426  35.351  36.996  1.00  0.00    -0.237 OA
ATOM     72  O   UNL A   1      39.536  36.311  35.746  1.00  0.00    -0.237 OA
ATOM     73  O   UNL A   1      39.343  35.956  38.169  1.00  0.00    -0.744 OA
ENDBRANCH  67  70
ENDBRANCH  49  63
BRANCH  50  74
ATOM     74  C   UNL A   1      42.590  26.439  27.526  1.00  0.00     0.023 A 
ATOM     75  C   UNL A   1      43.436  27.083  26.602  1.00  0.00     0.012 A 
ATOM     76  C   UNL A   1      42.261  25.085  27.328  1.00  0.00     0.148 A 
ATOM     77  C   UNL A   1      43.918  26.400  25.484  1.00  0.00     0.002 A 
ATOM     78  C   UNL A   1      42.790  24.394  26.243  1.00  0.00     0.091 A 
ATOM     79  F   UNL A   1      41.440  24.495  28.207  1.00  0.00    -0.205 F 
ATOM     80  C   UNL A   1      43.604  25.054  25.311  1.00  0.00     0.022 A 
BRANCH  78  81
ATOM     81  S   UNL A   1      42.543  22.630  26.011  1.00  0.00     0.127 S 
ATOM     82  O   UNL A   1      43.217  22.399  24.735  1.00  0.00    -0.237 OA
ATOM     83  O   UNL A   1      43.227  22.073  27.179  1.00  0.00    -0.237 OA
ATOM     84  O   UNL A   1      41.100  22.431  26.010  1.00  0.00    -0.744 OA
ENDBRANCH  78  81
ENDBRANCH  50  74
BRANCH  62  85
ATOM     85  C   UNL A   1      44.956  27.444  34.025  1.00  0.00     0.023 A 
ATOM     86  C   UNL A   1      46.148  28.196  34.025  1.00  0.00     0.012 A 
ATOM     87  C   UNL A   1      44.887  26.259  34.785  1.00  0.00     0.148 A 
ATOM     88  C   UNL A   1      47.262  27.760  34.742  1.00  0.00     0.002 A 
ATOM     89  C   UNL A   1      45.985  25.857  35.537  1.00  0.00     0.091 A 
ATOM     90  F   UNL A   1      43.750  25.549  34.761  1.00  0.00    -0.205 F 
ATOM     91  C   UNL A   1      47.177  26.598  35.506  1.00  0.00     0.022 A 
BRANCH  89  92
ATOM     92  S   UNL A   1      45.936  24.428  36.625  1.00  0.00     0.127 S 
ATOM     93  O   UNL A   1      44.875  24.802  37.559  1.00  0.00    -0.237 OA
ATOM     94  O   UNL A   1      45.582  23.347  35.703  1.00  0.00    -0.237 OA
ATOM     95  O   UNL A   1      47.267  24.316  37.203  1.00  0.00    -0.744 OA
ENDBRANCH  89  92
ENDBRANCH  62  85
ENDBRANCH  36  37
ENDBRANCH  29  31
ENDBRANCH  28  29
ENDBRANCH  27  28
ENDBRANCH   1  27
TORSDOF 20
ENDMDL
