MODEL 1
REMARK VINA RESULT:     -10.0      0.000      0.000
REMARK SMILES COC(=O)/C=C(/CC(C)C)C(=O)OCCOCCOC(=O)c1ccc(-c2c3nc(c(-c4cccc(S(=O)(=O)[O-])c4F)c4ccc([nH]4)c(-c4cccc(S(=O)(=O)[O-])c4F)c4nc(c(-c5cccc(S(=O)(=O)[O-])c5F)c5ccc2[nH]5)C=C4)C=C3)cc1
REMARK SMILES IDX 17 1 16 2 15 3 14 4 13 5 11 6 12 7 6 8 5 9 3 10 4 11 2 12
REMARK SMILES IDX 1 13 7 14 8 15 9 16 10 17 18 18 19 19 20 20 21 21 22 22
REMARK SMILES IDX 23 23 84 24 24 25 83 26 25 27 26 28 27 29 77 30 28 31 82 32
REMARK SMILES IDX 76 33 78 34 29 35 81 36 75 37 74 38 30 40 62 41 42 42 61 43
REMARK SMILES IDX 43 44 46 45 60 46 79 47 44 48 45 49 59 51 80 52 47 53 31 54
REMARK SMILES IDX 32 55 40 56 33 57 35 58 41 59 34 60 36 61 37 62 38 63 39 64
REMARK SMILES IDX 63 65 64 66 72 67 65 68 67 69 73 70 66 71 68 72 69 73 70 74
REMARK SMILES IDX 71 75 48 76 49 77 57 78 50 79 52 80 58 81 51 82 53 83 54 84
REMARK SMILES IDX 55 85 56 86
REMARK H PARENT 78 39 46 50
REMARK Flexibility Score: inf
ROOT
ATOM      1  C   UNL A   1      35.595  20.623  25.107  1.00  0.00     0.202 C 
ENDROOT
BRANCH   1   2
ATOM      2  O   UNL A   1      35.082  21.693  25.904  1.00  0.00    -0.374 OA
BRANCH   2   3
ATOM      3  C   UNL A   1      34.109  21.343  26.896  1.00  0.00     0.202 C 
BRANCH   3   4
ATOM      4  C   UNL A   1      33.253  22.508  27.406  1.00  0.00     0.261 C 
BRANCH   4   5
ATOM      5  O   UNL A   1      33.408  23.601  26.492  1.00  0.00    -0.460 OA
BRANCH   5   6
ATOM      6  C   UNL A   1      32.392  24.478  26.396  1.00  0.00     0.334 C 
ATOM      7  O   UNL A   1      31.398  24.543  27.098  1.00  0.00    -0.247 OA
BRANCH   6   8
ATOM      8  C   UNL A   1      32.753  25.462  25.342  1.00  0.00     0.045 C 
ATOM      9  C   UNL A   1      32.513  25.156  24.050  1.00  0.00     0.104 C 
BRANCH   9  10
ATOM     10  C   UNL A   1      31.798  23.982  23.491  1.00  0.00     0.331 C 
ATOM     11  O   UNL A   1      30.704  23.633  23.911  1.00  0.00    -0.247 OA
BRANCH  10  12
ATOM     12  O   UNL A   1      32.563  23.301  22.612  1.00  0.00    -0.466 OA
ATOM     13  C   UNL A   1      33.958  23.257  22.918  1.00  0.00     0.282 C 
ENDBRANCH  10  12
ENDBRANCH   9  10
BRANCH   8  14
ATOM     14  C   UNL A   1      33.492  26.714  25.763  1.00  0.00     0.046 C 
BRANCH  14  15
ATOM     15  C   UNL A   1      32.643  27.987  26.021  1.00  0.00    -0.013 C 
ATOM     16  C   UNL A   1      32.628  28.441  27.481  1.00  0.00     0.008 C 
ATOM     17  C   UNL A   1      33.187  29.150  25.182  1.00  0.00     0.008 C 
ENDBRANCH  14  15
ENDBRANCH   8  14
ENDBRANCH   6   8
ENDBRANCH   5   6
ENDBRANCH   4   5
ENDBRANCH   3   4
ENDBRANCH   2   3
ENDBRANCH   1   2
BRANCH   1  18
ATOM     18  C   UNL A   1      37.121  20.524  25.000  1.00  0.00     0.261 C 
BRANCH  18  19
ATOM     19  O   UNL A   1      37.777  21.641  25.611  1.00  0.00    -0.460 OA
BRANCH  19  20
ATOM     20  C   UNL A   1      38.998  21.370  26.127  1.00  0.00     0.338 C 
ATOM     21  O   UNL A   1      39.643  20.343  25.992  1.00  0.00    -0.246 OA
BRANCH  20  22
ATOM     22  C   UNL A   1      39.545  22.597  26.738  1.00  0.00     0.060 A 
ATOM     23  C   UNL A   1      38.942  23.814  26.396  1.00  0.00     0.016 A 
ATOM     24  C   UNL A   1      40.629  22.565  27.617  1.00  0.00     0.016 A 
ATOM     25  C   UNL A   1      39.455  25.012  26.890  1.00  0.00     0.010 A 
ATOM     26  C   UNL A   1      41.141  23.765  28.113  1.00  0.00     0.010 A 
ATOM     27  C   UNL A   1      40.583  24.995  27.719  1.00  0.00    -0.014 A 
BRANCH  27  28
ATOM     28  C   UNL A   1      41.287  26.259  28.043  1.00  0.00     0.031 A 
ATOM     29  C   UNL A   1      40.518  27.354  28.732  1.00  0.00     0.074 A 
ATOM     30  C   UNL A   1      42.579  26.438  27.719  1.00  0.00     0.049 A 
ATOM     31  N   UNL A   1      40.895  28.566  29.035  1.00  0.00    -0.248 NA
ATOM     32  C   UNL A   1      39.132  27.038  29.122  1.00  0.00     0.031 C 
ATOM     33  C   UNL A   1      43.435  25.448  27.066  1.00  0.00     0.029 A 
ATOM     34  N   UNL A   1      43.391  27.535  27.874  1.00  0.00    -0.354 N 
ATOM     35  C   UNL A   1      39.788  29.171  29.619  1.00  0.00     0.074 A 
ATOM     36  C   UNL A   1      38.718  28.197  29.613  1.00  0.00     0.031 C 
ATOM     37  C   UNL A   1      44.644  25.993  26.849  1.00  0.00     0.029 A 
ATOM     38  C   UNL A   1      44.637  27.379  27.314  1.00  0.00     0.049 A 
ATOM     39  H   UNL A   1      43.107  28.354  28.340  1.00  0.00     0.167 HD
ATOM     40  C   UNL A   1      39.674  30.420  30.128  1.00  0.00     0.034 A 
ATOM     41  C   UNL A   1      45.643  28.264  27.169  1.00  0.00     0.034 A 
ATOM     42  C   UNL A   1      40.744  31.378  30.150  1.00  0.00     0.049 A 
ATOM     43  C   UNL A   1      45.478  29.664  27.705  1.00  0.00     0.074 A 
ATOM     44  C   UNL A   1      40.741  32.657  30.681  1.00  0.00     0.029 A 
ATOM     45  N   UNL A   1      42.002  31.171  29.608  1.00  0.00    -0.354 N 
ATOM     46  N   UNL A   1      44.459  30.190  28.343  1.00  0.00    -0.248 NA
ATOM     47  C   UNL A   1      46.610  30.585  27.528  1.00  0.00     0.031 C 
ATOM     48  C   UNL A   1      41.987  33.236  30.425  1.00  0.00     0.029 A 
ATOM     49  C   UNL A   1      42.781  32.302  29.778  1.00  0.00     0.049 A 
ATOM     50  H   UNL A   1      42.299  30.344  29.167  1.00  0.00     0.167 HD
ATOM     51  C   UNL A   1      44.846  31.483  28.682  1.00  0.00     0.074 A 
ATOM     52  C   UNL A   1      46.196  31.658  28.189  1.00  0.00     0.031 C 
ATOM     53  C   UNL A   1      44.146  32.442  29.337  1.00  0.00     0.034 A 
BRANCH  40  54
ATOM     54  C   UNL A   1      38.347  30.818  30.719  1.00  0.00     0.023 A 
ATOM     55  C   UNL A   1      38.074  30.547  32.076  1.00  0.00     0.012 A 
ATOM     56  C   UNL A   1      37.394  31.510  29.947  1.00  0.00     0.148 A 
ATOM     57  C   UNL A   1      36.860  30.927  32.644  1.00  0.00     0.002 A 
ATOM     58  C   UNL A   1      36.206  31.928  30.534  1.00  0.00     0.091 A 
ATOM     59  F   UNL A   1      37.664  31.739  28.653  1.00  0.00    -0.205 F 
ATOM     60  C   UNL A   1      35.932  31.627  31.877  1.00  0.00     0.022 A 
BRANCH  58  61
ATOM     61  S   UNL A   1      34.983  32.906  29.654  1.00  0.00     0.127 S 
ATOM     62  O   UNL A   1      34.478  31.938  28.680  1.00  0.00    -0.237 OA
ATOM     63  O   UNL A   1      34.041  33.247  30.720  1.00  0.00    -0.237 OA
ATOM     64  O   UNL A   1      35.702  34.040  29.089  1.00  0.00    -0.744 OA
ENDBRANCH  58  61
ENDBRANCH  40  54
BRANCH  41  65
ATOM     65  C   UNL A   1      46.912  27.855  26.502  1.00  0.00     0.023 A 
ATOM     66  C   UNL A   1      47.990  27.393  27.281  1.00  0.00     0.012 A 
ATOM     67  C   UNL A   1      47.058  27.926  25.102  1.00  0.00     0.148 A 
ATOM     68  C   UNL A   1      49.203  27.046  26.685  1.00  0.00     0.002 A 
ATOM     69  C   UNL A   1      48.249  27.524  24.509  1.00  0.00     0.091 A 
ATOM     70  F   UNL A   1      46.026  28.381  24.379  1.00  0.00    -0.205 F 
ATOM     71  C   UNL A   1      49.329  27.102  25.299  1.00  0.00     0.022 A 
BRANCH  69  72
ATOM     72  S   UNL A   1      48.460  27.447  22.728  1.00  0.00     0.127 S 
ATOM     73  O   UNL A   1      47.310  28.214  22.257  1.00  0.00    -0.237 OA
ATOM     74  O   UNL A   1      49.756  28.106  22.551  1.00  0.00    -0.237 OA
ATOM     75  O   UNL A   1      48.457  26.030  22.389  1.00  0.00    -0.744 OA
ENDBRANCH  69  72
ENDBRANCH  41  65
BRANCH  53  76
ATOM     76  C   UNL A   1      44.834  33.751  29.626  1.00  0.00     0.023 A 
ATOM     77  C   UNL A   1      45.601  33.906  30.797  1.00  0.00     0.012 A 
ATOM     78  C   UNL A   1      44.796  34.794  28.679  1.00  0.00     0.148 A 
ATOM     79  C   UNL A   1      46.300  35.090  31.032  1.00  0.00     0.002 A 
ATOM     80  C   UNL A   1      45.538  35.949  28.895  1.00  0.00     0.091 A 
ATOM     81  F   UNL A   1      44.048  34.631  27.578  1.00  0.00    -0.205 F 
ATOM     82  C   UNL A   1      46.279  36.104  30.077  1.00  0.00     0.022 A 
BRANCH  80  83
ATOM     83  S   UNL A   1      45.654  37.265  27.678  1.00  0.00     0.127 S 
ATOM     84  O   UNL A   1      44.270  37.733  27.611  1.00  0.00    -0.237 OA
ATOM     85  O   UNL A   1      46.583  38.196  28.319  1.00  0.00    -0.237 OA
ATOM     86  O   UNL A   1      46.159  36.647  26.459  1.00  0.00    -0.744 OA
ENDBRANCH  80  83
ENDBRANCH  53  76
ENDBRANCH  27  28
ENDBRANCH  20  22
ENDBRANCH  19  20
ENDBRANCH  18  19
ENDBRANCH   1  18
TORSDOF 21
ENDMDL
MODEL 2
REMARK VINA RESULT:      -9.7      1.938      2.339
REMARK SMILES COC(=O)/C=C(/CC(C)C)C(=O)OCCOCCOC(=O)c1ccc(-c2c3nc(c(-c4cccc(S(=O)(=O)[O-])c4F)c4ccc([nH]4)c(-c4cccc(S(=O)(=O)[O-])c4F)c4nc(c(-c5cccc(S(=O)(=O)[O-])c5F)c5ccc2[nH]5)C=C4)C=C3)cc1
REMARK SMILES IDX 17 1 16 2 15 3 14 4 13 5 11 6 12 7 6 8 5 9 3 10 4 11 2 12
REMARK SMILES IDX 1 13 7 14 8 15 9 16 10 17 18 18 19 19 20 20 21 21 22 22
REMARK SMILES IDX 23 23 84 24 24 25 83 26 25 27 26 28 27 29 77 30 28 31 82 32
REMARK SMILES IDX 76 33 78 34 29 35 81 36 75 37 74 38 30 40 62 41 42 42 61 43
REMARK SMILES IDX 43 44 46 45 60 46 79 47 44 48 45 49 59 51 80 52 47 53 31 54
REMARK SMILES IDX 32 55 40 56 33 57 35 58 41 59 34 60 36 61 37 62 38 63 39 64
REMARK SMILES IDX 63 65 64 66 72 67 65 68 67 69 73 70 66 71 68 72 69 73 70 74
REMARK SMILES IDX 71 75 48 76 49 77 57 78 50 79 52 80 58 81 51 82 53 83 54 84
REMARK SMILES IDX 55 85 56 86
REMARK H PARENT 78 39 46 50
REMARK Flexibility Score: inf
ROOT
ATOM      1  C   UNL A   1      35.578  20.175  24.994  1.00  0.00     0.202 C 
ENDROOT
BRANCH   1   2
ATOM      2  O   UNL A   1      34.991  21.099  25.912  1.00  0.00    -0.374 OA
BRANCH   2   3
ATOM      3  C   UNL A   1      33.577  20.985  26.120  1.00  0.00     0.202 C 
BRANCH   3   4
ATOM      4  C   UNL A   1      32.715  21.892  25.234  1.00  0.00     0.261 C 
BRANCH   4   5
ATOM      5  O   UNL A   1      32.956  23.249  25.628  1.00  0.00    -0.460 OA
BRANCH   5   6
ATOM      6  C   UNL A   1      32.239  24.209  25.016  1.00  0.00     0.334 C 
ATOM      7  O   UNL A   1      31.061  24.172  24.706  1.00  0.00    -0.247 OA
BRANCH   6   8
ATOM      8  C   UNL A   1      33.114  25.403  24.890  1.00  0.00     0.045 C 
ATOM      9  C   UNL A   1      33.789  25.603  23.739  1.00  0.00     0.104 C 
BRANCH   9  10
ATOM     10  C   UNL A   1      33.700  24.844  22.467  1.00  0.00     0.331 C 
ATOM     11  O   UNL A   1      34.099  23.692  22.374  1.00  0.00    -0.247 OA
BRANCH  10  12
ATOM     12  O   UNL A   1      33.287  25.624  21.445  1.00  0.00    -0.466 OA
ATOM     13  C   UNL A   1      31.900  25.966  21.457  1.00  0.00     0.282 C 
ENDBRANCH  10  12
ENDBRANCH   9  10
BRANCH   8  14
ATOM     14  C   UNL A   1      33.301  26.277  26.111  1.00  0.00     0.046 C 
BRANCH  14  15
ATOM     15  C   UNL A   1      32.659  27.689  26.081  1.00  0.00    -0.013 C 
ATOM     16  C   UNL A   1      33.581  28.782  25.539  1.00  0.00     0.008 C 
ATOM     17  C   UNL A   1      31.403  27.667  25.202  1.00  0.00     0.008 C 
ENDBRANCH  14  15
ENDBRANCH   8  14
ENDBRANCH   6   8
ENDBRANCH   5   6
ENDBRANCH   4   5
ENDBRANCH   3   4
ENDBRANCH   2   3
ENDBRANCH   1   2
BRANCH   1  18
ATOM     18  C   UNL A   1      37.076  20.349  24.716  1.00  0.00     0.261 C 
BRANCH  18  19
ATOM     19  O   UNL A   1      37.658  21.373  25.531  1.00  0.00    -0.460 OA
BRANCH  19  20
ATOM     20  C   UNL A   1      38.913  21.109  25.964  1.00  0.00     0.338 C 
ATOM     21  O   UNL A   1      39.559  20.091  25.773  1.00  0.00    -0.246 OA
BRANCH  20  22
ATOM     22  C   UNL A   1      39.485  22.335  26.554  1.00  0.00     0.060 A 
ATOM     23  C   UNL A   1      38.968  23.563  26.124  1.00  0.00     0.016 A 
ATOM     24  C   UNL A   1      40.512  22.289  27.500  1.00  0.00     0.016 A 
ATOM     25  C   UNL A   1      39.512  24.755  26.597  1.00  0.00     0.010 A 
ATOM     26  C   UNL A   1      41.055  23.484  27.974  1.00  0.00     0.010 A 
ATOM     27  C   UNL A   1      40.586  24.721  27.495  1.00  0.00    -0.014 A 
BRANCH  27  28
ATOM     28  C   UNL A   1      41.334  25.963  27.807  1.00  0.00     0.031 A 
ATOM     29  C   UNL A   1      40.630  27.054  28.567  1.00  0.00     0.074 A 
ATOM     30  C   UNL A   1      42.609  26.125  27.411  1.00  0.00     0.049 A 
ATOM     31  N   UNL A   1      41.049  28.250  28.878  1.00  0.00    -0.248 NA
ATOM     32  C   UNL A   1      39.263  26.754  29.032  1.00  0.00     0.031 C 
ATOM     33  C   UNL A   1      43.403  25.135  26.684  1.00  0.00     0.029 A 
ATOM     34  N   UNL A   1      43.450  27.201  27.544  1.00  0.00    -0.354 N 
ATOM     35  C   UNL A   1      39.991  28.861  29.541  1.00  0.00     0.074 A 
ATOM     36  C   UNL A   1      38.904  27.908  29.575  1.00  0.00     0.031 C 
ATOM     37  C   UNL A   1      44.609  25.663  26.409  1.00  0.00     0.029 A 
ATOM     38  C   UNL A   1      44.658  27.036  26.908  1.00  0.00     0.049 A 
ATOM     39  H   UNL A   1      43.211  28.014  28.047  1.00  0.00     0.167 HD
ATOM     40  C   UNL A   1      39.934  30.098  30.087  1.00  0.00     0.034 A 
ATOM     41  C   UNL A   1      45.672  27.905  26.725  1.00  0.00     0.034 A 
ATOM     42  C   UNL A   1      41.023  31.035  30.069  1.00  0.00     0.049 A 
ATOM     43  C   UNL A   1      45.567  29.294  27.305  1.00  0.00     0.074 A 
ATOM     44  C   UNL A   1      41.079  32.299  30.630  1.00  0.00     0.029 A 
ATOM     45  N   UNL A   1      42.243  30.818  29.448  1.00  0.00    -0.354 N 
ATOM     46  N   UNL A   1      44.599  29.822  28.015  1.00  0.00    -0.248 NA
ATOM     47  C   UNL A   1      46.707  30.196  27.083  1.00  0.00     0.031 C 
ATOM     48  C   UNL A   1      42.319  32.860  30.315  1.00  0.00     0.029 A 
ATOM     49  C   UNL A   1      43.054  31.929  29.599  1.00  0.00     0.049 A 
ATOM     50  H   UNL A   1      42.495  29.996  28.970  1.00  0.00     0.167 HD
ATOM     51  C   UNL A   1      45.033  31.098  28.362  1.00  0.00     0.074 A 
ATOM     52  C   UNL A   1      46.355  31.260  27.794  1.00  0.00     0.031 C 
ATOM     53  C   UNL A   1      44.392  32.053  29.082  1.00  0.00     0.034 A 
BRANCH  40  54
ATOM     54  C   UNL A   1      38.653  30.506  30.766  1.00  0.00     0.023 A 
ATOM     55  C   UNL A   1      38.476  30.252  32.141  1.00  0.00     0.012 A 
ATOM     56  C   UNL A   1      37.649  31.192  30.055  1.00  0.00     0.148 A 
ATOM     57  C   UNL A   1      37.306  30.642  32.790  1.00  0.00     0.002 A 
ATOM     58  C   UNL A   1      36.506  31.619  30.719  1.00  0.00     0.091 A 
ATOM     59  F   UNL A   1      37.827  31.405  28.743  1.00  0.00    -0.205 F 
ATOM     60  C   UNL A   1      36.327  31.335  32.083  1.00  0.00     0.022 A 
BRANCH  58  61
ATOM     61  S   UNL A   1      35.225  32.590  29.917  1.00  0.00     0.127 S 
ATOM     62  O   UNL A   1      34.300  32.827  31.024  1.00  0.00    -0.237 OA
ATOM     63  O   UNL A   1      35.967  33.771  29.478  1.00  0.00    -0.237 OA
ATOM     64  O   UNL A   1      34.705  31.760  28.839  1.00  0.00    -0.744 OA
ENDBRANCH  58  61
ENDBRANCH  40  54
BRANCH  41  65
ATOM     65  C   UNL A   1      46.890  27.489  25.973  1.00  0.00     0.023 A 
ATOM     66  C   UNL A   1      46.994  27.780  24.599  1.00  0.00     0.012 A 
ATOM     67  C   UNL A   1      47.943  26.802  26.611  1.00  0.00     0.148 A 
ATOM     68  C   UNL A   1      48.105  27.364  23.865  1.00  0.00     0.002 A 
ATOM     69  C   UNL A   1      49.072  26.440  25.885  1.00  0.00     0.091 A 
ATOM     70  F   UNL A   1      47.820  26.521  27.914  1.00  0.00    -0.205 F 
ATOM     71  C   UNL A   1      49.147  26.703  24.509  1.00  0.00     0.022 A 
BRANCH  69  72
ATOM     72  S   UNL A   1      50.513  25.695  26.655  1.00  0.00     0.127 S 
ATOM     73  O   UNL A   1      51.415  25.543  25.517  1.00  0.00    -0.237 OA
ATOM     74  O   UNL A   1      50.904  26.726  27.619  1.00  0.00    -0.237 OA
ATOM     75  O   UNL A   1      50.043  24.456  27.260  1.00  0.00    -0.744 OA
ENDBRANCH  69  72
ENDBRANCH  41  65
BRANCH  53  76
ATOM     76  C   UNL A   1      45.123  33.341  29.361  1.00  0.00     0.023 A 
ATOM     77  C   UNL A   1      45.015  34.426  28.469  1.00  0.00     0.012 A 
ATOM     78  C   UNL A   1      45.837  33.502  30.565  1.00  0.00     0.148 A 
ATOM     79  C   UNL A   1      45.629  35.644  28.761  1.00  0.00     0.002 A 
ATOM     80  C   UNL A   1      46.402  34.734  30.873  1.00  0.00     0.091 A 
ATOM     81  F   UNL A   1      45.940  32.452  31.393  1.00  0.00    -0.205 F 
ATOM     82  C   UNL A   1      46.310  35.802  29.967  1.00  0.00     0.022 A 
BRANCH  80  83
ATOM     83  S   UNL A   1      47.209  35.063  32.444  1.00  0.00     0.127 S 
ATOM     84  O   UNL A   1      48.432  34.271  32.322  1.00  0.00    -0.237 OA
ATOM     85  O   UNL A   1      47.409  36.511  32.390  1.00  0.00    -0.237 OA
ATOM     86  O   UNL A   1      46.282  34.617  33.477  1.00  0.00    -0.744 OA
ENDBRANCH  80  83
ENDBRANCH  53  76
ENDBRANCH  27  28
ENDBRANCH  20  22
ENDBRANCH  19  20
ENDBRANCH  18  19
ENDBRANCH   1  18
TORSDOF 21
ENDMDL
MODEL 3
REMARK VINA RESULT:      -9.7      4.922      9.820
REMARK SMILES COC(=O)/C=C(/CC(C)C)C(=O)OCCOCCOC(=O)c1ccc(-c2c3nc(c(-c4cccc(S(=O)(=O)[O-])c4F)c4ccc([nH]4)c(-c4cccc(S(=O)(=O)[O-])c4F)c4nc(c(-c5cccc(S(=O)(=O)[O-])c5F)c5ccc2[nH]5)C=C4)C=C3)cc1
REMARK SMILES IDX 17 1 16 2 15 3 14 4 13 5 11 6 12 7 6 8 5 9 3 10 4 11 2 12
REMARK SMILES IDX 1 13 7 14 8 15 9 16 10 17 18 18 19 19 20 20 21 21 22 22
REMARK SMILES IDX 23 23 84 24 24 25 83 26 25 27 26 28 27 29 77 30 28 31 82 32
REMARK SMILES IDX 76 33 78 34 29 35 81 36 75 37 74 38 30 40 62 41 42 42 61 43
REMARK SMILES IDX 43 44 46 45 60 46 79 47 44 48 45 49 59 51 80 52 47 53 31 54
REMARK SMILES IDX 32 55 40 56 33 57 35 58 41 59 34 60 36 61 37 62 38 63 39 64
REMARK SMILES IDX 63 65 64 66 72 67 65 68 67 69 73 70 66 71 68 72 69 73 70 74
REMARK SMILES IDX 71 75 48 76 49 77 57 78 50 79 52 80 58 81 51 82 53 83 54 84
REMARK SMILES IDX 55 85 56 86
REMARK H PARENT 78 39 46 50
REMARK Flexibility Score: inf
ROOT
ATOM      1  C   UNL A   1      31.968  29.799  25.192  1.00  0.00     0.202 C 
ENDROOT
BRANCH   1   2
ATOM      2  O   UNL A   1      31.137  28.636  25.178  1.00  0.00    -0.374 OA
BRANCH   2   3
ATOM      3  C   UNL A   1      31.607  27.503  25.920  1.00  0.00     0.202 C 
BRANCH   3   4
ATOM      4  C   UNL A   1      30.929  26.173  25.574  1.00  0.00     0.261 C 
BRANCH   4   5
ATOM      5  O   UNL A   1      31.886  25.126  25.778  1.00  0.00    -0.460 OA
BRANCH   5   6
ATOM      6  C   UNL A   1      32.341  24.480  24.688  1.00  0.00     0.334 C 
ATOM      7  O   UNL A   1      31.708  23.762  23.933  1.00  0.00    -0.247 OA
BRANCH   6   8
ATOM      8  C   UNL A   1      33.752  24.897  24.481  1.00  0.00     0.045 C 
ATOM      9  C   UNL A   1      34.093  25.505  23.326  1.00  0.00     0.104 C 
BRANCH   9  10
ATOM     10  C   UNL A   1      33.214  25.954  22.219  1.00  0.00     0.331 C 
ATOM     11  O   UNL A   1      33.291  25.474  21.097  1.00  0.00    -0.247 OA
BRANCH  10  12
ATOM     12  O   UNL A   1      32.469  27.023  22.573  1.00  0.00    -0.466 OA
ATOM     13  C   UNL A   1      31.157  27.071  22.009  1.00  0.00     0.282 C 
ENDBRANCH  10  12
ENDBRANCH   9  10
BRANCH   8  14
ATOM     14  C   UNL A   1      34.768  24.506  25.532  1.00  0.00     0.046 C 
BRANCH  14  15
ATOM     15  C   UNL A   1      36.002  23.691  25.060  1.00  0.00    -0.013 C 
ATOM     16  C   UNL A   1      37.172  23.705  26.044  1.00  0.00     0.008 C 
ATOM     17  C   UNL A   1      35.600  22.227  24.842  1.00  0.00     0.008 C 
ENDBRANCH  14  15
ENDBRANCH   8  14
ENDBRANCH   6   8
ENDBRANCH   5   6
ENDBRANCH   4   5
ENDBRANCH   3   4
ENDBRANCH   2   3
ENDBRANCH   1   2
BRANCH   1  18
ATOM     18  C   UNL A   1      31.779  30.757  26.372  1.00  0.00     0.261 C 
BRANCH  18  19
ATOM     19  O   UNL A   1      32.809  30.608  27.357  1.00  0.00    -0.460 OA
BRANCH  19  20
ATOM     20  C   UNL A   1      33.560  31.715  27.565  1.00  0.00     0.338 C 
ATOM     21  O   UNL A   1      33.180  32.875  27.556  1.00  0.00    -0.246 OA
BRANCH  20  22
ATOM     22  C   UNL A   1      34.907  31.305  28.007  1.00  0.00     0.060 A 
ATOM     23  C   UNL A   1      35.085  29.968  28.385  1.00  0.00     0.016 A 
ATOM     24  C   UNL A   1      35.972  32.206  28.063  1.00  0.00     0.016 A 
ATOM     25  C   UNL A   1      36.317  29.537  28.872  1.00  0.00     0.010 A 
ATOM     26  C   UNL A   1      37.206  31.774  28.551  1.00  0.00     0.010 A 
ATOM     27  C   UNL A   1      37.373  30.449  28.996  1.00  0.00    -0.014 A 
BRANCH  27  28
ATOM     28  C   UNL A   1      38.597  30.072  29.742  1.00  0.00     0.031 A 
ATOM     29  C   UNL A   1      39.513  29.038  29.146  1.00  0.00     0.074 A 
ATOM     30  C   UNL A   1      38.884  30.628  30.933  1.00  0.00     0.049 A 
ATOM     31  N   UNL A   1      40.587  28.493  29.650  1.00  0.00    -0.248 NA
ATOM     32  C   UNL A   1      39.162  28.547  27.801  1.00  0.00     0.031 C 
ATOM     33  C   UNL A   1      38.086  31.651  31.605  1.00  0.00     0.029 A 
ATOM     34  N   UNL A   1      39.919  30.382  31.801  1.00  0.00    -0.354 N 
ATOM     35  C   UNL A   1      41.021  27.571  28.705  1.00  0.00     0.074 A 
ATOM     36  C   UNL A   1      40.086  27.618  27.603  1.00  0.00     0.031 C 
ATOM     37  C   UNL A   1      38.645  31.926  32.797  1.00  0.00     0.029 A 
ATOM     38  C   UNL A   1      39.817  31.073  32.986  1.00  0.00     0.049 A 
ATOM     39  H   UNL A   1      40.662  29.770  31.596  1.00  0.00     0.167 HD
ATOM     40  C   UNL A   1      42.109  26.766  28.744  1.00  0.00     0.034 A 
ATOM     41  C   UNL A   1      40.568  31.002  34.103  1.00  0.00     0.034 A 
ATOM     42  C   UNL A   1      43.047  26.735  29.832  1.00  0.00     0.049 A 
ATOM     43  C   UNL A   1      41.750  30.066  34.139  1.00  0.00     0.074 A 
ATOM     44  C   UNL A   1      44.204  25.985  29.948  1.00  0.00     0.029 A 
ATOM     45  N   UNL A   1      42.931  27.476  30.997  1.00  0.00    -0.354 N 
ATOM     46  N   UNL A   1      42.205  29.272  33.199  1.00  0.00    -0.248 NA
ATOM     47  C   UNL A   1      42.540  30.036  35.379  1.00  0.00     0.031 C 
ATOM     48  C   UNL A   1      44.767  26.245  31.200  1.00  0.00     0.029 A 
ATOM     49  C   UNL A   1      43.987  27.192  31.844  1.00  0.00     0.049 A 
ATOM     50  H   UNL A   1      42.205  28.111  31.193  1.00  0.00     0.167 HD
ATOM     51  C   UNL A   1      43.357  28.687  33.717  1.00  0.00     0.074 A 
ATOM     52  C   UNL A   1      43.536  29.224  35.049  1.00  0.00     0.031 C 
ATOM     53  C   UNL A   1      44.188  27.781  33.143  1.00  0.00     0.034 A 
BRANCH  40  54
ATOM     54  C   UNL A   1      42.354  25.862  27.565  1.00  0.00     0.023 A 
ATOM     55  C   UNL A   1      43.088  26.336  26.458  1.00  0.00     0.012 A 
ATOM     56  C   UNL A   1      41.907  24.526  27.578  1.00  0.00     0.148 A 
ATOM     57  C   UNL A   1      43.342  25.505  25.368  1.00  0.00     0.002 A 
ATOM     58  C   UNL A   1      42.205  23.691  26.508  1.00  0.00     0.091 A 
ATOM     59  F   UNL A   1      41.192  24.102  28.630  1.00  0.00    -0.205 F 
ATOM     60  C   UNL A   1      42.912  24.181  25.398  1.00  0.00     0.022 A 
BRANCH  58  61
ATOM     61  S   UNL A   1      41.766  21.949  26.487  1.00  0.00     0.127 S 
ATOM     62  O   UNL A   1      40.326  22.013  26.244  1.00  0.00    -0.237 OA
ATOM     63  O   UNL A   1      42.554  21.449  25.361  1.00  0.00    -0.237 OA
ATOM     64  O   UNL A   1      42.155  21.419  27.787  1.00  0.00    -0.744 OA
ENDBRANCH  58  61
ENDBRANCH  40  54
BRANCH  41  65
ATOM     65  C   UNL A   1      40.242  31.855  35.282  1.00  0.00     0.023 A 
ATOM     66  C   UNL A   1      41.014  33.003  35.544  1.00  0.00     0.012 A 
ATOM     67  C   UNL A   1      39.177  31.531  36.145  1.00  0.00     0.148 A 
ATOM     68  C   UNL A   1      40.757  33.793  36.666  1.00  0.00     0.002 A 
ATOM     69  C   UNL A   1      38.890  32.354  37.228  1.00  0.00     0.091 A 
ATOM     70  F   UNL A   1      38.463  30.427  35.888  1.00  0.00    -0.205 F 
ATOM     71  C   UNL A   1      39.690  33.474  37.502  1.00  0.00     0.022 A 
BRANCH  69  72
ATOM     72  S   UNL A   1      37.463  32.090  38.287  1.00  0.00     0.127 S 
ATOM     73  O   UNL A   1      37.281  30.645  38.188  1.00  0.00    -0.237 OA
ATOM     74  O   UNL A   1      37.960  32.563  39.581  1.00  0.00    -0.237 OA
ATOM     75  O   UNL A   1      36.395  32.903  37.721  1.00  0.00    -0.744 OA
ENDBRANCH  69  72
ENDBRANCH  41  65
BRANCH  53  76
ATOM     76  C   UNL A   1      45.409  27.351  33.915  1.00  0.00     0.023 A 
ATOM     77  C   UNL A   1      45.358  26.216  34.748  1.00  0.00     0.012 A 
ATOM     78  C   UNL A   1      46.635  28.021  33.730  1.00  0.00     0.148 A 
ATOM     79  C   UNL A   1      46.505  25.771  35.406  1.00  0.00     0.002 A 
ATOM     80  C   UNL A   1      47.784  27.540  34.346  1.00  0.00     0.091 A 
ATOM     81  F   UNL A   1      46.658  29.107  32.944  1.00  0.00    -0.205 F 
ATOM     82  C   UNL A   1      47.718  26.424  35.195  1.00  0.00     0.022 A 
BRANCH  80  83
ATOM     83  S   UNL A   1      49.407  28.251  34.055  1.00  0.00     0.127 S 
ATOM     84  O   UNL A   1      49.221  29.622  34.528  1.00  0.00    -0.237 OA
ATOM     85  O   UNL A   1      50.263  27.422  34.904  1.00  0.00    -0.237 OA
ATOM     86  O   UNL A   1      49.658  28.116  32.626  1.00  0.00    -0.744 OA
ENDBRANCH  80  83
ENDBRANCH  53  76
ENDBRANCH  27  28
ENDBRANCH  20  22
ENDBRANCH  19  20
ENDBRANCH  18  19
ENDBRANCH   1  18
TORSDOF 21
ENDMDL
