MODEL 1
REMARK VINA RESULT:     -10.6      0.000      0.000
REMARK SMILES O=C(CNC(=O)N1CC(OCCOCCOC(=O)c2ccc(-c3c4nc(c(-c5cccc(S(=O)(=O)[O-])c5F)c5ccc([nH]5)c(-c5cccc(S(=O)(=O)[O-])c5F)c5nc(c(-c6cccc(S(=O)(=O)[O-])c6F)c6ccc3[nH]6)C=C5)C=C4)cc2)=Nc2ccccc21)N[C@H](C(=O)[O-])c1ccccc1
REMARK SMILES IDX 12 1 11 2 10 3 9 4 7 5 8 6 88 7 83 8 87 9 82 10 84 11 86 12
REMARK SMILES IDX 85 13 5 14 4 15 6 17 3 18 2 19 1 20 89 21 90 23 94 24 95 25
REMARK SMILES IDX 99 26 96 27 98 28 97 29 91 30 92 31 93 32 13 33 14 34 15 35
REMARK SMILES IDX 16 36 17 37 18 38 19 39 20 40 81 41 21 42 80 43 22 44 23 45
REMARK SMILES IDX 24 46 74 47 25 48 79 49 73 50 75 51 26 52 78 53 72 54 71 55
REMARK SMILES IDX 27 57 59 58 39 59 58 60 40 61 43 62 57 63 76 64 41 65 42 66
REMARK SMILES IDX 56 68 77 69 44 70 28 71 29 72 37 73 30 74 32 75 38 76 31 77
REMARK SMILES IDX 33 78 34 79 35 80 36 81 60 82 61 83 69 84 62 85 64 86 70 87
REMARK SMILES IDX 63 88 65 89 66 90 67 91 68 92 45 93 46 94 54 95 47 96 49 97
REMARK SMILES IDX 55 98 48 99 50 100 51 101 52 102 53 103
REMARK H PARENT 4 16 89 22 75 56 43 67
REMARK Flexibility Score: inf
ROOT
ATOM      1  C   UNL A   1      34.520  30.063  27.378  1.00  0.00     0.202 C 
ENDROOT
BRANCH   1   2
ATOM      2  C   UNL A   1      33.896  28.730  26.934  1.00  0.00     0.259 C 
BRANCH   2   3
ATOM      3  O   UNL A   1      33.527  28.693  25.536  1.00  0.00    -0.477 OA
BRANCH   3   4
ATOM      4  C   UNL A   1      32.203  28.666  25.255  1.00  0.00     0.209 C 
ATOM      5  N   UNL A   1      30.438  26.977  25.021  1.00  0.00    -0.283 N 
ATOM      6  C   UNL A   1      31.459  27.530  25.917  1.00  0.00     0.224 C 
ATOM      7  C   UNL A   1      29.776  27.929  24.173  1.00  0.00     0.072 A 
ATOM      8  C   UNL A   1      30.407  29.172  23.925  1.00  0.00     0.091 A 
ATOM      9  C   UNL A   1      28.554  27.666  23.546  1.00  0.00     0.029 A 
ATOM     10  N   UNL A   1      31.668  29.510  24.434  1.00  0.00    -0.214 NA
ATOM     11  C   UNL A   1      29.884  30.044  22.965  1.00  0.00     0.030 A 
ATOM     12  C   UNL A   1      28.044  28.545  22.584  1.00  0.00     0.002 A 
ATOM     13  C   UNL A   1      28.721  29.722  22.276  1.00  0.00     0.002 A 
BRANCH   5  14
ATOM     14  C   UNL A   1      30.105  25.658  25.223  1.00  0.00     0.322 C 
ATOM     15  N   UNL A   1      30.300  24.726  24.257  1.00  0.00    -0.329 N 
ATOM     16  H   UNL A   1      29.803  23.886  24.386  1.00  0.00     0.165 HD
ATOM     17  O   UNL A   1      29.694  25.257  26.315  1.00  0.00    -0.248 OA
BRANCH  15  18
ATOM     18  C   UNL A   1      31.128  24.769  23.055  1.00  0.00     0.218 C 
BRANCH  18  19
ATOM     19  C   UNL A   1      32.232  23.718  22.900  1.00  0.00     0.240 C 
ATOM     20  O   UNL A   1      32.967  23.769  21.914  1.00  0.00    -0.273 OA
ATOM     21  N   UNL A   1      32.406  22.847  23.946  1.00  0.00    -0.342 N 
ATOM     22  H   UNL A   1      31.804  22.893  24.723  1.00  0.00     0.164 HD
BRANCH  21  23
ATOM     23  C   UNL A   1      33.491  21.836  23.917  1.00  0.00     0.158 C 
BRANCH  23  24
ATOM     24  C   UNL A   1      34.789  22.433  24.478  1.00  0.00    -0.020 A 
ATOM     25  C   UNL A   1      34.865  23.003  25.759  1.00  0.00     0.006 A 
ATOM     26  C   UNL A   1      35.980  22.358  23.731  1.00  0.00     0.006 A 
ATOM     27  C   UNL A   1      36.072  23.492  26.267  1.00  0.00     0.000 A 
ATOM     28  C   UNL A   1      37.190  22.849  24.238  1.00  0.00     0.000 A 
ATOM     29  C   UNL A   1      37.235  23.413  25.509  1.00  0.00     0.000 A 
ENDBRANCH  23  24
BRANCH  23  30
ATOM     30  C   UNL A   1      33.087  20.477  24.604  1.00  0.00     0.068 C 
ATOM     31  O   UNL A   1      33.919  19.528  24.484  1.00  0.00    -0.548 OA
ATOM     32  O   UNL A   1      31.976  20.487  25.222  1.00  0.00    -0.548 OA
ENDBRANCH  23  30
ENDBRANCH  21  23
ENDBRANCH  18  19
ENDBRANCH  15  18
ENDBRANCH   5  14
ENDBRANCH   3   4
ENDBRANCH   2   3
ENDBRANCH   1   2
BRANCH   1  33
ATOM     33  O   UNL A   1      33.653  31.152  27.701  1.00  0.00    -0.374 OA
BRANCH  33  34
ATOM     34  C   UNL A   1      34.161  32.478  27.661  1.00  0.00     0.202 C 
BRANCH  34  35
ATOM     35  C   UNL A   1      33.952  33.434  28.831  1.00  0.00     0.261 C 
BRANCH  35  36
ATOM     36  O   UNL A   1      35.051  33.565  29.711  1.00  0.00    -0.460 OA
BRANCH  36  37
ATOM     37  C   UNL A   1      35.077  32.607  30.659  1.00  0.00     0.338 C 
ATOM     38  O   UNL A   1      34.178  32.307  31.436  1.00  0.00    -0.246 OA
BRANCH  37  39
ATOM     39  C   UNL A   1      36.343  31.870  30.560  1.00  0.00     0.060 A 
ATOM     40  C   UNL A   1      36.551  30.841  31.478  1.00  0.00     0.016 A 
ATOM     41  C   UNL A   1      37.328  32.209  29.623  1.00  0.00     0.016 A 
ATOM     42  C   UNL A   1      37.781  30.209  31.523  1.00  0.00     0.010 A 
ATOM     43  C   UNL A   1      38.563  31.576  29.664  1.00  0.00     0.010 A 
ATOM     44  C   UNL A   1      38.800  30.612  30.650  1.00  0.00    -0.014 A 
BRANCH  44  45
ATOM     45  C   UNL A   1      40.150  30.073  30.859  1.00  0.00     0.031 A 
ATOM     46  C   UNL A   1      40.973  30.599  31.993  1.00  0.00     0.074 A 
ATOM     47  C   UNL A   1      40.588  29.097  30.051  1.00  0.00     0.049 A 
ATOM     48  N   UNL A   1      42.075  30.114  32.498  1.00  0.00    -0.248 NA
ATOM     49  C   UNL A   1      40.497  31.831  32.647  1.00  0.00     0.031 C 
ATOM     50  C   UNL A   1      39.873  28.589  28.879  1.00  0.00     0.029 A 
ATOM     51  N   UNL A   1      41.740  28.365  30.092  1.00  0.00    -0.354 N 
ATOM     52  C   UNL A   1      42.419  30.971  33.537  1.00  0.00     0.074 A 
ATOM     53  C   UNL A   1      41.433  32.028  33.565  1.00  0.00     0.031 C 
ATOM     54  C   UNL A   1      40.614  27.629  28.303  1.00  0.00     0.029 A 
ATOM     55  C   UNL A   1      41.836  27.445  29.080  1.00  0.00     0.049 A 
ATOM     56  H   UNL A   1      42.435  28.488  30.780  1.00  0.00     0.167 HD
ATOM     57  C   UNL A   1      43.454  30.856  34.402  1.00  0.00     0.034 A 
ATOM     58  C   UNL A   1      42.797  26.535  28.837  1.00  0.00     0.034 A 
ATOM     59  C   UNL A   1      44.419  29.791  34.334  1.00  0.00     0.049 A 
ATOM     60  C   UNL A   1      43.907  26.396  29.841  1.00  0.00     0.074 A 
ATOM     61  C   UNL A   1      45.473  29.520  35.187  1.00  0.00     0.029 A 
ATOM     62  N   UNL A   1      44.455  28.826  33.335  1.00  0.00    -0.354 N 
ATOM     63  N   UNL A   1      44.118  27.078  30.942  1.00  0.00    -0.248 NA
ATOM     64  C   UNL A   1      44.877  25.319  29.607  1.00  0.00     0.031 C 
ATOM     65  C   UNL A   1      46.162  28.408  34.687  1.00  0.00     0.029 A 
ATOM     66  C   UNL A   1      45.521  27.967  33.539  1.00  0.00     0.049 A 
ATOM     67  H   UNL A   1      43.815  28.764  32.590  1.00  0.00     0.167 HD
ATOM     68  C   UNL A   1      45.221  26.496  31.552  1.00  0.00     0.074 A 
ATOM     69  C   UNL A   1      45.616  25.385  30.706  1.00  0.00     0.031 C 
ATOM     70  C   UNL A   1      45.863  26.850  32.695  1.00  0.00     0.034 A 
BRANCH  57  71
ATOM     71  C   UNL A   1      43.563  31.873  35.510  1.00  0.00     0.023 A 
ATOM     72  C   UNL A   1      44.374  33.012  35.329  1.00  0.00     0.012 A 
ATOM     73  C   UNL A   1      42.823  31.739  36.701  1.00  0.00     0.148 A 
ATOM     74  C   UNL A   1      44.472  33.985  36.325  1.00  0.00     0.002 A 
ATOM     75  C   UNL A   1      42.888  32.736  37.671  1.00  0.00     0.091 A 
ATOM     76  F   UNL A   1      42.073  30.641  36.868  1.00  0.00    -0.205 F 
ATOM     77  C   UNL A   1      43.721  33.852  37.489  1.00  0.00     0.022 A 
BRANCH  75  78
ATOM     78  S   UNL A   1      41.885  32.707  39.163  1.00  0.00     0.127 S 
ATOM     79  O   UNL A   1      42.194  34.006  39.760  1.00  0.00    -0.237 OA
ATOM     80  O   UNL A   1      40.530  32.595  38.620  1.00  0.00    -0.237 OA
ATOM     81  O   UNL A   1      42.328  31.549  39.926  1.00  0.00    -0.744 OA
ENDBRANCH  75  78
ENDBRANCH  57  71
BRANCH  58  82
ATOM     82  C   UNL A   1      42.668  25.627  27.667  1.00  0.00     0.023 A 
ATOM     83  C   UNL A   1      43.156  26.039  26.412  1.00  0.00     0.012 A 
ATOM     84  C   UNL A   1      42.120  24.337  27.803  1.00  0.00     0.148 A 
ATOM     85  C   UNL A   1      43.076  25.193  25.306  1.00  0.00     0.002 A 
ATOM     86  C   UNL A   1      42.086  23.480  26.707  1.00  0.00     0.091 A 
ATOM     87  F   UNL A   1      41.654  23.966  29.004  1.00  0.00    -0.205 F 
ATOM     88  C   UNL A   1      42.550  23.912  25.455  1.00  0.00     0.022 A 
BRANCH  86  89
ATOM     89  S   UNL A   1      41.539  21.774  26.836  1.00  0.00     0.127 S 
ATOM     90  O   UNL A   1      42.381  21.271  27.920  1.00  0.00    -0.237 OA
ATOM     91  O   UNL A   1      40.126  21.932  27.181  1.00  0.00    -0.237 OA
ATOM     92  O   UNL A   1      41.774  21.186  25.524  1.00  0.00    -0.744 OA
ENDBRANCH  86  89
ENDBRANCH  58  82
BRANCH  70  93
ATOM     93  C   UNL A   1      47.054  26.018  33.092  1.00  0.00     0.023 A 
ATOM     94  C   UNL A   1      46.878  24.929  33.971  1.00  0.00     0.012 A 
ATOM     95  C   UNL A   1      48.332  26.286  32.567  1.00  0.00     0.148 A 
ATOM     96  C   UNL A   1      47.967  24.151  34.358  1.00  0.00     0.002 A 
ATOM     97  C   UNL A   1      49.404  25.474  32.920  1.00  0.00     0.091 A 
ATOM     98  F   UNL A   1      48.485  27.337  31.748  1.00  0.00    -0.205 F 
ATOM     99  C   UNL A   1      49.226  24.417  33.826  1.00  0.00     0.022 A 
BRANCH  97 100
ATOM    100  S   UNL A   1      51.039  25.688  32.208  1.00  0.00     0.127 S 
ATOM    101  O   UNL A   1      51.418  27.004  32.718  1.00  0.00    -0.237 OA
ATOM    102  O   UNL A   1      51.786  24.572  32.793  1.00  0.00    -0.237 OA
ATOM    103  O   UNL A   1      50.860  25.598  30.766  1.00  0.00    -0.744 OA
ENDBRANCH  97 100
ENDBRANCH  70  93
ENDBRANCH  44  45
ENDBRANCH  37  39
ENDBRANCH  36  37
ENDBRANCH  35  36
ENDBRANCH  34  35
ENDBRANCH  33  34
ENDBRANCH   1  33
TORSDOF 22
ENDMDL
MODEL 2
REMARK VINA RESULT:     -10.4      4.337      9.554
REMARK SMILES O=C(CNC(=O)N1CC(OCCOCCOC(=O)c2ccc(-c3c4nc(c(-c5cccc(S(=O)(=O)[O-])c5F)c5ccc([nH]5)c(-c5cccc(S(=O)(=O)[O-])c5F)c5nc(c(-c6cccc(S(=O)(=O)[O-])c6F)c6ccc3[nH]6)C=C5)C=C4)cc2)=Nc2ccccc21)N[C@H](C(=O)[O-])c1ccccc1
REMARK SMILES IDX 12 1 11 2 10 3 9 4 7 5 8 6 88 7 83 8 87 9 82 10 84 11 86 12
REMARK SMILES IDX 85 13 5 14 4 15 6 17 3 18 2 19 1 20 89 21 90 23 94 24 95 25
REMARK SMILES IDX 99 26 96 27 98 28 97 29 91 30 92 31 93 32 13 33 14 34 15 35
REMARK SMILES IDX 16 36 17 37 18 38 19 39 20 40 81 41 21 42 80 43 22 44 23 45
REMARK SMILES IDX 24 46 74 47 25 48 79 49 73 50 75 51 26 52 78 53 72 54 71 55
REMARK SMILES IDX 27 57 59 58 39 59 58 60 40 61 43 62 57 63 76 64 41 65 42 66
REMARK SMILES IDX 56 68 77 69 44 70 28 71 29 72 37 73 30 74 32 75 38 76 31 77
REMARK SMILES IDX 33 78 34 79 35 80 36 81 60 82 61 83 69 84 62 85 64 86 70 87
REMARK SMILES IDX 63 88 65 89 66 90 67 91 68 92 45 93 46 94 54 95 47 96 49 97
REMARK SMILES IDX 55 98 48 99 50 100 51 101 52 102 53 103
REMARK H PARENT 4 16 89 22 75 56 43 67
REMARK Flexibility Score: inf
ROOT
ATOM      1  C   UNL A   1      39.075  23.405  26.137  1.00  0.00     0.202 C 
ENDROOT
BRANCH   1   2
ATOM      2  C   UNL A   1      37.750  24.165  25.959  1.00  0.00     0.259 C 
BRANCH   2   3
ATOM      3  O   UNL A   1      37.007  23.780  24.779  1.00  0.00    -0.477 OA
BRANCH   3   4
ATOM      4  C   UNL A   1      35.812  23.176  24.981  1.00  0.00     0.209 C 
ATOM      5  N   UNL A   1      33.684  22.936  23.782  1.00  0.00    -0.283 N 
ATOM      6  C   UNL A   1      35.133  22.724  23.709  1.00  0.00     0.224 C 
ATOM      7  C   UNL A   1      33.093  22.733  25.075  1.00  0.00     0.072 A 
ATOM      8  C   UNL A   1      33.924  22.790  26.220  1.00  0.00     0.091 A 
ATOM      9  C   UNL A   1      31.722  22.523  25.258  1.00  0.00     0.029 A 
ATOM     10  N   UNL A   1      35.295  23.075  26.161  1.00  0.00    -0.214 NA
ATOM     11  C   UNL A   1      33.358  22.780  27.498  1.00  0.00     0.030 A 
ATOM     12  C   UNL A   1      31.168  22.518  26.543  1.00  0.00     0.002 A 
ATOM     13  C   UNL A   1      31.982  22.672  27.662  1.00  0.00     0.002 A 
BRANCH   5  14
ATOM     14  C   UNL A   1      33.038  23.122  22.582  1.00  0.00     0.322 C 
ATOM     15  N   UNL A   1      32.941  24.351  22.018  1.00  0.00    -0.329 N 
ATOM     16  H   UNL A   1      32.254  24.431  21.317  1.00  0.00     0.165 HD
ATOM     17  O   UNL A   1      32.595  22.170  21.934  1.00  0.00    -0.248 OA
BRANCH  15  18
ATOM     18  C   UNL A   1      33.690  25.575  22.283  1.00  0.00     0.218 C 
BRANCH  18  19
ATOM     19  C   UNL A   1      33.170  26.520  23.372  1.00  0.00     0.240 C 
ATOM     20  O   UNL A   1      33.923  27.383  23.820  1.00  0.00    -0.273 OA
ATOM     21  N   UNL A   1      31.841  26.413  23.697  1.00  0.00    -0.342 N 
ATOM     22  H   UNL A   1      31.288  25.724  23.265  1.00  0.00     0.164 HD
BRANCH  21  23
ATOM     23  C   UNL A   1      31.229  27.328  24.693  1.00  0.00     0.158 C 
BRANCH  23  24
ATOM     24  C   UNL A   1      30.208  28.248  24.012  1.00  0.00    -0.020 A 
ATOM     25  C   UNL A   1      29.057  27.757  23.374  1.00  0.00     0.006 A 
ATOM     26  C   UNL A   1      30.367  29.646  24.074  1.00  0.00     0.006 A 
ATOM     27  C   UNL A   1      28.114  28.621  22.809  1.00  0.00     0.000 A 
ATOM     28  C   UNL A   1      29.425  30.512  23.506  1.00  0.00     0.000 A 
ATOM     29  C   UNL A   1      28.296  29.998  22.875  1.00  0.00     0.000 A 
ENDBRANCH  23  24
BRANCH  23  30
ATOM     30  C   UNL A   1      30.645  26.573  25.946  1.00  0.00     0.068 C 
ATOM     31  O   UNL A   1      30.070  25.468  25.707  1.00  0.00    -0.548 OA
ATOM     32  O   UNL A   1      30.833  27.145  27.065  1.00  0.00    -0.548 OA
ENDBRANCH  23  30
ENDBRANCH  21  23
ENDBRANCH  18  19
ENDBRANCH  15  18
ENDBRANCH   5  14
ENDBRANCH   3   4
ENDBRANCH   2   3
ENDBRANCH   1   2
BRANCH   1  33
ATOM     33  O   UNL A   1      39.032  22.040  26.555  1.00  0.00    -0.374 OA
BRANCH  33  34
ATOM     34  C   UNL A   1      39.103  21.012  25.578  1.00  0.00     0.202 C 
BRANCH  34  35
ATOM     35  C   UNL A   1      39.818  19.697  25.872  1.00  0.00     0.261 C 
BRANCH  35  36
ATOM     36  O   UNL A   1      40.952  19.798  26.711  1.00  0.00    -0.460 OA
BRANCH  36  37
ATOM     37  C   UNL A   1      42.101  19.934  26.019  1.00  0.00     0.338 C 
ATOM     38  O   UNL A   1      42.495  19.239  25.090  1.00  0.00    -0.246 OA
BRANCH  37  39
ATOM     39  C   UNL A   1      42.796  21.142  26.479  1.00  0.00     0.060 A 
ATOM     40  C   UNL A   1      42.675  21.468  27.831  1.00  0.00     0.016 A 
ATOM     41  C   UNL A   1      43.511  21.969  25.601  1.00  0.00     0.016 A 
ATOM     42  C   UNL A   1      43.189  22.669  28.289  1.00  0.00     0.010 A 
ATOM     43  C   UNL A   1      44.029  23.172  26.058  1.00  0.00     0.010 A 
ATOM     44  C   UNL A   1      43.820  23.541  27.391  1.00  0.00    -0.014 A 
BRANCH  44  45
ATOM     45  C   UNL A   1      44.167  24.889  27.857  1.00  0.00     0.031 A 
ATOM     46  C   UNL A   1      45.607  25.294  27.894  1.00  0.00     0.074 A 
ATOM     47  C   UNL A   1      43.180  25.730  28.198  1.00  0.00     0.049 A 
ATOM     48  N   UNL A   1      46.118  26.486  28.042  1.00  0.00    -0.248 NA
ATOM     49  C   UNL A   1      46.606  24.221  27.744  1.00  0.00     0.031 C 
ATOM     50  C   UNL A   1      41.759  25.380  28.260  1.00  0.00     0.029 A 
ATOM     51  N   UNL A   1      43.224  27.046  28.558  1.00  0.00    -0.354 N 
ATOM     52  C   UNL A   1      47.496  26.312  27.990  1.00  0.00     0.074 A 
ATOM     53  C   UNL A   1      47.743  24.896  27.838  1.00  0.00     0.031 C 
ATOM     54  C   UNL A   1      41.065  26.460  28.650  1.00  0.00     0.029 A 
ATOM     55  C   UNL A   1      41.989  27.574  28.838  1.00  0.00     0.049 A 
ATOM     56  H   UNL A   1      44.059  27.564  28.613  1.00  0.00     0.167 HD
ATOM     57  C   UNL A   1      48.458  27.264  28.038  1.00  0.00     0.034 A 
ATOM     58  C   UNL A   1      41.653  28.831  29.178  1.00  0.00     0.034 A 
ATOM     59  C   UNL A   1      48.168  28.664  28.198  1.00  0.00     0.049 A 
ATOM     60  C   UNL A   1      42.733  29.878  29.173  1.00  0.00     0.074 A 
ATOM     61  C   UNL A   1      49.042  29.736  28.194  1.00  0.00     0.029 A 
ATOM     62  N   UNL A   1      46.898  29.184  28.413  1.00  0.00    -0.354 N 
ATOM     63  N   UNL A   1      44.013  29.743  28.919  1.00  0.00    -0.248 NA
ATOM     64  C   UNL A   1      42.313  31.259  29.437  1.00  0.00     0.031 C 
ATOM     65  C   UNL A   1      48.303  30.900  28.434  1.00  0.00     0.029 A 
ATOM     66  C   UNL A   1      46.964  30.559  28.559  1.00  0.00     0.049 A 
ATOM     67  H   UNL A   1      46.072  28.651  28.456  1.00  0.00     0.167 HD
ATOM     68  C   UNL A   1      44.550  31.023  28.958  1.00  0.00     0.074 A 
ATOM     69  C   UNL A   1      43.444  31.922  29.233  1.00  0.00     0.031 C 
ATOM     70  C   UNL A   1      45.837  31.425  28.797  1.00  0.00     0.034 A 
BRANCH  57  71
ATOM     71  C   UNL A   1      49.891  26.827  27.868  1.00  0.00     0.023 A 
ATOM     72  C   UNL A   1      50.365  26.487  26.584  1.00  0.00     0.012 A 
ATOM     73  C   UNL A   1      50.784  26.808  28.957  1.00  0.00     0.148 A 
ATOM     74  C   UNL A   1      51.694  26.106  26.391  1.00  0.00     0.002 A 
ATOM     75  C   UNL A   1      52.120  26.474  28.749  1.00  0.00     0.091 A 
ATOM     76  F   UNL A   1      50.315  27.114  30.174  1.00  0.00    -0.205 F 
ATOM     77  C   UNL A   1      52.572  26.111  27.470  1.00  0.00     0.022 A 
BRANCH  75  78
ATOM     78  S   UNL A   1      53.353  26.544  30.055  1.00  0.00     0.127 S 
ATOM     79  O   UNL A   1      52.799  25.623  31.045  1.00  0.00    -0.237 OA
ATOM     80  O   UNL A   1      54.552  26.054  29.373  1.00  0.00    -0.237 OA
ATOM     81  O   UNL A   1      53.423  27.938  30.471  1.00  0.00    -0.744 OA
ENDBRANCH  75  78
ENDBRANCH  57  71
BRANCH  58  82
ATOM     82  C   UNL A   1      40.225  29.167  29.424  1.00  0.00     0.023 A 
ATOM     83  C   UNL A   1      39.360  29.365  28.331  1.00  0.00     0.012 A 
ATOM     84  C   UNL A   1      39.707  29.230  30.732  1.00  0.00     0.148 A 
ATOM     85  C   UNL A   1      38.011  29.650  28.536  1.00  0.00     0.002 A 
ATOM     86  C   UNL A   1      38.350  29.466  30.928  1.00  0.00     0.091 A 
ATOM     87  F   UNL A   1      40.548  29.045  31.760  1.00  0.00    -0.205 F 
ATOM     88  C   UNL A   1      37.504  29.691  29.832  1.00  0.00     0.022 A 
BRANCH  86  89
ATOM     89  S   UNL A   1      37.590  29.416  32.555  1.00  0.00     0.127 S 
ATOM     90  O   UNL A   1      36.252  29.931  32.276  1.00  0.00    -0.237 OA
ATOM     91  O   UNL A   1      37.644  27.988  32.873  1.00  0.00    -0.237 OA
ATOM     92  O   UNL A   1      38.428  30.251  33.406  1.00  0.00    -0.744 OA
ENDBRANCH  86  89
ENDBRANCH  58  82
BRANCH  70  93
ATOM     93  C   UNL A   1      46.107  32.903  28.911  1.00  0.00     0.023 A 
ATOM     94  C   UNL A   1      46.272  33.482  30.186  1.00  0.00     0.012 A 
ATOM     95  C   UNL A   1      46.238  33.706  27.763  1.00  0.00     0.148 A 
ATOM     96  C   UNL A   1      46.514  34.847  30.317  1.00  0.00     0.002 A 
ATOM     97  C   UNL A   1      46.530  35.059  27.901  1.00  0.00     0.091 A 
ATOM     98  F   UNL A   1      46.060  33.144  26.559  1.00  0.00    -0.205 F 
ATOM     99  C   UNL A   1      46.653  35.633  29.176  1.00  0.00     0.022 A 
BRANCH  97 100
ATOM    100  S   UNL A   1      46.818  36.123  26.483  1.00  0.00     0.127 S 
ATOM    101  O   UNL A   1      48.136  35.678  26.037  1.00  0.00    -0.237 OA
ATOM    102  O   UNL A   1      45.719  35.757  25.586  1.00  0.00    -0.237 OA
ATOM    103  O   UNL A   1      46.750  37.487  26.988  1.00  0.00    -0.744 OA
ENDBRANCH  97 100
ENDBRANCH  70  93
ENDBRANCH  44  45
ENDBRANCH  37  39
ENDBRANCH  36  37
ENDBRANCH  35  36
ENDBRANCH  34  35
ENDBRANCH  33  34
ENDBRANCH   1  33
TORSDOF 22
ENDMDL
MODEL 3
REMARK VINA RESULT:     -10.4      4.615      9.651
REMARK SMILES O=C(CNC(=O)N1CC(OCCOCCOC(=O)c2ccc(-c3c4nc(c(-c5cccc(S(=O)(=O)[O-])c5F)c5ccc([nH]5)c(-c5cccc(S(=O)(=O)[O-])c5F)c5nc(c(-c6cccc(S(=O)(=O)[O-])c6F)c6ccc3[nH]6)C=C5)C=C4)cc2)=Nc2ccccc21)N[C@H](C(=O)[O-])c1ccccc1
REMARK SMILES IDX 12 1 11 2 10 3 9 4 7 5 8 6 88 7 83 8 87 9 82 10 84 11 86 12
REMARK SMILES IDX 85 13 5 14 4 15 6 17 3 18 2 19 1 20 89 21 90 23 94 24 95 25
REMARK SMILES IDX 99 26 96 27 98 28 97 29 91 30 92 31 93 32 13 33 14 34 15 35
REMARK SMILES IDX 16 36 17 37 18 38 19 39 20 40 81 41 21 42 80 43 22 44 23 45
REMARK SMILES IDX 24 46 74 47 25 48 79 49 73 50 75 51 26 52 78 53 72 54 71 55
REMARK SMILES IDX 27 57 59 58 39 59 58 60 40 61 43 62 57 63 76 64 41 65 42 66
REMARK SMILES IDX 56 68 77 69 44 70 28 71 29 72 37 73 30 74 32 75 38 76 31 77
REMARK SMILES IDX 33 78 34 79 35 80 36 81 60 82 61 83 69 84 62 85 64 86 70 87
REMARK SMILES IDX 63 88 65 89 66 90 67 91 68 92 45 93 46 94 54 95 47 96 49 97
REMARK SMILES IDX 55 98 48 99 50 100 51 101 52 102 53 103
REMARK H PARENT 4 16 89 22 75 56 43 67
REMARK Flexibility Score: inf
ROOT
ATOM      1  C   UNL A   1      38.844  23.647  26.166  1.00  0.00     0.202 C 
ENDROOT
BRANCH   1   2
ATOM      2  C   UNL A   1      37.400  24.143  25.979  1.00  0.00     0.259 C 
BRANCH   2   3
ATOM      3  O   UNL A   1      36.792  23.723  24.736  1.00  0.00    -0.477 OA
BRANCH   3   4
ATOM      4  C   UNL A   1      35.491  23.350  24.788  1.00  0.00     0.209 C 
ATOM      5  N   UNL A   1      33.520  23.461  23.331  1.00  0.00    -0.283 N 
ATOM      6  C   UNL A   1      34.904  22.990  23.443  1.00  0.00     0.224 C 
ATOM      7  C   UNL A   1      32.746  23.405  24.539  1.00  0.00     0.072 A 
ATOM      8  C   UNL A   1      33.426  23.345  25.780  1.00  0.00     0.091 A 
ATOM      9  C   UNL A   1      31.349  23.450  24.548  1.00  0.00     0.029 A 
ATOM     10  N   UNL A   1      34.823  23.377  25.893  1.00  0.00    -0.214 NA
ATOM     11  C   UNL A   1      32.714  23.474  26.976  1.00  0.00     0.030 A 
ATOM     12  C   UNL A   1      30.648  23.583  25.752  1.00  0.00     0.002 A 
ATOM     13  C   UNL A   1      31.332  23.620  26.965  1.00  0.00     0.002 A 
BRANCH   5  14
ATOM     14  C   UNL A   1      33.072  23.725  22.057  1.00  0.00     0.322 C 
ATOM     15  N   UNL A   1      33.003  24.995  21.584  1.00  0.00    -0.329 N 
ATOM     16  H   UNL A   1      32.438  25.108  20.786  1.00  0.00     0.165 HD
ATOM     17  O   UNL A   1      32.795  22.817  21.270  1.00  0.00    -0.248 OA
BRANCH  15  18
ATOM     18  C   UNL A   1      33.630  26.220  22.069  1.00  0.00     0.218 C 
BRANCH  18  19
ATOM     19  C   UNL A   1      32.769  27.208  22.863  1.00  0.00     0.240 C 
ATOM     20  O   UNL A   1      33.223  28.324  23.113  1.00  0.00    -0.273 OA
ATOM     21  N   UNL A   1      31.484  26.817  23.145  1.00  0.00    -0.342 N 
ATOM     22  H   UNL A   1      31.177  25.922  22.876  1.00  0.00     0.164 HD
BRANCH  21  23
ATOM     23  C   UNL A   1      30.554  27.731  23.853  1.00  0.00     0.158 C 
BRANCH  23  24
ATOM     24  C   UNL A   1      31.175  28.204  25.173  1.00  0.00    -0.020 A 
ATOM     25  C   UNL A   1      31.519  29.545  25.407  1.00  0.00     0.006 A 
ATOM     26  C   UNL A   1      31.352  27.296  26.235  1.00  0.00     0.006 A 
ATOM     27  C   UNL A   1      32.034  29.960  26.639  1.00  0.00     0.000 A 
ATOM     28  C   UNL A   1      31.869  27.709  27.469  1.00  0.00     0.000 A 
ATOM     29  C   UNL A   1      32.207  29.044  27.671  1.00  0.00     0.000 A 
ENDBRANCH  23  24
BRANCH  23  30
ATOM     30  C   UNL A   1      30.045  28.915  22.947  1.00  0.00     0.068 C 
ATOM     31  O   UNL A   1      29.900  28.647  21.717  1.00  0.00    -0.548 OA
ATOM     32  O   UNL A   1      29.817  30.009  23.555  1.00  0.00    -0.548 OA
ENDBRANCH  23  30
ENDBRANCH  21  23
ENDBRANCH  18  19
ENDBRANCH  15  18
ENDBRANCH   5  14
ENDBRANCH   3   4
ENDBRANCH   2   3
ENDBRANCH   1   2
BRANCH   1  33
ATOM     33  O   UNL A   1      39.057  22.304  26.603  1.00  0.00    -0.374 OA
BRANCH  33  34
ATOM     34  C   UNL A   1      38.870  21.239  25.683  1.00  0.00     0.202 C 
BRANCH  34  35
ATOM     35  C   UNL A   1      39.602  19.912  25.860  1.00  0.00     0.261 C 
BRANCH  35  36
ATOM     36  O   UNL A   1      40.722  19.948  26.723  1.00  0.00    -0.460 OA
BRANCH  36  37
ATOM     37  C   UNL A   1      41.883  20.131  26.062  1.00  0.00     0.338 C 
ATOM     38  O   UNL A   1      42.360  19.418  25.187  1.00  0.00    -0.246 OA
BRANCH  37  39
ATOM     39  C   UNL A   1      42.471  21.411  26.476  1.00  0.00     0.060 A 
ATOM     40  C   UNL A   1      42.733  21.578  27.836  1.00  0.00     0.016 A 
ATOM     41  C   UNL A   1      42.717  22.445  25.564  1.00  0.00     0.016 A 
ATOM     42  C   UNL A   1      43.153  22.812  28.301  1.00  0.00     0.010 A 
ATOM     43  C   UNL A   1      43.141  23.684  26.026  1.00  0.00     0.010 A 
ATOM     44  C   UNL A   1      43.307  23.876  27.401  1.00  0.00    -0.014 A 
BRANCH  44  45
ATOM     45  C   UNL A   1      43.550  25.218  27.945  1.00  0.00     0.031 A 
ATOM     46  C   UNL A   1      44.948  25.750  27.964  1.00  0.00     0.074 A 
ATOM     47  C   UNL A   1      42.504  25.942  28.370  1.00  0.00     0.049 A 
ATOM     48  N   UNL A   1      45.356  26.972  28.174  1.00  0.00    -0.248 NA
ATOM     49  C   UNL A   1      46.033  24.784  27.713  1.00  0.00     0.031 C 
ATOM     50  C   UNL A   1      41.124  25.461  28.452  1.00  0.00     0.029 A 
ATOM     51  N   UNL A   1      42.444  27.231  28.814  1.00  0.00    -0.354 N 
ATOM     52  C   UNL A   1      46.741  26.928  28.069  1.00  0.00     0.074 A 
ATOM     53  C   UNL A   1      47.108  25.552  27.817  1.00  0.00     0.031 C 
ATOM     54  C   UNL A   1      40.350  26.447  28.933  1.00  0.00     0.029 A 
ATOM     55  C   UNL A   1      41.178  27.626  29.166  1.00  0.00     0.049 A 
ATOM     56  H   UNL A   1      43.232  27.819  28.878  1.00  0.00     0.167 HD
ATOM     57  C   UNL A   1      47.615  27.959  28.150  1.00  0.00     0.034 A 
ATOM     58  C   UNL A   1      40.744  28.823  29.599  1.00  0.00     0.034 A 
ATOM     59  C   UNL A   1      47.208  29.314  28.411  1.00  0.00     0.049 A 
ATOM     60  C   UNL A   1      41.725  29.962  29.630  1.00  0.00     0.074 A 
ATOM     61  C   UNL A   1      47.982  30.459  28.451  1.00  0.00     0.029 A 
ATOM     62  N   UNL A   1      45.906  29.701  28.699  1.00  0.00    -0.354 N 
ATOM     63  N   UNL A   1      43.002  29.962  29.329  1.00  0.00    -0.248 NA
ATOM     64  C   UNL A   1      41.194  31.280  29.997  1.00  0.00     0.031 C 
ATOM     65  C   UNL A   1      47.151  31.534  28.790  1.00  0.00     0.029 A 
ATOM     66  C   UNL A   1      45.853  31.064  28.932  1.00  0.00     0.049 A 
ATOM     67  H   UNL A   1      45.132  29.093  28.731  1.00  0.00     0.167 HD
ATOM     68  C   UNL A   1      43.424  31.280  29.435  1.00  0.00     0.074 A 
ATOM     69  C   UNL A   1      42.253  32.055  29.803  1.00  0.00     0.031 C 
ATOM     70  C   UNL A   1      44.663  31.808  29.261  1.00  0.00     0.034 A 
BRANCH  57  71
ATOM     71  C   UNL A   1      49.075  27.666  27.908  1.00  0.00     0.023 A 
ATOM     72  C   UNL A   1      49.885  27.243  28.982  1.00  0.00     0.012 A 
ATOM     73  C   UNL A   1      49.634  27.749  26.617  1.00  0.00     0.148 A 
ATOM     74  C   UNL A   1      51.232  26.937  28.784  1.00  0.00     0.002 A 
ATOM     75  C   UNL A   1      50.966  27.397  26.418  1.00  0.00     0.091 A 
ATOM     76  F   UNL A   1      48.857  28.172  25.611  1.00  0.00    -0.205 F 
ATOM     77  C   UNL A   1      51.767  27.003  27.501  1.00  0.00     0.022 A 
BRANCH  75  78
ATOM     78  S   UNL A   1      51.725  27.353  24.789  1.00  0.00     0.127 S 
ATOM     79  O   UNL A   1      52.863  26.461  25.009  1.00  0.00    -0.237 OA
ATOM     80  O   UNL A   1      50.656  26.785  23.966  1.00  0.00    -0.237 OA
ATOM     81  O   UNL A   1      52.067  28.732  24.466  1.00  0.00    -0.744 OA
ENDBRANCH  75  78
ENDBRANCH  57  71
BRANCH  58  82
ATOM     82  C   UNL A   1      39.302  29.011  29.910  1.00  0.00     0.023 A 
ATOM     83  C   UNL A   1      38.822  28.692  31.195  1.00  0.00     0.012 A 
ATOM     84  C   UNL A   1      38.417  29.560  28.961  1.00  0.00     0.148 A 
ATOM     85  C   UNL A   1      37.480  28.889  31.521  1.00  0.00     0.002 A 
ATOM     86  C   UNL A   1      37.092  29.798  29.308  1.00  0.00     0.091 A 
ATOM     87  F   UNL A   1      38.891  29.850  27.741  1.00  0.00    -0.205 F 
ATOM     88  C   UNL A   1      36.618  29.450  30.582  1.00  0.00     0.022 A 
BRANCH  86  89
ATOM     89  S   UNL A   1      35.943  30.628  28.204  1.00  0.00     0.127 S 
ATOM     90  O   UNL A   1      35.643  29.575  27.237  1.00  0.00    -0.237 OA
ATOM     91  O   UNL A   1      34.840  30.963  29.107  1.00  0.00    -0.237 OA
ATOM     92  O   UNL A   1      36.662  31.783  27.683  1.00  0.00    -0.744 OA
ENDBRANCH  86  89
ENDBRANCH  58  82
BRANCH  70  93
ATOM     93  C   UNL A   1      44.805  33.293  29.465  1.00  0.00     0.023 A 
ATOM     94  C   UNL A   1      45.109  33.792  30.748  1.00  0.00     0.012 A 
ATOM     95  C   UNL A   1      44.677  34.188  28.386  1.00  0.00     0.148 A 
ATOM     96  C   UNL A   1      45.237  35.163  30.961  1.00  0.00     0.002 A 
ATOM     97  C   UNL A   1      44.855  35.550  28.597  1.00  0.00     0.091 A 
ATOM     98  F   UNL A   1      44.368  33.698  27.176  1.00  0.00    -0.205 F 
ATOM     99  C   UNL A   1      45.119  36.040  29.886  1.00  0.00     0.022 A 
BRANCH  97 100
ATOM    100  S   UNL A   1      44.815  36.739  27.252  1.00  0.00     0.127 S 
ATOM    101  O   UNL A   1      45.926  36.286  26.419  1.00  0.00    -0.237 OA
ATOM    102  O   UNL A   1      43.490  36.514  26.672  1.00  0.00    -0.237 OA
ATOM    103  O   UNL A   1      44.983  38.047  27.871  1.00  0.00    -0.744 OA
ENDBRANCH  97 100
ENDBRANCH  70  93
ENDBRANCH  44  45
ENDBRANCH  37  39
ENDBRANCH  36  37
ENDBRANCH  35  36
ENDBRANCH  34  35
ENDBRANCH  33  34
ENDBRANCH   1  33
TORSDOF 22
ENDMDL
