MODEL 1
REMARK VINA RESULT:     -13.0      0.000      0.000
REMARK SMILES Cc1c[nH]c(C(=O)N2CCC3(CC2)NC(=O)C[C@@H]3C(=O)OCCOCCOC(=O)c2ccc(-c3c4nc(c(-c5cccc(S(=O)(=O)[O-])c5F)c5ccc([nH]5)c(-c5cccc(S(=O)(=O)[O-])c5F)c5nc(c(-c6cccc(S(=O)(=O)[O-])c6F)c6ccc3[nH]6)C=C5)C=C4)cc2)c1
REMARK SMILES IDX 25 1 24 2 23 3 22 4 21 5 19 6 20 7 18 8 6 9 7 10 8 11 9 12
REMARK SMILES IDX 13 13 10 14 12 15 11 16 14 17 15 18 17 20 16 21 5 22 1 23
REMARK SMILES IDX 2 24 3 25 93 26 4 27 26 29 27 30 28 31 29 32 30 33 31 34
REMARK SMILES IDX 92 35 32 36 91 37 33 38 34 39 35 40 85 41 36 42 90 43 84 44
REMARK SMILES IDX 86 45 37 46 89 47 83 48 82 49 38 51 70 52 50 53 69 54 51 55
REMARK SMILES IDX 54 56 68 57 87 58 52 59 53 60 67 62 88 63 55 64 39 65 40 66
REMARK SMILES IDX 48 67 41 68 43 69 49 70 42 71 44 72 45 73 46 74 47 75 71 76
REMARK SMILES IDX 72 77 80 78 73 79 75 80 81 81 74 82 76 83 77 84 78 85 79 86
REMARK SMILES IDX 56 87 57 88 65 89 58 90 60 91 66 92 59 93 61 94 62 95 63 96
REMARK SMILES IDX 64 97
REMARK H PARENT 14 19 4 28 86 50 54 61
REMARK Flexibility Score: inf
ROOT
ATOM      1  C   UNL A   1      31.886  29.888  25.162  1.00  0.00     0.202 C 
ENDROOT
BRANCH   1   2
ATOM      2  O   UNL A   1      31.092  28.705  25.187  1.00  0.00    -0.374 OA
BRANCH   2   3
ATOM      3  C   UNL A   1      31.345  27.796  26.258  1.00  0.00     0.202 C 
BRANCH   3   4
ATOM      4  C   UNL A   1      32.775  27.265  26.403  1.00  0.00     0.261 C 
BRANCH   4   5
ATOM      5  O   UNL A   1      33.089  26.133  25.554  1.00  0.00    -0.463 OA
BRANCH   5   6
ATOM      6  C   UNL A   1      33.406  26.471  24.279  1.00  0.00     0.311 C 
ATOM      7  O   UNL A   1      34.124  27.423  23.994  1.00  0.00    -0.252 OA
BRANCH   6   8
ATOM      8  C   UNL A   1      32.666  25.641  23.238  1.00  0.00     0.134 C 
ATOM      9  C   UNL A   1      34.016  21.166  25.915  1.00  0.00     0.270 C 
ATOM     10  O   UNL A   1      34.692  21.469  26.892  1.00  0.00    -0.267 OA
ATOM     11  N   UNL A   1      33.649  22.122  24.970  1.00  0.00    -0.337 N 
ATOM     12  C   UNL A   1      34.602  23.180  24.749  1.00  0.00     0.122 C 
ATOM     13  C   UNL A   1      32.263  22.543  24.861  1.00  0.00     0.122 C 
ATOM     14  C   UNL A   1      34.474  23.734  23.336  1.00  0.00     0.051 C 
ATOM     15  C   UNL A   1      31.995  23.119  23.477  1.00  0.00     0.051 C 
ATOM     16  C   UNL A   1      33.040  24.149  22.959  1.00  0.00     0.057 C 
ATOM     17  N   UNL A   1      32.951  24.088  21.496  1.00  0.00    -0.350 N 
ATOM     18  C   UNL A   1      32.871  25.292  20.855  1.00  0.00     0.221 C 
ATOM     19  H   UNL A   1      32.947  23.234  21.006  1.00  0.00     0.164 HD
ATOM     20  C   UNL A   1      32.891  26.366  21.884  1.00  0.00     0.117 C 
ATOM     21  O   UNL A   1      32.846  25.442  19.650  1.00  0.00    -0.275 OA
BRANCH   9  22
ATOM     22  C   UNL A   1      33.746  19.790  25.562  1.00  0.00     0.104 A 
ATOM     23  C   UNL A   1      33.717  16.858  23.286  1.00  0.00     0.046 C 
ATOM     24  C   UNL A   1      33.554  17.858  24.371  1.00  0.00    -0.033 A 
ATOM     25  C   UNL A   1      32.681  17.812  25.438  1.00  0.00     0.086 A 
ATOM     26  C   UNL A   1      34.254  19.089  24.480  1.00  0.00     0.036 A 
ATOM     27  N   UNL A   1      32.825  18.967  26.162  1.00  0.00    -0.357 N 
ATOM     28  H   UNL A   1      32.337  19.176  26.991  1.00  0.00     0.166 HD
ENDBRANCH   9  22
ENDBRANCH   6   8
ENDBRANCH   5   6
ENDBRANCH   4   5
ENDBRANCH   3   4
ENDBRANCH   2   3
ENDBRANCH   1   2
BRANCH   1  29
ATOM     29  C   UNL A   1      31.588  30.926  26.258  1.00  0.00     0.261 C 
BRANCH  29  30
ATOM     30  O   UNL A   1      32.541  30.852  27.334  1.00  0.00    -0.460 OA
BRANCH  30  31
ATOM     31  C   UNL A   1      33.318  31.954  27.487  1.00  0.00     0.338 C 
ATOM     32  O   UNL A   1      32.930  33.109  27.568  1.00  0.00    -0.246 OA
BRANCH  31  33
ATOM     33  C   UNL A   1      34.717  31.574  27.782  1.00  0.00     0.060 A 
ATOM     34  C   UNL A   1      34.985  30.210  27.937  1.00  0.00     0.016 A 
ATOM     35  C   UNL A   1      35.729  32.509  27.987  1.00  0.00     0.016 A 
ATOM     36  C   UNL A   1      36.237  29.787  28.379  1.00  0.00     0.010 A 
ATOM     37  C   UNL A   1      37.002  32.081  28.393  1.00  0.00     0.010 A 
ATOM     38  C   UNL A   1      37.243  30.723  28.661  1.00  0.00    -0.014 A 
BRANCH  38  39
ATOM     39  C   UNL A   1      38.457  30.278  29.403  1.00  0.00     0.031 A 
ATOM     40  C   UNL A   1      38.643  30.704  30.841  1.00  0.00     0.074 A 
ATOM     41  C   UNL A   1      39.351  29.445  28.838  1.00  0.00     0.049 A 
ATOM     42  N   UNL A   1      39.571  30.353  31.696  1.00  0.00    -0.248 NA
ATOM     43  C   UNL A   1      37.659  31.653  31.389  1.00  0.00     0.031 C 
ATOM     44  C   UNL A   1      39.306  28.969  27.455  1.00  0.00     0.029 A 
ATOM     45  N   UNL A   1      40.476  28.852  29.359  1.00  0.00    -0.354 N 
ATOM     46  C   UNL A   1      39.298  31.055  32.865  1.00  0.00     0.074 A 
ATOM     47  C   UNL A   1      38.139  31.877  32.604  1.00  0.00     0.031 C 
ATOM     48  C   UNL A   1      40.356  28.157  27.238  1.00  0.00     0.029 A 
ATOM     49  C   UNL A   1      41.158  28.070  28.458  1.00  0.00     0.049 A 
ATOM     50  H   UNL A   1      40.767  28.977  30.291  1.00  0.00     0.167 HD
ATOM     51  C   UNL A   1      39.933  31.003  34.061  1.00  0.00     0.034 A 
ATOM     52  C   UNL A   1      42.299  27.363  28.595  1.00  0.00     0.034 A 
ATOM     53  C   UNL A   1      41.065  30.162  34.339  1.00  0.00     0.049 A 
ATOM     54  C   UNL A   1      42.985  27.317  29.937  1.00  0.00     0.074 A 
ATOM     55  C   UNL A   1      41.735  29.992  35.538  1.00  0.00     0.029 A 
ATOM     56  N   UNL A   1      41.701  29.356  33.409  1.00  0.00    -0.354 N 
ATOM     57  N   UNL A   1      42.632  27.882  31.066  1.00  0.00    -0.248 NA
ATOM     58  C   UNL A   1      44.205  26.501  30.034  1.00  0.00     0.031 C 
ATOM     59  C   UNL A   1      42.799  29.112  35.324  1.00  0.00     0.029 A 
ATOM     60  C   UNL A   1      42.765  28.699  34.002  1.00  0.00     0.049 A 
ATOM     61  H   UNL A   1      41.436  29.266  32.466  1.00  0.00     0.167 HD
ATOM     62  C   UNL A   1      43.559  27.458  32.013  1.00  0.00     0.074 A 
ATOM     63  C   UNL A   1      44.480  26.575  31.330  1.00  0.00     0.031 C 
ATOM     64  C   UNL A   1      43.645  27.779  33.328  1.00  0.00     0.034 A 
BRANCH  51  65
ATOM     65  C   UNL A   1      39.397  31.863  35.178  1.00  0.00     0.023 A 
ATOM     66  C   UNL A   1      38.461  31.329  36.087  1.00  0.00     0.012 A 
ATOM     67  C   UNL A   1      39.865  33.179  35.364  1.00  0.00     0.148 A 
ATOM     68  C   UNL A   1      37.973  32.100  37.141  1.00  0.00     0.002 A 
ATOM     69  C   UNL A   1      39.411  33.926  36.444  1.00  0.00     0.091 A 
ATOM     70  F   UNL A   1      40.740  33.678  34.478  1.00  0.00    -0.205 F 
ATOM     71  C   UNL A   1      38.456  33.393  37.326  1.00  0.00     0.022 A 
BRANCH  69  72
ATOM     72  S   UNL A   1      40.035  35.568  36.819  1.00  0.00     0.127 S 
ATOM     73  O   UNL A   1      39.373  35.852  38.092  1.00  0.00    -0.237 OA
ATOM     74  O   UNL A   1      41.475  35.333  36.922  1.00  0.00    -0.237 OA
ATOM     75  O   UNL A   1      39.635  36.415  35.705  1.00  0.00    -0.744 OA
ENDBRANCH  69  72
ENDBRANCH  51  65
BRANCH  52  76
ATOM     76  C   UNL A   1      42.846  26.599  27.436  1.00  0.00     0.023 A 
ATOM     77  C   UNL A   1      43.750  27.219  26.551  1.00  0.00     0.012 A 
ATOM     78  C   UNL A   1      42.481  25.257  27.216  1.00  0.00     0.148 A 
ATOM     79  C   UNL A   1      44.255  26.526  25.451  1.00  0.00     0.002 A 
ATOM     80  C   UNL A   1      43.035  24.554  26.153  1.00  0.00     0.091 A 
ATOM     81  F   UNL A   1      41.607  24.690  28.059  1.00  0.00    -0.205 F 
ATOM     82  C   UNL A   1      43.908  25.192  25.257  1.00  0.00     0.022 A 
BRANCH  80  83
ATOM     83  S   UNL A   1      42.751  22.797  25.909  1.00  0.00     0.127 S 
ATOM     84  O   UNL A   1      43.385  22.569  24.613  1.00  0.00    -0.237 OA
ATOM     85  O   UNL A   1      43.456  22.217  27.052  1.00  0.00    -0.237 OA
ATOM     86  O   UNL A   1      41.305  22.623  25.945  1.00  0.00    -0.744 OA
ENDBRANCH  80  83
ENDBRANCH  52  76
BRANCH  64  87
ATOM     87  C   UNL A   1      44.742  27.139  34.141  1.00  0.00     0.023 A 
ATOM     88  C   UNL A   1      46.026  27.716  34.175  1.00  0.00     0.012 A 
ATOM     89  C   UNL A   1      44.473  26.004  34.932  1.00  0.00     0.148 A 
ATOM     90  C   UNL A   1      47.036  27.153  34.956  1.00  0.00     0.002 A 
ATOM     91  C   UNL A   1      45.469  25.479  35.747  1.00  0.00     0.091 A 
ATOM     92  F   UNL A   1      43.249  25.458  34.874  1.00  0.00    -0.205 F 
ATOM     93  C   UNL A   1      46.754  26.043  35.749  1.00  0.00     0.022 A 
BRANCH  91  94
ATOM     94  S   UNL A   1      45.170  24.113  36.875  1.00  0.00     0.127 S 
ATOM     95  O   UNL A   1      46.500  23.899  37.444  1.00  0.00    -0.237 OA
ATOM     96  O   UNL A   1      44.196  24.686  37.804  1.00  0.00    -0.237 OA
ATOM     97  O   UNL A   1      44.657  23.021  36.060  1.00  0.00    -0.744 OA
ENDBRANCH  91  94
ENDBRANCH  64  87
ENDBRANCH  38  39
ENDBRANCH  31  33
ENDBRANCH  30  31
ENDBRANCH  29  30
ENDBRANCH   1  29
TORSDOF 18
ENDMDL
MODEL 2
REMARK VINA RESULT:     -12.8      1.206      1.452
REMARK SMILES Cc1c[nH]c(C(=O)N2CCC3(CC2)NC(=O)C[C@@H]3C(=O)OCCOCCOC(=O)c2ccc(-c3c4nc(c(-c5cccc(S(=O)(=O)[O-])c5F)c5ccc([nH]5)c(-c5cccc(S(=O)(=O)[O-])c5F)c5nc(c(-c6cccc(S(=O)(=O)[O-])c6F)c6ccc3[nH]6)C=C5)C=C4)cc2)c1
REMARK SMILES IDX 25 1 24 2 23 3 22 4 21 5 19 6 20 7 18 8 6 9 7 10 8 11 9 12
REMARK SMILES IDX 13 13 10 14 12 15 11 16 14 17 15 18 17 20 16 21 5 22 1 23
REMARK SMILES IDX 2 24 3 25 93 26 4 27 26 29 27 30 28 31 29 32 30 33 31 34
REMARK SMILES IDX 92 35 32 36 91 37 33 38 34 39 35 40 85 41 36 42 90 43 84 44
REMARK SMILES IDX 86 45 37 46 89 47 83 48 82 49 38 51 70 52 50 53 69 54 51 55
REMARK SMILES IDX 54 56 68 57 87 58 52 59 53 60 67 62 88 63 55 64 39 65 40 66
REMARK SMILES IDX 48 67 41 68 43 69 49 70 42 71 44 72 45 73 46 74 47 75 71 76
REMARK SMILES IDX 72 77 80 78 73 79 75 80 81 81 74 82 76 83 77 84 78 85 79 86
REMARK SMILES IDX 56 87 57 88 65 89 58 90 60 91 66 92 59 93 61 94 62 95 63 96
REMARK SMILES IDX 64 97
REMARK H PARENT 14 19 4 28 86 50 54 61
REMARK Flexibility Score: inf
ROOT
ATOM      1  C   UNL A   1      31.697  29.822  26.195  1.00  0.00     0.202 C 
ENDROOT
BRANCH   1   2
ATOM      2  O   UNL A   1      31.675  29.528  24.800  1.00  0.00    -0.374 OA
BRANCH   2   3
ATOM      3  C   UNL A   1      32.944  29.318  24.179  1.00  0.00     0.202 C 
BRANCH   3   4
ATOM      4  C   UNL A   1      33.855  28.248  24.789  1.00  0.00     0.261 C 
BRANCH   4   5
ATOM      5  O   UNL A   1      33.778  26.951  24.147  1.00  0.00    -0.463 OA
BRANCH   5   6
ATOM      6  C   UNL A   1      32.638  26.268  24.415  1.00  0.00     0.311 C 
ATOM      7  O   UNL A   1      32.096  26.268  25.514  1.00  0.00    -0.252 OA
BRANCH   6   8
ATOM      8  C   UNL A   1      32.179  25.390  23.258  1.00  0.00     0.134 C 
ATOM      9  C   UNL A   1      33.531  21.020  26.102  1.00  0.00     0.270 C 
ATOM     10  O   UNL A   1      33.995  21.369  27.182  1.00  0.00    -0.267 OA
ATOM     11  N   UNL A   1      33.227  21.954  25.113  1.00  0.00    -0.337 N 
ATOM     12  C   UNL A   1      34.085  23.112  25.064  1.00  0.00     0.122 C 
ATOM     13  C   UNL A   1      31.843  22.229  24.772  1.00  0.00     0.122 C 
ATOM     14  C   UNL A   1      34.139  23.682  23.653  1.00  0.00     0.051 C 
ATOM     15  C   UNL A   1      31.753  22.807  23.365  1.00  0.00     0.051 C 
ATOM     16  C   UNL A   1      32.753  23.953  23.038  1.00  0.00     0.057 C 
ATOM     17  N   UNL A   1      32.919  23.917  21.582  1.00  0.00    -0.350 N 
ATOM     18  C   UNL A   1      32.820  25.121  20.942  1.00  0.00     0.221 C 
ATOM     19  H   UNL A   1      33.090  23.079  21.094  1.00  0.00     0.164 HD
ATOM     20  C   UNL A   1      32.550  26.167  21.966  1.00  0.00     0.117 C 
ATOM     21  O   UNL A   1      32.984  25.296  19.752  1.00  0.00    -0.275 OA
BRANCH   9  22
ATOM     22  C   UNL A   1      33.474  19.632  25.701  1.00  0.00     0.104 A 
ATOM     23  C   UNL A   1      33.737  16.830  23.281  1.00  0.00     0.046 C 
ATOM     24  C   UNL A   1      33.509  17.743  24.429  1.00  0.00    -0.033 A 
ATOM     25  C   UNL A   1      32.767  17.501  25.567  1.00  0.00     0.086 A 
ATOM     26  C   UNL A   1      33.987  19.075  24.541  1.00  0.00     0.036 A 
ATOM     27  N   UNL A   1      32.776  18.635  26.336  1.00  0.00    -0.357 N 
ATOM     28  H   UNL A   1      32.344  18.721  27.217  1.00  0.00     0.166 HD
ENDBRANCH   9  22
ENDBRANCH   6   8
ENDBRANCH   5   6
ENDBRANCH   4   5
ENDBRANCH   3   4
ENDBRANCH   2   3
ENDBRANCH   1   2
BRANCH   1  29
ATOM     29  C   UNL A   1      31.977  31.286  26.573  1.00  0.00     0.261 C 
BRANCH  29  30
ATOM     30  O   UNL A   1      32.782  31.383  27.764  1.00  0.00    -0.460 OA
BRANCH  30  31
ATOM     31  C   UNL A   1      33.653  32.422  27.782  1.00  0.00     0.338 C 
ATOM     32  O   UNL A   1      33.366  33.609  27.800  1.00  0.00    -0.246 OA
BRANCH  31  33
ATOM     33  C   UNL A   1      35.034  31.947  28.015  1.00  0.00     0.060 A 
ATOM     34  C   UNL A   1      35.215  30.566  28.150  1.00  0.00     0.016 A 
ATOM     35  C   UNL A   1      36.115  32.809  28.182  1.00  0.00     0.016 A 
ATOM     36  C   UNL A   1      36.454  30.056  28.536  1.00  0.00     0.010 A 
ATOM     37  C   UNL A   1      37.372  32.293  28.531  1.00  0.00     0.010 A 
ATOM     38  C   UNL A   1      37.531  30.919  28.780  1.00  0.00    -0.014 A 
BRANCH  38  39
ATOM     39  C   UNL A   1      38.743  30.387  29.467  1.00  0.00     0.031 A 
ATOM     40  C   UNL A   1      39.056  30.842  30.874  1.00  0.00     0.074 A 
ATOM     41  C   UNL A   1      39.519  29.454  28.884  1.00  0.00     0.049 A 
ATOM     42  N   UNL A   1      39.999  30.433  31.686  1.00  0.00    -0.248 NA
ATOM     43  C   UNL A   1      38.200  31.897  31.441  1.00  0.00     0.031 C 
ATOM     44  C   UNL A   1      39.345  28.938  27.526  1.00  0.00     0.029 A 
ATOM     45  N   UNL A   1      40.614  28.775  29.362  1.00  0.00    -0.354 N 
ATOM     46  C   UNL A   1      39.865  31.197  32.840  1.00  0.00     0.074 A 
ATOM     47  C   UNL A   1      38.773  32.116  32.615  1.00  0.00     0.031 C 
ATOM     48  C   UNL A   1      40.299  28.023  27.281  1.00  0.00     0.029 A 
ATOM     49  C   UNL A   1      41.164  27.901  28.453  1.00  0.00     0.049 A 
ATOM     50  H   UNL A   1      40.973  28.904  30.269  1.00  0.00     0.167 HD
ATOM     51  C   UNL A   1      40.565  31.126  33.998  1.00  0.00     0.034 A 
ATOM     52  C   UNL A   1      42.241  27.095  28.552  1.00  0.00     0.034 A 
ATOM     53  C   UNL A   1      41.630  30.191  34.243  1.00  0.00     0.049 A 
ATOM     54  C   UNL A   1      43.002  27.030  29.851  1.00  0.00     0.074 A 
ATOM     55  C   UNL A   1      42.354  30.000  35.406  1.00  0.00     0.029 A 
ATOM     56  N   UNL A   1      42.130  29.298  33.309  1.00  0.00    -0.354 N 
ATOM     57  N   UNL A   1      42.774  27.664  30.976  1.00  0.00    -0.248 NA
ATOM     58  C   UNL A   1      44.145  26.106  29.910  1.00  0.00     0.031 C 
ATOM     59  C   UNL A   1      43.317  29.016  35.165  1.00  0.00     0.029 A 
ATOM     60  C   UNL A   1      43.163  28.564  33.865  1.00  0.00     0.049 A 
ATOM     61  H   UNL A   1      41.799  29.201  32.388  1.00  0.00     0.167 HD
ATOM     62  C   UNL A   1      43.714  27.186  31.883  1.00  0.00     0.074 A 
ATOM     63  C   UNL A   1      44.505  26.197  31.183  1.00  0.00     0.031 C 
ATOM     64  C   UNL A   1      43.911  27.542  33.177  1.00  0.00     0.034 A 
BRANCH  51  65
ATOM     65  C   UNL A   1      40.181  32.071  35.109  1.00  0.00     0.023 A 
ATOM     66  C   UNL A   1      40.765  33.352  35.174  1.00  0.00     0.012 A 
ATOM     67  C   UNL A   1      39.198  31.713  36.053  1.00  0.00     0.148 A 
ATOM     68  C   UNL A   1      40.405  34.249  36.179  1.00  0.00     0.002 A 
ATOM     69  C   UNL A   1      38.808  32.629  37.023  1.00  0.00     0.091 A 
ATOM     70  F   UNL A   1      38.667  30.483  35.989  1.00  0.00    -0.205 F 
ATOM     71  C   UNL A   1      39.419  33.891  37.096  1.00  0.00     0.022 A 
BRANCH  69  72
ATOM     72  S   UNL A   1      37.488  32.297  38.194  1.00  0.00     0.127 S 
ATOM     73  O   UNL A   1      36.383  33.065  37.619  1.00  0.00    -0.237 OA
ATOM     74  O   UNL A   1      37.340  30.846  38.088  1.00  0.00    -0.237 OA
ATOM     75  O   UNL A   1      37.968  32.767  39.486  1.00  0.00    -0.744 OA
ENDBRANCH  69  72
ENDBRANCH  51  65
BRANCH  52  76
ATOM     76  C   UNL A   1      42.642  26.244  27.394  1.00  0.00     0.023 A 
ATOM     77  C   UNL A   1      43.467  26.777  26.384  1.00  0.00     0.012 A 
ATOM     78  C   UNL A   1      42.219  24.905  27.298  1.00  0.00     0.148 A 
ATOM     79  C   UNL A   1      43.835  26.001  25.283  1.00  0.00     0.002 A 
ATOM     80  C   UNL A   1      42.638  24.119  26.230  1.00  0.00     0.091 A 
ATOM     81  F   UNL A   1      41.421  24.420  28.260  1.00  0.00    -0.205 F 
ATOM     82  C   UNL A   1      43.431  24.671  25.212  1.00  0.00     0.022 A 
BRANCH  80  83
ATOM     83  S   UNL A   1      42.280  22.363  26.129  1.00  0.00     0.127 S 
ATOM     84  O   UNL A   1      42.996  21.981  24.915  1.00  0.00    -0.237 OA
ATOM     85  O   UNL A   1      42.865  21.864  27.374  1.00  0.00    -0.237 OA
ATOM     86  O   UNL A   1      40.828  22.259  26.066  1.00  0.00    -0.744 OA
ENDBRANCH  80  83
ENDBRANCH  52  76
BRANCH  64  87
ATOM     87  C   UNL A   1      44.992  26.829  33.950  1.00  0.00     0.023 A 
ATOM     88  C   UNL A   1      46.312  27.321  33.938  1.00  0.00     0.012 A 
ATOM     89  C   UNL A   1      44.678  25.711  34.750  1.00  0.00     0.148 A 
ATOM     90  C   UNL A   1      47.310  26.690  34.681  1.00  0.00     0.002 A 
ATOM     91  C   UNL A   1      45.666  25.120  35.527  1.00  0.00     0.091 A 
ATOM     92  F   UNL A   1      43.420  25.248  34.735  1.00  0.00    -0.205 F 
ATOM     93  C   UNL A   1      46.985  25.598  35.483  1.00  0.00     0.022 A 
BRANCH  91  94
ATOM     94  S   UNL A   1      45.319  23.773  36.664  1.00  0.00     0.127 S 
ATOM     95  O   UNL A   1      46.609  23.609  37.334  1.00  0.00    -0.237 OA
ATOM     96  O   UNL A   1      44.265  24.341  37.505  1.00  0.00    -0.237 OA
ATOM     97  O   UNL A   1      44.896  22.649  35.841  1.00  0.00    -0.744 OA
ENDBRANCH  91  94
ENDBRANCH  64  87
ENDBRANCH  38  39
ENDBRANCH  31  33
ENDBRANCH  30  31
ENDBRANCH  29  30
ENDBRANCH   1  29
TORSDOF 18
ENDMDL
MODEL 3
REMARK VINA RESULT:     -12.6      4.707     10.356
REMARK SMILES Cc1c[nH]c(C(=O)N2CCC3(CC2)NC(=O)C[C@@H]3C(=O)OCCOCCOC(=O)c2ccc(-c3c4nc(c(-c5cccc(S(=O)(=O)[O-])c5F)c5ccc([nH]5)c(-c5cccc(S(=O)(=O)[O-])c5F)c5nc(c(-c6cccc(S(=O)(=O)[O-])c6F)c6ccc3[nH]6)C=C5)C=C4)cc2)c1
REMARK SMILES IDX 25 1 24 2 23 3 22 4 21 5 19 6 20 7 18 8 6 9 7 10 8 11 9 12
REMARK SMILES IDX 13 13 10 14 12 15 11 16 14 17 15 18 17 20 16 21 5 22 1 23
REMARK SMILES IDX 2 24 3 25 93 26 4 27 26 29 27 30 28 31 29 32 30 33 31 34
REMARK SMILES IDX 92 35 32 36 91 37 33 38 34 39 35 40 85 41 36 42 90 43 84 44
REMARK SMILES IDX 86 45 37 46 89 47 83 48 82 49 38 51 70 52 50 53 69 54 51 55
REMARK SMILES IDX 54 56 68 57 87 58 52 59 53 60 67 62 88 63 55 64 39 65 40 66
REMARK SMILES IDX 48 67 41 68 43 69 49 70 42 71 44 72 45 73 46 74 47 75 71 76
REMARK SMILES IDX 72 77 80 78 73 79 75 80 81 81 74 82 76 83 77 84 78 85 79 86
REMARK SMILES IDX 56 87 57 88 65 89 58 90 60 91 66 92 59 93 61 94 62 95 63 96
REMARK SMILES IDX 64 97
REMARK H PARENT 14 19 4 28 86 50 54 61
REMARK Flexibility Score: inf
ROOT
ATOM      1  C   UNL A   1      35.977  20.913  24.952  1.00  0.00     0.202 C 
ENDROOT
BRANCH   1   2
ATOM      2  O   UNL A   1      35.807  21.981  24.023  1.00  0.00    -0.374 OA
BRANCH   2   3
ATOM      3  C   UNL A   1      34.469  22.244  23.601  1.00  0.00     0.202 C 
BRANCH   3   4
ATOM      4  C   UNL A   1      34.015  23.707  23.581  1.00  0.00     0.261 C 
BRANCH   4   5
ATOM      5  O   UNL A   1      34.229  24.424  24.822  1.00  0.00    -0.463 OA
BRANCH   5   6
ATOM      6  C   UNL A   1      33.548  23.914  25.879  1.00  0.00     0.311 C 
ATOM      7  O   UNL A   1      34.096  23.482  26.887  1.00  0.00    -0.252 OA
BRANCH   6   8
ATOM      8  C   UNL A   1      32.050  23.799  25.628  1.00  0.00     0.134 C 
ATOM      9  C   UNL A   1      32.060  28.779  23.575  1.00  0.00     0.270 C 
ATOM     10  O   UNL A   1      33.197  29.236  23.632  1.00  0.00    -0.267 OA
ATOM     11  N   UNL A   1      31.747  27.556  24.165  1.00  0.00    -0.337 N 
ATOM     12  C   UNL A   1      32.472  27.240  25.370  1.00  0.00     0.122 C 
ATOM     13  C   UNL A   1      31.448  26.402  23.335  1.00  0.00     0.122 C 
ATOM     14  C   UNL A   1      31.655  26.319  26.266  1.00  0.00     0.051 C 
ATOM     15  C   UNL A   1      30.619  25.392  24.118  1.00  0.00     0.051 C 
ATOM     16  C   UNL A   1      31.130  25.061  25.550  1.00  0.00     0.057 C 
ATOM     17  N   UNL A   1      29.946  24.612  26.289  1.00  0.00    -0.350 N 
ATOM     18  C   UNL A   1      30.096  23.460  27.010  1.00  0.00     0.221 C 
ATOM     19  H   UNL A   1      29.096  25.109  26.268  1.00  0.00     0.164 HD
ATOM     20  C   UNL A   1      31.487  22.970  26.813  1.00  0.00     0.117 C 
ATOM     21  O   UNL A   1      29.247  22.968  27.724  1.00  0.00    -0.275 OA
BRANCH   9  22
ATOM     22  C   UNL A   1      30.940  29.558  23.096  1.00  0.00     0.104 A 
ATOM     23  C   UNL A   1      27.577  31.105  23.365  1.00  0.00     0.046 C 
ATOM     24  C   UNL A   1      28.901  30.563  22.967  1.00  0.00    -0.033 A 
ATOM     25  C   UNL A   1      29.392  30.385  21.690  1.00  0.00     0.086 A 
ATOM     26  C   UNL A   1      29.901  30.078  23.850  1.00  0.00     0.036 A 
ATOM     27  N   UNL A   1      30.630  29.805  21.782  1.00  0.00    -0.357 N 
ATOM     28  H   UNL A   1      31.211  29.595  21.016  1.00  0.00     0.166 HD
ENDBRANCH   9  22
ENDBRANCH   6   8
ENDBRANCH   5   6
ENDBRANCH   4   5
ENDBRANCH   3   4
ENDBRANCH   2   3
ENDBRANCH   1   2
BRANCH   1  29
ATOM     29  C   UNL A   1      37.368  20.257  24.980  1.00  0.00     0.261 C 
BRANCH  29  30
ATOM     30  O   UNL A   1      38.418  21.239  25.073  1.00  0.00    -0.460 OA
BRANCH  30  31
ATOM     31  C   UNL A   1      39.408  20.936  25.948  1.00  0.00     0.338 C 
ATOM     32  O   UNL A   1      40.040  19.891  25.997  1.00  0.00    -0.246 OA
BRANCH  31  33
ATOM     33  C   UNL A   1      39.812  22.132  26.720  1.00  0.00     0.060 A 
ATOM     34  C   UNL A   1      39.210  23.345  26.370  1.00  0.00     0.016 A 
ATOM     35  C   UNL A   1      40.803  22.104  27.698  1.00  0.00     0.016 A 
ATOM     36  C   UNL A   1      39.658  24.538  26.935  1.00  0.00     0.010 A 
ATOM     37  C   UNL A   1      41.227  23.300  28.296  1.00  0.00     0.010 A 
ATOM     38  C   UNL A   1      40.707  24.533  27.865  1.00  0.00    -0.014 A 
BRANCH  38  39
ATOM     39  C   UNL A   1      41.358  25.823  28.228  1.00  0.00     0.031 A 
ATOM     40  C   UNL A   1      42.767  26.100  27.755  1.00  0.00     0.074 A 
ATOM     41  C   UNL A   1      40.689  26.775  28.905  1.00  0.00     0.049 A 
ATOM     42  N   UNL A   1      43.481  27.191  27.873  1.00  0.00    -0.248 NA
ATOM     43  C   UNL A   1      43.465  25.005  27.060  1.00  0.00     0.031 C 
ATOM     44  C   UNL A   1      39.333  26.637  29.438  1.00  0.00     0.029 A 
ATOM     45  N   UNL A   1      41.060  28.048  29.264  1.00  0.00    -0.354 N 
ATOM     46  C   UNL A   1      44.714  26.904  27.297  1.00  0.00     0.074 A 
ATOM     47  C   UNL A   1      44.665  25.529  26.856  1.00  0.00     0.031 C 
ATOM     48  C   UNL A   1      38.987  27.780  30.055  1.00  0.00     0.029 A 
ATOM     49  C   UNL A   1      40.101  28.725  29.979  1.00  0.00     0.049 A 
ATOM     50  H   UNL A   1      41.934  28.439  29.032  1.00  0.00     0.167 HD
ATOM     51  C   UNL A   1      45.784  27.716  27.119  1.00  0.00     0.034 A 
ATOM     52  C   UNL A   1      40.115  29.964  30.514  1.00  0.00     0.034 A 
ATOM     53  C   UNL A   1      45.828  29.095  27.522  1.00  0.00     0.049 A 
ATOM     54  C   UNL A   1      41.315  30.850  30.300  1.00  0.00     0.074 A 
ATOM     55  C   UNL A   1      46.844  30.015  27.327  1.00  0.00     0.029 A 
ATOM     56  N   UNL A   1      44.821  29.752  28.209  1.00  0.00    -0.354 N 
ATOM     57  N   UNL A   1      42.417  30.603  29.633  1.00  0.00    -0.248 NA
ATOM     58  C   UNL A   1      41.257  32.202  30.876  1.00  0.00     0.031 C 
ATOM     59  C   UNL A   1      46.465  31.218  27.929  1.00  0.00     0.029 A 
ATOM     60  C   UNL A   1      45.195  31.061  28.460  1.00  0.00     0.049 A 
ATOM     61  H   UNL A   1      43.966  29.347  28.480  1.00  0.00     0.167 HD
ATOM     62  C   UNL A   1      43.161  31.778  29.675  1.00  0.00     0.074 A 
ATOM     63  C   UNL A   1      42.378  32.742  30.417  1.00  0.00     0.031 C 
ATOM     64  C   UNL A   1      44.387  32.031  29.153  1.00  0.00     0.034 A 
BRANCH  51  65
ATOM     65  C   UNL A   1      46.995  27.140  26.428  1.00  0.00     0.023 A 
ATOM     66  C   UNL A   1      47.142  27.287  25.034  1.00  0.00     0.012 A 
ATOM     67  C   UNL A   1      48.016  26.509  27.166  1.00  0.00     0.148 A 
ATOM     68  C   UNL A   1      48.266  26.783  24.380  1.00  0.00     0.002 A 
ATOM     69  C   UNL A   1      49.156  26.052  26.516  1.00  0.00     0.091 A 
ATOM     70  F   UNL A   1      47.850  26.360  28.489  1.00  0.00    -0.205 F 
ATOM     71  C   UNL A   1      49.277  26.177  25.122  1.00  0.00     0.022 A 
BRANCH  69  72
ATOM     72  S   UNL A   1      50.550  25.336  27.391  1.00  0.00     0.127 S 
ATOM     73  O   UNL A   1      49.945  24.145  27.986  1.00  0.00    -0.237 OA
ATOM     74  O   UNL A   1      51.489  25.062  26.303  1.00  0.00    -0.237 OA
ATOM     75  O   UNL A   1      50.996  26.348  28.338  1.00  0.00    -0.744 OA
ENDBRANCH  69  72
ENDBRANCH  51  65
BRANCH  52  76
ATOM     76  C   UNL A   1      38.929  30.460  31.271  1.00  0.00     0.023 A 
ATOM     77  C   UNL A   1      38.843  30.243  32.660  1.00  0.00     0.012 A 
ATOM     78  C   UNL A   1      37.894  31.158  30.620  1.00  0.00     0.148 A 
ATOM     79  C   UNL A   1      37.732  30.684  33.381  1.00  0.00     0.002 A 
ATOM     80  C   UNL A   1      36.819  31.647  31.354  1.00  0.00     0.091 A 
ATOM     81  F   UNL A   1      37.986  31.341  29.296  1.00  0.00    -0.205 F 
ATOM     82  C   UNL A   1      36.727  31.395  32.731  1.00  0.00     0.022 A 
BRANCH  80  83
ATOM     83  S   UNL A   1      35.551  32.689  30.624  1.00  0.00     0.127 S 
ATOM     84  O   UNL A   1      36.133  34.020  30.778  1.00  0.00    -0.237 OA
ATOM     85  O   UNL A   1      35.506  32.190  29.249  1.00  0.00    -0.237 OA
ATOM     86  O   UNL A   1      34.341  32.435  31.394  1.00  0.00    -0.744 OA
ENDBRANCH  80  83
ENDBRANCH  52  76
BRANCH  64  87
ATOM     87  C   UNL A   1      44.951  33.420  29.317  1.00  0.00     0.023 A 
ATOM     88  C   UNL A   1      45.645  33.769  30.492  1.00  0.00     0.012 A 
ATOM     89  C   UNL A   1      44.856  34.356  28.267  1.00  0.00     0.148 A 
ATOM     90  C   UNL A   1      46.204  35.039  30.635  1.00  0.00     0.002 A 
ATOM     91  C   UNL A   1      45.459  35.602  28.396  1.00  0.00     0.091 A 
ATOM     92  F   UNL A   1      44.178  34.013  27.163  1.00  0.00    -0.205 F 
ATOM     93  C   UNL A   1      46.120  35.950  29.584  1.00  0.00     0.022 A 
BRANCH  91  94
ATOM     94  S   UNL A   1      45.489  36.801  27.059  1.00  0.00     0.127 S 
ATOM     95  O   UNL A   1      44.067  37.104  26.898  1.00  0.00    -0.237 OA
ATOM     96  O   UNL A   1      46.282  37.888  27.635  1.00  0.00    -0.237 OA
ATOM     97  O   UNL A   1      46.115  36.130  25.929  1.00  0.00    -0.744 OA
ENDBRANCH  91  94
ENDBRANCH  64  87
ENDBRANCH  38  39
ENDBRANCH  31  33
ENDBRANCH  30  31
ENDBRANCH  29  30
ENDBRANCH   1  29
TORSDOF 18
ENDMDL
