MODEL 1
REMARK VINA RESULT:     -11.7      0.000      0.000
REMARK SMILES C[N@@H+]1CCN(C(=O)c2ccc3[nH]c4c(c3c2)CSCC4)C[C@H]1C(=O)OCCOCCOC(=O)c1ccc(-c2c3nc(c(-c4cccc(S(=O)(=O)[O-])c4F)c4ccc([nH]4)c(-c4cccc(S(=O)(=O)[O-])c4F)c4nc(c(-c5cccc(S(=O)(=O)[O-])c5F)c5ccc2[nH]5)C=C4)C=C3)cc1
REMARK SMILES IDX 29 1 28 2 27 3 26 4 25 5 23 6 24 7 22 8 1 9 2 10 3 11 4 13
REMARK SMILES IDX 21 14 5 15 6 16 7 17 8 18 9 19 16 20 10 21 15 22 11 23 14 24
REMARK SMILES IDX 12 25 13 26 17 27 20 29 18 30 19 31 30 32 31 33 32 34 33 35
REMARK SMILES IDX 34 36 35 37 96 38 36 39 95 40 37 41 38 42 39 43 89 44 40 45
REMARK SMILES IDX 94 46 88 47 90 48 41 49 93 50 87 51 86 52 42 54 74 55 54 56
REMARK SMILES IDX 73 57 55 58 58 59 72 60 91 61 56 62 57 63 71 65 92 66 59 67
REMARK SMILES IDX 43 68 44 69 52 70 45 71 47 72 53 73 46 74 48 75 49 76 50 77
REMARK SMILES IDX 51 78 75 79 76 80 84 81 77 82 79 83 85 84 78 85 80 86 81 87
REMARK SMILES IDX 82 88 83 89 60 90 61 91 69 92 62 93 64 94 70 95 63 96 65 97
REMARK SMILES IDX 66 98 67 99 68 100
REMARK H PARENT 2 12 12 28 90 53 58 64
REMARK Flexibility Score: inf
ROOT
ATOM      1  C   UNL A   1      40.987  20.469  27.018  1.00  0.00     0.202 C 
ENDROOT
BRANCH   1   2
ATOM      2  O   UNL A   1      40.005  21.490  27.183  1.00  0.00    -0.374 OA
BRANCH   2   3
ATOM      3  C   UNL A   1      39.059  21.679  26.136  1.00  0.00     0.202 C 
BRANCH   3   4
ATOM      4  C   UNL A   1      38.211  22.961  26.091  1.00  0.00     0.261 C 
BRANCH   4   5
ATOM      5  O   UNL A   1      36.822  22.791  25.762  1.00  0.00    -0.459 OA
BRANCH   5   6
ATOM      6  C   UNL A   1      36.597  22.797  24.426  1.00  0.00     0.366 C 
ATOM      7  O   UNL A   1      37.460  23.052  23.583  1.00  0.00    -0.245 OA
BRANCH   6   8
ATOM      8  C   UNL A   1      35.169  22.568  23.986  1.00  0.00     0.314 C 
ATOM      9  C   UNL A   1      34.870  20.258  24.860  1.00  0.00     0.333 C 
ATOM     10  N   UNL A   1      34.279  21.570  24.669  1.00  0.00    -0.323 N 
ATOM     11  C   UNL A   1      33.056  21.444  23.822  1.00  0.00     0.284 C 
ATOM     12  H   UNL A   1      34.086  21.913  25.610  1.00  0.00     0.348 HD
ATOM     13  C   UNL A   1      32.333  22.794  23.596  1.00  0.00     0.181 C 
ATOM     14  C   UNL A   1      34.464  23.931  24.032  1.00  0.00     0.197 C 
ATOM     15  N   UNL A   1      33.264  23.848  23.192  1.00  0.00    -0.326 N 
BRANCH  15  16
ATOM     16  C   UNL A   1      33.015  24.621  22.071  1.00  0.00     0.254 C 
ATOM     17  O   UNL A   1      33.042  24.192  20.921  1.00  0.00    -0.269 OA
BRANCH  16  18
ATOM     18  C   UNL A   1      32.655  26.037  22.281  1.00  0.00     0.040 A 
ATOM     19  C   UNL A   1      33.631  27.039  22.282  1.00  0.00     0.016 A 
ATOM     20  C   UNL A   1      31.309  26.326  22.529  1.00  0.00     0.024 A 
ATOM     21  C   UNL A   1      33.284  28.363  22.570  1.00  0.00     0.027 A 
ATOM     22  C   UNL A   1      30.941  27.655  22.796  1.00  0.00     0.004 A 
ATOM     23  C   UNL A   1      31.932  28.639  22.817  1.00  0.00     0.046 A 
ATOM     24  C   UNL A   1      29.693  28.291  23.071  1.00  0.00    -0.009 A 
ATOM     25  N   UNL A   1      31.309  29.831  23.121  1.00  0.00    -0.358 N 
ATOM     26  C   UNL A   1      29.958  29.638  23.213  1.00  0.00     0.021 A 
ATOM     27  C   UNL A   1      28.354  27.636  23.147  1.00  0.00     0.107 C 
ATOM     28  H   UNL A   1      31.768  30.692  23.251  1.00  0.00     0.166 HD
ATOM     29  C   UNL A   1      28.965  30.721  23.440  1.00  0.00     0.065 C 
ATOM     30  S   UNL A   1      26.947  28.763  23.438  1.00  0.00    -0.157 SA
ATOM     31  C   UNL A   1      27.625  30.338  22.804  1.00  0.00     0.076 C 
ENDBRANCH  16  18
ENDBRANCH  15  16
ENDBRANCH   6   8
ENDBRANCH   5   6
ENDBRANCH   4   5
ENDBRANCH   3   4
ENDBRANCH   2   3
ENDBRANCH   1   2
BRANCH   1  32
ATOM     32  C   UNL A   1      42.372  20.851  26.460  1.00  0.00     0.261 C 
BRANCH  32  33
ATOM     33  O   UNL A   1      42.764  22.167  26.880  1.00  0.00    -0.460 OA
BRANCH  33  34
ATOM     34  C   UNL A   1      42.932  23.047  25.856  1.00  0.00     0.338 C 
ATOM     35  O   UNL A   1      42.872  22.797  24.662  1.00  0.00    -0.246 OA
BRANCH  34  36
ATOM     36  C   UNL A   1      42.777  24.388  26.451  1.00  0.00     0.060 A 
ATOM     37  C   UNL A   1      43.566  24.798  27.525  1.00  0.00     0.016 A 
ATOM     38  C   UNL A   1      41.619  25.099  26.091  1.00  0.00     0.016 A 
ATOM     39  C   UNL A   1      43.156  25.900  28.273  1.00  0.00     0.010 A 
ATOM     40  C   UNL A   1      41.195  26.176  26.865  1.00  0.00     0.010 A 
ATOM     41  C   UNL A   1      41.948  26.565  27.973  1.00  0.00    -0.014 A 
BRANCH  41  42
ATOM     42  C   UNL A   1      41.665  27.823  28.674  1.00  0.00     0.031 A 
ATOM     43  C   UNL A   1      42.579  28.915  28.234  1.00  0.00     0.074 A 
ATOM     44  C   UNL A   1      40.639  28.106  29.509  1.00  0.00     0.049 A 
ATOM     45  N   UNL A   1      43.504  29.496  28.924  1.00  0.00    -0.248 NA
ATOM     46  C   UNL A   1      42.566  29.276  26.808  1.00  0.00     0.031 C 
ATOM     47  C   UNL A   1      39.479  27.278  29.844  1.00  0.00     0.029 A 
ATOM     48  N   UNL A   1      40.371  29.280  30.166  1.00  0.00    -0.354 N 
ATOM     49  C   UNL A   1      44.048  30.453  28.073  1.00  0.00     0.074 A 
ATOM     50  C   UNL A   1      43.559  30.164  26.751  1.00  0.00     0.031 C 
ATOM     51  C   UNL A   1      38.535  28.048  30.439  1.00  0.00     0.029 A 
ATOM     52  C   UNL A   1      39.066  29.384  30.654  1.00  0.00     0.049 A 
ATOM     53  H   UNL A   1      41.042  29.990  30.285  1.00  0.00     0.167 HD
ATOM     54  C   UNL A   1      44.684  31.558  28.546  1.00  0.00     0.034 A 
ATOM     55  C   UNL A   1      38.469  30.504  31.141  1.00  0.00     0.034 A 
ATOM     56  C   UNL A   1      45.028  31.440  29.933  1.00  0.00     0.049 A 
ATOM     57  C   UNL A   1      39.553  31.410  31.574  1.00  0.00     0.074 A 
ATOM     58  C   UNL A   1      45.825  30.603  30.685  1.00  0.00     0.029 A 
ATOM     59  N   UNL A   1      44.200  32.081  30.819  1.00  0.00    -0.354 N 
ATOM     60  N   UNL A   1      40.350  31.167  32.574  1.00  0.00    -0.248 NA
ATOM     61  C   UNL A   1      39.971  32.470  30.673  1.00  0.00     0.031 C 
ATOM     62  C   UNL A   1      45.138  30.451  31.925  1.00  0.00     0.029 A 
ATOM     63  C   UNL A   1      43.983  31.235  31.871  1.00  0.00     0.049 A 
ATOM     64  H   UNL A   1      43.827  32.986  30.714  1.00  0.00     0.167 HD
ATOM     65  C   UNL A   1      41.561  31.711  32.178  1.00  0.00     0.074 A 
ATOM     66  C   UNL A   1      41.236  32.607  31.074  1.00  0.00     0.031 C 
ATOM     67  C   UNL A   1      42.736  31.161  32.596  1.00  0.00     0.034 A 
BRANCH  54  68
ATOM     68  C   UNL A   1      44.658  32.894  27.852  1.00  0.00     0.023 A 
ATOM     69  C   UNL A   1      45.824  33.316  27.180  1.00  0.00     0.012 A 
ATOM     70  C   UNL A   1      43.646  33.858  28.066  1.00  0.00     0.148 A 
ATOM     71  C   UNL A   1      45.976  34.639  26.748  1.00  0.00     0.002 A 
ATOM     72  C   UNL A   1      43.770  35.149  27.570  1.00  0.00     0.091 A 
ATOM     73  F   UNL A   1      42.616  33.569  28.869  1.00  0.00    -0.205 F 
ATOM     74  C   UNL A   1      44.944  35.552  26.929  1.00  0.00     0.022 A 
BRANCH  72  75
ATOM     75  S   UNL A   1      42.456  36.358  27.755  1.00  0.00     0.127 S 
ATOM     76  O   UNL A   1      42.571  36.698  29.171  1.00  0.00    -0.237 OA
ATOM     77  O   UNL A   1      42.883  37.407  26.828  1.00  0.00    -0.237 OA
ATOM     78  O   UNL A   1      41.235  35.670  27.357  1.00  0.00    -0.744 OA
ENDBRANCH  72  75
ENDBRANCH  54  68
BRANCH  55  79
ATOM     79  C   UNL A   1      37.068  31.008  31.072  1.00  0.00     0.023 A 
ATOM     80  C   UNL A   1      36.438  31.455  32.260  1.00  0.00     0.012 A 
ATOM     81  C   UNL A   1      36.481  31.376  29.844  1.00  0.00     0.148 A 
ATOM     82  C   UNL A   1      35.323  32.303  32.225  1.00  0.00     0.002 A 
ATOM     83  C   UNL A   1      35.365  32.213  29.814  1.00  0.00     0.091 A 
ATOM     84  F   UNL A   1      37.071  30.990  28.706  1.00  0.00    -0.205 F 
ATOM     85  C   UNL A   1      34.798  32.697  31.000  1.00  0.00     0.022 A 
BRANCH  83  86
ATOM     86  S   UNL A   1      34.636  32.773  28.268  1.00  0.00     0.127 S 
ATOM     87  O   UNL A   1      34.133  31.523  27.696  1.00  0.00    -0.237 OA
ATOM     88  O   UNL A   1      33.602  33.692  28.735  1.00  0.00    -0.237 OA
ATOM     89  O   UNL A   1      35.730  33.375  27.515  1.00  0.00    -0.744 OA
ENDBRANCH  83  86
ENDBRANCH  55  79
BRANCH  67  90
ATOM     90  C   UNL A   1      42.693  30.197  33.749  1.00  0.00     0.023 A 
ATOM     91  C   UNL A   1      42.321  28.845  33.599  1.00  0.00     0.012 A 
ATOM     92  C   UNL A   1      43.228  30.632  34.972  1.00  0.00     0.148 A 
ATOM     93  C   UNL A   1      42.488  27.943  34.653  1.00  0.00     0.002 A 
ATOM     94  C   UNL A   1      43.428  29.725  36.002  1.00  0.00     0.091 A 
ATOM     95  F   UNL A   1      43.579  31.922  35.082  1.00  0.00    -0.205 F 
ATOM     96  C   UNL A   1      43.058  28.378  35.849  1.00  0.00     0.022 A 
BRANCH  94  97
ATOM     97  S   UNL A   1      44.249  30.194  37.525  1.00  0.00     0.127 S 
ATOM     98  O   UNL A   1      45.460  30.844  37.028  1.00  0.00    -0.237 OA
ATOM     99  O   UNL A   1      43.269  31.095  38.132  1.00  0.00    -0.237 OA
ATOM    100  O   UNL A   1      44.473  28.958  38.265  1.00  0.00    -0.744 OA
ENDBRANCH  94  97
ENDBRANCH  67  90
ENDBRANCH  41  42
ENDBRANCH  34  36
ENDBRANCH  33  34
ENDBRANCH  32  33
ENDBRANCH   1  32
TORSDOF 19
ENDMDL
MODEL 2
REMARK VINA RESULT:     -11.4      1.919      2.337
REMARK SMILES C[N@@H+]1CCN(C(=O)c2ccc3[nH]c4c(c3c2)CSCC4)C[C@H]1C(=O)OCCOCCOC(=O)c1ccc(-c2c3nc(c(-c4cccc(S(=O)(=O)[O-])c4F)c4ccc([nH]4)c(-c4cccc(S(=O)(=O)[O-])c4F)c4nc(c(-c5cccc(S(=O)(=O)[O-])c5F)c5ccc2[nH]5)C=C4)C=C3)cc1
REMARK SMILES IDX 29 1 28 2 27 3 26 4 25 5 23 6 24 7 22 8 1 9 2 10 3 11 4 13
REMARK SMILES IDX 21 14 5 15 6 16 7 17 8 18 9 19 16 20 10 21 15 22 11 23 14 24
REMARK SMILES IDX 12 25 13 26 17 27 20 29 18 30 19 31 30 32 31 33 32 34 33 35
REMARK SMILES IDX 34 36 35 37 96 38 36 39 95 40 37 41 38 42 39 43 89 44 40 45
REMARK SMILES IDX 94 46 88 47 90 48 41 49 93 50 87 51 86 52 42 54 74 55 54 56
REMARK SMILES IDX 73 57 55 58 58 59 72 60 91 61 56 62 57 63 71 65 92 66 59 67
REMARK SMILES IDX 43 68 44 69 52 70 45 71 47 72 53 73 46 74 48 75 49 76 50 77
REMARK SMILES IDX 51 78 75 79 76 80 84 81 77 82 79 83 85 84 78 85 80 86 81 87
REMARK SMILES IDX 82 88 83 89 60 90 61 91 69 92 62 93 64 94 70 95 63 96 65 97
REMARK SMILES IDX 66 98 67 99 68 100
REMARK H PARENT 2 12 12 28 90 53 58 64
REMARK Flexibility Score: inf
ROOT
ATOM      1  C   UNL A   1      40.460  21.217  26.108  1.00  0.00     0.202 C 
ENDROOT
BRANCH   1   2
ATOM      2  O   UNL A   1      39.170  20.740  25.728  1.00  0.00    -0.374 OA
BRANCH   2   3
ATOM      3  C   UNL A   1      38.080  21.653  25.783  1.00  0.00     0.202 C 
BRANCH   3   4
ATOM      4  C   UNL A   1      37.125  21.781  24.585  1.00  0.00     0.261 C 
BRANCH   4   5
ATOM      5  O   UNL A   1      35.936  20.975  24.632  1.00  0.00    -0.459 OA
BRANCH   5   6
ATOM      6  C   UNL A   1      34.900  21.607  25.234  1.00  0.00     0.366 C 
ATOM      7  O   UNL A   1      34.758  21.688  26.456  1.00  0.00    -0.245 OA
BRANCH   6   8
ATOM      8  C   UNL A   1      33.824  22.149  24.320  1.00  0.00     0.314 C 
ATOM      9  C   UNL A   1      32.623  20.023  23.845  1.00  0.00     0.333 C 
ATOM     10  N   UNL A   1      32.513  21.442  24.130  1.00  0.00    -0.323 N 
ATOM     11  C   UNL A   1      31.824  22.125  22.995  1.00  0.00     0.284 C 
ATOM     12  H   UNL A   1      31.997  21.495  25.009  1.00  0.00     0.348 HD
ATOM     13  C   UNL A   1      31.627  23.642  23.230  1.00  0.00     0.181 C 
ATOM     14  C   UNL A   1      33.520  23.578  24.791  1.00  0.00     0.197 C 
ATOM     15  N   UNL A   1      32.857  24.286  23.689  1.00  0.00    -0.326 N 
BRANCH  15  16
ATOM     16  C   UNL A   1      33.341  25.420  23.059  1.00  0.00     0.254 C 
ATOM     17  O   UNL A   1      34.076  25.399  22.076  1.00  0.00    -0.269 OA
BRANCH  16  18
ATOM     18  C   UNL A   1      32.907  26.731  23.580  1.00  0.00     0.040 A 
ATOM     19  C   UNL A   1      33.637  27.391  24.574  1.00  0.00     0.016 A 
ATOM     20  C   UNL A   1      31.714  27.258  23.076  1.00  0.00     0.024 A 
ATOM     21  C   UNL A   1      33.165  28.589  25.120  1.00  0.00     0.027 A 
ATOM     22  C   UNL A   1      31.239  28.474  23.596  1.00  0.00     0.004 A 
ATOM     23  C   UNL A   1      31.967  29.107  24.606  1.00  0.00     0.046 A 
ATOM     24  C   UNL A   1      30.097  29.282  23.313  1.00  0.00    -0.009 A 
ATOM     25  N   UNL A   1      31.275  30.251  24.943  1.00  0.00    -0.358 N 
ATOM     26  C   UNL A   1      30.187  30.392  24.128  1.00  0.00     0.021 A 
ATOM     27  C   UNL A   1      29.035  29.006  22.301  1.00  0.00     0.107 C 
ATOM     28  H   UNL A   1      31.529  30.873  25.663  1.00  0.00     0.166 HD
ATOM     29  C   UNL A   1      29.263  31.558  24.148  1.00  0.00     0.065 C 
ATOM     30  S   UNL A   1      27.754  30.297  22.139  1.00  0.00    -0.157 SA
ATOM     31  C   UNL A   1      28.655  31.762  22.757  1.00  0.00     0.076 C 
ENDBRANCH  16  18
ENDBRANCH  15  16
ENDBRANCH   6   8
ENDBRANCH   5   6
ENDBRANCH   4   5
ENDBRANCH   3   4
ENDBRANCH   2   3
ENDBRANCH   1   2
BRANCH   1  32
ATOM     32  C   UNL A   1      40.567  22.239  27.257  1.00  0.00     0.261 C 
BRANCH  32  33
ATOM     33  O   UNL A   1      40.977  23.529  26.777  1.00  0.00    -0.460 OA
BRANCH  33  34
ATOM     34  C   UNL A   1      42.242  23.876  27.136  1.00  0.00     0.338 C 
ATOM     35  O   UNL A   1      43.268  23.268  26.873  1.00  0.00    -0.246 OA
BRANCH  34  36
ATOM     36  C   UNL A   1      42.173  25.299  27.517  1.00  0.00     0.060 A 
ATOM     37  C   UNL A   1      42.860  25.784  28.630  1.00  0.00     0.016 A 
ATOM     38  C   UNL A   1      41.165  26.062  26.900  1.00  0.00     0.016 A 
ATOM     39  C   UNL A   1      42.492  27.021  29.155  1.00  0.00     0.010 A 
ATOM     40  C   UNL A   1      40.777  27.279  27.453  1.00  0.00     0.010 A 
ATOM     41  C   UNL A   1      41.422  27.751  28.596  1.00  0.00    -0.014 A 
BRANCH  41  42
ATOM     42  C   UNL A   1      41.203  29.122  29.074  1.00  0.00     0.031 A 
ATOM     43  C   UNL A   1      42.378  29.995  28.793  1.00  0.00     0.074 A 
ATOM     44  C   UNL A   1      40.071  29.666  29.574  1.00  0.00     0.049 A 
ATOM     45  N   UNL A   1      43.192  30.523  29.647  1.00  0.00    -0.248 NA
ATOM     46  C   UNL A   1      42.783  30.154  27.387  1.00  0.00     0.031 C 
ATOM     47  C   UNL A   1      38.735  29.073  29.664  1.00  0.00     0.029 A 
ATOM     48  N   UNL A   1      39.862  30.946  30.021  1.00  0.00    -0.354 N 
ATOM     49  C   UNL A   1      44.092  31.262  28.886  1.00  0.00     0.074 A 
ATOM     50  C   UNL A   1      43.901  30.869  27.514  1.00  0.00     0.031 C 
ATOM     51  C   UNL A   1      37.826  30.050  29.910  1.00  0.00     0.029 A 
ATOM     52  C   UNL A   1      38.518  31.309  30.131  1.00  0.00     0.049 A 
ATOM     53  H   UNL A   1      40.599  31.558  30.247  1.00  0.00     0.167 HD
ATOM     54  C   UNL A   1      44.778  32.316  29.404  1.00  0.00     0.034 A 
ATOM     55  C   UNL A   1      38.029  32.562  30.333  1.00  0.00     0.034 A 
ATOM     56  C   UNL A   1      44.741  32.340  30.838  1.00  0.00     0.049 A 
ATOM     57  C   UNL A   1      39.116  33.348  30.951  1.00  0.00     0.074 A 
ATOM     58  C   UNL A   1      45.165  31.506  31.850  1.00  0.00     0.029 A 
ATOM     59  N   UNL A   1      43.848  33.212  31.405  1.00  0.00    -0.354 N 
ATOM     60  N   UNL A   1      39.584  33.129  32.146  1.00  0.00    -0.248 NA
ATOM     61  C   UNL A   1      39.927  34.199  30.099  1.00  0.00     0.031 C 
ATOM     62  C   UNL A   1      44.176  31.631  32.870  1.00  0.00     0.029 A 
ATOM     63  C   UNL A   1      43.230  32.561  32.436  1.00  0.00     0.049 A 
ATOM     64  H   UNL A   1      43.681  34.139  31.119  1.00  0.00     0.167 HD
ATOM     65  C   UNL A   1      40.933  33.429  32.039  1.00  0.00     0.074 A 
ATOM     66  C   UNL A   1      41.057  34.202  30.808  1.00  0.00     0.031 C 
ATOM     67  C   UNL A   1      41.850  32.774  32.805  1.00  0.00     0.034 A 
BRANCH  54  68
ATOM     68  C   UNL A   1      45.164  33.532  28.605  1.00  0.00     0.023 A 
ATOM     69  C   UNL A   1      46.536  33.783  28.399  1.00  0.00     0.012 A 
ATOM     70  C   UNL A   1      44.259  34.572  28.292  1.00  0.00     0.148 A 
ATOM     71  C   UNL A   1      46.985  35.015  27.910  1.00  0.00     0.002 A 
ATOM     72  C   UNL A   1      44.702  35.765  27.738  1.00  0.00     0.091 A 
ATOM     73  F   UNL A   1      42.976  34.464  28.656  1.00  0.00    -0.205 F 
ATOM     74  C   UNL A   1      46.068  36.001  27.565  1.00  0.00     0.022 A 
BRANCH  72  75
ATOM     75  S   UNL A   1      43.557  37.060  27.253  1.00  0.00     0.127 S 
ATOM     76  O   UNL A   1      44.473  38.117  26.834  1.00  0.00    -0.237 OA
ATOM     77  O   UNL A   1      42.818  36.413  26.167  1.00  0.00    -0.237 OA
ATOM     78  O   UNL A   1      42.757  37.335  28.439  1.00  0.00    -0.744 OA
ENDBRANCH  72  75
ENDBRANCH  54  68
BRANCH  55  79
ATOM     79  C   UNL A   1      36.802  33.253  29.845  1.00  0.00     0.023 A 
ATOM     80  C   UNL A   1      36.272  32.903  28.578  1.00  0.00     0.012 A 
ATOM     81  C   UNL A   1      35.969  33.975  30.724  1.00  0.00     0.148 A 
ATOM     82  C   UNL A   1      34.943  33.183  28.236  1.00  0.00     0.002 A 
ATOM     83  C   UNL A   1      34.649  34.260  30.375  1.00  0.00     0.091 A 
ATOM     84  F   UNL A   1      36.434  34.295  31.937  1.00  0.00    -0.205 F 
ATOM     85  C   UNL A   1      34.125  33.846  29.143  1.00  0.00     0.022 A 
BRANCH  83  86
ATOM     86  S   UNL A   1      33.527  35.105  31.499  1.00  0.00     0.127 S 
ATOM     87  O   UNL A   1      34.220  36.374  31.727  1.00  0.00    -0.237 OA
ATOM     88  O   UNL A   1      32.312  35.206  30.697  1.00  0.00    -0.237 OA
ATOM     89  O   UNL A   1      33.441  34.253  32.680  1.00  0.00    -0.744 OA
ENDBRANCH  83  86
ENDBRANCH  55  79
BRANCH  67  90
ATOM     90  C   UNL A   1      41.351  31.995  33.991  1.00  0.00     0.023 A 
ATOM     91  C   UNL A   1      40.952  30.645  33.904  1.00  0.00     0.012 A 
ATOM     92  C   UNL A   1      41.475  32.595  35.254  1.00  0.00     0.148 A 
ATOM     93  C   UNL A   1      40.688  29.907  35.061  1.00  0.00     0.002 A 
ATOM     94  C   UNL A   1      41.249  31.849  36.401  1.00  0.00     0.091 A 
ATOM     95  F   UNL A   1      41.862  33.879  35.305  1.00  0.00    -0.205 F 
ATOM     96  C   UNL A   1      40.854  30.504  36.310  1.00  0.00     0.022 A 
BRANCH  94  97
ATOM     97  S   UNL A   1      41.543  32.521  38.036  1.00  0.00     0.127 S 
ATOM     98  O   UNL A   1      42.457  31.535  38.610  1.00  0.00    -0.237 OA
ATOM     99  O   UNL A   1      42.149  33.817  37.726  1.00  0.00    -0.237 OA
ATOM    100  O   UNL A   1      40.240  32.604  38.684  1.00  0.00    -0.744 OA
ENDBRANCH  94  97
ENDBRANCH  67  90
ENDBRANCH  41  42
ENDBRANCH  34  36
ENDBRANCH  33  34
ENDBRANCH  32  33
ENDBRANCH   1  32
TORSDOF 19
ENDMDL
MODEL 3
REMARK VINA RESULT:     -11.4      1.977      2.610
REMARK SMILES C[N@@H+]1CCN(C(=O)c2ccc3[nH]c4c(c3c2)CSCC4)C[C@H]1C(=O)OCCOCCOC(=O)c1ccc(-c2c3nc(c(-c4cccc(S(=O)(=O)[O-])c4F)c4ccc([nH]4)c(-c4cccc(S(=O)(=O)[O-])c4F)c4nc(c(-c5cccc(S(=O)(=O)[O-])c5F)c5ccc2[nH]5)C=C4)C=C3)cc1
REMARK SMILES IDX 29 1 28 2 27 3 26 4 25 5 23 6 24 7 22 8 1 9 2 10 3 11 4 13
REMARK SMILES IDX 21 14 5 15 6 16 7 17 8 18 9 19 16 20 10 21 15 22 11 23 14 24
REMARK SMILES IDX 12 25 13 26 17 27 20 29 18 30 19 31 30 32 31 33 32 34 33 35
REMARK SMILES IDX 34 36 35 37 96 38 36 39 95 40 37 41 38 42 39 43 89 44 40 45
REMARK SMILES IDX 94 46 88 47 90 48 41 49 93 50 87 51 86 52 42 54 74 55 54 56
REMARK SMILES IDX 73 57 55 58 58 59 72 60 91 61 56 62 57 63 71 65 92 66 59 67
REMARK SMILES IDX 43 68 44 69 52 70 45 71 47 72 53 73 46 74 48 75 49 76 50 77
REMARK SMILES IDX 51 78 75 79 76 80 84 81 77 82 79 83 85 84 78 85 80 86 81 87
REMARK SMILES IDX 82 88 83 89 60 90 61 91 69 92 62 93 64 94 70 95 63 96 65 97
REMARK SMILES IDX 66 98 67 99 68 100
REMARK H PARENT 2 12 12 28 90 53 58 64
REMARK Flexibility Score: inf
ROOT
ATOM      1  C   UNL A   1      37.755  21.353  25.134  1.00  0.00     0.202 C 
ENDROOT
BRANCH   1   2
ATOM      2  O   UNL A   1      36.774  22.241  25.666  1.00  0.00    -0.374 OA
BRANCH   2   3
ATOM      3  C   UNL A   1      35.569  21.676  26.169  1.00  0.00     0.202 C 
BRANCH   3   4
ATOM      4  C   UNL A   1      34.405  21.374  25.210  1.00  0.00     0.261 C 
BRANCH   4   5
ATOM      5  O   UNL A   1      33.162  20.992  25.822  1.00  0.00    -0.459 OA
BRANCH   5   6
ATOM      6  C   UNL A   1      32.104  21.683  25.333  1.00  0.00     0.366 C 
ATOM      7  O   UNL A   1      30.936  21.489  25.677  1.00  0.00    -0.245 OA
BRANCH   6   8
ATOM      8  C   UNL A   1      32.403  22.677  24.235  1.00  0.00     0.314 C 
ATOM      9  C   UNL A   1      32.133  21.169  22.275  1.00  0.00     0.333 C 
ATOM     10  N   UNL A   1      31.898  22.488  22.834  1.00  0.00    -0.323 N 
ATOM     11  C   UNL A   1      32.584  23.513  21.993  1.00  0.00     0.284 C 
ATOM     12  H   UNL A   1      30.883  22.590  22.849  1.00  0.00     0.348 HD
ATOM     13  C   UNL A   1      32.355  24.959  22.492  1.00  0.00     0.181 C 
ATOM     14  C   UNL A   1      31.912  24.046  24.727  1.00  0.00     0.197 C 
ATOM     15  N   UNL A   1      32.583  25.081  23.932  1.00  0.00    -0.326 N 
BRANCH  15  16
ATOM     16  C   UNL A   1      33.422  26.060  24.436  1.00  0.00     0.254 C 
ATOM     17  O   UNL A   1      34.606  25.880  24.704  1.00  0.00    -0.269 OA
BRANCH  16  18
ATOM     18  C   UNL A   1      32.861  27.414  24.619  1.00  0.00     0.040 A 
ATOM     19  C   UNL A   1      33.444  28.322  25.508  1.00  0.00     0.016 A 
ATOM     20  C   UNL A   1      31.700  27.728  23.906  1.00  0.00     0.024 A 
ATOM     21  C   UNL A   1      32.849  29.568  25.735  1.00  0.00     0.027 A 
ATOM     22  C   UNL A   1      31.104  28.985  24.105  1.00  0.00     0.004 A 
ATOM     23  C   UNL A   1      31.684  29.871  25.015  1.00  0.00     0.046 A 
ATOM     24  C   UNL A   1      29.955  29.623  23.551  1.00  0.00    -0.009 A 
ATOM     25  N   UNL A   1      30.897  31.003  25.032  1.00  0.00    -0.358 N 
ATOM     26  C   UNL A   1      29.894  30.883  24.111  1.00  0.00     0.021 A 
ATOM     27  C   UNL A   1      29.023  29.058  22.531  1.00  0.00     0.107 C 
ATOM     28  H   UNL A   1      31.037  31.780  25.620  1.00  0.00     0.166 HD
ATOM     29  C   UNL A   1      28.909  31.951  23.793  1.00  0.00     0.065 C 
ATOM     30  S   UNL A   1      27.694  30.182  21.977  1.00  0.00    -0.157 SA
ATOM     31  C   UNL A   1      28.440  31.811  22.342  1.00  0.00     0.076 C 
ENDBRANCH  16  18
ENDBRANCH  15  16
ENDBRANCH   6   8
ENDBRANCH   5   6
ENDBRANCH   4   5
ENDBRANCH   3   4
ENDBRANCH   2   3
ENDBRANCH   1   2
BRANCH   1  32
ATOM     32  C   UNL A   1      39.163  21.336  25.760  1.00  0.00     0.261 C 
BRANCH  32  33
ATOM     33  O   UNL A   1      39.544  22.638  26.232  1.00  0.00    -0.460 OA
BRANCH  33  34
ATOM     34  C   UNL A   1      40.297  22.616  27.365  1.00  0.00     0.338 C 
ATOM     35  O   UNL A   1      40.951  21.675  27.788  1.00  0.00    -0.246 OA
BRANCH  34  36
ATOM     36  C   UNL A   1      40.507  24.029  27.733  1.00  0.00     0.060 A 
ATOM     37  C   UNL A   1      41.744  24.480  28.194  1.00  0.00     0.016 A 
ATOM     38  C   UNL A   1      39.350  24.813  27.882  1.00  0.00     0.016 A 
ATOM     39  C   UNL A   1      41.803  25.703  28.858  1.00  0.00     0.010 A 
ATOM     40  C   UNL A   1      39.410  26.017  28.579  1.00  0.00     0.010 A 
ATOM     41  C   UNL A   1      40.632  26.454  29.091  1.00  0.00    -0.014 A 
BRANCH  41  42
ATOM     42  C   UNL A   1      40.783  27.813  29.627  1.00  0.00     0.031 A 
ATOM     43  C   UNL A   1      41.805  28.590  28.871  1.00  0.00     0.074 A 
ATOM     44  C   UNL A   1      40.038  28.430  30.571  1.00  0.00     0.049 A 
ATOM     45  N   UNL A   1      42.958  28.998  29.293  1.00  0.00    -0.248 NA
ATOM     46  C   UNL A   1      41.583  28.784  27.430  1.00  0.00     0.031 C 
ATOM     47  C   UNL A   1      38.817  27.955  31.225  1.00  0.00     0.029 A 
ATOM     48  N   UNL A   1      40.175  29.698  31.074  1.00  0.00    -0.354 N 
ATOM     49  C   UNL A   1      43.515  29.691  28.224  1.00  0.00     0.074 A 
ATOM     50  C   UNL A   1      42.714  29.388  27.066  1.00  0.00     0.031 C 
ATOM     51  C   UNL A   1      38.208  28.996  31.847  1.00  0.00     0.029 A 
ATOM     52  C   UNL A   1      39.053  30.174  31.757  1.00  0.00     0.049 A 
ATOM     53  H   UNL A   1      40.996  30.229  30.964  1.00  0.00     0.167 HD
ATOM     54  C   UNL A   1      44.461  30.651  28.402  1.00  0.00     0.034 A 
ATOM     55  C   UNL A   1      38.830  31.454  32.161  1.00  0.00     0.034 A 
ATOM     56  C   UNL A   1      45.046  30.604  29.711  1.00  0.00     0.049 A 
ATOM     57  C   UNL A   1      40.153  32.106  32.254  1.00  0.00     0.074 A 
ATOM     58  C   UNL A   1      45.775  29.685  30.435  1.00  0.00     0.029 A 
ATOM     59  N   UNL A   1      44.578  31.523  30.616  1.00  0.00    -0.354 N 
ATOM     60  N   UNL A   1      41.063  31.785  33.127  1.00  0.00    -0.248 NA
ATOM     61  C   UNL A   1      40.602  32.924  31.141  1.00  0.00     0.031 C 
ATOM     62  C   UNL A   1      45.339  29.844  31.783  1.00  0.00     0.029 A 
ATOM     63  C   UNL A   1      44.400  30.877  31.808  1.00  0.00     0.049 A 
ATOM     64  H   UNL A   1      44.402  32.474  30.438  1.00  0.00     0.167 HD
ATOM     65  C   UNL A   1      42.258  31.967  32.450  1.00  0.00     0.074 A 
ATOM     66  C   UNL A   1      41.921  32.788  31.292  1.00  0.00     0.031 C 
ATOM     67  C   UNL A   1      43.342  31.194  32.739  1.00  0.00     0.034 A 
BRANCH  54  68
ATOM     68  C   UNL A   1      44.590  31.867  27.525  1.00  0.00     0.023 A 
ATOM     69  C   UNL A   1      45.650  31.905  26.595  1.00  0.00     0.012 A 
ATOM     70  C   UNL A   1      43.892  33.072  27.765  1.00  0.00     0.148 A 
ATOM     71  C   UNL A   1      46.001  33.092  25.941  1.00  0.00     0.002 A 
ATOM     72  C   UNL A   1      44.195  34.229  27.059  1.00  0.00     0.091 A 
ATOM     73  F   UNL A   1      43.020  33.141  28.777  1.00  0.00    -0.205 F 
ATOM     74  C   UNL A   1      45.265  34.250  26.162  1.00  0.00     0.022 A 
BRANCH  72  75
ATOM     75  S   UNL A   1      43.260  35.744  27.289  1.00  0.00     0.127 S 
ATOM     76  O   UNL A   1      44.270  36.757  26.997  1.00  0.00    -0.237 OA
ATOM     77  O   UNL A   1      42.212  35.603  26.277  1.00  0.00    -0.237 OA
ATOM     78  O   UNL A   1      42.775  35.697  28.662  1.00  0.00    -0.744 OA
ENDBRANCH  72  75
ENDBRANCH  54  68
BRANCH  55  79
ATOM     79  C   UNL A   1      37.592  32.277  32.256  1.00  0.00     0.023 A 
ATOM     80  C   UNL A   1      37.472  33.221  33.306  1.00  0.00     0.012 A 
ATOM     81  C   UNL A   1      36.706  32.397  31.166  1.00  0.00     0.148 A 
ATOM     82  C   UNL A   1      36.569  34.289  33.232  1.00  0.00     0.002 A 
ATOM     83  C   UNL A   1      35.801  33.457  31.102  1.00  0.00     0.091 A 
ATOM     84  F   UNL A   1      36.814  31.536  30.148  1.00  0.00    -0.205 F 
ATOM     85  C   UNL A   1      35.745  34.418  32.121  1.00  0.00     0.022 A 
BRANCH  83  86
ATOM     86  S   UNL A   1      34.711  33.695  29.691  1.00  0.00     0.127 S 
ATOM     87  O   UNL A   1      33.570  34.383  30.297  1.00  0.00    -0.237 OA
ATOM     88  O   UNL A   1      35.529  34.524  28.812  1.00  0.00    -0.237 OA
ATOM     89  O   UNL A   1      34.407  32.355  29.201  1.00  0.00    -0.744 OA
ENDBRANCH  83  86
ENDBRANCH  55  79
BRANCH  67  90
ATOM     90  C   UNL A   1      43.323  30.403  34.018  1.00  0.00     0.023 A 
ATOM     91  C   UNL A   1      43.651  30.966  35.268  1.00  0.00     0.012 A 
ATOM     92  C   UNL A   1      42.775  29.111  33.968  1.00  0.00     0.148 A 
ATOM     93  C   UNL A   1      43.427  30.252  36.449  1.00  0.00     0.002 A 
ATOM     94  C   UNL A   1      42.519  28.421  35.143  1.00  0.00     0.091 A 
ATOM     95  F   UNL A   1      42.468  28.604  32.764  1.00  0.00    -0.205 F 
ATOM     96  C   UNL A   1      42.845  28.987  36.388  1.00  0.00     0.022 A 
BRANCH  94  97
ATOM     97  S   UNL A   1      41.679  26.838  35.144  1.00  0.00     0.127 S 
ATOM     98  O   UNL A   1      41.349  26.670  36.558  1.00  0.00    -0.237 OA
ATOM     99  O   UNL A   1      40.536  27.102  34.269  1.00  0.00    -0.237 OA
ATOM    100  O   UNL A   1      42.633  25.869  34.615  1.00  0.00    -0.744 OA
ENDBRANCH  94  97
ENDBRANCH  67  90
ENDBRANCH  41  42
ENDBRANCH  34  36
ENDBRANCH  33  34
ENDBRANCH  32  33
ENDBRANCH   1  32
TORSDOF 19
ENDMDL
