MODEL 1
REMARK VINA RESULT:     -11.1      0.000      0.000
REMARK SMILES CC(C)N(c1cc2c(cc1Cl)C=C(C(=O)OCCOCCOC(=O)c1ccc(-c3c4nc(c(-c5cccc(S(=O)(=O)[O-])c5F)c5ccc([nH]5)c(-c5cccc(S(=O)(=O)[O-])c5F)c5nc(c(-c6cccc(S(=O)(=O)[O-])c6F)c6ccc3[nH]6)C=C5)C=C4)cc1)[C@@H](C(F)(F)F)O2)C(C)C
REMARK SMILES IDX 20 1 19 2 18 3 17 4 16 5 14 6 15 7 13 8 5 9 6 10 10 11 7 12
REMARK SMILES IDX 9 13 11 14 8 15 93 16 12 17 88 18 4 19 2 20 1 21 3 22 94 23
REMARK SMILES IDX 95 24 96 25 89 26 90 27 91 28 92 29 21 30 22 31 23 32 24 33
REMARK SMILES IDX 25 34 26 35 87 36 27 37 86 38 28 39 29 40 30 41 80 42 31 43
REMARK SMILES IDX 85 44 79 45 81 46 32 47 84 48 78 49 77 50 33 52 65 53 45 54
REMARK SMILES IDX 64 55 46 56 49 57 63 58 82 59 47 60 48 61 62 63 83 64 50 65
REMARK SMILES IDX 34 66 35 67 43 68 36 69 38 70 44 71 37 72 39 73 40 74 41 75
REMARK SMILES IDX 42 76 66 77 67 78 75 79 68 80 70 81 76 82 69 83 71 84 72 85
REMARK SMILES IDX 73 86 74 87 51 88 52 89 60 90 53 91 55 92 61 93 54 94 56 95
REMARK SMILES IDX 57 96 58 97 59 98
REMARK H PARENT 81 51 49 62
REMARK Flexibility Score: inf
ROOT
ATOM      1  C   UNL A   1      31.861  31.576  26.856  1.00  0.00     0.202 C 
ENDROOT
BRANCH   1   2
ATOM      2  O   UNL A   1      31.392  30.916  25.683  1.00  0.00    -0.374 OA
BRANCH   2   3
ATOM      3  C   UNL A   1      30.307  31.498  24.964  1.00  0.00     0.202 C 
BRANCH   3   4
ATOM      4  C   UNL A   1      29.669  30.670  23.844  1.00  0.00     0.261 C 
BRANCH   4   5
ATOM      5  O   UNL A   1      30.104  29.302  23.863  1.00  0.00    -0.460 OA
BRANCH   5   6
ATOM      6  C   UNL A   1      30.268  28.754  22.636  1.00  0.00     0.338 C 
ATOM      7  O   UNL A   1      29.988  29.263  21.563  1.00  0.00    -0.246 OA
BRANCH   6   8
ATOM      8  C   UNL A   1      30.981  27.468  22.748  1.00  0.00     0.087 C 
ATOM      9  C   UNL A   1      32.580  23.039  24.562  1.00  0.00     0.060 A 
ATOM     10  C   UNL A   1      33.063  23.963  23.605  1.00  0.00     0.074 A 
ATOM     11  C   UNL A   1      31.284  23.284  25.076  1.00  0.00     0.065 A 
ATOM     12  C   UNL A   1      32.333  25.098  23.228  1.00  0.00     0.130 A 
ATOM     13  C   UNL A   1      30.538  24.395  24.667  1.00  0.00     0.034 A 
ATOM     14  Cl  UNL A   1      30.552  22.337  26.330  1.00  0.00    -0.082 Cl
ATOM     15  C   UNL A   1      31.074  25.317  23.771  1.00  0.00     0.019 A 
ATOM     16  O   UNL A   1      32.922  25.948  22.333  1.00  0.00    -0.475 OA
ATOM     17  C   UNL A   1      30.357  26.540  23.480  1.00  0.00     0.027 C 
ATOM     18  C   UNL A   1      32.333  27.269  22.118  1.00  0.00     0.316 C 
BRANCH   9  19
ATOM     19  N   UNL A   1      33.408  21.972  24.972  1.00  0.00    -0.365 N 
BRANCH  19  20
ATOM     20  C   UNL A   1      33.192  20.653  24.335  1.00  0.00     0.076 C 
ATOM     21  C   UNL A   1      32.628  19.613  25.300  1.00  0.00     0.030 C 
ATOM     22  C   UNL A   1      32.348  20.716  23.063  1.00  0.00     0.030 C 
ENDBRANCH  19  20
BRANCH  19  23
ATOM     23  C   UNL A   1      34.462  22.303  25.960  1.00  0.00     0.076 C 
ATOM     24  C   UNL A   1      34.025  22.059  27.403  1.00  0.00     0.030 C 
ATOM     25  C   UNL A   1      35.800  21.632  25.668  1.00  0.00     0.030 C 
ENDBRANCH  19  23
ENDBRANCH   9  19
BRANCH  18  26
ATOM     26  C   UNL A   1      33.343  28.341  22.558  1.00  0.00     0.430 C 
ATOM     27  F   UNL A   1      32.797  29.579  22.510  1.00  0.00    -0.167 F 
ATOM     28  F   UNL A   1      33.758  28.145  23.831  1.00  0.00    -0.167 F 
ATOM     29  F   UNL A   1      34.442  28.350  21.769  1.00  0.00    -0.167 F 
ENDBRANCH  18  26
ENDBRANCH   6   8
ENDBRANCH   5   6
ENDBRANCH   4   5
ENDBRANCH   3   4
ENDBRANCH   2   3
ENDBRANCH   1   2
BRANCH   1  30
ATOM     30  C   UNL A   1      32.060  33.098  26.813  1.00  0.00     0.261 C 
BRANCH  30  31
ATOM     31  O   UNL A   1      32.293  33.670  28.109  1.00  0.00    -0.460 OA
BRANCH  31  32
ATOM     32  C   UNL A   1      33.384  34.473  28.195  1.00  0.00     0.338 C 
ATOM     33  O   UNL A   1      33.418  35.685  28.053  1.00  0.00    -0.246 OA
BRANCH  32  34
ATOM     34  C   UNL A   1      34.521  33.678  28.695  1.00  0.00     0.060 A 
ATOM     35  C   UNL A   1      35.830  34.140  28.559  1.00  0.00     0.016 A 
ATOM     36  C   UNL A   1      34.257  32.457  29.329  1.00  0.00     0.016 A 
ATOM     37  C   UNL A   1      36.880  33.376  29.074  1.00  0.00     0.010 A 
ATOM     38  C   UNL A   1      35.308  31.696  29.841  1.00  0.00     0.010 A 
ATOM     39  C   UNL A   1      36.627  32.157  29.729  1.00  0.00    -0.014 A 
BRANCH  39  40
ATOM     40  C   UNL A   1      37.736  31.439  30.404  1.00  0.00     0.031 A 
ATOM     41  C   UNL A   1      38.510  30.355  29.714  1.00  0.00     0.074 A 
ATOM     42  C   UNL A   1      38.030  31.772  31.675  1.00  0.00     0.049 A 
ATOM     43  N   UNL A   1      39.555  29.700  30.147  1.00  0.00    -0.248 NA
ATOM     44  C   UNL A   1      38.058  29.949  28.374  1.00  0.00     0.031 C 
ATOM     45  C   UNL A   1      37.303  32.761  32.474  1.00  0.00     0.029 A 
ATOM     46  N   UNL A   1      39.010  31.316  32.521  1.00  0.00    -0.354 N 
ATOM     47  C   UNL A   1      39.885  28.798  29.144  1.00  0.00     0.074 A 
ATOM     48  C   UNL A   1      38.918  28.980  28.082  1.00  0.00     0.031 C 
ATOM     49  C   UNL A   1      37.869  32.849  33.687  1.00  0.00     0.029 A 
ATOM     50  C   UNL A   1      38.986  31.910  33.760  1.00  0.00     0.049 A 
ATOM     51  H   UNL A   1      39.667  30.630  32.265  1.00  0.00     0.167 HD
ATOM     52  C   UNL A   1      40.910  27.918  29.109  1.00  0.00     0.034 A 
ATOM     53  C   UNL A   1      39.771  31.723  34.839  1.00  0.00     0.034 A 
ATOM     54  C   UNL A   1      41.880  27.753  30.159  1.00  0.00     0.049 A 
ATOM     55  C   UNL A   1      40.913  30.754  34.764  1.00  0.00     0.074 A 
ATOM     56  C   UNL A   1      42.998  26.936  30.169  1.00  0.00     0.029 A 
ATOM     57  N   UNL A   1      41.843  28.395  31.386  1.00  0.00    -0.354 N 
ATOM     58  N   UNL A   1      41.296  30.018  33.749  1.00  0.00    -0.248 NA
ATOM     59  C   UNL A   1      41.748  30.607  35.965  1.00  0.00     0.031 C 
ATOM     60  C   UNL A   1      43.624  27.065  31.412  1.00  0.00     0.029 A 
ATOM     61  C   UNL A   1      42.909  27.982  32.166  1.00  0.00     0.049 A 
ATOM     62  H   UNL A   1      41.160  29.048  31.661  1.00  0.00     0.167 HD
ATOM     63  C   UNL A   1      42.426  29.334  34.181  1.00  0.00     0.074 A 
ATOM     64  C   UNL A   1      42.676  29.754  35.544  1.00  0.00     0.031 C 
ATOM     65  C   UNL A   1      43.175  28.431  33.507  1.00  0.00     0.034 A 
BRANCH  52  66
ATOM     66  C   UNL A   1      41.098  27.082  27.872  1.00  0.00     0.023 A 
ATOM     67  C   UNL A   1      41.765  27.641  26.765  1.00  0.00     0.012 A 
ATOM     68  C   UNL A   1      40.756  25.717  27.865  1.00  0.00     0.148 A 
ATOM     69  C   UNL A   1      42.093  26.849  25.665  1.00  0.00     0.002 A 
ATOM     70  C   UNL A   1      41.111  24.928  26.777  1.00  0.00     0.091 A 
ATOM     71  F   UNL A   1      40.118  25.214  28.931  1.00  0.00    -0.205 F 
ATOM     72  C   UNL A   1      41.777  25.492  25.677  1.00  0.00     0.022 A 
BRANCH  70  73
ATOM     73  S   UNL A   1      40.802  23.159  26.712  1.00  0.00     0.127 S 
ATOM     74  O   UNL A   1      39.366  23.122  26.437  1.00  0.00    -0.237 OA
ATOM     75  O   UNL A   1      41.649  22.742  25.596  1.00  0.00    -0.237 OA
ATOM     76  O   UNL A   1      41.192  22.632  28.013  1.00  0.00    -0.744 OA
ENDBRANCH  70  73
ENDBRANCH  52  66
BRANCH  53  77
ATOM     77  C   UNL A   1      39.515  32.524  36.066  1.00  0.00     0.023 A 
ATOM     78  C   UNL A   1      40.126  33.783  36.212  1.00  0.00     0.012 A 
ATOM     79  C   UNL A   1      38.609  32.074  37.044  1.00  0.00     0.148 A 
ATOM     80  C   UNL A   1      39.842  34.580  37.321  1.00  0.00     0.002 A 
ATOM     81  C   UNL A   1      38.302  32.889  38.125  1.00  0.00     0.091 A 
ATOM     82  F   UNL A   1      38.043  30.871  36.876  1.00  0.00    -0.205 F 
ATOM     83  C   UNL A   1      38.924  34.140  38.271  1.00  0.00     0.022 A 
BRANCH  81  84
ATOM     84  S   UNL A   1      37.060  32.451  39.346  1.00  0.00     0.127 S 
ATOM     85  O   UNL A   1      35.828  32.557  38.569  1.00  0.00    -0.237 OA
ATOM     86  O   UNL A   1      37.454  31.087  39.694  1.00  0.00    -0.237 OA
ATOM     87  O   UNL A   1      37.204  33.419  40.425  1.00  0.00    -0.744 OA
ENDBRANCH  81  84
ENDBRANCH  53  77
BRANCH  65  88
ATOM     88  C   UNL A   1      44.359  27.823  34.210  1.00  0.00     0.023 A 
ATOM     89  C   UNL A   1      45.590  28.506  34.208  1.00  0.00     0.012 A 
ATOM     90  C   UNL A   1      44.212  26.653  34.979  1.00  0.00     0.148 A 
ATOM     91  C   UNL A   1      46.662  28.029  34.960  1.00  0.00     0.002 A 
ATOM     92  C   UNL A   1      45.274  26.201  35.753  1.00  0.00     0.091 A 
ATOM     93  F   UNL A   1      43.030  26.020  34.958  1.00  0.00    -0.205 F 
ATOM     94  C   UNL A   1      46.501  26.885  35.741  1.00  0.00     0.022 A 
BRANCH  92  95
ATOM     95  S   UNL A   1      45.145  24.780  36.844  1.00  0.00     0.127 S 
ATOM     96  O   UNL A   1      44.637  23.754  35.936  1.00  0.00    -0.237 OA
ATOM     97  O   UNL A   1      46.532  24.589  37.267  1.00  0.00    -0.237 OA
ATOM     98  O   UNL A   1      44.231  25.168  37.909  1.00  0.00    -0.744 OA
ENDBRANCH  92  95
ENDBRANCH  65  88
ENDBRANCH  39  40
ENDBRANCH  32  34
ENDBRANCH  31  32
ENDBRANCH  30  31
ENDBRANCH   1  30
TORSDOF 21
ENDMDL
MODEL 2
REMARK VINA RESULT:     -10.9      1.831      2.378
REMARK SMILES CC(C)N(c1cc2c(cc1Cl)C=C(C(=O)OCCOCCOC(=O)c1ccc(-c3c4nc(c(-c5cccc(S(=O)(=O)[O-])c5F)c5ccc([nH]5)c(-c5cccc(S(=O)(=O)[O-])c5F)c5nc(c(-c6cccc(S(=O)(=O)[O-])c6F)c6ccc3[nH]6)C=C5)C=C4)cc1)[C@@H](C(F)(F)F)O2)C(C)C
REMARK SMILES IDX 20 1 19 2 18 3 17 4 16 5 14 6 15 7 13 8 5 9 6 10 10 11 7 12
REMARK SMILES IDX 9 13 11 14 8 15 93 16 12 17 88 18 4 19 2 20 1 21 3 22 94 23
REMARK SMILES IDX 95 24 96 25 89 26 90 27 91 28 92 29 21 30 22 31 23 32 24 33
REMARK SMILES IDX 25 34 26 35 87 36 27 37 86 38 28 39 29 40 30 41 80 42 31 43
REMARK SMILES IDX 85 44 79 45 81 46 32 47 84 48 78 49 77 50 33 52 65 53 45 54
REMARK SMILES IDX 64 55 46 56 49 57 63 58 82 59 47 60 48 61 62 63 83 64 50 65
REMARK SMILES IDX 34 66 35 67 43 68 36 69 38 70 44 71 37 72 39 73 40 74 41 75
REMARK SMILES IDX 42 76 66 77 67 78 75 79 68 80 70 81 76 82 69 83 71 84 72 85
REMARK SMILES IDX 73 86 74 87 51 88 52 89 60 90 53 91 55 92 61 93 54 94 56 95
REMARK SMILES IDX 57 96 58 97 59 98
REMARK H PARENT 81 51 49 62
REMARK Flexibility Score: inf
ROOT
ATOM      1  C   UNL A   1      31.743  33.154  26.820  1.00  0.00     0.202 C 
ENDROOT
BRANCH   1   2
ATOM      2  O   UNL A   1      31.561  31.740  26.788  1.00  0.00    -0.374 OA
BRANCH   2   3
ATOM      3  C   UNL A   1      32.708  30.905  26.929  1.00  0.00     0.202 C 
BRANCH   3   4
ATOM      4  C   UNL A   1      32.761  29.622  26.094  1.00  0.00     0.261 C 
BRANCH   4   5
ATOM      5  O   UNL A   1      31.494  28.951  26.045  1.00  0.00    -0.460 OA
BRANCH   5   6
ATOM      6  C   UNL A   1      31.127  28.547  24.806  1.00  0.00     0.338 C 
ATOM      7  O   UNL A   1      30.515  29.197  23.974  1.00  0.00    -0.246 OA
BRANCH   6   8
ATOM      8  C   UNL A   1      31.695  27.216  24.519  1.00  0.00     0.087 C 
ATOM      9  C   UNL A   1      33.949  22.748  25.166  1.00  0.00     0.060 A 
ATOM     10  C   UNL A   1      33.713  23.601  24.062  1.00  0.00     0.074 A 
ATOM     11  C   UNL A   1      33.320  23.105  26.383  1.00  0.00     0.065 A 
ATOM     12  C   UNL A   1      32.953  24.772  24.171  1.00  0.00     0.130 A 
ATOM     13  C   UNL A   1      32.525  24.253  26.481  1.00  0.00     0.034 A 
ATOM     14  Cl  UNL A   1      33.564  22.258  27.876  1.00  0.00    -0.082 Cl
ATOM     15  C   UNL A   1      32.369  25.101  25.388  1.00  0.00     0.019 A 
ATOM     16  O   UNL A   1      32.835  25.545  23.050  1.00  0.00    -0.475 OA
ATOM     17  C   UNL A   1      31.677  26.362  25.548  1.00  0.00     0.027 C 
ATOM     18  C   UNL A   1      32.292  26.897  23.175  1.00  0.00     0.316 C 
BRANCH   9  19
ATOM     19  N   UNL A   1      34.808  21.639  25.012  1.00  0.00    -0.365 N 
BRANCH  19  20
ATOM     20  C   UNL A   1      34.189  20.295  24.957  1.00  0.00     0.076 C 
ATOM     21  C   UNL A   1      32.992  20.231  24.010  1.00  0.00     0.030 C 
ATOM     22  C   UNL A   1      35.180  19.175  24.644  1.00  0.00     0.030 C 
ENDBRANCH  19  20
BRANCH  19  23
ATOM     23  C   UNL A   1      36.250  21.943  24.854  1.00  0.00     0.076 C 
ATOM     24  C   UNL A   1      36.602  22.451  23.457  1.00  0.00     0.030 C 
ATOM     25  C   UNL A   1      36.796  22.873  25.933  1.00  0.00     0.030 C 
ENDBRANCH  19  23
ENDBRANCH   9  19
BRANCH  18  26
ATOM     26  C   UNL A   1      33.377  27.908  22.766  1.00  0.00     0.430 C 
ATOM     27  F   UNL A   1      34.237  28.143  23.785  1.00  0.00    -0.167 F 
ATOM     28  F   UNL A   1      34.116  27.456  21.727  1.00  0.00    -0.167 F 
ATOM     29  F   UNL A   1      32.844  29.096  22.400  1.00  0.00    -0.167 F 
ENDBRANCH  18  26
ENDBRANCH   6   8
ENDBRANCH   5   6
ENDBRANCH   4   5
ENDBRANCH   3   4
ENDBRANCH   2   3
ENDBRANCH   1   2
BRANCH   1  30
ATOM     30  C   UNL A   1      32.907  33.727  27.641  1.00  0.00     0.261 C 
BRANCH  30  31
ATOM     31  O   UNL A   1      32.470  34.565  28.723  1.00  0.00    -0.460 OA
BRANCH  31  32
ATOM     32  C   UNL A   1      33.427  35.377  29.242  1.00  0.00     0.338 C 
ATOM     33  O   UNL A   1      33.366  36.587  29.386  1.00  0.00    -0.246 OA
BRANCH  32  34
ATOM     34  C   UNL A   1      34.503  34.541  29.808  1.00  0.00     0.060 A 
ATOM     35  C   UNL A   1      35.800  34.606  29.300  1.00  0.00     0.016 A 
ATOM     36  C   UNL A   1      34.198  33.694  30.882  1.00  0.00     0.016 A 
ATOM     37  C   UNL A   1      36.800  33.825  29.883  1.00  0.00     0.010 A 
ATOM     38  C   UNL A   1      35.200  32.915  31.461  1.00  0.00     0.010 A 
ATOM     39  C   UNL A   1      36.512  32.985  30.974  1.00  0.00    -0.014 A 
BRANCH  39  40
ATOM     40  C   UNL A   1      37.615  32.284  31.676  1.00  0.00     0.031 A 
ATOM     41  C   UNL A   1      38.336  31.125  31.054  1.00  0.00     0.074 A 
ATOM     42  C   UNL A   1      37.952  32.703  32.911  1.00  0.00     0.049 A 
ATOM     43  N   UNL A   1      39.370  30.470  31.512  1.00  0.00    -0.248 NA
ATOM     44  C   UNL A   1      37.837  30.633  29.760  1.00  0.00     0.031 C 
ATOM     45  C   UNL A   1      37.277  33.774  33.647  1.00  0.00     0.029 A 
ATOM     46  N   UNL A   1      38.939  32.281  33.765  1.00  0.00    -0.354 N 
ATOM     47  C   UNL A   1      39.646  29.484  30.574  1.00  0.00     0.074 A 
ATOM     48  C   UNL A   1      38.658  29.616  29.524  1.00  0.00     0.031 C 
ATOM     49  C   UNL A   1      37.877  33.935  34.836  1.00  0.00     0.029 A 
ATOM     50  C   UNL A   1      38.965  32.968  34.955  1.00  0.00     0.049 A 
ATOM     51  H   UNL A   1      39.567  31.555  33.548  1.00  0.00     0.167 HD
ATOM     52  C   UNL A   1      40.642  28.569  30.583  1.00  0.00     0.034 A 
ATOM     53  C   UNL A   1      39.771  32.838  36.027  1.00  0.00     0.034 A 
ATOM     54  C   UNL A   1      41.633  28.453  31.620  1.00  0.00     0.049 A 
ATOM     55  C   UNL A   1      40.880  31.828  36.000  1.00  0.00     0.074 A 
ATOM     56  C   UNL A   1      42.724  27.603  31.667  1.00  0.00     0.029 A 
ATOM     57  N   UNL A   1      41.648  29.188  32.794  1.00  0.00    -0.354 N 
ATOM     58  N   UNL A   1      41.214  31.004  35.037  1.00  0.00    -0.248 NA
ATOM     59  C   UNL A   1      41.741  31.746  37.189  1.00  0.00     0.031 C 
ATOM     60  C   UNL A   1      43.385  27.805  32.882  1.00  0.00     0.029 A 
ATOM     61  C   UNL A   1      42.720  28.800  33.578  1.00  0.00     0.049 A 
ATOM     62  H   UNL A   1      40.993  29.883  33.034  1.00  0.00     0.167 HD
ATOM     63  C   UNL A   1      42.332  30.318  35.494  1.00  0.00     0.074 A 
ATOM     64  C   UNL A   1      42.630  30.832  36.814  1.00  0.00     0.031 C 
ATOM     65  C   UNL A   1      43.035  29.341  34.874  1.00  0.00     0.034 A 
BRANCH  52  66
ATOM     66  C   UNL A   1      40.771  27.636  29.411  1.00  0.00     0.023 A 
ATOM     67  C   UNL A   1      39.924  26.513  29.335  1.00  0.00     0.012 A 
ATOM     68  C   UNL A   1      41.610  27.952  28.326  1.00  0.00     0.148 A 
ATOM     69  C   UNL A   1      39.908  25.717  28.190  1.00  0.00     0.002 A 
ATOM     70  C   UNL A   1      41.569  27.169  27.178  1.00  0.00     0.091 A 
ATOM     71  F   UNL A   1      42.408  29.023  28.428  1.00  0.00    -0.205 F 
ATOM     72  C   UNL A   1      40.720  26.052  27.109  1.00  0.00     0.022 A 
BRANCH  70  73
ATOM     73  S   UNL A   1      42.533  27.542  25.708  1.00  0.00     0.127 S 
ATOM     74  O   UNL A   1      42.078  28.896  25.395  1.00  0.00    -0.237 OA
ATOM     75  O   UNL A   1      43.903  27.458  26.212  1.00  0.00    -0.237 OA
ATOM     76  O   UNL A   1      42.176  26.530  24.723  1.00  0.00    -0.744 OA
ENDBRANCH  70  73
ENDBRANCH  52  66
BRANCH  53  77
ATOM     77  C   UNL A   1      39.573  33.739  37.194  1.00  0.00     0.023 A 
ATOM     78  C   UNL A   1      40.002  35.077  37.118  1.00  0.00     0.012 A 
ATOM     79  C   UNL A   1      38.892  33.291  38.341  1.00  0.00     0.148 A 
ATOM     80  C   UNL A   1      39.760  35.955  38.174  1.00  0.00     0.002 A 
ATOM     81  C   UNL A   1      38.620  34.181  39.371  1.00  0.00     0.091 A 
ATOM     82  F   UNL A   1      38.496  32.012  38.383  1.00  0.00    -0.205 F 
ATOM     83  C   UNL A   1      39.062  35.512  39.295  1.00  0.00     0.022 A 
BRANCH  81  84
ATOM     84  S   UNL A   1      37.643  33.730  40.809  1.00  0.00     0.127 S 
ATOM     85  O   UNL A   1      38.529  32.787  41.487  1.00  0.00    -0.237 OA
ATOM     86  O   UNL A   1      37.488  35.021  41.478  1.00  0.00    -0.237 OA
ATOM     87  O   UNL A   1      36.407  33.163  40.288  1.00  0.00    -0.744 OA
ENDBRANCH  81  84
ENDBRANCH  53  77
BRANCH  65  88
ATOM     88  C   UNL A   1      44.216  28.750  35.594  1.00  0.00     0.023 A 
ATOM     89  C   UNL A   1      45.493  29.314  35.409  1.00  0.00     0.012 A 
ATOM     90  C   UNL A   1      44.037  27.731  36.549  1.00  0.00     0.148 A 
ATOM     91  C   UNL A   1      46.577  28.868  36.162  1.00  0.00     0.002 A 
ATOM     92  C   UNL A   1      45.115  27.315  37.321  1.00  0.00     0.091 A 
ATOM     93  F   UNL A   1      42.812  27.208  36.701  1.00  0.00    -0.205 F 
ATOM     94  C   UNL A   1      46.386  27.879  37.126  1.00  0.00     0.022 A 
BRANCH  92  95
ATOM     95  S   UNL A   1      44.957  26.098  38.633  1.00  0.00     0.127 S 
ATOM     96  O   UNL A   1      46.332  26.002  39.118  1.00  0.00    -0.237 OA
ATOM     97  O   UNL A   1      44.029  26.755  39.553  1.00  0.00    -0.237 OA
ATOM     98  O   UNL A   1      44.439  24.890  38.006  1.00  0.00    -0.744 OA
ENDBRANCH  92  95
ENDBRANCH  65  88
ENDBRANCH  39  40
ENDBRANCH  32  34
ENDBRANCH  31  32
ENDBRANCH  30  31
ENDBRANCH   1  30
TORSDOF 21
ENDMDL
MODEL 3
REMARK VINA RESULT:     -10.8      1.924      7.717
REMARK SMILES CC(C)N(c1cc2c(cc1Cl)C=C(C(=O)OCCOCCOC(=O)c1ccc(-c3c4nc(c(-c5cccc(S(=O)(=O)[O-])c5F)c5ccc([nH]5)c(-c5cccc(S(=O)(=O)[O-])c5F)c5nc(c(-c6cccc(S(=O)(=O)[O-])c6F)c6ccc3[nH]6)C=C5)C=C4)cc1)[C@@H](C(F)(F)F)O2)C(C)C
REMARK SMILES IDX 20 1 19 2 18 3 17 4 16 5 14 6 15 7 13 8 5 9 6 10 10 11 7 12
REMARK SMILES IDX 9 13 11 14 8 15 93 16 12 17 88 18 4 19 2 20 1 21 3 22 94 23
REMARK SMILES IDX 95 24 96 25 89 26 90 27 91 28 92 29 21 30 22 31 23 32 24 33
REMARK SMILES IDX 25 34 26 35 87 36 27 37 86 38 28 39 29 40 30 41 80 42 31 43
REMARK SMILES IDX 85 44 79 45 81 46 32 47 84 48 78 49 77 50 33 52 65 53 45 54
REMARK SMILES IDX 64 55 46 56 49 57 63 58 82 59 47 60 48 61 62 63 83 64 50 65
REMARK SMILES IDX 34 66 35 67 43 68 36 69 38 70 44 71 37 72 39 73 40 74 41 75
REMARK SMILES IDX 42 76 66 77 67 78 75 79 68 80 70 81 76 82 69 83 71 84 72 85
REMARK SMILES IDX 73 86 74 87 51 88 52 89 60 90 53 91 55 92 61 93 54 94 56 95
REMARK SMILES IDX 57 96 58 97 59 98
REMARK H PARENT 81 51 49 62
REMARK Flexibility Score: inf
ROOT
ATOM      1  C   UNL A   1      31.431  31.074  26.537  1.00  0.00     0.202 C 
ENDROOT
BRANCH   1   2
ATOM      2  O   UNL A   1      31.989  30.297  25.480  1.00  0.00    -0.374 OA
BRANCH   2   3
ATOM      3  C   UNL A   1      31.818  28.882  25.515  1.00  0.00     0.202 C 
BRANCH   3   4
ATOM      4  C   UNL A   1      32.987  28.035  26.028  1.00  0.00     0.261 C 
BRANCH   4   5
ATOM      5  O   UNL A   1      32.715  26.628  25.951  1.00  0.00    -0.460 OA
BRANCH   5   6
ATOM      6  C   UNL A   1      33.254  26.016  24.871  1.00  0.00     0.338 C 
ATOM      7  O   UNL A   1      33.934  26.534  23.999  1.00  0.00    -0.246 OA
BRANCH   6   8
ATOM      8  C   UNL A   1      33.028  24.560  24.948  1.00  0.00     0.087 C 
ATOM      9  C   UNL A   1      33.831  19.586  24.682  1.00  0.00     0.060 A 
ATOM     10  C   UNL A   1      32.686  20.417  24.688  1.00  0.00     0.074 A 
ATOM     11  C   UNL A   1      35.071  20.218  24.939  1.00  0.00     0.065 A 
ATOM     12  C   UNL A   1      32.770  21.803  24.873  1.00  0.00     0.130 A 
ATOM     13  C   UNL A   1      35.149  21.598  25.167  1.00  0.00     0.034 A 
ATOM     14  Cl  UNL A   1      36.599  19.404  24.872  1.00  0.00    -0.082 Cl
ATOM     15  C   UNL A   1      34.007  22.392  25.101  1.00  0.00     0.019 A 
ATOM     16  O   UNL A   1      31.602  22.512  24.808  1.00  0.00    -0.475 OA
ATOM     17  C   UNL A   1      34.126  23.832  25.181  1.00  0.00     0.027 C 
ATOM     18  C   UNL A   1      31.663  23.970  24.721  1.00  0.00     0.316 C 
BRANCH   9  19
ATOM     19  N   UNL A   1      33.687  18.213  24.388  1.00  0.00    -0.365 N 
BRANCH  19  20
ATOM     20  C   UNL A   1      33.538  17.280  25.528  1.00  0.00     0.076 C 
ATOM     21  C   UNL A   1      32.155  16.637  25.592  1.00  0.00     0.030 C 
ATOM     22  C   UNL A   1      34.629  16.212  25.593  1.00  0.00     0.030 C 
ENDBRANCH  19  20
BRANCH  19  23
ATOM     23  C   UNL A   1      33.633  17.852  22.951  1.00  0.00     0.076 C 
ATOM     24  C   UNL A   1      34.263  16.493  22.654  1.00  0.00     0.030 C 
ATOM     25  C   UNL A   1      32.234  17.955  22.352  1.00  0.00     0.030 C 
ENDBRANCH  19  23
ENDBRANCH   9  19
BRANCH  18  26
ATOM     26  C   UNL A   1      31.054  24.413  23.380  1.00  0.00     0.430 C 
ATOM     27  F   UNL A   1      30.052  23.585  22.999  1.00  0.00    -0.167 F 
ATOM     28  F   UNL A   1      30.526  25.656  23.456  1.00  0.00    -0.167 F 
ATOM     29  F   UNL A   1      31.974  24.421  22.389  1.00  0.00    -0.167 F 
ENDBRANCH  18  26
ENDBRANCH   6   8
ENDBRANCH   5   6
ENDBRANCH   4   5
ENDBRANCH   3   4
ENDBRANCH   2   3
ENDBRANCH   1   2
BRANCH   1  30
ATOM     30  C   UNL A   1      31.997  32.478  26.794  1.00  0.00     0.261 C 
BRANCH  30  31
ATOM     31  O   UNL A   1      32.828  32.542  27.964  1.00  0.00    -0.460 OA
BRANCH  31  32
ATOM     32  C   UNL A   1      33.874  33.403  27.878  1.00  0.00     0.338 C 
ATOM     33  O   UNL A   1      33.829  34.591  27.604  1.00  0.00    -0.246 OA
BRANCH  32  34
ATOM     34  C   UNL A   1      35.089  32.726  28.371  1.00  0.00     0.060 A 
ATOM     35  C   UNL A   1      36.342  33.326  28.247  1.00  0.00     0.016 A 
ATOM     36  C   UNL A   1      34.954  31.474  28.986  1.00  0.00     0.016 A 
ATOM     37  C   UNL A   1      37.465  32.671  28.756  1.00  0.00     0.010 A 
ATOM     38  C   UNL A   1      36.079  30.822  29.493  1.00  0.00     0.010 A 
ATOM     39  C   UNL A   1      37.342  31.422  29.393  1.00  0.00    -0.014 A 
BRANCH  39  40
ATOM     40  C   UNL A   1      38.519  30.816  30.062  1.00  0.00     0.031 A 
ATOM     41  C   UNL A   1      38.923  31.206  31.453  1.00  0.00     0.074 A 
ATOM     42  C   UNL A   1      39.242  29.908  29.380  1.00  0.00     0.049 A 
ATOM     43  N   UNL A   1      39.875  30.703  32.195  1.00  0.00    -0.248 NA
ATOM     44  C   UNL A   1      38.171  32.295  32.096  1.00  0.00     0.031 C 
ATOM     45  C   UNL A   1      38.988  29.500  27.996  1.00  0.00     0.029 A 
ATOM     46  N   UNL A   1      40.335  29.166  29.751  1.00  0.00    -0.354 N 
ATOM     47  C   UNL A   1      39.849  31.414  33.387  1.00  0.00     0.074 A 
ATOM     48  C   UNL A   1      38.793  32.398  33.266  1.00  0.00     0.031 C 
ATOM     49  C   UNL A   1      39.890  28.573  27.639  1.00  0.00     0.029 A 
ATOM     50  C   UNL A   1      40.796  28.334  28.759  1.00  0.00     0.049 A 
ATOM     51  H   UNL A   1      40.749  29.225  30.642  1.00  0.00     0.167 HD
ATOM     52  C   UNL A   1      40.622  31.246  34.484  1.00  0.00     0.034 A 
ATOM     53  C   UNL A   1      41.832  27.473  28.746  1.00  0.00     0.034 A 
ATOM     54  C   UNL A   1      41.658  30.255  34.607  1.00  0.00     0.049 A 
ATOM     55  C   UNL A   1      42.660  27.294  29.984  1.00  0.00     0.074 A 
ATOM     56  C   UNL A   1      42.437  29.967  35.714  1.00  0.00     0.029 A 
ATOM     57  N   UNL A   1      42.075  29.408  33.594  1.00  0.00    -0.354 N 
ATOM     58  N   UNL A   1      42.523  27.873  31.152  1.00  0.00    -0.248 NA
ATOM     59  C   UNL A   1      43.765  26.325  29.918  1.00  0.00     0.031 C 
ATOM     60  C   UNL A   1      43.342  28.962  35.364  1.00  0.00     0.029 A 
ATOM     61  C   UNL A   1      43.109  28.607  34.045  1.00  0.00     0.049 A 
ATOM     62  H   UNL A   1      41.692  29.380  32.687  1.00  0.00     0.167 HD
ATOM     63  C   UNL A   1      43.510  27.329  31.964  1.00  0.00     0.074 A 
ATOM     64  C   UNL A   1      44.229  26.362  31.162  1.00  0.00     0.031 C 
ATOM     65  C   UNL A   1      43.796  27.620  33.255  1.00  0.00     0.034 A 
BRANCH  52  66
ATOM     66  C   UNL A   1      40.359  32.109  35.687  1.00  0.00     0.023 A 
ATOM     67  C   UNL A   1      41.091  33.302  35.845  1.00  0.00     0.012 A 
ATOM     68  C   UNL A   1      39.296  31.821  36.563  1.00  0.00     0.148 A 
ATOM     69  C   UNL A   1      40.766  34.201  36.861  1.00  0.00     0.002 A 
ATOM     70  C   UNL A   1      38.960  32.734  37.556  1.00  0.00     0.091 A 
ATOM     71  F   UNL A   1      38.621  30.677  36.392  1.00  0.00    -0.205 F 
ATOM     72  C   UNL A   1      39.695  33.923  37.707  1.00  0.00     0.022 A 
BRANCH  70  73
ATOM     73  S   UNL A   1      37.566  32.502  38.665  1.00  0.00     0.127 S 
ATOM     74  O   UNL A   1      37.613  31.059  38.897  1.00  0.00    -0.237 OA
ATOM     75  O   UNL A   1      37.950  33.319  39.815  1.00  0.00    -0.237 OA
ATOM     76  O   UNL A   1      36.392  32.970  37.941  1.00  0.00    -0.744 OA
ENDBRANCH  70  73
ENDBRANCH  52  66
BRANCH  53  77
ATOM     77  C   UNL A   1      42.099  26.682  27.516  1.00  0.00     0.023 A 
ATOM     78  C   UNL A   1      42.697  27.305  26.406  1.00  0.00     0.012 A 
ATOM     79  C   UNL A   1      41.833  25.300  27.477  1.00  0.00     0.148 A 
ATOM     80  C   UNL A   1      43.020  26.563  25.269  1.00  0.00     0.002 A 
ATOM     81  C   UNL A   1      42.193  24.561  26.359  1.00  0.00     0.091 A 
ATOM     82  F   UNL A   1      41.263  24.735  28.551  1.00  0.00    -0.205 F 
ATOM     83  C   UNL A   1      42.779  25.191  25.249  1.00  0.00     0.022 A 
BRANCH  81  84
ATOM     84  S   UNL A   1      42.013  22.776  26.278  1.00  0.00     0.127 S 
ATOM     85  O   UNL A   1      42.761  22.347  27.457  1.00  0.00    -0.237 OA
ATOM     86  O   UNL A   1      40.562  22.620  26.378  1.00  0.00    -0.237 OA
ATOM     87  O   UNL A   1      42.580  22.376  24.998  1.00  0.00    -0.744 OA
ENDBRANCH  81  84
ENDBRANCH  53  77
BRANCH  65  88
ATOM     88  C   UNL A   1      44.932  26.885  33.914  1.00  0.00     0.023 A 
ATOM     89  C   UNL A   1      46.181  27.520  34.049  1.00  0.00     0.012 A 
ATOM     90  C   UNL A   1      44.720  25.630  34.516  1.00  0.00     0.148 A 
ATOM     91  C   UNL A   1      47.207  26.912  34.770  1.00  0.00     0.002 A 
ATOM     92  C   UNL A   1      45.736  25.045  35.262  1.00  0.00     0.091 A 
ATOM     93  F   UNL A   1      43.522  25.045  34.367  1.00  0.00    -0.205 F 
ATOM     94  C   UNL A   1      46.981  25.683  35.387  1.00  0.00     0.022 A 
BRANCH  92  95
ATOM     95  S   UNL A   1      45.520  23.498  36.150  1.00  0.00     0.127 S 
ATOM     96  O   UNL A   1      45.312  22.553  35.054  1.00  0.00    -0.237 OA
ATOM     97  O   UNL A   1      46.802  23.358  36.841  1.00  0.00    -0.237 OA
ATOM     98  O   UNL A   1      44.373  23.689  37.026  1.00  0.00    -0.744 OA
ENDBRANCH  92  95
ENDBRANCH  65  88
ENDBRANCH  39  40
ENDBRANCH  32  34
ENDBRANCH  31  32
ENDBRANCH  30  31
ENDBRANCH   1  30
TORSDOF 21
ENDMDL
