MODEL 1
REMARK VINA RESULT:     -10.4      0.000      0.000
REMARK SMILES CC(C)COc1ccc(CC(=O)OCCOCCOC(=O)c2ccc(-c3c4nc(c(-c5cccc(S(=O)(=O)[O-])c5F)c5ccc([nH]5)c(-c5cccc(S(=O)(=O)[O-])c5F)c5nc(c(-c6cccc(S(=O)(=O)[O-])c6F)c6ccc3[nH]6)C=C5)C=C4)cc2)cc1
REMARK SMILES IDX 15 1 14 2 13 3 11 4 12 5 10 6 9 7 6 8 7 9 86 10 8 11 85 12
REMARK SMILES IDX 5 13 4 14 2 15 1 16 3 17 16 18 17 19 18 20 19 21 20 22 21 23
REMARK SMILES IDX 22 24 23 25 84 26 24 27 83 28 25 29 26 30 27 31 77 32 28 33
REMARK SMILES IDX 82 34 76 35 78 36 29 37 81 38 75 39 74 40 30 42 62 43 42 44
REMARK SMILES IDX 61 45 43 46 46 47 60 48 79 49 44 50 45 51 59 53 80 54 47 55
REMARK SMILES IDX 31 56 32 57 40 58 33 59 35 60 41 61 34 62 36 63 37 64 38 65
REMARK SMILES IDX 39 66 63 67 64 68 72 69 65 70 67 71 73 72 66 73 68 74 69 75
REMARK SMILES IDX 70 76 71 77 48 78 49 79 57 80 50 81 52 82 58 83 51 84 53 85
REMARK SMILES IDX 54 86 55 87 56 88
REMARK H PARENT 78 41 46 52
REMARK Flexibility Score: inf
ROOT
ATOM      1  C   UNL A   1      34.755  21.955  26.654  1.00  0.00     0.202 C 
ENDROOT
BRANCH   1   2
ATOM      2  C   UNL A   1      33.235  21.765  26.624  1.00  0.00     0.261 C 
BRANCH   2   3
ATOM      3  O   UNL A   1      32.583  22.749  25.808  1.00  0.00    -0.463 OA
BRANCH   3   4
ATOM      4  C   UNL A   1      32.027  23.798  26.463  1.00  0.00     0.310 C 
ATOM      5  O   UNL A   1      31.237  23.699  27.399  1.00  0.00    -0.252 OA
BRANCH   4   6
ATOM      6  C   UNL A   1      32.468  25.148  25.947  1.00  0.00     0.158 C 
BRANCH   6   7
ATOM      7  C   UNL A   1      31.564  25.891  24.986  1.00  0.00    -0.037 A 
ATOM      8  C   UNL A   1      29.799  27.449  23.476  1.00  0.00     0.119 A 
ATOM      9  C   UNL A   1      31.143  27.802  23.534  1.00  0.00     0.047 A 
ATOM     10  C   UNL A   1      29.354  26.268  24.060  1.00  0.00     0.047 A 
ATOM     11  C   UNL A   1      32.026  27.021  24.288  1.00  0.00     0.008 A 
ATOM     12  C   UNL A   1      30.223  25.511  24.842  1.00  0.00     0.008 A 
BRANCH   8  13
ATOM     13  O   UNL A   1      28.888  28.228  22.823  1.00  0.00    -0.493 OA
BRANCH  13  14
ATOM     14  C   UNL A   1      29.177  29.633  22.945  1.00  0.00     0.232 C 
BRANCH  14  15
ATOM     15  C   UNL A   1      27.990  30.541  22.546  1.00  0.00     0.020 C 
ATOM     16  C   UNL A   1      27.548  31.465  23.690  1.00  0.00     0.011 C 
ATOM     17  C   UNL A   1      28.361  31.416  21.345  1.00  0.00     0.011 C 
ENDBRANCH  14  15
ENDBRANCH  13  14
ENDBRANCH   8  13
ENDBRANCH   6   7
ENDBRANCH   4   6
ENDBRANCH   3   4
ENDBRANCH   2   3
ENDBRANCH   1   2
BRANCH   1  18
ATOM     18  O   UNL A   1      35.461  21.838  25.418  1.00  0.00    -0.374 OA
BRANCH  18  19
ATOM     19  C   UNL A   1      35.860  20.534  24.999  1.00  0.00     0.202 C 
BRANCH  19  20
ATOM     20  C   UNL A   1      37.356  20.193  25.010  1.00  0.00     0.261 C 
BRANCH  20  21
ATOM     21  O   UNL A   1      38.205  21.338  25.172  1.00  0.00    -0.460 OA
BRANCH  21  22
ATOM     22  C   UNL A   1      39.252  21.147  26.013  1.00  0.00     0.338 C 
ATOM     23  O   UNL A   1      39.881  20.117  26.186  1.00  0.00    -0.246 OA
BRANCH  22  24
ATOM     24  C   UNL A   1      39.678  22.435  26.590  1.00  0.00     0.060 A 
ATOM     25  C   UNL A   1      39.024  23.590  26.141  1.00  0.00     0.016 A 
ATOM     26  C   UNL A   1      40.741  22.523  27.491  1.00  0.00     0.016 A 
ATOM     27  C   UNL A   1      39.463  24.844  26.554  1.00  0.00     0.010 A 
ATOM     28  C   UNL A   1      41.185  23.785  27.898  1.00  0.00     0.010 A 
ATOM     29  C   UNL A   1      40.570  24.951  27.405  1.00  0.00    -0.014 A 
BRANCH  29  30
ATOM     30  C   UNL A   1      41.151  26.286  27.688  1.00  0.00     0.031 A 
ATOM     31  C   UNL A   1      42.525  26.613  27.175  1.00  0.00     0.074 A 
ATOM     32  C   UNL A   1      40.455  27.194  28.395  1.00  0.00     0.049 A 
ATOM     33  N   UNL A   1      43.229  27.704  27.332  1.00  0.00    -0.248 NA
ATOM     34  C   UNL A   1      43.200  25.573  26.381  1.00  0.00     0.031 C 
ATOM     35  C   UNL A   1      39.115  26.989  28.942  1.00  0.00     0.029 A 
ATOM     36  N   UNL A   1      40.793  28.461  28.798  1.00  0.00    -0.354 N 
ATOM     37  C   UNL A   1      44.438  27.472  26.688  1.00  0.00     0.074 A 
ATOM     38  C   UNL A   1      44.377  26.133  26.143  1.00  0.00     0.031 C 
ATOM     39  C   UNL A   1      38.756  28.081  29.638  1.00  0.00     0.029 A 
ATOM     40  C   UNL A   1      39.850  29.049  29.609  1.00  0.00     0.049 A 
ATOM     41  H   UNL A   1      41.631  28.907  28.532  1.00  0.00     0.167 HD
ATOM     42  C   UNL A   1      45.499  28.303  26.553  1.00  0.00     0.034 A 
ATOM     43  C   UNL A   1      39.881  30.220  30.276  1.00  0.00     0.034 A 
ATOM     44  C   UNL A   1      45.544  29.641  27.081  1.00  0.00     0.049 A 
ATOM     45  C   UNL A   1      41.082  31.118  30.126  1.00  0.00     0.074 A 
ATOM     46  C   UNL A   1      46.547  30.585  26.945  1.00  0.00     0.029 A 
ATOM     47  N   UNL A   1      44.554  30.219  27.860  1.00  0.00    -0.354 N 
ATOM     48  N   UNL A   1      42.164  30.937  29.406  1.00  0.00    -0.248 NA
ATOM     49  C   UNL A   1      41.056  32.394  30.855  1.00  0.00     0.031 C 
ATOM     50  C   UNL A   1      46.180  31.719  27.675  1.00  0.00     0.029 A 
ATOM     51  C   UNL A   1      44.930  31.498  28.232  1.00  0.00     0.049 A 
ATOM     52  H   UNL A   1      43.707  29.784  28.111  1.00  0.00     0.167 HD
ATOM     53  C   UNL A   1      42.929  32.088  29.569  1.00  0.00     0.074 A 
ATOM     54  C   UNL A   1      42.176  32.968  30.438  1.00  0.00     0.031 C 
ATOM     55  C   UNL A   1      44.148  32.383  29.057  1.00  0.00     0.034 A 
BRANCH  42  56
ATOM     56  C   UNL A   1      46.696  27.801  25.790  1.00  0.00     0.023 A 
ATOM     57  C   UNL A   1      46.743  27.941  24.389  1.00  0.00     0.012 A 
ATOM     58  C   UNL A   1      47.804  27.257  26.469  1.00  0.00     0.148 A 
ATOM     59  C   UNL A   1      47.863  27.520  23.671  1.00  0.00     0.002 A 
ATOM     60  C   UNL A   1      48.934  26.880  25.752  1.00  0.00     0.091 A 
ATOM     61  F   UNL A   1      47.731  27.114  27.800  1.00  0.00    -0.205 F 
ATOM     62  C   UNL A   1      48.961  27.002  24.353  1.00  0.00     0.022 A 
BRANCH  60  63
ATOM     63  S   UNL A   1      50.429  26.276  26.544  1.00  0.00     0.127 S 
ATOM     64  O   UNL A   1      51.002  27.513  27.075  1.00  0.00    -0.237 OA
ATOM     65  O   UNL A   1      49.894  25.368  27.558  1.00  0.00    -0.237 OA
ATOM     66  O   UNL A   1      51.207  25.630  25.496  1.00  0.00    -0.744 OA
ENDBRANCH  60  63
ENDBRANCH  42  56
BRANCH  43  67
ATOM     67  C   UNL A   1      38.730  30.621  31.133  1.00  0.00     0.023 A 
ATOM     68  C   UNL A   1      38.755  30.339  32.513  1.00  0.00     0.012 A 
ATOM     69  C   UNL A   1      37.617  31.290  30.588  1.00  0.00     0.148 A 
ATOM     70  C   UNL A   1      37.676  30.688  33.328  1.00  0.00     0.002 A 
ATOM     71  C   UNL A   1      36.573  31.687  31.415  1.00  0.00     0.091 A 
ATOM     72  F   UNL A   1      37.604  31.534  29.270  1.00  0.00    -0.205 F 
ATOM     73  C   UNL A   1      36.592  31.370  32.783  1.00  0.00     0.022 A 
BRANCH  71  74
ATOM     74  S   UNL A   1      35.202  32.685  30.823  1.00  0.00     0.127 S 
ATOM     75  O   UNL A   1      34.328  32.718  31.994  1.00  0.00    -0.237 OA
ATOM     76  O   UNL A   1      35.864  33.952  30.511  1.00  0.00    -0.237 OA
ATOM     77  O   UNL A   1      34.677  31.981  29.660  1.00  0.00    -0.744 OA
ENDBRANCH  71  74
ENDBRANCH  43  67
BRANCH  55  78
ATOM     78  C   UNL A   1      44.742  33.728  29.387  1.00  0.00     0.023 A 
ATOM     79  C   UNL A   1      45.518  33.885  30.553  1.00  0.00     0.012 A 
ATOM     80  C   UNL A   1      44.600  34.813  28.499  1.00  0.00     0.148 A 
ATOM     81  C   UNL A   1      46.118  35.110  30.844  1.00  0.00     0.002 A 
ATOM     82  C   UNL A   1      45.242  36.015  28.770  1.00  0.00     0.091 A 
ATOM     83  F   UNL A   1      43.844  34.647  27.404  1.00  0.00    -0.205 F 
ATOM     84  C   UNL A   1      45.991  36.170  29.947  1.00  0.00     0.022 A 
BRANCH  82  85
ATOM     85  S   UNL A   1      45.217  37.402  27.628  1.00  0.00     0.127 S 
ATOM     86  O   UNL A   1      45.963  38.414  28.375  1.00  0.00    -0.237 OA
ATOM     87  O   UNL A   1      45.922  36.858  26.467  1.00  0.00    -0.237 OA
ATOM     88  O   UNL A   1      43.812  37.708  27.395  1.00  0.00    -0.744 OA
ENDBRANCH  82  85
ENDBRANCH  55  78
ENDBRANCH  29  30
ENDBRANCH  22  24
ENDBRANCH  21  22
ENDBRANCH  20  21
ENDBRANCH  19  20
ENDBRANCH  18  19
ENDBRANCH   1  18
TORSDOF 21
ENDMDL
MODEL 2
REMARK VINA RESULT:     -10.2      2.180      4.079
REMARK SMILES CC(C)COc1ccc(CC(=O)OCCOCCOC(=O)c2ccc(-c3c4nc(c(-c5cccc(S(=O)(=O)[O-])c5F)c5ccc([nH]5)c(-c5cccc(S(=O)(=O)[O-])c5F)c5nc(c(-c6cccc(S(=O)(=O)[O-])c6F)c6ccc3[nH]6)C=C5)C=C4)cc2)cc1
REMARK SMILES IDX 15 1 14 2 13 3 11 4 12 5 10 6 9 7 6 8 7 9 86 10 8 11 85 12
REMARK SMILES IDX 5 13 4 14 2 15 1 16 3 17 16 18 17 19 18 20 19 21 20 22 21 23
REMARK SMILES IDX 22 24 23 25 84 26 24 27 83 28 25 29 26 30 27 31 77 32 28 33
REMARK SMILES IDX 82 34 76 35 78 36 29 37 81 38 75 39 74 40 30 42 62 43 42 44
REMARK SMILES IDX 61 45 43 46 46 47 60 48 79 49 44 50 45 51 59 53 80 54 47 55
REMARK SMILES IDX 31 56 32 57 40 58 33 59 35 60 41 61 34 62 36 63 37 64 38 65
REMARK SMILES IDX 39 66 63 67 64 68 72 69 65 70 67 71 73 72 66 73 68 74 69 75
REMARK SMILES IDX 70 76 71 77 48 78 49 79 57 80 50 81 52 82 58 83 51 84 53 85
REMARK SMILES IDX 54 86 55 87 56 88
REMARK H PARENT 78 41 46 52
REMARK Flexibility Score: inf
ROOT
ATOM      1  C   UNL A   1      35.020  24.086  25.381  1.00  0.00     0.202 C 
ENDROOT
BRANCH   1   2
ATOM      2  C   UNL A   1      34.397  24.906  24.247  1.00  0.00     0.261 C 
BRANCH   2   3
ATOM      3  O   UNL A   1      33.127  25.462  24.617  1.00  0.00    -0.463 OA
BRANCH   3   4
ATOM      4  C   UNL A   1      32.294  25.786  23.596  1.00  0.00     0.310 C 
ATOM      5  O   UNL A   1      32.318  26.852  22.985  1.00  0.00    -0.252 OA
BRANCH   4   6
ATOM      6  C   UNL A   1      31.303  24.701  23.245  1.00  0.00     0.158 C 
BRANCH   6   7
ATOM      7  C   UNL A   1      31.533  23.303  23.780  1.00  0.00    -0.037 A 
ATOM      8  C   UNL A   1      32.263  20.831  24.866  1.00  0.00     0.119 A 
ATOM      9  C   UNL A   1      31.534  21.729  25.639  1.00  0.00     0.047 A 
ATOM     10  C   UNL A   1      32.522  21.103  23.527  1.00  0.00     0.047 A 
ATOM     11  C   UNL A   1      31.168  22.965  25.095  1.00  0.00     0.008 A 
ATOM     12  C   UNL A   1      32.192  22.348  22.996  1.00  0.00     0.008 A 
BRANCH   8  13
ATOM     13  O   UNL A   1      32.712  19.651  25.383  1.00  0.00    -0.493 OA
BRANCH  13  14
ATOM     14  C   UNL A   1      33.545  18.927  24.457  1.00  0.00     0.232 C 
BRANCH  14  15
ATOM     15  C   UNL A   1      33.001  17.520  24.112  1.00  0.00     0.020 C 
ATOM     16  C   UNL A   1      34.029  16.664  23.359  1.00  0.00     0.011 C 
ATOM     17  C   UNL A   1      32.599  16.771  25.386  1.00  0.00     0.011 C 
ENDBRANCH  14  15
ENDBRANCH  13  14
ENDBRANCH   8  13
ENDBRANCH   6   7
ENDBRANCH   4   6
ENDBRANCH   3   4
ENDBRANCH   2   3
ENDBRANCH   1   2
BRANCH   1  18
ATOM     18  O   UNL A   1      35.968  23.079  25.027  1.00  0.00    -0.374 OA
BRANCH  18  19
ATOM     19  C   UNL A   1      35.761  21.761  25.533  1.00  0.00     0.202 C 
BRANCH  19  20
ATOM     20  C   UNL A   1      36.892  20.736  25.377  1.00  0.00     0.261 C 
BRANCH  20  21
ATOM     21  O   UNL A   1      38.167  21.327  25.086  1.00  0.00    -0.460 OA
BRANCH  21  22
ATOM     22  C   UNL A   1      39.120  21.097  26.022  1.00  0.00     0.338 C 
ATOM     23  O   UNL A   1      39.650  20.032  26.289  1.00  0.00    -0.246 OA
BRANCH  22  24
ATOM     24  C   UNL A   1      39.593  22.375  26.585  1.00  0.00     0.060 A 
ATOM     25  C   UNL A   1      38.978  23.548  26.127  1.00  0.00     0.016 A 
ATOM     26  C   UNL A   1      40.663  22.434  27.480  1.00  0.00     0.016 A 
ATOM     27  C   UNL A   1      39.463  24.790  26.527  1.00  0.00     0.010 A 
ATOM     28  C   UNL A   1      41.153  23.684  27.873  1.00  0.00     0.010 A 
ATOM     29  C   UNL A   1      40.577  24.866  27.372  1.00  0.00    -0.014 A 
BRANCH  29  30
ATOM     30  C   UNL A   1      41.205  26.182  27.639  1.00  0.00     0.031 A 
ATOM     31  C   UNL A   1      42.592  26.452  27.125  1.00  0.00     0.074 A 
ATOM     32  C   UNL A   1      40.542  27.124  28.334  1.00  0.00     0.049 A 
ATOM     33  N   UNL A   1      43.335  27.519  27.270  1.00  0.00    -0.248 NA
ATOM     34  C   UNL A   1      43.230  25.378  26.346  1.00  0.00     0.031 C 
ATOM     35  C   UNL A   1      39.194  26.975  28.880  1.00  0.00     0.029 A 
ATOM     36  N   UNL A   1      40.925  28.383  28.721  1.00  0.00    -0.354 N 
ATOM     37  C   UNL A   1      44.536  27.235  26.632  1.00  0.00     0.074 A 
ATOM     38  C   UNL A   1      44.427  25.892  26.104  1.00  0.00     0.031 C 
ATOM     39  C   UNL A   1      38.874  28.088  29.561  1.00  0.00     0.029 A 
ATOM     40  C   UNL A   1      40.003  29.015  29.523  1.00  0.00     0.049 A 
ATOM     41  H   UNL A   1      41.779  28.795  28.452  1.00  0.00     0.167 HD
ATOM     42  C   UNL A   1      45.626  28.025  26.489  1.00  0.00     0.034 A 
ATOM     43  C   UNL A   1      40.075  30.192  30.174  1.00  0.00     0.034 A 
ATOM     44  C   UNL A   1      45.719  29.367  27.000  1.00  0.00     0.049 A 
ATOM     45  C   UNL A   1      41.309  31.044  30.016  1.00  0.00     0.074 A 
ATOM     46  C   UNL A   1      46.757  30.272  26.855  1.00  0.00     0.029 A 
ATOM     47  N   UNL A   1      44.749  29.990  27.770  1.00  0.00    -0.354 N 
ATOM     48  N   UNL A   1      42.384  30.814  29.301  1.00  0.00    -0.248 NA
ATOM     49  C   UNL A   1      41.327  32.329  30.729  1.00  0.00     0.031 C 
ATOM     50  C   UNL A   1      46.429  31.428  27.569  1.00  0.00     0.029 A 
ATOM     51  C   UNL A   1      45.171  31.259  28.126  1.00  0.00     0.049 A 
ATOM     52  H   UNL A   1      43.887  29.589  28.024  1.00  0.00     0.167 HD
ATOM     53  C   UNL A   1      43.190  31.939  29.451  1.00  0.00     0.074 A 
ATOM     54  C   UNL A   1      42.468  32.857  30.307  1.00  0.00     0.031 C 
ATOM     55  C   UNL A   1      44.421  32.183  28.938  1.00  0.00     0.034 A 
BRANCH  42  56
ATOM     56  C   UNL A   1      46.806  27.470  25.736  1.00  0.00     0.023 A 
ATOM     57  C   UNL A   1      47.629  26.499  26.339  1.00  0.00     0.012 A 
ATOM     58  C   UNL A   1      47.057  27.859  24.405  1.00  0.00     0.148 A 
ATOM     59  C   UNL A   1      48.701  25.944  25.640  1.00  0.00     0.002 A 
ATOM     60  C   UNL A   1      48.099  27.270  23.699  1.00  0.00     0.091 A 
ATOM     61  F   UNL A   1      46.275  28.800  23.856  1.00  0.00    -0.205 F 
ATOM     62  C   UNL A   1      48.928  26.320  24.318  1.00  0.00     0.022 A 
BRANCH  60  63
ATOM     63  S   UNL A   1      48.425  27.627  21.969  1.00  0.00     0.127 S 
ATOM     64  O   UNL A   1      48.695  26.291  21.439  1.00  0.00    -0.237 OA
ATOM     65  O   UNL A   1      47.156  28.210  21.532  1.00  0.00    -0.237 OA
ATOM     66  O   UNL A   1      49.555  28.543  21.953  1.00  0.00    -0.744 OA
ENDBRANCH  60  63
ENDBRANCH  42  56
BRANCH  43  67
ATOM     67  C   UNL A   1      38.937  30.645  31.024  1.00  0.00     0.023 A 
ATOM     68  C   UNL A   1      38.944  30.371  32.405  1.00  0.00     0.012 A 
ATOM     69  C   UNL A   1      37.856  31.357  30.470  1.00  0.00     0.148 A 
ATOM     70  C   UNL A   1      37.878  30.769  33.213  1.00  0.00     0.002 A 
ATOM     71  C   UNL A   1      36.825  31.802  31.290  1.00  0.00     0.091 A 
ATOM     72  F   UNL A   1      37.859  31.593  29.150  1.00  0.00    -0.205 F 
ATOM     73  C   UNL A   1      36.825  31.493  32.659  1.00  0.00     0.022 A 
BRANCH  71  74
ATOM     74  S   UNL A   1      35.500  32.852  30.685  1.00  0.00     0.127 S 
ATOM     75  O   UNL A   1      35.351  32.384  29.309  1.00  0.00    -0.237 OA
ATOM     76  O   UNL A   1      34.399  32.495  31.581  1.00  0.00    -0.237 OA
ATOM     77  O   UNL A   1      35.980  34.219  30.841  1.00  0.00    -0.744 OA
ENDBRANCH  71  74
ENDBRANCH  43  67
BRANCH  55  78
ATOM     78  C   UNL A   1      45.063  33.509  29.253  1.00  0.00     0.023 A 
ATOM     79  C   UNL A   1      45.915  33.629  30.369  1.00  0.00     0.012 A 
ATOM     80  C   UNL A   1      44.886  34.613  28.395  1.00  0.00     0.148 A 
ATOM     81  C   UNL A   1      46.558  34.836  30.642  1.00  0.00     0.002 A 
ATOM     82  C   UNL A   1      45.569  35.797  28.645  1.00  0.00     0.091 A 
ATOM     83  F   UNL A   1      44.058  34.483  27.348  1.00  0.00    -0.205 F 
ATOM     84  C   UNL A   1      46.395  35.915  29.774  1.00  0.00     0.022 A 
BRANCH  82  85
ATOM     85  S   UNL A   1      45.500  37.206  27.532  1.00  0.00     0.127 S 
ATOM     86  O   UNL A   1      46.035  36.634  26.297  1.00  0.00    -0.237 OA
ATOM     87  O   UNL A   1      44.068  37.502  27.496  1.00  0.00    -0.237 OA
ATOM     88  O   UNL A   1      46.318  38.244  28.143  1.00  0.00    -0.744 OA
ENDBRANCH  82  85
ENDBRANCH  55  78
ENDBRANCH  29  30
ENDBRANCH  22  24
ENDBRANCH  21  22
ENDBRANCH  20  21
ENDBRANCH  19  20
ENDBRANCH  18  19
ENDBRANCH   1  18
TORSDOF 21
ENDMDL
MODEL 3
REMARK VINA RESULT:      -9.9      4.937      8.429
REMARK SMILES CC(C)COc1ccc(CC(=O)OCCOCCOC(=O)c2ccc(-c3c4nc(c(-c5cccc(S(=O)(=O)[O-])c5F)c5ccc([nH]5)c(-c5cccc(S(=O)(=O)[O-])c5F)c5nc(c(-c6cccc(S(=O)(=O)[O-])c6F)c6ccc3[nH]6)C=C5)C=C4)cc2)cc1
REMARK SMILES IDX 15 1 14 2 13 3 11 4 12 5 10 6 9 7 6 8 7 9 86 10 8 11 85 12
REMARK SMILES IDX 5 13 4 14 2 15 1 16 3 17 16 18 17 19 18 20 19 21 20 22 21 23
REMARK SMILES IDX 22 24 23 25 84 26 24 27 83 28 25 29 26 30 27 31 77 32 28 33
REMARK SMILES IDX 82 34 76 35 78 36 29 37 81 38 75 39 74 40 30 42 62 43 42 44
REMARK SMILES IDX 61 45 43 46 46 47 60 48 79 49 44 50 45 51 59 53 80 54 47 55
REMARK SMILES IDX 31 56 32 57 40 58 33 59 35 60 41 61 34 62 36 63 37 64 38 65
REMARK SMILES IDX 39 66 63 67 64 68 72 69 65 70 67 71 73 72 66 73 68 74 69 75
REMARK SMILES IDX 70 76 71 77 48 78 49 79 57 80 50 81 52 82 58 83 51 84 53 85
REMARK SMILES IDX 54 86 55 87 56 88
REMARK H PARENT 78 41 46 52
REMARK Flexibility Score: inf
ROOT
ATOM      1  C   UNL A   1      30.527  28.100  23.631  1.00  0.00     0.202 C 
ENDROOT
BRANCH   1   2
ATOM      2  C   UNL A   1      30.947  26.715  24.135  1.00  0.00     0.261 C 
BRANCH   2   3
ATOM      3  O   UNL A   1      31.150  25.788  23.059  1.00  0.00    -0.463 OA
BRANCH   3   4
ATOM      4  C   UNL A   1      32.128  24.865  23.240  1.00  0.00     0.310 C 
ATOM      5  O   UNL A   1      32.784  24.354  22.335  1.00  0.00    -0.252 OA
BRANCH   4   6
ATOM      6  C   UNL A   1      32.367  24.500  24.687  1.00  0.00     0.158 C 
BRANCH   6   7
ATOM      7  C   UNL A   1      32.689  23.061  25.031  1.00  0.00    -0.037 A 
ATOM      8  C   UNL A   1      33.288  20.346  25.334  1.00  0.00     0.119 A 
ATOM      9  C   UNL A   1      34.321  21.277  25.331  1.00  0.00     0.047 A 
ATOM     10  C   UNL A   1      31.962  20.764  25.312  1.00  0.00     0.047 A 
ATOM     11  C   UNL A   1      34.021  22.635  25.180  1.00  0.00     0.008 A 
ATOM     12  C   UNL A   1      31.663  22.111  25.123  1.00  0.00     0.008 A 
BRANCH   8  13
ATOM     13  O   UNL A   1      33.540  19.006  25.394  1.00  0.00    -0.493 OA
BRANCH  13  14
ATOM     14  C   UNL A   1      34.398  18.559  24.327  1.00  0.00     0.232 C 
BRANCH  14  15
ATOM     15  C   UNL A   1      33.712  17.564  23.363  1.00  0.00     0.020 C 
ATOM     16  C   UNL A   1      33.323  16.250  24.056  1.00  0.00     0.011 C 
ATOM     17  C   UNL A   1      32.444  18.180  22.765  1.00  0.00     0.011 C 
ENDBRANCH  14  15
ENDBRANCH  13  14
ENDBRANCH   8  13
ENDBRANCH   6   7
ENDBRANCH   4   6
ENDBRANCH   3   4
ENDBRANCH   2   3
ENDBRANCH   1   2
BRANCH   1  18
ATOM     18  O   UNL A   1      31.477  29.160  23.737  1.00  0.00    -0.374 OA
BRANCH  18  19
ATOM     19  C   UNL A   1      32.086  29.384  25.007  1.00  0.00     0.202 C 
BRANCH  19  20
ATOM     20  C   UNL A   1      31.671  30.629  25.804  1.00  0.00     0.261 C 
BRANCH  20  21
ATOM     21  O   UNL A   1      32.290  30.718  27.095  1.00  0.00    -0.460 OA
BRANCH  21  22
ATOM     22  C   UNL A   1      33.046  31.828  27.281  1.00  0.00     0.338 C 
ATOM     23  O   UNL A   1      32.677  32.989  27.223  1.00  0.00    -0.246 OA
BRANCH  22  24
ATOM     24  C   UNL A   1      34.389  31.451  27.758  1.00  0.00     0.060 A 
ATOM     25  C   UNL A   1      34.604  30.104  28.078  1.00  0.00     0.016 A 
ATOM     26  C   UNL A   1      35.391  32.401  27.964  1.00  0.00     0.016 A 
ATOM     27  C   UNL A   1      35.810  29.708  28.650  1.00  0.00     0.010 A 
ATOM     28  C   UNL A   1      36.598  32.001  28.546  1.00  0.00     0.010 A 
ATOM     29  C   UNL A   1      36.799  30.661  28.923  1.00  0.00    -0.014 A 
BRANCH  29  30
ATOM     30  C   UNL A   1      37.997  30.269  29.704  1.00  0.00     0.031 A 
ATOM     31  C   UNL A   1      38.963  29.277  29.119  1.00  0.00     0.074 A 
ATOM     32  C   UNL A   1      38.218  30.797  30.921  1.00  0.00     0.049 A 
ATOM     33  N   UNL A   1      40.053  28.777  29.641  1.00  0.00    -0.248 NA
ATOM     34  C   UNL A   1      38.661  28.777  27.768  1.00  0.00     0.031 C 
ATOM     35  C   UNL A   1      37.353  31.768  31.588  1.00  0.00     0.029 A 
ATOM     36  N   UNL A   1      39.225  30.568  31.824  1.00  0.00    -0.354 N 
ATOM     37  C   UNL A   1      40.549  27.882  28.700  1.00  0.00     0.074 A 
ATOM     38  C   UNL A   1      39.638  27.902  27.577  1.00  0.00     0.031 C 
ATOM     39  C   UNL A   1      37.849  32.028  32.810  1.00  0.00     0.029 A 
ATOM     40  C   UNL A   1      39.049  31.222  33.021  1.00  0.00     0.049 A 
ATOM     41  H   UNL A   1      40.001  29.990  31.634  1.00  0.00     0.167 HD
ATOM     42  C   UNL A   1      41.668  27.122  28.763  1.00  0.00     0.034 A 
ATOM     43  C   UNL A   1      39.758  31.154  34.165  1.00  0.00     0.034 A 
ATOM     44  C   UNL A   1      42.581  27.124  29.875  1.00  0.00     0.049 A 
ATOM     45  C   UNL A   1      40.988  30.284  34.215  1.00  0.00     0.074 A 
ATOM     46  C   UNL A   1      43.774  26.437  30.008  1.00  0.00     0.029 A 
ATOM     47  N   UNL A   1      42.393  27.832  31.052  1.00  0.00    -0.354 N 
ATOM     48  N   UNL A   1      41.514  29.543  33.270  1.00  0.00    -0.248 NA
ATOM     49  C   UNL A   1      41.738  30.263  35.479  1.00  0.00     0.031 C 
ATOM     50  C   UNL A   1      44.289  26.700  31.281  1.00  0.00     0.029 A 
ATOM     51  C   UNL A   1      43.436  27.582  31.926  1.00  0.00     0.049 A 
ATOM     52  H   UNL A   1      41.630  28.425  31.238  1.00  0.00     0.167 HD
ATOM     53  C   UNL A   1      42.673  28.997  33.812  1.00  0.00     0.074 A 
ATOM     54  C   UNL A   1      42.783  29.510  35.162  1.00  0.00     0.031 C 
ATOM     55  C   UNL A   1      43.558  28.138  33.249  1.00  0.00     0.034 A 
BRANCH  42  56
ATOM     56  C   UNL A   1      41.984  26.234  27.588  1.00  0.00     0.023 A 
ATOM     57  C   UNL A   1      42.706  26.750  26.494  1.00  0.00     0.012 A 
ATOM     58  C   UNL A   1      41.627  24.872  27.601  1.00  0.00     0.148 A 
ATOM     59  C   UNL A   1      43.044  25.931  25.416  1.00  0.00     0.002 A 
ATOM     60  C   UNL A   1      42.006  24.051  26.545  1.00  0.00     0.091 A 
ATOM     61  F   UNL A   1      40.923  24.405  28.641  1.00  0.00    -0.205 F 
ATOM     62  C   UNL A   1      42.705  24.581  25.447  1.00  0.00     0.022 A 
BRANCH  60  63
ATOM     63  S   UNL A   1      41.686  22.283  26.527  1.00  0.00     0.127 S 
ATOM     64  O   UNL A   1      40.296  22.240  26.074  1.00  0.00    -0.237 OA
ATOM     65  O   UNL A   1      42.661  21.805  25.546  1.00  0.00    -0.237 OA
ATOM     66  O   UNL A   1      41.912  21.819  27.887  1.00  0.00    -0.744 OA
ENDBRANCH  60  63
ENDBRANCH  42  56
BRANCH  43  67
ATOM     67  C   UNL A   1      39.333  31.946  35.354  1.00  0.00     0.023 A 
ATOM     68  C   UNL A   1      38.512  31.351  36.332  1.00  0.00     0.012 A 
ATOM     69  C   UNL A   1      39.749  33.280  35.525  1.00  0.00     0.148 A 
ATOM     70  C   UNL A   1      38.087  32.084  37.442  1.00  0.00     0.002 A 
ATOM     71  C   UNL A   1      39.371  33.985  36.661  1.00  0.00     0.091 A 
ATOM     72  F   UNL A   1      40.516  33.833  34.574  1.00  0.00    -0.205 F 
ATOM     73  C   UNL A   1      38.524  33.394  37.612  1.00  0.00     0.022 A 
BRANCH  71  74
ATOM     74  S   UNL A   1      39.995  35.629  37.026  1.00  0.00     0.127 S 
ATOM     75  O   UNL A   1      39.307  35.939  38.277  1.00  0.00    -0.237 OA
ATOM     76  O   UNL A   1      41.432  35.385  37.155  1.00  0.00    -0.237 OA
ATOM     77  O   UNL A   1      39.627  36.452  35.880  1.00  0.00    -0.744 OA
ENDBRANCH  71  74
ENDBRANCH  43  67
BRANCH  55  78
ATOM     78  C   UNL A   1      44.749  27.718  34.071  1.00  0.00     0.023 A 
ATOM     79  C   UNL A   1      45.906  28.523  34.093  1.00  0.00     0.012 A 
ATOM     80  C   UNL A   1      44.690  26.570  34.885  1.00  0.00     0.148 A 
ATOM     81  C   UNL A   1      46.996  28.175  34.890  1.00  0.00     0.002 A 
ATOM     82  C   UNL A   1      45.760  26.257  35.715  1.00  0.00     0.091 A 
ATOM     83  F   UNL A   1      43.587  25.809  34.838  1.00  0.00    -0.205 F 
ATOM     84  C   UNL A   1      46.918  27.050  35.710  1.00  0.00     0.022 A 
BRANCH  82  85
ATOM     85  S   UNL A   1      45.713  24.886  36.876  1.00  0.00     0.127 S 
ATOM     86  O   UNL A   1      44.367  25.014  37.432  1.00  0.00    -0.237 OA
ATOM     87  O   UNL A   1      45.903  23.731  35.999  1.00  0.00    -0.237 OA
ATOM     88  O   UNL A   1      46.800  25.117  37.818  1.00  0.00    -0.744 OA
ENDBRANCH  82  85
ENDBRANCH  55  78
ENDBRANCH  29  30
ENDBRANCH  22  24
ENDBRANCH  21  22
ENDBRANCH  20  21
ENDBRANCH  19  20
ENDBRANCH  18  19
ENDBRANCH   1  18
TORSDOF 21
ENDMDL
