MODEL 1
REMARK VINA RESULT:     -13.1      0.000      0.000
REMARK SMILES CC(=O)O[C@@H]1CC[C@@]23C(=O)O[C@]4(CC[C@]2(O)C1)[C@H]3CC[C@]1(C)[C@H](C(=O)OCCOCCOC(=O)c2ccc(-c3c5nc(c(-c6cccc(S(=O)(=O)[O-])c6F)c6ccc([nH]6)c(-c6cccc(S(=O)(=O)[O-])c6F)c6nc(c(-c7cccc(S(=O)(=O)[O-])c7F)c7ccc3[nH]7)C=C6)C=C5)cc2)CC[C@@H]14
REMARK SMILES IDX 30 1 29 2 28 3 27 4 26 5 24 6 25 7 23 8 5 9 6 10 17 11 7 12
REMARK SMILES IDX 15 13 8 14 14 15 9 16 18 17 13 18 10 19 11 20 12 21 19 22
REMARK SMILES IDX 100 23 20 24 21 25 99 26 22 27 98 28 4 29 2 30 1 31 3 32
REMARK SMILES IDX 16 33 31 35 32 36 33 37 34 38 35 39 36 40 97 41 37 42 96 43
REMARK SMILES IDX 38 44 39 45 40 46 90 47 41 48 95 49 89 50 91 51 42 52 94 53
REMARK SMILES IDX 88 54 87 55 43 57 75 58 55 59 74 60 56 61 59 62 73 63 92 64
REMARK SMILES IDX 57 65 58 66 72 68 93 69 60 70 44 71 45 72 53 73 46 74 48 75
REMARK SMILES IDX 54 76 47 77 49 78 50 79 51 80 52 81 76 82 77 83 85 84 78 85
REMARK SMILES IDX 80 86 86 87 79 88 81 89 82 90 83 91 84 92 61 93 62 94 70 95
REMARK SMILES IDX 63 96 65 97 71 98 64 99 66 100 67 101 68 102 69 103
REMARK H PARENT 16 34 91 56 59 67
REMARK Flexibility Score: inf
ROOT
ATOM      1  C   UNL A   1      31.020  30.530  25.055  1.00  0.00     0.202 C 
ENDROOT
BRANCH   1   2
ATOM      2  O   UNL A   1      29.909  31.116  24.382  1.00  0.00    -0.374 OA
BRANCH   2   3
ATOM      3  C   UNL A   1      29.339  30.408  23.282  1.00  0.00     0.202 C 
BRANCH   3   4
ATOM      4  C   UNL A   1      29.441  28.880  23.272  1.00  0.00     0.261 C 
BRANCH   4   5
ATOM      5  O   UNL A   1      30.033  28.372  22.066  1.00  0.00    -0.463 OA
BRANCH   5   6
ATOM      6  C   UNL A   1      30.929  27.375  22.243  1.00  0.00     0.309 C 
ATOM      7  O   UNL A   1      31.530  26.814  21.329  1.00  0.00    -0.252 OA
BRANCH   6   8
ATOM      8  C   UNL A   1      31.252  27.050  23.696  1.00  0.00     0.105 C 
ATOM      9  C   UNL A   1      37.077  21.483  24.680  1.00  0.00     0.179 C 
ATOM     10  C   UNL A   1      36.798  22.660  23.774  1.00  0.00     0.047 C 
ATOM     11  C   UNL A   1      35.788  20.727  25.003  1.00  0.00     0.081 C 
ATOM     12  C   UNL A   1      35.653  23.475  24.348  1.00  0.00     0.026 C 
ATOM     13  C   UNL A   1      34.507  21.547  25.294  1.00  0.00     0.085 C 
ATOM     14  C   UNL A   1      34.145  22.596  24.306  1.00  0.00     0.103 C 
ATOM     15  C   UNL A   1      34.530  22.430  26.641  1.00  0.00     0.041 C 
ATOM     16  C   UNL A   1      33.816  23.401  23.143  1.00  0.00     0.316 C 
ATOM     17  C   UNL A   1      32.601  23.050  24.908  1.00  0.00     0.054 C 
ATOM     18  C   UNL A   1      33.972  24.000  26.499  1.00  0.00     0.052 C 
ATOM     19  O   UNL A   1      33.896  23.216  21.953  1.00  0.00    -0.251 OA
ATOM     20  O   UNL A   1      33.593  24.629  23.821  1.00  0.00    -0.458 OA
ATOM     21  C   UNL A   1      33.097  24.386  25.193  1.00  0.00     0.120 C 
ATOM     22  C   UNL A   1      31.288  23.064  24.076  1.00  0.00     0.009 C 
ATOM     23  C   UNL A   1      32.169  25.552  25.455  1.00  0.00     0.040 C 
ATOM     24  C   UNL A   1      30.856  24.432  23.492  1.00  0.00     0.008 C 
ATOM     25  C   UNL A   1      30.989  25.675  24.426  1.00  0.00    -0.013 C 
ATOM     26  C   UNL A   1      32.987  26.855  25.312  1.00  0.00     0.009 C 
ATOM     27  C   UNL A   1      29.703  25.816  25.275  1.00  0.00     0.013 C 
ATOM     28  C   UNL A   1      32.738  27.331  23.896  1.00  0.00     0.016 C 
BRANCH   9  29
ATOM     29  O   UNL A   1      37.652  21.971  25.916  1.00  0.00    -0.462 OA
BRANCH  29  30
ATOM     30  C   UNL A   1      38.999  21.839  26.072  1.00  0.00     0.302 C 
ATOM     31  C   UNL A   1      39.576  23.089  26.663  1.00  0.00     0.139 C 
ATOM     32  O   UNL A   1      39.668  20.861  25.772  1.00  0.00    -0.253 OA
ENDBRANCH  29  30
ENDBRANCH   9  29
BRANCH  13  33
ATOM     33  O   UNL A   1      33.457  20.579  25.424  1.00  0.00    -0.389 OA
ATOM     34  H   UNL A   1      32.671  21.003  25.804  1.00  0.00     0.211 HD
ENDBRANCH  13  33
ENDBRANCH   6   8
ENDBRANCH   5   6
ENDBRANCH   4   5
ENDBRANCH   3   4
ENDBRANCH   2   3
ENDBRANCH   1   2
BRANCH   1  35
ATOM     35  C   UNL A   1      31.422  31.090  26.426  1.00  0.00     0.261 C 
BRANCH  35  36
ATOM     36  O   UNL A   1      32.749  30.717  26.829  1.00  0.00    -0.460 OA
BRANCH  36  37
ATOM     37  C   UNL A   1      33.475  31.739  27.346  1.00  0.00     0.338 C 
ATOM     38  O   UNL A   1      33.072  32.855  27.632  1.00  0.00    -0.246 OA
BRANCH  37  39
ATOM     39  C   UNL A   1      34.829  31.285  27.712  1.00  0.00     0.060 A 
ATOM     40  C   UNL A   1      35.010  29.909  27.897  1.00  0.00     0.016 A 
ATOM     41  C   UNL A   1      35.861  32.185  27.983  1.00  0.00     0.016 A 
ATOM     42  C   UNL A   1      36.205  29.429  28.423  1.00  0.00     0.010 A 
ATOM     43  C   UNL A   1      37.059  31.700  28.518  1.00  0.00     0.010 A 
ATOM     44  C   UNL A   1      37.217  30.327  28.784  1.00  0.00    -0.014 A 
BRANCH  44  45
ATOM     45  C   UNL A   1      38.364  29.832  29.579  1.00  0.00     0.031 A 
ATOM     46  C   UNL A   1      38.494  30.260  31.016  1.00  0.00     0.074 A 
ATOM     47  C   UNL A   1      39.260  28.990  29.033  1.00  0.00     0.049 A 
ATOM     48  N   UNL A   1      39.406  29.938  31.896  1.00  0.00    -0.248 NA
ATOM     49  C   UNL A   1      37.462  31.175  31.534  1.00  0.00     0.031 C 
ATOM     50  C   UNL A   1      39.237  28.513  27.651  1.00  0.00     0.029 A 
ATOM     51  N   UNL A   1      40.378  28.406  29.574  1.00  0.00    -0.354 N 
ATOM     52  C   UNL A   1      39.082  30.634  33.054  1.00  0.00     0.074 A 
ATOM     53  C   UNL A   1      37.889  31.400  32.769  1.00  0.00     0.031 C 
ATOM     54  C   UNL A   1      40.312  27.735  27.441  1.00  0.00     0.029 A 
ATOM     55  C   UNL A   1      41.107  27.674  28.666  1.00  0.00     0.049 A 
ATOM     56  H   UNL A   1      40.635  28.503  30.519  1.00  0.00     0.167 HD
ATOM     57  C   UNL A   1      39.713  30.626  34.250  1.00  0.00     0.034 A 
ATOM     58  C   UNL A   1      42.291  27.046  28.806  1.00  0.00     0.034 A 
ATOM     59  C   UNL A   1      40.878  29.834  34.539  1.00  0.00     0.049 A 
ATOM     60  C   UNL A   1      42.967  27.049  30.153  1.00  0.00     0.074 A 
ATOM     61  C   UNL A   1      41.548  29.698  35.741  1.00  0.00     0.029 A 
ATOM     62  N   UNL A   1      41.554  29.054  33.613  1.00  0.00    -0.354 N 
ATOM     63  N   UNL A   1      42.567  27.594  31.277  1.00  0.00    -0.248 NA
ATOM     64  C   UNL A   1      44.239  26.320  30.262  1.00  0.00     0.031 C 
ATOM     65  C   UNL A   1      42.649  28.862  35.535  1.00  0.00     0.029 A 
ATOM     66  C   UNL A   1      42.644  28.450  34.213  1.00  0.00     0.049 A 
ATOM     67  H   UNL A   1      41.296  28.947  32.669  1.00  0.00     0.167 HD
ATOM     68  C   UNL A   1      43.516  27.243  32.232  1.00  0.00     0.074 A 
ATOM     69  C   UNL A   1      44.498  26.420  31.559  1.00  0.00     0.031 C 
ATOM     70  C   UNL A   1      43.580  27.584  33.542  1.00  0.00     0.034 A 
BRANCH  57  71
ATOM     71  C   UNL A   1      39.155  31.479  35.357  1.00  0.00     0.023 A 
ATOM     72  C   UNL A   1      38.217  30.934  36.256  1.00  0.00     0.012 A 
ATOM     73  C   UNL A   1      39.632  32.789  35.561  1.00  0.00     0.148 A 
ATOM     74  C   UNL A   1      37.749  31.686  37.333  1.00  0.00     0.002 A 
ATOM     75  C   UNL A   1      39.194  33.516  36.661  1.00  0.00     0.091 A 
ATOM     76  F   UNL A   1      40.508  33.294  34.681  1.00  0.00    -0.205 F 
ATOM     77  C   UNL A   1      38.247  32.970  37.543  1.00  0.00     0.022 A 
BRANCH  75  78
ATOM     78  S   UNL A   1      39.830  35.148  37.062  1.00  0.00     0.127 S 
ATOM     79  O   UNL A   1      39.322  35.337  38.420  1.00  0.00    -0.237 OA
ATOM     80  O   UNL A   1      41.276  34.941  36.975  1.00  0.00    -0.237 OA
ATOM     81  O   UNL A   1      39.281  36.054  36.062  1.00  0.00    -0.744 OA
ENDBRANCH  75  78
ENDBRANCH  57  71
BRANCH  58  82
ATOM     82  C   UNL A   1      42.910  26.345  27.646  1.00  0.00     0.023 A 
ATOM     83  C   UNL A   1      43.625  27.081  26.681  1.00  0.00     0.012 A 
ATOM     84  C   UNL A   1      42.784  24.950  27.490  1.00  0.00     0.148 A 
ATOM     85  C   UNL A   1      44.170  26.448  25.563  1.00  0.00     0.002 A 
ATOM     86  C   UNL A   1      43.376  24.318  26.403  1.00  0.00     0.091 A 
ATOM     87  F   UNL A   1      42.083  24.268  28.407  1.00  0.00    -0.205 F 
ATOM     88  C   UNL A   1      44.054  25.066  25.429  1.00  0.00     0.022 A 
BRANCH  86  89
ATOM     89  S   UNL A   1      43.375  22.532  26.216  1.00  0.00     0.127 S 
ATOM     90  O   UNL A   1      42.633  22.363  24.969  1.00  0.00    -0.237 OA
ATOM     91  O   UNL A   1      44.805  22.234  26.127  1.00  0.00    -0.237 OA
ATOM     92  O   UNL A   1      42.728  22.014  27.414  1.00  0.00    -0.744 OA
ENDBRANCH  86  89
ENDBRANCH  58  82
BRANCH  70  93
ATOM     93  C   UNL A   1      44.723  27.038  34.356  1.00  0.00     0.023 A 
ATOM     94  C   UNL A   1      45.946  27.735  34.402  1.00  0.00     0.012 A 
ATOM     95  C   UNL A   1      44.557  25.877  35.138  1.00  0.00     0.148 A 
ATOM     96  C   UNL A   1      46.998  27.267  35.189  1.00  0.00     0.002 A 
ATOM     97  C   UNL A   1      45.591  25.446  35.959  1.00  0.00     0.091 A 
ATOM     98  F   UNL A   1      43.391  25.219  35.067  1.00  0.00    -0.205 F 
ATOM     99  C   UNL A   1      46.817  26.132  35.976  1.00  0.00     0.022 A 
BRANCH  97 100
ATOM    100  S   UNL A   1      45.412  24.055  37.081  1.00  0.00     0.127 S 
ATOM    101  O   UNL A   1      44.903  23.016  36.189  1.00  0.00    -0.237 OA
ATOM    102  O   UNL A   1      46.786  23.846  37.541  1.00  0.00    -0.237 OA
ATOM    103  O   UNL A   1      44.490  24.495  38.121  1.00  0.00    -0.744 OA
ENDBRANCH  97 100
ENDBRANCH  70  93
ENDBRANCH  44  45
ENDBRANCH  37  39
ENDBRANCH  36  37
ENDBRANCH  35  36
ENDBRANCH   1  35
TORSDOF 20
ENDMDL
MODEL 2
REMARK VINA RESULT:     -13.1      1.188      2.274
REMARK SMILES CC(=O)O[C@@H]1CC[C@@]23C(=O)O[C@]4(CC[C@]2(O)C1)[C@H]3CC[C@]1(C)[C@H](C(=O)OCCOCCOC(=O)c2ccc(-c3c5nc(c(-c6cccc(S(=O)(=O)[O-])c6F)c6ccc([nH]6)c(-c6cccc(S(=O)(=O)[O-])c6F)c6nc(c(-c7cccc(S(=O)(=O)[O-])c7F)c7ccc3[nH]7)C=C6)C=C5)cc2)CC[C@@H]14
REMARK SMILES IDX 30 1 29 2 28 3 27 4 26 5 24 6 25 7 23 8 5 9 6 10 17 11 7 12
REMARK SMILES IDX 15 13 8 14 14 15 9 16 18 17 13 18 10 19 11 20 12 21 19 22
REMARK SMILES IDX 100 23 20 24 21 25 99 26 22 27 98 28 4 29 2 30 1 31 3 32
REMARK SMILES IDX 16 33 31 35 32 36 33 37 34 38 35 39 36 40 97 41 37 42 96 43
REMARK SMILES IDX 38 44 39 45 40 46 90 47 41 48 95 49 89 50 91 51 42 52 94 53
REMARK SMILES IDX 88 54 87 55 43 57 75 58 55 59 74 60 56 61 59 62 73 63 92 64
REMARK SMILES IDX 57 65 58 66 72 68 93 69 60 70 44 71 45 72 53 73 46 74 48 75
REMARK SMILES IDX 54 76 47 77 49 78 50 79 51 80 52 81 76 82 77 83 85 84 78 85
REMARK SMILES IDX 80 86 86 87 79 88 81 89 82 90 83 91 84 92 61 93 62 94 70 95
REMARK SMILES IDX 63 96 65 97 71 98 64 99 66 100 67 101 68 102 69 103
REMARK H PARENT 16 34 91 56 59 67
REMARK Flexibility Score: inf
ROOT
ATOM      1  C   UNL A   1      30.679  31.236  25.468  1.00  0.00     0.202 C 
ENDROOT
BRANCH   1   2
ATOM      2  O   UNL A   1      29.979  31.822  24.373  1.00  0.00    -0.374 OA
BRANCH   2   3
ATOM      3  C   UNL A   1      28.865  31.115  23.832  1.00  0.00     0.202 C 
BRANCH   3   4
ATOM      4  C   UNL A   1      29.117  30.131  22.686  1.00  0.00     0.261 C 
BRANCH   4   5
ATOM      5  O   UNL A   1      30.452  29.600  22.695  1.00  0.00    -0.463 OA
BRANCH   5   6
ATOM      6  C   UNL A   1      30.542  28.278  22.964  1.00  0.00     0.309 C 
ATOM      7  O   UNL A   1      29.649  27.617  23.490  1.00  0.00    -0.252 OA
BRANCH   6   8
ATOM      8  C   UNL A   1      31.808  27.601  22.455  1.00  0.00     0.105 C 
ATOM      9  C   UNL A   1      33.251  20.298  25.692  1.00  0.00     0.179 C 
ATOM     10  C   UNL A   1      32.060  21.085  25.196  1.00  0.00     0.047 C 
ATOM     11  C   UNL A   1      34.257  21.215  26.389  1.00  0.00     0.081 C 
ATOM     12  C   UNL A   1      32.545  22.291  24.411  1.00  0.00     0.026 C 
ATOM     13  C   UNL A   1      34.544  22.603  25.765  1.00  0.00     0.085 C 
ATOM     14  C   UNL A   1      33.365  23.445  25.434  1.00  0.00     0.103 C 
ATOM     15  C   UNL A   1      35.287  22.589  24.336  1.00  0.00     0.041 C 
ATOM     16  C   UNL A   1      32.135  24.216  25.391  1.00  0.00     0.316 C 
ATOM     17  C   UNL A   1      34.157  24.909  25.009  1.00  0.00     0.054 C 
ATOM     18  C   UNL A   1      34.655  23.609  23.171  1.00  0.00     0.052 C 
ATOM     19  O   UNL A   1      31.188  24.312  26.131  1.00  0.00    -0.251 OA
ATOM     20  O   UNL A   1      32.240  24.663  24.048  1.00  0.00    -0.458 OA
ATOM     21  C   UNL A   1      33.659  24.792  23.648  1.00  0.00     0.120 C 
ATOM     22  C   UNL A   1      33.859  26.298  25.637  1.00  0.00     0.009 C 
ATOM     23  C   UNL A   1      33.660  25.960  22.685  1.00  0.00     0.040 C 
ATOM     24  C   UNL A   1      32.904  27.225  24.844  1.00  0.00     0.008 C 
ATOM     25  C   UNL A   1      33.107  27.295  23.298  1.00  0.00    -0.013 C 
ATOM     26  C   UNL A   1      32.714  25.613  21.514  1.00  0.00     0.009 C 
ATOM     27  C   UNL A   1      34.163  28.378  22.971  1.00  0.00     0.013 C 
ATOM     28  C   UNL A   1      31.389  26.258  21.864  1.00  0.00     0.016 C 
BRANCH   9  29
ATOM     29  O   UNL A   1      33.901  19.671  24.560  1.00  0.00    -0.462 OA
BRANCH  29  30
ATOM     30  C   UNL A   1      33.646  18.351  24.348  1.00  0.00     0.302 C 
ATOM     31  C   UNL A   1      34.922  17.566  24.392  1.00  0.00     0.139 C 
ATOM     32  O   UNL A   1      32.552  17.850  24.140  1.00  0.00    -0.253 OA
ENDBRANCH  29  30
ENDBRANCH   9  29
BRANCH  13  33
ATOM     33  O   UNL A   1      35.405  23.269  26.699  1.00  0.00    -0.389 OA
ATOM     34  H   UNL A   1      36.136  22.679  26.944  1.00  0.00     0.211 HD
ENDBRANCH  13  33
ENDBRANCH   6   8
ENDBRANCH   5   6
ENDBRANCH   4   5
ENDBRANCH   3   4
ENDBRANCH   2   3
ENDBRANCH   1   2
BRANCH   1  35
ATOM     35  C   UNL A   1      31.343  32.167  26.492  1.00  0.00     0.261 C 
BRANCH  35  36
ATOM     36  O   UNL A   1      32.578  31.652  27.014  1.00  0.00    -0.460 OA
BRANCH  36  37
ATOM     37  C   UNL A   1      33.390  32.601  27.543  1.00  0.00     0.338 C 
ATOM     38  O   UNL A   1      33.078  33.735  27.870  1.00  0.00    -0.246 OA
BRANCH  37  39
ATOM     39  C   UNL A   1      34.714  32.037  27.863  1.00  0.00     0.060 A 
ATOM     40  C   UNL A   1      34.768  30.668  28.151  1.00  0.00     0.016 A 
ATOM     41  C   UNL A   1      35.847  32.842  27.996  1.00  0.00     0.016 A 
ATOM     42  C   UNL A   1      35.943  30.107  28.642  1.00  0.00     0.010 A 
ATOM     43  C   UNL A   1      37.024  32.276  28.496  1.00  0.00     0.010 A 
ATOM     44  C   UNL A   1      37.062  30.918  28.865  1.00  0.00    -0.014 A 
BRANCH  44  45
ATOM     45  C   UNL A   1      38.206  30.368  29.628  1.00  0.00     0.031 A 
ATOM     46  C   UNL A   1      38.410  30.807  31.053  1.00  0.00     0.074 A 
ATOM     47  C   UNL A   1      39.032  29.468  29.065  1.00  0.00     0.049 A 
ATOM     48  N   UNL A   1      39.332  30.443  31.906  1.00  0.00    -0.248 NA
ATOM     49  C   UNL A   1      37.451  31.787  31.592  1.00  0.00     0.031 C 
ATOM     50  C   UNL A   1      38.933  28.976  27.692  1.00  0.00     0.029 A 
ATOM     51  N   UNL A   1      40.133  28.828  29.576  1.00  0.00    -0.354 N 
ATOM     52  C   UNL A   1      39.089  31.173  33.064  1.00  0.00     0.074 A 
ATOM     53  C   UNL A   1      37.933  32.003  32.808  1.00  0.00     0.031 C 
ATOM     54  C   UNL A   1      39.954  28.134  27.457  1.00  0.00     0.029 A 
ATOM     55  C   UNL A   1      40.786  28.042  28.656  1.00  0.00     0.049 A 
ATOM     56  H   UNL A   1      40.427  28.922  30.510  1.00  0.00     0.167 HD
ATOM     57  C   UNL A   1      39.760  31.143  34.238  1.00  0.00     0.034 A 
ATOM     58  C   UNL A   1      41.937  27.349  28.764  1.00  0.00     0.034 A 
ATOM     59  C   UNL A   1      40.887  30.289  34.499  1.00  0.00     0.049 A 
ATOM     60  C   UNL A   1      42.657  27.331  30.087  1.00  0.00     0.074 A 
ATOM     61  C   UNL A   1      41.589  30.130  35.680  1.00  0.00     0.029 A 
ATOM     62  N   UNL A   1      41.484  29.459  33.563  1.00  0.00    -0.354 N 
ATOM     63  N   UNL A   1      42.329  27.912  31.216  1.00  0.00    -0.248 NA
ATOM     64  C   UNL A   1      43.889  26.530  30.164  1.00  0.00     0.031 C 
ATOM     65  C   UNL A   1      42.633  29.229  35.449  1.00  0.00     0.029 A 
ATOM     66  C   UNL A   1      42.558  28.801  34.134  1.00  0.00     0.049 A 
ATOM     67  H   UNL A   1      41.188  29.354  32.630  1.00  0.00     0.167 HD
ATOM     68  C   UNL A   1      43.289  27.519  32.143  1.00  0.00     0.074 A 
ATOM     69  C   UNL A   1      44.199  26.631  31.450  1.00  0.00     0.031 C 
ATOM     70  C   UNL A   1      43.418  27.873  33.445  1.00  0.00     0.034 A 
BRANCH  57  71
ATOM     71  C   UNL A   1      39.291  32.042  35.351  1.00  0.00     0.023 A 
ATOM     72  C   UNL A   1      38.375  31.556  36.304  1.00  0.00     0.012 A 
ATOM     73  C   UNL A   1      39.831  33.334  35.502  1.00  0.00     0.148 A 
ATOM     74  C   UNL A   1      37.990  32.349  37.385  1.00  0.00     0.002 A 
ATOM     75  C   UNL A   1      39.476  34.102  36.605  1.00  0.00     0.091 A 
ATOM     76  F   UNL A   1      40.685  33.783  34.572  1.00  0.00    -0.205 F 
ATOM     77  C   UNL A   1      38.550  33.614  37.542  1.00  0.00     0.022 A 
BRANCH  75  78
ATOM     78  S   UNL A   1      40.198  35.712  36.939  1.00  0.00     0.127 S 
ATOM     79  O   UNL A   1      39.642  36.517  35.853  1.00  0.00    -0.237 OA
ATOM     80  O   UNL A   1      39.659  36.020  38.264  1.00  0.00    -0.237 OA
ATOM     81  O   UNL A   1      41.642  35.526  36.897  1.00  0.00    -0.744 OA
ENDBRANCH  75  78
ENDBRANCH  57  71
BRANCH  58  82
ATOM     82  C   UNL A   1      42.473  26.598  27.594  1.00  0.00     0.023 A 
ATOM     83  C   UNL A   1      43.320  27.245  26.674  1.00  0.00     0.012 A 
ATOM     84  C   UNL A   1      42.139  25.244  27.386  1.00  0.00     0.148 A 
ATOM     85  C   UNL A   1      43.793  26.571  25.547  1.00  0.00     0.002 A 
ATOM     86  C   UNL A   1      42.657  24.564  26.291  1.00  0.00     0.091 A 
ATOM     87  F   UNL A   1      41.314  24.651  28.261  1.00  0.00    -0.205 F 
ATOM     88  C   UNL A   1      43.470  25.228  25.360  1.00  0.00     0.022 A 
BRANCH  86  89
ATOM     89  S   UNL A   1      42.387  22.806  26.040  1.00  0.00     0.127 S 
ATOM     90  O   UNL A   1      42.986  22.597  24.723  1.00  0.00    -0.237 OA
ATOM     91  O   UNL A   1      43.131  22.221  27.155  1.00  0.00    -0.237 OA
ATOM     92  O   UNL A   1      40.944  22.618  26.116  1.00  0.00    -0.744 OA
ENDBRANCH  86  89
ENDBRANCH  58  82
BRANCH  70  93
ATOM     93  C   UNL A   1      44.556  27.272  34.227  1.00  0.00     0.023 A 
ATOM     94  C   UNL A   1      45.803  27.926  34.265  1.00  0.00     0.012 A 
ATOM     95  C   UNL A   1      44.363  26.103  34.990  1.00  0.00     0.148 A 
ATOM     96  C   UNL A   1      46.852  27.406  35.023  1.00  0.00     0.002 A 
ATOM     97  C   UNL A   1      45.396  25.620  35.784  1.00  0.00     0.091 A 
ATOM     98  F   UNL A   1      43.174  25.487  34.928  1.00  0.00    -0.205 F 
ATOM     99  C   UNL A   1      46.645  26.263  35.792  1.00  0.00     0.022 A 
BRANCH  97 100
ATOM    100  S   UNL A   1      45.188  24.214  36.883  1.00  0.00     0.127 S 
ATOM    101  O   UNL A   1      46.559  23.984  37.334  1.00  0.00    -0.237 OA
ATOM    102  O   UNL A   1      44.290  24.749  37.907  1.00  0.00    -0.237 OA
ATOM    103  O   UNL A   1      44.610  23.152  36.069  1.00  0.00    -0.744 OA
ENDBRANCH  97 100
ENDBRANCH  70  93
ENDBRANCH  44  45
ENDBRANCH  37  39
ENDBRANCH  36  37
ENDBRANCH  35  36
ENDBRANCH   1  35
TORSDOF 20
ENDMDL
MODEL 3
REMARK VINA RESULT:     -13.0      4.259     10.204
REMARK SMILES CC(=O)O[C@@H]1CC[C@@]23C(=O)O[C@]4(CC[C@]2(O)C1)[C@H]3CC[C@]1(C)[C@H](C(=O)OCCOCCOC(=O)c2ccc(-c3c5nc(c(-c6cccc(S(=O)(=O)[O-])c6F)c6ccc([nH]6)c(-c6cccc(S(=O)(=O)[O-])c6F)c6nc(c(-c7cccc(S(=O)(=O)[O-])c7F)c7ccc3[nH]7)C=C6)C=C5)cc2)CC[C@@H]14
REMARK SMILES IDX 30 1 29 2 28 3 27 4 26 5 24 6 25 7 23 8 5 9 6 10 17 11 7 12
REMARK SMILES IDX 15 13 8 14 14 15 9 16 18 17 13 18 10 19 11 20 12 21 19 22
REMARK SMILES IDX 100 23 20 24 21 25 99 26 22 27 98 28 4 29 2 30 1 31 3 32
REMARK SMILES IDX 16 33 31 35 32 36 33 37 34 38 35 39 36 40 97 41 37 42 96 43
REMARK SMILES IDX 38 44 39 45 40 46 90 47 41 48 95 49 89 50 91 51 42 52 94 53
REMARK SMILES IDX 88 54 87 55 43 57 75 58 55 59 74 60 56 61 59 62 73 63 92 64
REMARK SMILES IDX 57 65 58 66 72 68 93 69 60 70 44 71 45 72 53 73 46 74 48 75
REMARK SMILES IDX 54 76 47 77 49 78 50 79 51 80 52 81 76 82 77 83 85 84 78 85
REMARK SMILES IDX 80 86 86 87 79 88 81 89 82 90 83 91 84 92 61 93 62 94 70 95
REMARK SMILES IDX 63 96 65 97 71 98 64 99 66 100 67 101 68 102 69 103
REMARK H PARENT 16 34 91 56 59 67
REMARK Flexibility Score: inf
ROOT
ATOM      1  C   UNL A   1      35.937  20.501  24.752  1.00  0.00     0.202 C 
ENDROOT
BRANCH   1   2
ATOM      2  O   UNL A   1      35.124  19.511  25.376  1.00  0.00    -0.374 OA
BRANCH   2   3
ATOM      3  C   UNL A   1      34.158  18.831  24.575  1.00  0.00     0.202 C 
BRANCH   3   4
ATOM      4  C   UNL A   1      32.863  19.568  24.219  1.00  0.00     0.261 C 
BRANCH   4   5
ATOM      5  O   UNL A   1      32.183  20.082  25.375  1.00  0.00    -0.463 OA
BRANCH   5   6
ATOM      6  C   UNL A   1      31.777  21.368  25.276  1.00  0.00     0.309 C 
ATOM      7  O   UNL A   1      30.747  21.810  25.782  1.00  0.00    -0.252 OA
BRANCH   6   8
ATOM      8  C   UNL A   1      32.758  22.301  24.578  1.00  0.00     0.105 C 
ATOM      9  C   UNL A   1      32.117  30.095  26.756  1.00  0.00     0.179 C 
ATOM     10  C   UNL A   1      32.056  28.740  27.423  1.00  0.00     0.047 C 
ATOM     11  C   UNL A   1      31.478  30.047  25.367  1.00  0.00     0.081 C 
ATOM     12  C   UNL A   1      32.580  27.685  26.465  1.00  0.00     0.026 C 
ATOM     13  C   UNL A   1      31.752  28.814  24.473  1.00  0.00     0.085 C 
ATOM     14  C   UNL A   1      31.528  27.479  25.086  1.00  0.00     0.103 C 
ATOM     15  C   UNL A   1      33.271  28.636  23.969  1.00  0.00     0.041 C 
ATOM     16  C   UNL A   1      31.042  26.284  25.754  1.00  0.00     0.316 C 
ATOM     17  C   UNL A   1      31.726  26.480  23.703  1.00  0.00     0.054 C 
ATOM     18  C   UNL A   1      33.912  27.096  24.097  1.00  0.00     0.052 C 
ATOM     19  O   UNL A   1      30.086  26.052  26.453  1.00  0.00    -0.251 OA
ATOM     20  O   UNL A   1      32.192  25.477  25.556  1.00  0.00    -0.458 OA
ATOM     21  C   UNL A   1      32.891  25.858  24.309  1.00  0.00     0.120 C 
ATOM     22  C   UNL A   1      30.688  25.439  23.198  1.00  0.00     0.009 C 
ATOM     23  C   UNL A   1      33.467  24.554  23.802  1.00  0.00     0.040 C 
ATOM     24  C   UNL A   1      30.926  23.967  23.618  1.00  0.00     0.008 C 
ATOM     25  C   UNL A   1      32.393  23.438  23.545  1.00  0.00    -0.013 C 
ATOM     26  C   UNL A   1      34.405  23.989  24.892  1.00  0.00     0.009 C 
ATOM     27  C   UNL A   1      32.672  22.904  22.120  1.00  0.00     0.013 C 
ATOM     28  C   UNL A   1      33.565  22.998  25.670  1.00  0.00     0.016 C 
BRANCH   9  29
ATOM     29  O   UNL A   1      33.504  30.486  26.617  1.00  0.00    -0.462 OA
BRANCH  29  30
ATOM     30  C   UNL A   1      34.047  31.225  27.623  1.00  0.00     0.302 C 
ATOM     31  C   UNL A   1      35.212  30.501  28.225  1.00  0.00     0.139 C 
ATOM     32  O   UNL A   1      33.657  32.316  28.009  1.00  0.00    -0.253 OA
ENDBRANCH  29  30
ENDBRANCH   9  29
BRANCH  13  33
ATOM     33  O   UNL A   1      30.925  28.992  23.315  1.00  0.00    -0.389 OA
ATOM     34  H   UNL A   1      30.463  28.162  23.116  1.00  0.00     0.211 HD
ENDBRANCH  13  33
ENDBRANCH   6   8
ENDBRANCH   5   6
ENDBRANCH   4   5
ENDBRANCH   3   4
ENDBRANCH   2   3
ENDBRANCH   1   2
BRANCH   1  35
ATOM     35  C   UNL A   1      37.458  20.299  24.746  1.00  0.00     0.261 C 
BRANCH  35  36
ATOM     36  O   UNL A   1      38.190  21.470  25.140  1.00  0.00    -0.460 OA
BRANCH  36  37
ATOM     37  C   UNL A   1      39.181  21.225  26.034  1.00  0.00     0.338 C 
ATOM     38  O   UNL A   1      39.792  20.178  26.184  1.00  0.00    -0.246 OA
BRANCH  37  39
ATOM     39  C   UNL A   1      39.587  22.465  26.718  1.00  0.00     0.060 A 
ATOM     40  C   UNL A   1      38.945  23.646  26.326  1.00  0.00     0.016 A 
ATOM     41  C   UNL A   1      40.645  22.495  27.628  1.00  0.00     0.016 A 
ATOM     42  C   UNL A   1      39.404  24.875  26.791  1.00  0.00     0.010 A 
ATOM     43  C   UNL A   1      41.108  23.731  28.088  1.00  0.00     0.010 A 
ATOM     44  C   UNL A   1      40.521  24.927  27.633  1.00  0.00    -0.014 A 
BRANCH  44  45
ATOM     45  C   UNL A   1      41.154  26.238  27.904  1.00  0.00     0.031 A 
ATOM     46  C   UNL A   1      42.537  26.503  27.371  1.00  0.00     0.074 A 
ATOM     47  C   UNL A   1      40.493  27.188  28.590  1.00  0.00     0.049 A 
ATOM     48  N   UNL A   1      43.271  27.580  27.475  1.00  0.00    -0.248 NA
ATOM     49  C   UNL A   1      43.182  25.410  26.621  1.00  0.00     0.031 C 
ATOM     50  C   UNL A   1      39.154  27.039  29.157  1.00  0.00     0.029 A 
ATOM     51  N   UNL A   1      40.873  28.457  28.945  1.00  0.00    -0.354 N 
ATOM     52  C   UNL A   1      44.472  27.285  26.842  1.00  0.00     0.074 A 
ATOM     53  C   UNL A   1      44.373  25.927  26.354  1.00  0.00     0.031 C 
ATOM     54  C   UNL A   1      38.835  28.165  29.820  1.00  0.00     0.029 A 
ATOM     55  C   UNL A   1      39.954  29.102  29.739  1.00  0.00     0.049 A 
ATOM     56  H   UNL A   1      41.721  28.867  28.660  1.00  0.00     0.167 HD
ATOM     57  C   UNL A   1      45.554  28.079  26.670  1.00  0.00     0.034 A 
ATOM     58  C   UNL A   1      40.020  30.302  30.347  1.00  0.00     0.034 A 
ATOM     59  C   UNL A   1      45.633  29.440  27.125  1.00  0.00     0.049 A 
ATOM     60  C   UNL A   1      41.236  31.166  30.131  1.00  0.00     0.074 A 
ATOM     61  C   UNL A   1      46.656  30.351  26.934  1.00  0.00     0.029 A 
ATOM     62  N   UNL A   1      44.658  30.082  27.871  1.00  0.00    -0.354 N 
ATOM     63  N   UNL A   1      42.301  30.927  29.405  1.00  0.00    -0.248 NA
ATOM     64  C   UNL A   1      41.243  32.482  30.788  1.00  0.00     0.031 C 
ATOM     65  C   UNL A   1      46.314  31.535  27.595  1.00  0.00     0.029 A 
ATOM     66  C   UNL A   1      45.063  31.372  28.166  1.00  0.00     0.049 A 
ATOM     67  H   UNL A   1      43.803  29.680  28.151  1.00  0.00     0.167 HD
ATOM     68  C   UNL A   1      43.086  32.073  29.487  1.00  0.00     0.074 A 
ATOM     69  C   UNL A   1      42.363  33.014  30.315  1.00  0.00     0.031 C 
ATOM     70  C   UNL A   1      44.303  32.318  28.942  1.00  0.00     0.034 A 
BRANCH  57  71
ATOM     71  C   UNL A   1      46.743  27.514  25.940  1.00  0.00     0.023 A 
ATOM     72  C   UNL A   1      46.893  27.748  24.559  1.00  0.00     0.012 A 
ATOM     73  C   UNL A   1      47.758  26.836  26.643  1.00  0.00     0.148 A 
ATOM     74  C   UNL A   1      48.027  27.300  23.883  1.00  0.00     0.002 A 
ATOM     75  C   UNL A   1      48.906  26.430  25.971  1.00  0.00     0.091 A 
ATOM     76  F   UNL A   1      47.585  26.607  27.952  1.00  0.00    -0.205 F 
ATOM     77  C   UNL A   1      49.038  26.654  24.591  1.00  0.00     0.022 A 
BRANCH  75  78
ATOM     78  S   UNL A   1      50.297  25.659  26.806  1.00  0.00     0.127 S 
ATOM     79  O   UNL A   1      51.221  25.435  25.695  1.00  0.00    -0.237 OA
ATOM     80  O   UNL A   1      50.711  26.706  27.740  1.00  0.00    -0.237 OA
ATOM     81  O   UNL A   1      49.776  24.453  27.433  1.00  0.00    -0.744 OA
ENDBRANCH  75  78
ENDBRANCH  57  71
BRANCH  58  82
ATOM     82  C   UNL A   1      38.895  30.772  31.205  1.00  0.00     0.023 A 
ATOM     83  C   UNL A   1      38.805  30.338  32.542  1.00  0.00     0.012 A 
ATOM     84  C   UNL A   1      37.909  31.641  30.697  1.00  0.00     0.148 A 
ATOM     85  C   UNL A   1      37.733  30.730  33.345  1.00  0.00     0.002 A 
ATOM     86  C   UNL A   1      36.874  32.070  31.519  1.00  0.00     0.091 A 
ATOM     87  F   UNL A   1      38.000  32.026  29.416  1.00  0.00    -0.205 F 
ATOM     88  C   UNL A   1      36.773  31.602  32.838  1.00  0.00     0.022 A 
BRANCH  86  89
ATOM     89  S   UNL A   1      35.663  33.283  30.982  1.00  0.00     0.127 S 
ATOM     90  O   UNL A   1      34.421  32.517  31.055  1.00  0.00    -0.237 OA
ATOM     91  O   UNL A   1      35.805  34.326  31.999  1.00  0.00    -0.237 OA
ATOM     92  O   UNL A   1      36.082  33.686  29.646  1.00  0.00    -0.744 OA
ENDBRANCH  86  89
ENDBRANCH  58  82
BRANCH  70  93
ATOM     93  C   UNL A   1      44.920  33.671  29.181  1.00  0.00     0.023 A 
ATOM     94  C   UNL A   1      45.824  33.851  30.246  1.00  0.00     0.012 A 
ATOM     95  C   UNL A   1      44.665  34.741  28.301  1.00  0.00     0.148 A 
ATOM     96  C   UNL A   1      46.440  35.085  30.451  1.00  0.00     0.002 A 
ATOM     97  C   UNL A   1      45.321  35.952  28.481  1.00  0.00     0.091 A 
ATOM     98  F   UNL A   1      43.788  34.555  27.303  1.00  0.00    -0.205 F 
ATOM     99  C   UNL A   1      46.199  36.130  29.562  1.00  0.00     0.022 A 
BRANCH  97 100
ATOM    100  S   UNL A   1      45.150  37.320  27.328  1.00  0.00     0.127 S 
ATOM    101  O   UNL A   1      45.540  38.458  28.157  1.00  0.00    -0.237 OA
ATOM    102  O   UNL A   1      46.110  36.968  26.281  1.00  0.00    -0.237 OA
ATOM    103  O   UNL A   1      43.758  37.308  26.896  1.00  0.00    -0.744 OA
ENDBRANCH  97 100
ENDBRANCH  70  93
ENDBRANCH  44  45
ENDBRANCH  37  39
ENDBRANCH  36  37
ENDBRANCH  35  36
ENDBRANCH   1  35
TORSDOF 20
ENDMDL
