MODEL 1
REMARK VINA RESULT:     -12.8      0.000      0.000
REMARK SMILES O=C(OCCOCCOC(=O)c1ccc(-c2c3nc(c(-c4cccc(S(=O)(=O)[O-])c4F)c4ccc([nH]4)c(-c4cccc(S(=O)(=O)[O-])c4F)c4nc(c(-c5cccc(S(=O)(=O)[O-])c5F)c5ccc2[nH]5)C=C4)C=C3)cc1)C1=Cc2cc(Cl)cc(C#Cc3ccccc3)c2O[C@@H]1C(F)(F)F
REMARK SMILES IDX 7 1 6 2 5 3 4 4 3 5 2 6 1 7 75 8 76 9 93 10 77 11 92 12
REMARK SMILES IDX 78 13 91 14 79 15 82 16 80 17 81 18 94 19 95 20 96 21 97 22
REMARK SMILES IDX 83 23 84 24 85 25 86 26 90 27 87 28 89 29 88 30 8 31 9 32
REMARK SMILES IDX 10 33 11 34 12 35 13 36 74 37 14 38 73 39 15 40 16 41 17 42
REMARK SMILES IDX 67 43 18 44 72 45 66 46 68 47 19 48 71 49 65 50 64 51 20 53
REMARK SMILES IDX 52 54 32 55 51 56 33 57 36 58 50 59 69 60 34 61 35 62 49 64
REMARK SMILES IDX 70 65 37 66 21 67 22 68 30 69 23 70 25 71 31 72 24 73 26 74
REMARK SMILES IDX 27 75 28 76 29 77 53 78 54 79 62 80 55 81 57 82 63 83 56 84
REMARK SMILES IDX 58 85 59 86 60 87 61 88 38 89 39 90 47 91 40 92 42 93 48 94
REMARK SMILES IDX 41 95 43 96 44 97 45 98 46 99
REMARK H PARENT 68 52 36 63
REMARK Flexibility Score: inf
ROOT
ATOM      1  C   UNL A   1      36.166  20.127  24.954  1.00  0.00     0.202 C 
ENDROOT
BRANCH   1   2
ATOM      2  O   UNL A   1      34.797  20.234  24.543  1.00  0.00    -0.374 OA
BRANCH   2   3
ATOM      3  C   UNL A   1      33.471  20.064  25.339  1.00  0.00     0.202 C 
BRANCH   3   4
ATOM      4  C   UNL A   1      31.744  21.372  25.576  1.00  0.00     0.261 C 
BRANCH   4   5
ATOM      5  O   UNL A   1      31.292  22.499  24.617  1.00  0.00    -0.460 OA
BRANCH   5   6
ATOM      6  C   UNL A   1      31.132  23.676  25.225  1.00  0.00     0.338 C 
ATOM      7  O   UNL A   1      30.364  24.016  26.087  1.00  0.00    -0.246 OA
BRANCH   6   8
ATOM      8  C   UNL A   1      31.968  24.414  24.312  1.00  0.00     0.087 C 
ATOM      9  C   UNL A   1      31.101  25.277  23.455  1.00  0.00     0.027 C 
ATOM     10  C   UNL A   1      33.242  25.075  25.613  1.00  0.00     0.316 C 
ATOM     11  C   UNL A   1      31.033  27.090  23.625  1.00  0.00     0.020 A 
ATOM     12  O   UNL A   1      33.148  26.982  25.832  1.00  0.00    -0.474 OA
ATOM     13  C   UNL A   1      30.096  27.762  22.897  1.00  0.00     0.032 A 
ATOM     14  C   UNL A   1      31.938  27.941  24.871  1.00  0.00     0.143 A 
ATOM     15  C   UNL A   1      29.938  29.090  23.286  1.00  0.00     0.043 A 
ATOM     16  C   UNL A   1      31.673  29.229  25.223  1.00  0.00     0.069 A 
ATOM     17  Cl  UNL A   1      28.797  30.042  22.385  1.00  0.00    -0.084 Cl
ATOM     18  C   UNL A   1      30.648  29.746  24.383  1.00  0.00     0.041 A 
BRANCH  10  19
ATOM     19  C   UNL A   1      34.491  24.159  25.328  1.00  0.00     0.430 C 
ATOM     20  F   UNL A   1      35.690  24.715  25.570  1.00  0.00    -0.167 F 
ATOM     21  F   UNL A   1      34.408  23.092  26.181  1.00  0.00    -0.167 F 
ATOM     22  F   UNL A   1      34.500  23.591  24.097  1.00  0.00    -0.167 F 
ENDBRANCH  10  19
BRANCH  16  23
ATOM     23  C   UNL A   1      32.303  30.015  26.249  1.00  0.00    -0.058 C 
ATOM     24  C   UNL A   1      32.985  30.681  26.986  1.00  0.00    -0.062 C 
BRANCH  24  25
ATOM     25  C   UNL A   1      34.030  31.418  27.670  1.00  0.00     0.025 A 
ATOM     26  C   UNL A   1      35.302  30.849  27.821  1.00  0.00     0.017 A 
ATOM     27  C   UNL A   1      33.873  32.783  27.949  1.00  0.00     0.017 A 
ATOM     28  C   UNL A   1      36.410  31.650  28.139  1.00  0.00     0.001 A 
ATOM     29  C   UNL A   1      34.981  33.584  28.256  1.00  0.00     0.001 A 
ATOM     30  C   UNL A   1      36.253  33.022  28.331  1.00  0.00     0.000 A 
ENDBRANCH  24  25
ENDBRANCH  16  23
ENDBRANCH   6   8
ENDBRANCH   5   6
ENDBRANCH   4   5
ENDBRANCH   3   4
ENDBRANCH   2   3
ENDBRANCH   1   2
BRANCH   1  31
ATOM     31  C   UNL A   1      37.228  21.174  24.663  1.00  0.00     0.261 C 
BRANCH  31  32
ATOM     32  O   UNL A   1      37.736  21.884  25.778  1.00  0.00    -0.460 OA
BRANCH  32  33
ATOM     33  C   UNL A   1      39.038  21.669  26.090  1.00  0.00     0.338 C 
ATOM     34  O   UNL A   1      39.699  20.669  25.895  1.00  0.00    -0.246 OA
BRANCH  33  35
ATOM     35  C   UNL A   1      39.476  22.890  26.799  1.00  0.00     0.060 A 
ATOM     36  C   UNL A   1      40.567  22.898  27.667  1.00  0.00     0.016 A 
ATOM     37  C   UNL A   1      38.876  24.089  26.441  1.00  0.00     0.016 A 
ATOM     38  C   UNL A   1      41.171  24.127  28.029  1.00  0.00     0.010 A 
ATOM     39  C   UNL A   1      39.495  25.289  26.785  1.00  0.00     0.010 A 
ATOM     40  C   UNL A   1      40.692  25.342  27.520  1.00  0.00    -0.014 A 
BRANCH  40  41
ATOM     41  C   UNL A   1      41.309  26.695  27.784  1.00  0.00     0.031 A 
ATOM     42  C   UNL A   1      42.709  26.929  27.274  1.00  0.00     0.074 A 
ATOM     43  C   UNL A   1      40.788  27.644  28.603  1.00  0.00     0.049 A 
ATOM     44  N   UNL A   1      43.517  27.928  27.513  1.00  0.00    -0.248 NA
ATOM     45  C   UNL A   1      43.310  25.853  26.464  1.00  0.00     0.031 C 
ATOM     46  C   UNL A   1      39.566  27.523  29.381  1.00  0.00     0.029 A 
ATOM     47  N   UNL A   1      41.258  28.888  28.992  1.00  0.00    -0.354 N 
ATOM     48  C   UNL A   1      44.727  27.566  26.944  1.00  0.00     0.074 A 
ATOM     49  C   UNL A   1      44.578  26.225  26.431  1.00  0.00     0.031 C 
ATOM     50  C   UNL A   1      39.339  28.633  30.101  1.00  0.00     0.029 A 
ATOM     51  C   UNL A   1      40.453  29.548  29.907  1.00  0.00     0.049 A 
ATOM     52  H   UNL A   1      42.096  29.272  28.645  1.00  0.00     0.167 HD
ATOM     53  C   UNL A   1      45.854  28.297  26.794  1.00  0.00     0.034 A 
ATOM     54  C   UNL A   1      40.599  30.725  30.558  1.00  0.00     0.034 A 
ATOM     55  C   UNL A   1      45.999  29.660  27.205  1.00  0.00     0.049 A 
ATOM     56  C   UNL A   1      41.836  31.555  30.309  1.00  0.00     0.074 A 
ATOM     57  C   UNL A   1      47.041  30.526  26.928  1.00  0.00     0.029 A 
ATOM     58  N   UNL A   1      45.094  30.352  27.989  1.00  0.00    -0.354 N 
ATOM     59  N   UNL A   1      42.862  31.292  29.540  1.00  0.00    -0.248 NA
ATOM     60  C   UNL A   1      41.924  32.860  30.991  1.00  0.00     0.031 C 
ATOM     61  C   UNL A   1      46.788  31.732  27.581  1.00  0.00     0.029 A 
ATOM     62  C   UNL A   1      45.567  31.629  28.225  1.00  0.00     0.049 A 
ATOM     63  H   UNL A   1      44.244  29.990  28.327  1.00  0.00     0.167 HD
ATOM     64  C   UNL A   1      43.686  32.411  29.610  1.00  0.00     0.074 A 
ATOM     65  C   UNL A   1      43.034  33.367  30.474  1.00  0.00     0.031 C 
ATOM     66  C   UNL A   1      44.889  32.614  29.023  1.00  0.00     0.034 A 
BRANCH  53  67
ATOM     67  C   UNL A   1      46.999  27.656  26.067  1.00  0.00     0.023 A 
ATOM     68  C   UNL A   1      47.814  26.721  26.738  1.00  0.00     0.012 A 
ATOM     69  C   UNL A   1      47.221  27.927  24.706  1.00  0.00     0.148 A 
ATOM     70  C   UNL A   1      48.864  26.094  26.075  1.00  0.00     0.002 A 
ATOM     71  C   UNL A   1      48.230  27.251  24.036  1.00  0.00     0.091 A 
ATOM     72  F   UNL A   1      46.443  28.834  24.099  1.00  0.00    -0.205 F 
ATOM     73  C   UNL A   1      49.061  26.348  24.721  1.00  0.00     0.022 A 
BRANCH  71  74
ATOM     74  S   UNL A   1      48.508  27.432  22.274  1.00  0.00     0.127 S 
ATOM     75  O   UNL A   1      49.705  28.272  22.249  1.00  0.00    -0.237 OA
ATOM     76  O   UNL A   1      48.726  26.046  21.860  1.00  0.00    -0.237 OA
ATOM     77  O   UNL A   1      47.307  28.053  21.734  1.00  0.00    -0.744 OA
ENDBRANCH  71  74
ENDBRANCH  53  67
BRANCH  54  78
ATOM     78  C   UNL A   1      39.552  31.257  31.495  1.00  0.00     0.023 A 
ATOM     79  C   UNL A   1      38.525  32.077  30.977  1.00  0.00     0.012 A 
ATOM     80  C   UNL A   1      39.615  31.054  32.888  1.00  0.00     0.148 A 
ATOM     81  C   UNL A   1      37.637  32.743  31.826  1.00  0.00     0.002 A 
ATOM     82  C   UNL A   1      38.689  31.675  33.725  1.00  0.00     0.091 A 
ATOM     83  F   UNL A   1      40.592  30.275  33.372  1.00  0.00    -0.205 F 
ATOM     84  C   UNL A   1      37.718  32.541  33.199  1.00  0.00     0.022 A 
BRANCH  82  85
ATOM     85  S   UNL A   1      38.639  31.402  35.501  1.00  0.00     0.127 S 
ATOM     86  O   UNL A   1      38.659  29.944  35.582  1.00  0.00    -0.237 OA
ATOM     87  O   UNL A   1      39.870  32.060  35.940  1.00  0.00    -0.237 OA
ATOM     88  O   UNL A   1      37.414  32.043  35.960  1.00  0.00    -0.744 OA
ENDBRANCH  82  85
ENDBRANCH  54  78
BRANCH  66  89
ATOM     89  C   UNL A   1      45.575  33.940  29.220  1.00  0.00     0.023 A 
ATOM     90  C   UNL A   1      46.438  34.134  30.315  1.00  0.00     0.012 A 
ATOM     91  C   UNL A   1      45.449  34.954  28.248  1.00  0.00     0.148 A 
ATOM     92  C   UNL A   1      47.150  35.326  30.451  1.00  0.00     0.002 A 
ATOM     93  C   UNL A   1      46.202  36.115  28.361  1.00  0.00     0.091 A 
ATOM     94  F   UNL A   1      44.613  34.752  27.220  1.00  0.00    -0.205 F 
ATOM     95  C   UNL A   1      47.044  36.308  29.468  1.00  0.00     0.022 A 
BRANCH  93  96
ATOM     96  S   UNL A   1      46.213  37.387  27.094  1.00  0.00     0.127 S 
ATOM     97  O   UNL A   1      44.802  37.770  27.047  1.00  0.00    -0.237 OA
ATOM     98  O   UNL A   1      47.099  38.394  27.676  1.00  0.00    -0.237 OA
ATOM     99  O   UNL A   1      46.721  36.754  25.886  1.00  0.00    -0.744 OA
ENDBRANCH  93  96
ENDBRANCH  66  89
ENDBRANCH  40  41
ENDBRANCH  33  35
ENDBRANCH  32  33
ENDBRANCH  31  32
ENDBRANCH   1  31
TORSDOF 20
ENDMDL
MODEL 2
REMARK VINA RESULT:     -12.8      4.312     10.555
REMARK SMILES O=C(OCCOCCOC(=O)c1ccc(-c2c3nc(c(-c4cccc(S(=O)(=O)[O-])c4F)c4ccc([nH]4)c(-c4cccc(S(=O)(=O)[O-])c4F)c4nc(c(-c5cccc(S(=O)(=O)[O-])c5F)c5ccc2[nH]5)C=C4)C=C3)cc1)C1=Cc2cc(Cl)cc(C#Cc3ccccc3)c2O[C@@H]1C(F)(F)F
REMARK SMILES IDX 7 1 6 2 5 3 4 4 3 5 2 6 1 7 75 8 76 9 93 10 77 11 92 12
REMARK SMILES IDX 78 13 91 14 79 15 82 16 80 17 81 18 94 19 95 20 96 21 97 22
REMARK SMILES IDX 83 23 84 24 85 25 86 26 90 27 87 28 89 29 88 30 8 31 9 32
REMARK SMILES IDX 10 33 11 34 12 35 13 36 74 37 14 38 73 39 15 40 16 41 17 42
REMARK SMILES IDX 67 43 18 44 72 45 66 46 68 47 19 48 71 49 65 50 64 51 20 53
REMARK SMILES IDX 52 54 32 55 51 56 33 57 36 58 50 59 69 60 34 61 35 62 49 64
REMARK SMILES IDX 70 65 37 66 21 67 22 68 30 69 23 70 25 71 31 72 24 73 26 74
REMARK SMILES IDX 27 75 28 76 29 77 53 78 54 79 62 80 55 81 57 82 63 83 56 84
REMARK SMILES IDX 58 85 59 86 60 87 61 88 38 89 39 90 47 91 40 92 42 93 48 94
REMARK SMILES IDX 41 95 43 96 44 97 45 98 46 99
REMARK H PARENT 68 52 36 63
REMARK Flexibility Score: inf
ROOT
ATOM      1  C   UNL A   1      31.083  30.472  25.310  1.00  0.00     0.202 C 
ENDROOT
BRANCH   1   2
ATOM      2  O   UNL A   1      31.373  29.779  24.090  1.00  0.00    -0.374 OA
BRANCH   2   3
ATOM      3  C   UNL A   1      30.580  28.684  23.319  1.00  0.00     0.202 C 
BRANCH   3   4
ATOM      4  C   UNL A   1      31.232  27.098  21.974  1.00  0.00     0.261 C 
BRANCH   4   5
ATOM      5  O   UNL A   1      31.285  25.582  22.280  1.00  0.00    -0.460 OA
BRANCH   5   6
ATOM      6  C   UNL A   1      32.528  25.116  22.418  1.00  0.00     0.338 C 
ATOM      7  O   UNL A   1      33.367  24.864  21.593  1.00  0.00    -0.246 OA
BRANCH   6   8
ATOM      8  C   UNL A   1      32.389  24.771  23.811  1.00  0.00     0.087 C 
ATOM      9  C   UNL A   1      32.044  23.322  23.915  1.00  0.00     0.027 C 
ATOM     10  C   UNL A   1      34.045  25.560  24.433  1.00  0.00     0.316 C 
ATOM     11  C   UNL A   1      33.214  22.068  24.531  1.00  0.00     0.020 A 
ATOM     12  O   UNL A   1      35.303  24.243  25.043  1.00  0.00    -0.474 OA
ATOM     13  C   UNL A   1      32.848  20.758  24.441  1.00  0.00     0.032 A 
ATOM     14  C   UNL A   1      34.867  22.479  24.975  1.00  0.00     0.143 A 
ATOM     15  C   UNL A   1      33.894  19.871  24.680  1.00  0.00     0.043 A 
ATOM     16  C   UNL A   1      35.841  21.540  25.133  1.00  0.00     0.069 A 
ATOM     17  Cl  UNL A   1      33.515  18.176  24.633  1.00  0.00    -0.084 Cl
ATOM     18  C   UNL A   1      35.279  20.245  24.965  1.00  0.00     0.041 A 
BRANCH  10  19
ATOM     19  C   UNL A   1      33.526  26.860  25.154  1.00  0.00     0.430 C 
ATOM     20  F   UNL A   1      32.210  26.890  25.427  1.00  0.00    -0.167 F 
ATOM     21  F   UNL A   1      34.150  26.922  26.370  1.00  0.00    -0.167 F 
ATOM     22  F   UNL A   1      33.882  28.019  24.546  1.00  0.00    -0.167 F 
ENDBRANCH  10  19
BRANCH  16  23
ATOM     23  C   UNL A   1      37.228  21.749  25.445  1.00  0.00    -0.058 C 
ATOM     24  C   UNL A   1      38.394  21.732  25.753  1.00  0.00    -0.062 C 
BRANCH  24  25
ATOM     25  C   UNL A   1      39.730  21.430  26.231  1.00  0.00     0.025 A 
ATOM     26  C   UNL A   1      40.338  22.266  27.176  1.00  0.00     0.017 A 
ATOM     27  C   UNL A   1      40.314  20.184  25.966  1.00  0.00     0.017 A 
ATOM     28  C   UNL A   1      41.445  21.820  27.917  1.00  0.00     0.001 A 
ATOM     29  C   UNL A   1      41.412  19.735  26.713  1.00  0.00     0.001 A 
ATOM     30  C   UNL A   1      41.965  20.544  27.703  1.00  0.00     0.000 A 
ENDBRANCH  24  25
ENDBRANCH  16  23
ENDBRANCH   6   8
ENDBRANCH   5   6
ENDBRANCH   4   5
ENDBRANCH   3   4
ENDBRANCH   2   3
ENDBRANCH   1   2
BRANCH   1  31
ATOM     31  C   UNL A   1      31.778  30.197  26.634  1.00  0.00     0.261 C 
BRANCH  31  32
ATOM     32  O   UNL A   1      33.182  30.379  26.659  1.00  0.00    -0.460 OA
BRANCH  32  33
ATOM     33  C   UNL A   1      33.645  31.413  27.403  1.00  0.00     0.338 C 
ATOM     34  O   UNL A   1      33.085  32.460  27.659  1.00  0.00    -0.246 OA
BRANCH  33  35
ATOM     35  C   UNL A   1      35.023  31.035  27.782  1.00  0.00     0.060 A 
ATOM     36  C   UNL A   1      35.996  31.982  28.098  1.00  0.00     0.016 A 
ATOM     37  C   UNL A   1      35.283  29.688  27.989  1.00  0.00     0.016 A 
ATOM     38  C   UNL A   1      37.163  31.587  28.798  1.00  0.00     0.010 A 
ATOM     39  C   UNL A   1      36.424  29.318  28.700  1.00  0.00     0.010 A 
ATOM     40  C   UNL A   1      37.353  30.254  29.187  1.00  0.00    -0.014 A 
BRANCH  40  41
ATOM     41  C   UNL A   1      38.522  29.747  29.997  1.00  0.00     0.031 A 
ATOM     42  C   UNL A   1      38.699  30.310  31.385  1.00  0.00     0.074 A 
ATOM     43  C   UNL A   1      39.530  28.975  29.514  1.00  0.00     0.049 A 
ATOM     44  N   UNL A   1      39.703  30.169  32.209  1.00  0.00    -0.248 NA
ATOM     45  C   UNL A   1      37.649  31.225  31.870  1.00  0.00     0.031 C 
ATOM     46  C   UNL A   1      39.676  28.522  28.141  1.00  0.00     0.029 A 
ATOM     47  N   UNL A   1      40.686  28.490  30.105  1.00  0.00    -0.354 N 
ATOM     48  C   UNL A   1      39.434  31.025  33.265  1.00  0.00     0.074 A 
ATOM     49  C   UNL A   1      38.226  31.746  32.938  1.00  0.00     0.031 C 
ATOM     50  C   UNL A   1      40.791  27.791  27.989  1.00  0.00     0.029 A 
ATOM     51  C   UNL A   1      41.513  27.777  29.252  1.00  0.00     0.049 A 
ATOM     52  H   UNL A   1      40.901  28.640  31.054  1.00  0.00     0.167 HD
ATOM     53  C   UNL A   1      40.086  31.164  34.440  1.00  0.00     0.034 A 
ATOM     54  C   UNL A   1      42.729  27.212  29.432  1.00  0.00     0.034 A 
ATOM     55  C   UNL A   1      41.228  30.395  34.831  1.00  0.00     0.049 A 
ATOM     56  C   UNL A   1      43.397  27.320  30.783  1.00  0.00     0.074 A 
ATOM     57  C   UNL A   1      41.835  30.346  36.073  1.00  0.00     0.029 A 
ATOM     58  N   UNL A   1      41.944  29.558  33.997  1.00  0.00    -0.354 N 
ATOM     59  N   UNL A   1      42.977  27.931  31.862  1.00  0.00    -0.248 NA
ATOM     60  C   UNL A   1      44.694  26.637  30.953  1.00  0.00     0.031 C 
ATOM     61  C   UNL A   1      42.949  29.511  35.979  1.00  0.00     0.029 A 
ATOM     62  C   UNL A   1      43.004  29.006  34.691  1.00  0.00     0.049 A 
ATOM     63  H   UNL A   1      41.731  29.382  33.052  1.00  0.00     0.167 HD
ATOM     64  C   UNL A   1      43.928  27.665  32.843  1.00  0.00     0.074 A 
ATOM     65  C   UNL A   1      44.933  26.820  32.243  1.00  0.00     0.031 C 
ATOM     66  C   UNL A   1      43.968  28.103  34.123  1.00  0.00     0.034 A 
BRANCH  53  67
ATOM     67  C   UNL A   1      39.516  32.133  35.434  1.00  0.00     0.023 A 
ATOM     68  C   UNL A   1      38.534  31.696  36.347  1.00  0.00     0.012 A 
ATOM     69  C   UNL A   1      40.002  33.449  35.506  1.00  0.00     0.148 A 
ATOM     70  C   UNL A   1      38.012  32.571  37.295  1.00  0.00     0.002 A 
ATOM     71  C   UNL A   1      39.521  34.296  36.494  1.00  0.00     0.091 A 
ATOM     72  F   UNL A   1      40.921  33.842  34.613  1.00  0.00    -0.205 F 
ATOM     73  C   UNL A   1      38.517  33.865  37.377  1.00  0.00     0.022 A 
BRANCH  71  74
ATOM     74  S   UNL A   1      40.171  35.948  36.748  1.00  0.00     0.127 S 
ATOM     75  O   UNL A   1      41.597  35.679  36.929  1.00  0.00    -0.237 OA
ATOM     76  O   UNL A   1      39.829  36.604  35.486  1.00  0.00    -0.237 OA
ATOM     77  O   UNL A   1      39.489  36.478  37.920  1.00  0.00    -0.744 OA
ENDBRANCH  71  74
ENDBRANCH  53  67
BRANCH  54  78
ATOM     78  C   UNL A   1      43.425  26.445  28.344  1.00  0.00     0.023 A 
ATOM     79  C   UNL A   1      43.220  25.051  28.253  1.00  0.00     0.012 A 
ATOM     80  C   UNL A   1      44.357  27.048  27.476  1.00  0.00     0.148 A 
ATOM     81  C   UNL A   1      43.979  24.266  27.381  1.00  0.00     0.002 A 
ATOM     82  C   UNL A   1      45.068  26.267  26.567  1.00  0.00     0.091 A 
ATOM     83  F   UNL A   1      44.546  28.372  27.568  1.00  0.00    -0.205 F 
ATOM     84  C   UNL A   1      44.902  24.874  26.537  1.00  0.00     0.022 A 
BRANCH  82  85
ATOM     85  S   UNL A   1      46.208  26.961  25.362  1.00  0.00     0.127 S 
ATOM     86  O   UNL A   1      47.278  27.467  26.218  1.00  0.00    -0.237 OA
ATOM     87  O   UNL A   1      46.559  25.782  24.569  1.00  0.00    -0.237 OA
ATOM     88  O   UNL A   1      45.447  27.971  24.641  1.00  0.00    -0.744 OA
ENDBRANCH  82  85
ENDBRANCH  54  78
BRANCH  66  89
ATOM     89  C   UNL A   1      45.092  27.639  35.011  1.00  0.00     0.023 A 
ATOM     90  C   UNL A   1      46.280  28.388  35.098  1.00  0.00     0.012 A 
ATOM     91  C   UNL A   1      44.915  26.518  35.848  1.00  0.00     0.148 A 
ATOM     92  C   UNL A   1      47.287  28.016  35.990  1.00  0.00     0.002 A 
ATOM     93  C   UNL A   1      45.898  26.186  36.772  1.00  0.00     0.091 A 
ATOM     94  F   UNL A   1      43.781  25.813  35.740  1.00  0.00    -0.205 F 
ATOM     95  C   UNL A   1      47.089  26.926  36.836  1.00  0.00     0.022 A 
BRANCH  93  96
ATOM     96  S   UNL A   1      45.689  24.867  37.972  1.00  0.00     0.127 S 
ATOM     97  O   UNL A   1      44.457  25.273  38.648  1.00  0.00    -0.237 OA
ATOM     98  O   UNL A   1      45.554  23.689  37.115  1.00  0.00    -0.237 OA
ATOM     99  O   UNL A   1      46.884  24.880  38.804  1.00  0.00    -0.744 OA
ENDBRANCH  93  96
ENDBRANCH  66  89
ENDBRANCH  40  41
ENDBRANCH  33  35
ENDBRANCH  32  33
ENDBRANCH  31  32
ENDBRANCH   1  31
TORSDOF 20
ENDMDL
MODEL 3
REMARK VINA RESULT:     -12.7      4.778      9.287
REMARK SMILES O=C(OCCOCCOC(=O)c1ccc(-c2c3nc(c(-c4cccc(S(=O)(=O)[O-])c4F)c4ccc([nH]4)c(-c4cccc(S(=O)(=O)[O-])c4F)c4nc(c(-c5cccc(S(=O)(=O)[O-])c5F)c5ccc2[nH]5)C=C4)C=C3)cc1)C1=Cc2cc(Cl)cc(C#Cc3ccccc3)c2O[C@@H]1C(F)(F)F
REMARK SMILES IDX 7 1 6 2 5 3 4 4 3 5 2 6 1 7 75 8 76 9 93 10 77 11 92 12
REMARK SMILES IDX 78 13 91 14 79 15 82 16 80 17 81 18 94 19 95 20 96 21 97 22
REMARK SMILES IDX 83 23 84 24 85 25 86 26 90 27 87 28 89 29 88 30 8 31 9 32
REMARK SMILES IDX 10 33 11 34 12 35 13 36 74 37 14 38 73 39 15 40 16 41 17 42
REMARK SMILES IDX 67 43 18 44 72 45 66 46 68 47 19 48 71 49 65 50 64 51 20 53
REMARK SMILES IDX 52 54 32 55 51 56 33 57 36 58 50 59 69 60 34 61 35 62 49 64
REMARK SMILES IDX 70 65 37 66 21 67 22 68 30 69 23 70 25 71 31 72 24 73 26 74
REMARK SMILES IDX 27 75 28 76 29 77 53 78 54 79 62 80 55 81 57 82 63 83 56 84
REMARK SMILES IDX 58 85 59 86 60 87 61 88 38 89 39 90 47 91 40 92 42 93 48 94
REMARK SMILES IDX 41 95 43 96 44 97 45 98 46 99
REMARK H PARENT 68 52 36 63
REMARK Flexibility Score: inf
ROOT
ATOM      1  C   UNL A   1      32.011  31.656  26.817  1.00  0.00     0.202 C 
ENDROOT
BRANCH   1   2
ATOM      2  O   UNL A   1      31.247  30.869  25.894  1.00  0.00    -0.374 OA
BRANCH   2   3
ATOM      3  C   UNL A   1      31.608  29.578  25.103  1.00  0.00     0.202 C 
BRANCH   3   4
ATOM      4  C   UNL A   1      31.300  27.468  25.553  1.00  0.00     0.261 C 
BRANCH   4   5
ATOM      5  O   UNL A   1      31.974  26.649  26.681  1.00  0.00    -0.460 OA
BRANCH   5   6
ATOM      6  C   UNL A   1      31.855  25.330  26.517  1.00  0.00     0.338 C 
ATOM      7  O   UNL A   1      31.490  24.475  27.281  1.00  0.00    -0.246 OA
BRANCH   6   8
ATOM      8  C   UNL A   1      32.563  25.286  25.262  1.00  0.00     0.087 C 
ATOM      9  C   UNL A   1      34.031  25.303  25.537  1.00  0.00     0.027 C 
ATOM     10  C   UNL A   1      31.602  23.795  24.482  1.00  0.00     0.316 C 
ATOM     11  C   UNL A   1      35.100  23.848  25.294  1.00  0.00     0.020 A 
ATOM     12  O   UNL A   1      32.710  22.241  24.263  1.00  0.00    -0.474 OA
ATOM     13  C   UNL A   1      36.393  23.930  25.719  1.00  0.00     0.032 A 
ATOM     14  C   UNL A   1      34.451  22.293  24.786  1.00  0.00     0.143 A 
ATOM     15  C   UNL A   1      37.050  22.702  25.741  1.00  0.00     0.043 A 
ATOM     16  C   UNL A   1      35.152  21.131  24.897  1.00  0.00     0.069 A 
ATOM     17  Cl  UNL A   1      38.718  22.712  26.227  1.00  0.00    -0.084 Cl
ATOM     18  C   UNL A   1      36.456  21.413  25.391  1.00  0.00     0.041 A 
BRANCH  10  19
ATOM     19  C   UNL A   1      30.680  24.525  23.435  1.00  0.00     0.430 C 
ATOM     20  F   UNL A   1      31.319  25.199  22.464  1.00  0.00    -0.167 F 
ATOM     21  F   UNL A   1      29.958  23.557  22.792  1.00  0.00    -0.167 F 
ATOM     22  F   UNL A   1      29.732  25.325  23.985  1.00  0.00    -0.167 F 
ENDBRANCH  10  19
BRANCH  16  23
ATOM     23  C   UNL A   1      34.720  19.801  24.566  1.00  0.00    -0.058 C 
ATOM     24  C   UNL A   1      34.294  18.677  24.474  1.00  0.00    -0.062 C 
BRANCH  24  25
ATOM     25  C   UNL A   1      33.753  17.345  24.670  1.00  0.00     0.025 A 
ATOM     26  C   UNL A   1      34.608  16.235  24.653  1.00  0.00     0.017 A 
ATOM     27  C   UNL A   1      32.443  17.172  25.137  1.00  0.00     0.017 A 
ATOM     28  C   UNL A   1      34.193  15.005  25.190  1.00  0.00     0.001 A 
ATOM     29  C   UNL A   1      32.033  15.948  25.682  1.00  0.00     0.001 A 
ATOM     30  C   UNL A   1      32.914  14.870  25.728  1.00  0.00     0.000 A 
ENDBRANCH  24  25
ENDBRANCH  16  23
ENDBRANCH   6   8
ENDBRANCH   5   6
ENDBRANCH   4   5
ENDBRANCH   3   4
ENDBRANCH   2   3
ENDBRANCH   1   2
BRANCH   1  31
ATOM     31  C   UNL A   1      31.803  33.144  27.044  1.00  0.00     0.261 C 
BRANCH  31  32
ATOM     32  O   UNL A   1      32.970  33.921  27.239  1.00  0.00    -0.460 OA
BRANCH  32  33
ATOM     33  C   UNL A   1      33.226  34.322  28.509  1.00  0.00     0.338 C 
ATOM     34  O   UNL A   1      32.593  35.104  29.189  1.00  0.00    -0.246 OA
BRANCH  33  35
ATOM     35  C   UNL A   1      34.496  33.660  28.877  1.00  0.00     0.060 A 
ATOM     36  C   UNL A   1      35.740  34.227  28.600  1.00  0.00     0.016 A 
ATOM     37  C   UNL A   1      34.421  32.528  29.675  1.00  0.00     0.016 A 
ATOM     38  C   UNL A   1      36.893  33.762  29.278  1.00  0.00     0.010 A 
ATOM     39  C   UNL A   1      35.560  32.097  30.353  1.00  0.00     0.010 A 
ATOM     40  C   UNL A   1      36.804  32.741  30.234  1.00  0.00    -0.014 A 
BRANCH  40  41
ATOM     41  C   UNL A   1      37.957  32.228  31.062  1.00  0.00     0.031 A 
ATOM     42  C   UNL A   1      38.757  31.079  30.499  1.00  0.00     0.074 A 
ATOM     43  C   UNL A   1      38.214  32.582  32.348  1.00  0.00     0.049 A 
ATOM     44  N   UNL A   1      39.676  30.353  31.078  1.00  0.00    -0.248 NA
ATOM     45  C   UNL A   1      38.410  30.633  29.137  1.00  0.00     0.031 C 
ATOM     46  C   UNL A   1      37.422  33.494  33.156  1.00  0.00     0.029 A 
ATOM     47  N   UNL A   1      39.179  32.159  33.248  1.00  0.00    -0.354 N 
ATOM     48  C   UNL A   1      39.960  29.336  30.181  1.00  0.00     0.074 A 
ATOM     49  C   UNL A   1      39.056  29.482  29.065  1.00  0.00     0.031 C 
ATOM     50  C   UNL A   1      37.937  33.618  34.390  1.00  0.00     0.029 A 
ATOM     51  C   UNL A   1      39.076  32.721  34.510  1.00  0.00     0.049 A 
ATOM     52  H   UNL A   1      39.881  31.511  33.008  1.00  0.00     0.167 HD
ATOM     53  C   UNL A   1      40.927  28.395  30.234  1.00  0.00     0.034 A 
ATOM     54  C   UNL A   1      39.774  32.519  35.651  1.00  0.00     0.034 A 
ATOM     55  C   UNL A   1      41.898  28.285  31.280  1.00  0.00     0.049 A 
ATOM     56  C   UNL A   1      40.901  31.514  35.655  1.00  0.00     0.074 A 
ATOM     57  C   UNL A   1      43.019  27.477  31.319  1.00  0.00     0.029 A 
ATOM     58  N   UNL A   1      41.861  28.985  32.472  1.00  0.00    -0.354 N 
ATOM     59  N   UNL A   1      41.318  30.741  34.684  1.00  0.00    -0.248 NA
ATOM     60  C   UNL A   1      41.676  31.370  36.903  1.00  0.00     0.031 C 
ATOM     61  C   UNL A   1      43.640  27.654  32.556  1.00  0.00     0.029 A 
ATOM     62  C   UNL A   1      42.929  28.608  33.265  1.00  0.00     0.049 A 
ATOM     63  H   UNL A   1      41.179  29.650  32.718  1.00  0.00     0.167 HD
ATOM     64  C   UNL A   1      42.425  30.063  35.187  1.00  0.00     0.074 A 
ATOM     65  C   UNL A   1      42.633  30.529  36.537  1.00  0.00     0.031 C 
ATOM     66  C   UNL A   1      43.187  29.122  34.582  1.00  0.00     0.034 A 
BRANCH  53  67
ATOM     67  C   UNL A   1      41.039  27.456  29.069  1.00  0.00     0.023 A 
ATOM     68  C   UNL A   1      40.227  26.304  29.024  1.00  0.00     0.012 A 
ATOM     69  C   UNL A   1      41.894  27.751  27.995  1.00  0.00     0.148 A 
ATOM     70  C   UNL A   1      40.295  25.434  27.939  1.00  0.00     0.002 A 
ATOM     71  C   UNL A   1      41.910  26.912  26.890  1.00  0.00     0.091 A 
ATOM     72  F   UNL A   1      42.669  28.843  28.074  1.00  0.00    -0.205 F 
ATOM     73  C   UNL A   1      41.124  25.748  26.867  1.00  0.00     0.022 A 
BRANCH  71  74
ATOM     74  S   UNL A   1      42.869  27.273  25.418  1.00  0.00     0.127 S 
ATOM     75  O   UNL A   1      42.699  26.042  24.647  1.00  0.00    -0.237 OA
ATOM     76  O   UNL A   1      42.163  28.435  24.877  1.00  0.00    -0.237 OA
ATOM     77  O   UNL A   1      44.227  27.535  25.871  1.00  0.00    -0.744 OA
ENDBRANCH  71  74
ENDBRANCH  53  67
BRANCH  54  78
ATOM     78  C   UNL A   1      39.493  33.290  36.909  1.00  0.00     0.023 A 
ATOM     79  C   UNL A   1      40.110  34.547  37.092  1.00  0.00     0.012 A 
ATOM     80  C   UNL A   1      38.719  32.759  37.960  1.00  0.00     0.148 A 
ATOM     81  C   UNL A   1      40.028  35.220  38.314  1.00  0.00     0.002 A 
ATOM     82  C   UNL A   1      38.593  33.463  39.156  1.00  0.00     0.091 A 
ATOM     83  F   UNL A   1      38.136  31.566  37.779  1.00  0.00    -0.205 F 
ATOM     84  C   UNL A   1      39.269  34.679  39.346  1.00  0.00     0.022 A 
BRANCH  82  85
ATOM     85  S   UNL A   1      37.554  32.907  40.515  1.00  0.00     0.127 S 
ATOM     86  O   UNL A   1      37.636  34.036  41.437  1.00  0.00    -0.237 OA
ATOM     87  O   UNL A   1      36.259  32.744  39.853  1.00  0.00    -0.237 OA
ATOM     88  O   UNL A   1      38.155  31.665  40.982  1.00  0.00    -0.744 OA
ENDBRANCH  82  85
ENDBRANCH  54  78
BRANCH  66  89
ATOM     89  C   UNL A   1      44.368  28.560  35.327  1.00  0.00     0.023 A 
ATOM     90  C   UNL A   1      45.638  29.150  35.190  1.00  0.00     0.012 A 
ATOM     91  C   UNL A   1      44.187  27.514  36.256  1.00  0.00     0.148 A 
ATOM     92  C   UNL A   1      46.716  28.695  35.950  1.00  0.00     0.002 A 
ATOM     93  C   UNL A   1      45.251  27.103  37.048  1.00  0.00     0.091 A 
ATOM     94  F   UNL A   1      42.971  26.958  36.362  1.00  0.00    -0.205 F 
ATOM     95  C   UNL A   1      46.519  27.684  36.888  1.00  0.00     0.022 A 
BRANCH  93  96
ATOM     96  S   UNL A   1      45.068  25.884  38.354  1.00  0.00     0.127 S 
ATOM     97  O   UNL A   1      46.433  25.797  38.872  1.00  0.00    -0.237 OA
ATOM     98  O   UNL A   1      44.115  26.535  39.252  1.00  0.00    -0.237 OA
ATOM     99  O   UNL A   1      44.572  24.674  37.714  1.00  0.00    -0.744 OA
ENDBRANCH  93  96
ENDBRANCH  66  89
ENDBRANCH  40  41
ENDBRANCH  33  35
ENDBRANCH  32  33
ENDBRANCH  31  32
ENDBRANCH   1  31
TORSDOF 20
ENDMDL
