MODEL 1
REMARK VINA RESULT:     -11.9      0.000      0.000
REMARK SMILES O=C(OCCOCCOC(=O)[C@@H]1[C@H](C(=O)Nc2ccc(Cn3cncn3)cc2)[C@@H]2C=C[C@H]1CC2)c1ccc(-c2c3nc(c(-c4cccc(S(=O)(=O)[O-])c4F)c4ccc([nH]4)c(-c4cccc(S(=O)(=O)[O-])c4F)c4nc(c(-c5cccc(S(=O)(=O)[O-])c5F)c5ccc2[nH]5)C=C4)C=C3)cc1
REMARK SMILES IDX 7 1 6 2 5 3 4 4 3 5 2 6 1 7 35 8 36 9 97 10 37 11 96 12
REMARK SMILES IDX 38 13 39 14 40 15 90 16 41 17 95 18 89 19 91 20 42 21 94 22
REMARK SMILES IDX 88 23 87 24 43 26 75 27 55 28 74 29 56 30 59 31 73 32 92 33
REMARK SMILES IDX 57 34 58 35 72 37 93 38 60 39 44 40 45 41 53 42 46 43 48 44
REMARK SMILES IDX 54 45 47 46 49 47 50 48 51 49 52 50 76 51 77 52 85 53 78 54
REMARK SMILES IDX 80 55 86 56 79 57 81 58 82 59 83 60 84 61 61 62 62 63 70 64
REMARK SMILES IDX 63 65 65 66 71 67 64 68 66 69 67 70 68 71 69 72 8 73 9 74
REMARK SMILES IDX 10 75 11 76 12 77 13 78 32 79 29 80 31 81 33 82 30 83 34 84
REMARK SMILES IDX 14 85 15 86 16 87 17 89 18 90 28 91 19 92 27 93 20 94 21 95
REMARK SMILES IDX 22 96 23 97 26 98 24 99 25 100
REMARK H PARENT 91 25 59 36 16 88
REMARK Flexibility Score: inf
ROOT
ATOM      1  C   UNL A   1      37.423  21.643  24.833  1.00  0.00     0.202 C 
ENDROOT
BRANCH   1   2
ATOM      2  O   UNL A   1      37.010  20.276  24.683  1.00  0.00    -0.374 OA
BRANCH   2   3
ATOM      3  C   UNL A   1      38.014  19.290  24.910  1.00  0.00     0.202 C 
BRANCH   3   4
ATOM      4  C   UNL A   1      39.202  19.776  25.732  1.00  0.00     0.261 C 
BRANCH   4   5
ATOM      5  O   UNL A   1      40.370  18.960  25.514  1.00  0.00    -0.460 OA
BRANCH   5   6
ATOM      6  C   UNL A   1      41.613  19.378  25.890  1.00  0.00     0.338 C 
ATOM      7  O   UNL A   1      42.644  18.882  25.499  1.00  0.00    -0.246 OA
BRANCH   6   8
ATOM      8  C   UNL A   1      41.641  20.715  26.470  1.00  0.00     0.060 A 
ATOM      9  C   UNL A   1      42.185  21.806  25.810  1.00  0.00     0.016 A 
ATOM     10  C   UNL A   1      41.116  20.817  27.763  1.00  0.00     0.016 A 
ATOM     11  C   UNL A   1      42.428  22.943  26.532  1.00  0.00     0.010 A 
ATOM     12  C   UNL A   1      41.277  21.989  28.463  1.00  0.00     0.010 A 
ATOM     13  C   UNL A   1      42.005  23.012  27.864  1.00  0.00    -0.014 A 
BRANCH  13  14
ATOM     14  C   UNL A   1      42.273  24.261  28.536  1.00  0.00     0.031 A 
ATOM     15  C   UNL A   1      41.236  25.303  28.331  1.00  0.00     0.074 A 
ATOM     16  C   UNL A   1      43.337  24.453  29.327  1.00  0.00     0.049 A 
ATOM     17  N   UNL A   1      41.371  26.466  27.782  1.00  0.00    -0.248 NA
ATOM     18  C   UNL A   1      39.850  24.934  28.657  1.00  0.00     0.031 C 
ATOM     19  C   UNL A   1      44.257  23.455  29.873  1.00  0.00     0.029 A 
ATOM     20  N   UNL A   1      43.711  25.606  29.937  1.00  0.00    -0.354 N 
ATOM     21  C   UNL A   1      40.112  27.053  27.855  1.00  0.00     0.074 A 
ATOM     22  C   UNL A   1      39.192  26.025  28.273  1.00  0.00     0.031 C 
ATOM     23  C   UNL A   1      44.887  23.995  30.940  1.00  0.00     0.029 A 
ATOM     24  C   UNL A   1      44.519  25.396  31.038  1.00  0.00     0.049 A 
ATOM     25  H   UNL A   1      43.435  26.499  29.626  1.00  0.00     0.167 HD
ATOM     26  C   UNL A   1      39.921  28.393  27.742  1.00  0.00     0.034 A 
ATOM     27  C   UNL A   1      44.754  26.294  32.018  1.00  0.00     0.034 A 
ATOM     28  C   UNL A   1      41.039  29.069  27.151  1.00  0.00     0.049 A 
ATOM     29  C   UNL A   1      44.431  27.642  31.491  1.00  0.00     0.074 A 
ATOM     30  C   UNL A   1      41.671  29.022  25.925  1.00  0.00     0.029 A 
ATOM     31  N   UNL A   1      41.899  29.731  27.992  1.00  0.00    -0.354 N 
ATOM     32  N   UNL A   1      45.098  28.234  30.538  1.00  0.00    -0.248 NA
ATOM     33  C   UNL A   1      43.117  28.200  31.766  1.00  0.00     0.031 C 
ATOM     34  C   UNL A   1      43.048  29.259  26.204  1.00  0.00     0.029 A 
ATOM     35  C   UNL A   1      43.173  29.433  27.585  1.00  0.00     0.049 A 
ATOM     36  H   UNL A   1      41.646  30.312  28.747  1.00  0.00     0.167 HD
ATOM     37  C   UNL A   1      44.146  28.956  29.828  1.00  0.00     0.074 A 
ATOM     38  C   UNL A   1      42.983  29.005  30.708  1.00  0.00     0.031 C 
ATOM     39  C   UNL A   1      44.285  29.201  28.488  1.00  0.00     0.034 A 
BRANCH  26  40
ATOM     40  C   UNL A   1      38.795  29.120  28.415  1.00  0.00     0.023 A 
ATOM     41  C   UNL A   1      37.882  29.840  27.621  1.00  0.00     0.012 A 
ATOM     42  C   UNL A   1      38.714  29.295  29.815  1.00  0.00     0.148 A 
ATOM     43  C   UNL A   1      36.927  30.686  28.198  1.00  0.00     0.002 A 
ATOM     44  C   UNL A   1      37.705  30.058  30.386  1.00  0.00     0.091 A 
ATOM     45  F   UNL A   1      39.687  28.824  30.606  1.00  0.00    -0.205 F 
ATOM     46  C   UNL A   1      36.821  30.776  29.582  1.00  0.00     0.022 A 
BRANCH  44  47
ATOM     47  S   UNL A   1      37.496  30.085  32.168  1.00  0.00     0.127 S 
ATOM     48  O   UNL A   1      37.332  28.668  32.473  1.00  0.00    -0.237 OA
ATOM     49  O   UNL A   1      38.756  30.673  32.624  1.00  0.00    -0.237 OA
ATOM     50  O   UNL A   1      36.334  30.941  32.381  1.00  0.00    -0.744 OA
ENDBRANCH  44  47
ENDBRANCH  26  40
BRANCH  27  51
ATOM     51  C   UNL A   1      44.979  26.010  33.448  1.00  0.00     0.023 A 
ATOM     52  C   UNL A   1      46.292  25.931  33.941  1.00  0.00     0.012 A 
ATOM     53  C   UNL A   1      43.911  26.025  34.375  1.00  0.00     0.148 A 
ATOM     54  C   UNL A   1      46.535  25.869  35.317  1.00  0.00     0.002 A 
ATOM     55  C   UNL A   1      44.157  25.940  35.741  1.00  0.00     0.091 A 
ATOM     56  F   UNL A   1      42.662  26.212  33.927  1.00  0.00    -0.205 F 
ATOM     57  C   UNL A   1      45.470  25.871  36.216  1.00  0.00     0.022 A 
BRANCH  55  58
ATOM     58  S   UNL A   1      42.822  25.919  36.946  1.00  0.00     0.127 S 
ATOM     59  O   UNL A   1      43.523  25.535  38.173  1.00  0.00    -0.237 OA
ATOM     60  O   UNL A   1      42.362  27.303  36.912  1.00  0.00    -0.237 OA
ATOM     61  O   UNL A   1      41.879  24.917  36.464  1.00  0.00    -0.744 OA
ENDBRANCH  55  58
ENDBRANCH  27  51
BRANCH  39  62
ATOM     62  C   UNL A   1      45.611  28.869  27.837  1.00  0.00     0.023 A 
ATOM     63  C   UNL A   1      46.683  29.788  27.857  1.00  0.00     0.012 A 
ATOM     64  C   UNL A   1      45.857  27.563  27.375  1.00  0.00     0.148 A 
ATOM     65  C   UNL A   1      47.952  29.431  27.398  1.00  0.00     0.002 A 
ATOM     66  C   UNL A   1      47.137  27.197  26.962  1.00  0.00     0.091 A 
ATOM     67  F   UNL A   1      44.843  26.684  27.373  1.00  0.00    -0.205 F 
ATOM     68  C   UNL A   1      48.183  28.131  26.961  1.00  0.00     0.022 A 
BRANCH  66  69
ATOM     69  S   UNL A   1      47.533  25.499  26.526  1.00  0.00     0.127 S 
ATOM     70  O   UNL A   1      48.922  25.609  26.086  1.00  0.00    -0.237 OA
ATOM     71  O   UNL A   1      47.350  24.789  27.794  1.00  0.00    -0.237 OA
ATOM     72  O   UNL A   1      46.570  25.124  25.497  1.00  0.00    -0.744 OA
ENDBRANCH  66  69
ENDBRANCH  39  62
ENDBRANCH  13  14
ENDBRANCH   6   8
ENDBRANCH   5   6
ENDBRANCH   4   5
ENDBRANCH   3   4
ENDBRANCH   2   3
ENDBRANCH   1   2
BRANCH   1  73
ATOM     73  C   UNL A   1      36.964  22.616  23.746  1.00  0.00     0.261 C 
BRANCH  73  74
ATOM     74  O   UNL A   1      35.594  22.345  23.362  1.00  0.00    -0.463 OA
BRANCH  74  75
ATOM     75  C   UNL A   1      34.695  23.324  23.575  1.00  0.00     0.310 C 
ATOM     76  O   UNL A   1      34.545  24.298  22.842  1.00  0.00    -0.252 OA
BRANCH  75  77
ATOM     77  C   UNL A   1      33.815  23.122  24.787  1.00  0.00     0.119 C 
ATOM     78  C   UNL A   1      32.348  22.659  24.678  1.00  0.00     0.100 C 
ATOM     79  C   UNL A   1      33.969  24.176  25.940  1.00  0.00     0.026 C 
ATOM     80  C   UNL A   1      31.599  23.068  25.981  1.00  0.00     0.025 C 
ATOM     81  C   UNL A   1      32.799  25.136  26.057  1.00  0.00    -0.027 C 
ATOM     82  C   UNL A   1      33.821  23.374  27.257  1.00  0.00     0.009 C 
ATOM     83  C   UNL A   1      31.583  24.564  26.103  1.00  0.00    -0.027 C 
ATOM     84  C   UNL A   1      32.461  22.602  27.211  1.00  0.00     0.009 C 
BRANCH  78  85
ATOM     85  C   UNL A   1      31.586  22.667  23.333  1.00  0.00     0.228 C 
ATOM     86  O   UNL A   1      31.543  21.588  22.711  1.00  0.00    -0.274 OA
ATOM     87  N   UNL A   1      30.852  23.667  22.776  1.00  0.00    -0.326 N 
ATOM     88  H   UNL A   1      30.233  23.334  22.086  1.00  0.00     0.169 HD
BRANCH  87  89
ATOM     89  C   UNL A   1      30.761  25.054  22.943  1.00  0.00     0.041 A 
ATOM     90  C   UNL A   1      29.577  25.601  23.452  1.00  0.00     0.026 A 
ATOM     91  C   UNL A   1      31.757  25.927  22.571  1.00  0.00     0.026 A 
ATOM     92  C   UNL A   1      29.473  26.978  23.726  1.00  0.00     0.008 A 
ATOM     93  C   UNL A   1      31.689  27.284  22.905  1.00  0.00     0.008 A 
ATOM     94  C   UNL A   1      30.554  27.833  23.490  1.00  0.00    -0.026 A 
BRANCH  94  95
ATOM     95  C   UNL A   1      30.544  29.303  23.822  1.00  0.00     0.181 C 
BRANCH  95  96
ATOM     96  N   UNL A   1      29.533  30.061  23.108  1.00  0.00    -0.249 N 
ATOM     97  C   UNL A   1      28.819  31.120  23.576  1.00  0.00     0.220 A 
ATOM     98  N   UNL A   1      29.395  29.947  21.769  1.00  0.00    -0.160 NA
ATOM     99  N   UNL A   1      28.175  31.691  22.588  1.00  0.00    -0.224 NA
ATOM    100  C   UNL A   1      28.546  30.947  21.505  1.00  0.00     0.246 A 
ENDBRANCH  95  96
ENDBRANCH  94  95
ENDBRANCH  87  89
ENDBRANCH  78  85
ENDBRANCH  75  77
ENDBRANCH  74  75
ENDBRANCH  73  74
ENDBRANCH   1  73
TORSDOF 21
ENDMDL
MODEL 2
REMARK VINA RESULT:     -11.8      2.745      3.906
REMARK SMILES O=C(OCCOCCOC(=O)[C@@H]1[C@H](C(=O)Nc2ccc(Cn3cncn3)cc2)[C@@H]2C=C[C@H]1CC2)c1ccc(-c2c3nc(c(-c4cccc(S(=O)(=O)[O-])c4F)c4ccc([nH]4)c(-c4cccc(S(=O)(=O)[O-])c4F)c4nc(c(-c5cccc(S(=O)(=O)[O-])c5F)c5ccc2[nH]5)C=C4)C=C3)cc1
REMARK SMILES IDX 7 1 6 2 5 3 4 4 3 5 2 6 1 7 35 8 36 9 97 10 37 11 96 12
REMARK SMILES IDX 38 13 39 14 40 15 90 16 41 17 95 18 89 19 91 20 42 21 94 22
REMARK SMILES IDX 88 23 87 24 43 26 75 27 55 28 74 29 56 30 59 31 73 32 92 33
REMARK SMILES IDX 57 34 58 35 72 37 93 38 60 39 44 40 45 41 53 42 46 43 48 44
REMARK SMILES IDX 54 45 47 46 49 47 50 48 51 49 52 50 76 51 77 52 85 53 78 54
REMARK SMILES IDX 80 55 86 56 79 57 81 58 82 59 83 60 84 61 61 62 62 63 70 64
REMARK SMILES IDX 63 65 65 66 71 67 64 68 66 69 67 70 68 71 69 72 8 73 9 74
REMARK SMILES IDX 10 75 11 76 12 77 13 78 32 79 29 80 31 81 33 82 30 83 34 84
REMARK SMILES IDX 14 85 15 86 16 87 17 89 18 90 28 91 19 92 27 93 20 94 21 95
REMARK SMILES IDX 22 96 23 97 26 98 24 99 25 100
REMARK H PARENT 91 25 59 36 16 88
REMARK Flexibility Score: inf
ROOT
ATOM      1  C   UNL A   1      34.397  21.954  26.554  1.00  0.00     0.202 C 
ENDROOT
BRANCH   1   2
ATOM      2  O   UNL A   1      35.301  21.700  25.467  1.00  0.00    -0.374 OA
BRANCH   2   3
ATOM      3  C   UNL A   1      35.174  20.432  24.831  1.00  0.00     0.202 C 
BRANCH   3   4
ATOM      4  C   UNL A   1      36.426  19.565  24.894  1.00  0.00     0.261 C 
BRANCH   4   5
ATOM      5  O   UNL A   1      37.628  20.361  24.880  1.00  0.00    -0.460 OA
BRANCH   5   6
ATOM      6  C   UNL A   1      38.769  19.942  25.498  1.00  0.00     0.338 C 
ATOM      7  O   UNL A   1      39.273  18.856  25.332  1.00  0.00    -0.246 OA
BRANCH   6   8
ATOM      8  C   UNL A   1      39.572  21.021  26.059  1.00  0.00     0.060 A 
ATOM      9  C   UNL A   1      40.730  20.793  26.787  1.00  0.00     0.016 A 
ATOM     10  C   UNL A   1      39.071  22.311  25.847  1.00  0.00     0.016 A 
ATOM     11  C   UNL A   1      41.253  21.830  27.511  1.00  0.00     0.010 A 
ATOM     12  C   UNL A   1      39.651  23.372  26.502  1.00  0.00     0.010 A 
ATOM     13  C   UNL A   1      40.686  23.104  27.390  1.00  0.00    -0.014 A 
BRANCH  13  14
ATOM     14  C   UNL A   1      41.325  24.143  28.164  1.00  0.00     0.031 A 
ATOM     15  C   UNL A   1      40.544  25.400  28.266  1.00  0.00     0.074 A 
ATOM     16  C   UNL A   1      42.499  23.973  28.787  1.00  0.00     0.049 A 
ATOM     17  N   UNL A   1      40.875  26.580  27.855  1.00  0.00    -0.248 NA
ATOM     18  C   UNL A   1      39.165  25.287  28.764  1.00  0.00     0.031 C 
ATOM     19  C   UNL A   1      43.222  22.727  29.044  1.00  0.00     0.029 A 
ATOM     20  N   UNL A   1      43.209  24.906  29.470  1.00  0.00    -0.354 N 
ATOM     21  C   UNL A   1      39.810  27.403  28.207  1.00  0.00     0.074 A 
ATOM     22  C   UNL A   1      38.737  26.540  28.635  1.00  0.00     0.031 C 
ATOM     23  C   UNL A   1      44.095  22.942  30.052  1.00  0.00     0.029 A 
ATOM     24  C   UNL A   1      44.082  24.354  30.388  1.00  0.00     0.049 A 
ATOM     25  H   UNL A   1      43.113  25.876  29.325  1.00  0.00     0.167 HD
ATOM     26  C   UNL A   1      39.925  28.753  28.298  1.00  0.00     0.034 A 
ATOM     27  C   UNL A   1      44.647  25.012  31.422  1.00  0.00     0.034 A 
ATOM     28  C   UNL A   1      41.084  29.261  27.624  1.00  0.00     0.049 A 
ATOM     29  C   UNL A   1      44.583  26.465  31.132  1.00  0.00     0.074 A 
ATOM     30  C   UNL A   1      41.521  29.280  26.315  1.00  0.00     0.029 A 
ATOM     31  N   UNL A   1      42.176  29.581  28.390  1.00  0.00    -0.354 N 
ATOM     32  N   UNL A   1      45.240  27.047  30.165  1.00  0.00    -0.248 NA
ATOM     33  C   UNL A   1      43.484  27.238  31.687  1.00  0.00     0.031 C 
ATOM     34  C   UNL A   1      42.939  29.170  26.393  1.00  0.00     0.029 A 
ATOM     35  C   UNL A   1      43.281  29.088  27.745  1.00  0.00     0.049 A 
ATOM     36  H   UNL A   1      42.168  30.073  29.244  1.00  0.00     0.167 HD
ATOM     37  C   UNL A   1      44.399  28.060  29.719  1.00  0.00     0.074 A 
ATOM     38  C   UNL A   1      43.406  28.213  30.777  1.00  0.00     0.031 C 
ATOM     39  C   UNL A   1      44.416  28.483  28.417  1.00  0.00     0.034 A 
BRANCH  26  40
ATOM     40  C   UNL A   1      39.099  29.584  29.234  1.00  0.00     0.023 A 
ATOM     41  C   UNL A   1      38.335  30.643  28.706  1.00  0.00     0.012 A 
ATOM     42  C   UNL A   1      39.201  29.499  30.641  1.00  0.00     0.148 A 
ATOM     43  C   UNL A   1      37.695  31.565  29.543  1.00  0.00     0.002 A 
ATOM     44  C   UNL A   1      38.486  30.356  31.466  1.00  0.00     0.091 A 
ATOM     45  F   UNL A   1      40.087  28.663  31.199  1.00  0.00    -0.205 F 
ATOM     46  C   UNL A   1      37.750  31.408  30.924  1.00  0.00     0.022 A 
BRANCH  44  47
ATOM     47  S   UNL A   1      38.463  30.086  33.240  1.00  0.00     0.127 S 
ATOM     48  O   UNL A   1      39.854  30.337  33.601  1.00  0.00    -0.237 OA
ATOM     49  O   UNL A   1      37.514  31.099  33.701  1.00  0.00    -0.237 OA
ATOM     50  O   UNL A   1      37.983  28.717  33.388  1.00  0.00    -0.744 OA
ENDBRANCH  44  47
ENDBRANCH  26  40
BRANCH  27  51
ATOM     51  C   UNL A   1      44.984  24.460  32.748  1.00  0.00     0.023 A 
ATOM     52  C   UNL A   1      44.070  23.621  33.405  1.00  0.00     0.012 A 
ATOM     53  C   UNL A   1      46.289  24.582  33.281  1.00  0.00     0.148 A 
ATOM     54  C   UNL A   1      44.441  22.923  34.558  1.00  0.00     0.002 A 
ATOM     55  C   UNL A   1      46.647  23.904  34.441  1.00  0.00     0.091 A 
ATOM     56  F   UNL A   1      47.206  25.288  32.606  1.00  0.00    -0.205 F 
ATOM     57  C   UNL A   1      45.726  23.065  35.077  1.00  0.00     0.022 A 
BRANCH  55  58
ATOM     58  S   UNL A   1      48.284  24.063  35.167  1.00  0.00     0.127 S 
ATOM     59  O   UNL A   1      48.156  23.271  36.392  1.00  0.00    -0.237 OA
ATOM     60  O   UNL A   1      49.131  23.467  34.139  1.00  0.00    -0.237 OA
ATOM     61  O   UNL A   1      48.467  25.490  35.402  1.00  0.00    -0.744 OA
ENDBRANCH  55  58
ENDBRANCH  27  51
BRANCH  39  62
ATOM     62  C   UNL A   1      45.530  27.986  27.520  1.00  0.00     0.023 A 
ATOM     63  C   UNL A   1      46.779  28.644  27.477  1.00  0.00     0.012 A 
ATOM     64  C   UNL A   1      45.404  26.746  26.867  1.00  0.00     0.148 A 
ATOM     65  C   UNL A   1      47.858  28.104  26.774  1.00  0.00     0.002 A 
ATOM     66  C   UNL A   1      46.497  26.188  26.207  1.00  0.00     0.091 A 
ATOM     67  F   UNL A   1      44.222  26.112  26.923  1.00  0.00    -0.205 F 
ATOM     68  C   UNL A   1      47.722  26.870  26.149  1.00  0.00     0.022 A 
BRANCH  66  69
ATOM     69  S   UNL A   1      46.427  24.535  25.505  1.00  0.00     0.127 S 
ATOM     70  O   UNL A   1      46.383  23.694  26.699  1.00  0.00    -0.237 OA
ATOM     71  O   UNL A   1      45.183  24.564  24.734  1.00  0.00    -0.237 OA
ATOM     72  O   UNL A   1      47.626  24.408  24.685  1.00  0.00    -0.744 OA
ENDBRANCH  66  69
ENDBRANCH  39  62
ENDBRANCH  13  14
ENDBRANCH   6   8
ENDBRANCH   5   6
ENDBRANCH   4   5
ENDBRANCH   3   4
ENDBRANCH   2   3
ENDBRANCH   1   2
BRANCH   1  73
ATOM     73  C   UNL A   1      33.253  22.930  26.273  1.00  0.00     0.261 C 
BRANCH  73  74
ATOM     74  O   UNL A   1      33.377  23.497  24.946  1.00  0.00    -0.463 OA
BRANCH  74  75
ATOM     75  C   UNL A   1      33.724  24.797  24.868  1.00  0.00     0.310 C 
ATOM     76  O   UNL A   1      34.777  25.259  25.297  1.00  0.00    -0.252 OA
BRANCH  75  77
ATOM     77  C   UNL A   1      32.724  25.675  24.151  1.00  0.00     0.119 C 
ATOM     78  C   UNL A   1      31.824  26.684  24.894  1.00  0.00     0.100 C 
ATOM     79  C   UNL A   1      31.936  25.008  22.969  1.00  0.00     0.026 C 
ATOM     80  C   UNL A   1      30.591  27.003  23.998  1.00  0.00     0.025 C 
ATOM     81  C   UNL A   1      30.479  24.722  23.286  1.00  0.00    -0.027 C 
ATOM     82  C   UNL A   1      31.790  26.113  21.893  1.00  0.00     0.009 C 
ATOM     83  C   UNL A   1      29.782  25.756  23.792  1.00  0.00    -0.027 C 
ATOM     84  C   UNL A   1      31.109  27.356  22.556  1.00  0.00     0.009 C 
BRANCH  78  85
ATOM     85  C   UNL A   1      31.655  26.650  26.430  1.00  0.00     0.228 C 
ATOM     86  O   UNL A   1      30.994  25.703  26.896  1.00  0.00    -0.274 OA
ATOM     87  N   UNL A   1      32.223  27.455  27.367  1.00  0.00    -0.326 N 
ATOM     88  H   UNL A   1      32.202  27.051  28.266  1.00  0.00     0.169 HD
BRANCH  87  89
ATOM     89  C   UNL A   1      32.830  28.716  27.369  1.00  0.00     0.041 A 
ATOM     90  C   UNL A   1      32.088  29.829  26.954  1.00  0.00     0.026 A 
ATOM     91  C   UNL A   1      34.151  28.918  27.696  1.00  0.00     0.026 A 
ATOM     92  C   UNL A   1      32.625  31.128  27.029  1.00  0.00     0.008 A 
ATOM     93  C   UNL A   1      34.670  30.210  27.840  1.00  0.00     0.008 A 
ATOM     94  C   UNL A   1      33.919  31.334  27.515  1.00  0.00    -0.026 A 
BRANCH  94  95
ATOM     95  C   UNL A   1      34.538  32.698  27.690  1.00  0.00     0.181 C 
BRANCH  95  96
ATOM     96  N   UNL A   1      34.008  33.445  28.815  1.00  0.00    -0.249 N 
ATOM     97  C   UNL A   1      34.482  33.456  30.090  1.00  0.00     0.220 A 
ATOM     98  N   UNL A   1      33.118  34.445  28.628  1.00  0.00    -0.160 NA
ATOM     99  N   UNL A   1      33.902  34.414  30.771  1.00  0.00    -0.224 NA
ATOM    100  C   UNL A   1      33.076  34.991  29.850  1.00  0.00     0.246 A 
ENDBRANCH  95  96
ENDBRANCH  94  95
ENDBRANCH  87  89
ENDBRANCH  78  85
ENDBRANCH  75  77
ENDBRANCH  74  75
ENDBRANCH  73  74
ENDBRANCH   1  73
TORSDOF 21
ENDMDL
MODEL 3
REMARK VINA RESULT:     -11.7      3.401      7.163
REMARK SMILES O=C(OCCOCCOC(=O)[C@@H]1[C@H](C(=O)Nc2ccc(Cn3cncn3)cc2)[C@@H]2C=C[C@H]1CC2)c1ccc(-c2c3nc(c(-c4cccc(S(=O)(=O)[O-])c4F)c4ccc([nH]4)c(-c4cccc(S(=O)(=O)[O-])c4F)c4nc(c(-c5cccc(S(=O)(=O)[O-])c5F)c5ccc2[nH]5)C=C4)C=C3)cc1
REMARK SMILES IDX 7 1 6 2 5 3 4 4 3 5 2 6 1 7 35 8 36 9 97 10 37 11 96 12
REMARK SMILES IDX 38 13 39 14 40 15 90 16 41 17 95 18 89 19 91 20 42 21 94 22
REMARK SMILES IDX 88 23 87 24 43 26 75 27 55 28 74 29 56 30 59 31 73 32 92 33
REMARK SMILES IDX 57 34 58 35 72 37 93 38 60 39 44 40 45 41 53 42 46 43 48 44
REMARK SMILES IDX 54 45 47 46 49 47 50 48 51 49 52 50 76 51 77 52 85 53 78 54
REMARK SMILES IDX 80 55 86 56 79 57 81 58 82 59 83 60 84 61 61 62 62 63 70 64
REMARK SMILES IDX 63 65 65 66 71 67 64 68 66 69 67 70 68 71 69 72 8 73 9 74
REMARK SMILES IDX 10 75 11 76 12 77 13 78 32 79 29 80 31 81 33 82 30 83 34 84
REMARK SMILES IDX 14 85 15 86 16 87 17 89 18 90 28 91 19 92 27 93 20 94 21 95
REMARK SMILES IDX 22 96 23 97 26 98 24 99 25 100
REMARK H PARENT 91 25 59 36 16 88
REMARK Flexibility Score: inf
ROOT
ATOM      1  C   UNL A   1      37.325  23.375  24.694  1.00  0.00     0.202 C 
ENDROOT
BRANCH   1   2
ATOM      2  O   UNL A   1      37.819  22.657  25.836  1.00  0.00    -0.374 OA
BRANCH   2   3
ATOM      3  C   UNL A   1      38.499  21.436  25.561  1.00  0.00     0.202 C 
BRANCH   3   4
ATOM      4  C   UNL A   1      39.810  21.258  26.319  1.00  0.00     0.261 C 
BRANCH   4   5
ATOM      5  O   UNL A   1      40.554  22.489  26.394  1.00  0.00    -0.460 OA
BRANCH   5   6
ATOM      6  C   UNL A   1      41.352  22.777  27.462  1.00  0.00     0.338 C 
ATOM      7  O   UNL A   1      42.172  22.019  27.922  1.00  0.00    -0.246 OA
BRANCH   6   8
ATOM      8  C   UNL A   1      41.448  24.200  27.765  1.00  0.00     0.060 A 
ATOM      9  C   UNL A   1      42.473  24.735  28.532  1.00  0.00     0.016 A 
ATOM     10  C   UNL A   1      40.408  24.990  27.264  1.00  0.00     0.016 A 
ATOM     11  C   UNL A   1      42.329  26.012  29.003  1.00  0.00     0.010 A 
ATOM     12  C   UNL A   1      40.309  26.303  27.662  1.00  0.00     0.010 A 
ATOM     13  C   UNL A   1      41.229  26.773  28.593  1.00  0.00    -0.014 A 
BRANCH  13  14
ATOM     14  C   UNL A   1      41.179  28.120  29.112  1.00  0.00     0.031 A 
ATOM     15  C   UNL A   1      42.182  29.041  28.524  1.00  0.00     0.074 A 
ATOM     16  C   UNL A   1      40.268  28.525  30.006  1.00  0.00     0.049 A 
ATOM     17  N   UNL A   1      43.133  29.675  29.130  1.00  0.00    -0.248 NA
ATOM     18  C   UNL A   1      42.205  29.152  27.058  1.00  0.00     0.031 C 
ATOM     19  C   UNL A   1      39.045  27.844  30.433  1.00  0.00     0.029 A 
ATOM     20  N   UNL A   1      40.187  29.740  30.605  1.00  0.00    -0.354 N 
ATOM     21  C   UNL A   1      43.770  30.413  28.137  1.00  0.00     0.074 A 
ATOM     22  C   UNL A   1      43.252  29.953  26.873  1.00  0.00     0.031 C 
ATOM     23  C   UNL A   1      38.218  28.759  30.984  1.00  0.00     0.029 A 
ATOM     24  C   UNL A   1      38.920  30.027  31.073  1.00  0.00     0.049 A 
ATOM     25  H   UNL A   1      40.953  30.352  30.696  1.00  0.00     0.167 HD
ATOM     26  C   UNL A   1      44.557  31.485  28.412  1.00  0.00     0.034 A 
ATOM     27  C   UNL A   1      38.463  31.258  31.389  1.00  0.00     0.034 A 
ATOM     28  C   UNL A   1      44.984  31.529  29.780  1.00  0.00     0.049 A 
ATOM     29  C   UNL A   1      39.636  32.135  31.625  1.00  0.00     0.074 A 
ATOM     30  C   UNL A   1      45.753  30.716  30.588  1.00  0.00     0.029 A 
ATOM     31  N   UNL A   1      44.322  32.383  30.626  1.00  0.00    -0.354 N 
ATOM     32  N   UNL A   1      40.471  31.989  32.618  1.00  0.00    -0.248 NA
ATOM     33  C   UNL A   1      40.113  32.967  30.532  1.00  0.00     0.031 C 
ATOM     34  C   UNL A   1      45.177  30.827  31.886  1.00  0.00     0.029 A 
ATOM     35  C   UNL A   1      44.089  31.699  31.791  1.00  0.00     0.049 A 
ATOM     36  H   UNL A   1      44.064  33.314  30.432  1.00  0.00     0.167 HD
ATOM     37  C   UNL A   1      41.708  32.360  32.105  1.00  0.00     0.074 A 
ATOM     38  C   UNL A   1      41.400  33.077  30.871  1.00  0.00     0.031 C 
ATOM     39  C   UNL A   1      42.872  31.809  32.572  1.00  0.00     0.034 A 
BRANCH  26  40
ATOM     40  C   UNL A   1      44.725  32.641  27.470  1.00  0.00     0.023 A 
ATOM     41  C   UNL A   1      43.642  33.006  26.647  1.00  0.00     0.012 A 
ATOM     42  C   UNL A   1      45.970  33.256  27.212  1.00  0.00     0.148 A 
ATOM     43  C   UNL A   1      43.794  33.948  25.622  1.00  0.00     0.002 A 
ATOM     44  C   UNL A   1      46.093  34.258  26.260  1.00  0.00     0.091 A 
ATOM     45  F   UNL A   1      47.081  32.791  27.801  1.00  0.00    -0.205 F 
ATOM     46  C   UNL A   1      45.014  34.593  25.444  1.00  0.00     0.022 A 
BRANCH  44  47
ATOM     47  S   UNL A   1      47.631  35.170  26.107  1.00  0.00     0.127 S 
ATOM     48  O   UNL A   1      48.324  34.418  25.065  1.00  0.00    -0.237 OA
ATOM     49  O   UNL A   1      47.171  36.499  25.706  1.00  0.00    -0.237 OA
ATOM     50  O   UNL A   1      48.210  35.124  27.445  1.00  0.00    -0.744 OA
ENDBRANCH  44  47
ENDBRANCH  26  40
BRANCH  27  51
ATOM     51  C   UNL A   1      37.087  31.763  31.230  1.00  0.00     0.023 A 
ATOM     52  C   UNL A   1      36.383  32.227  32.353  1.00  0.00     0.012 A 
ATOM     53  C   UNL A   1      36.533  31.989  29.948  1.00  0.00     0.148 A 
ATOM     54  C   UNL A   1      35.165  32.897  32.206  1.00  0.00     0.002 A 
ATOM     55  C   UNL A   1      35.310  32.636  29.808  1.00  0.00     0.091 A 
ATOM     56  F   UNL A   1      37.243  31.653  28.863  1.00  0.00    -0.205 F 
ATOM     57  C   UNL A   1      34.627  33.100  30.937  1.00  0.00     0.022 A 
BRANCH  55  58
ATOM     58  S   UNL A   1      34.559  32.908  28.198  1.00  0.00     0.127 S 
ATOM     59  O   UNL A   1      33.392  33.725  28.537  1.00  0.00    -0.237 OA
ATOM     60  O   UNL A   1      35.616  33.618  27.486  1.00  0.00    -0.237 OA
ATOM     61  O   UNL A   1      34.226  31.580  27.695  1.00  0.00    -0.744 OA
ENDBRANCH  55  58
ENDBRANCH  27  51
BRANCH  39  62
ATOM     62  C   UNL A   1      42.805  30.956  33.821  1.00  0.00     0.023 A 
ATOM     63  C   UNL A   1      42.892  31.536  35.105  1.00  0.00     0.012 A 
ATOM     64  C   UNL A   1      42.456  29.596  33.722  1.00  0.00     0.148 A 
ATOM     65  C   UNL A   1      42.676  30.779  36.259  1.00  0.00     0.002 A 
ATOM     66  C   UNL A   1      42.195  28.856  34.874  1.00  0.00     0.091 A 
ATOM     67  F   UNL A   1      42.355  29.049  32.501  1.00  0.00    -0.205 F 
ATOM     68  C   UNL A   1      42.315  29.441  36.144  1.00  0.00     0.022 A 
BRANCH  66  69
ATOM     69  S   UNL A   1      41.585  27.168  34.787  1.00  0.00     0.127 S 
ATOM     70  O   UNL A   1      42.737  26.450  34.246  1.00  0.00    -0.237 OA
ATOM     71  O   UNL A   1      41.280  26.863  36.187  1.00  0.00    -0.237 OA
ATOM     72  O   UNL A   1      40.409  27.220  33.926  1.00  0.00    -0.744 OA
ENDBRANCH  66  69
ENDBRANCH  39  62
ENDBRANCH  13  14
ENDBRANCH   6   8
ENDBRANCH   5   6
ENDBRANCH   4   5
ENDBRANCH   3   4
ENDBRANCH   2   3
ENDBRANCH   1   2
BRANCH   1  73
ATOM     73  C   UNL A   1      36.617  22.544  23.623  1.00  0.00     0.261 C 
BRANCH  73  74
ATOM     74  O   UNL A   1      35.573  23.317  22.982  1.00  0.00    -0.463 OA
BRANCH  74  75
ATOM     75  C   UNL A   1      34.779  24.052  23.784  1.00  0.00     0.310 C 
ATOM     76  O   UNL A   1      34.616  25.264  23.674  1.00  0.00    -0.252 OA
BRANCH  75  77
ATOM     77  C   UNL A   1      34.033  23.261  24.834  1.00  0.00     0.119 C 
ATOM     78  C   UNL A   1      32.767  22.441  24.510  1.00  0.00     0.100 C 
ATOM     79  C   UNL A   1      33.900  23.933  26.246  1.00  0.00     0.026 C 
ATOM     80  C   UNL A   1      31.968  22.219  25.829  1.00  0.00     0.025 C 
ATOM     81  C   UNL A   1      32.502  24.433  26.560  1.00  0.00    -0.027 C 
ATOM     82  C   UNL A   1      34.035  22.778  27.269  1.00  0.00     0.009 C 
ATOM     83  C   UNL A   1      31.512  23.543  26.369  1.00  0.00    -0.027 C 
ATOM     84  C   UNL A   1      32.964  21.691  26.925  1.00  0.00     0.009 C 
BRANCH  78  85
ATOM     85  C   UNL A   1      32.000  22.614  23.180  1.00  0.00     0.228 C 
ATOM     86  O   UNL A   1      32.001  21.638  22.405  1.00  0.00    -0.274 OA
ATOM     87  N   UNL A   1      31.220  23.652  22.775  1.00  0.00    -0.326 N 
ATOM     88  H   UNL A   1      30.613  23.397  22.043  1.00  0.00     0.169 HD
BRANCH  87  89
ATOM     89  C   UNL A   1      31.069  24.994  23.146  1.00  0.00     0.041 A 
ATOM     90  C   UNL A   1      32.007  25.933  22.700  1.00  0.00     0.026 A 
ATOM     91  C   UNL A   1      30.074  25.438  23.987  1.00  0.00     0.026 A 
ATOM     92  C   UNL A   1      31.843  27.305  22.966  1.00  0.00     0.008 A 
ATOM     93  C   UNL A   1      29.866  26.805  24.198  1.00  0.00     0.008 A 
ATOM     94  C   UNL A   1      30.739  27.761  23.691  1.00  0.00    -0.026 A 
BRANCH  94  95
ATOM     95  C   UNL A   1      30.458  29.217  23.957  1.00  0.00     0.181 C 
BRANCH  95  96
ATOM     96  N   UNL A   1      29.538  29.822  23.011  1.00  0.00    -0.249 N 
ATOM     97  C   UNL A   1      29.692  29.916  21.663  1.00  0.00     0.220 A 
ATOM     98  N   UNL A   1      28.270  30.122  23.369  1.00  0.00    -0.160 NA
ATOM     99  N   UNL A   1      28.568  30.310  21.115  1.00  0.00    -0.224 NA
ATOM    100  C   UNL A   1      27.727  30.429  22.185  1.00  0.00     0.246 A 
ENDBRANCH  95  96
ENDBRANCH  94  95
ENDBRANCH  87  89
ENDBRANCH  78  85
ENDBRANCH  75  77
ENDBRANCH  74  75
ENDBRANCH  73  74
ENDBRANCH   1  73
TORSDOF 21
ENDMDL
