MODEL 1
REMARK VINA RESULT:     -10.6      0.000      0.000
REMARK SMILES NC(=O)c1ccsc1NS(=O)(=O)c1ccc(C(=O)OCCOCCOC(=O)c2ccc(-c3c4nc(c(-c5cccc(S(=O)(=O)[O-])c5F)c5ccc([nH]5)c(-c5cccc(S(=O)(=O)[O-])c5F)c5nc(c(-c6cccc(S(=O)(=O)[O-])c6F)c6ccc3[nH]6)C=C5)C=C4)cc2)cc1
REMARK SMILES IDX 21 1 20 2 19 3 17 4 18 5 16 6 13 7 14 8 92 9 15 10 91 11
REMARK SMILES IDX 10 12 11 13 12 14 9 15 8 17 4 18 5 19 6 20 7 21 2 22 1 23
REMARK SMILES IDX 3 26 22 27 23 28 24 29 25 30 26 31 27 32 28 33 29 34 90 35
REMARK SMILES IDX 30 36 89 37 31 38 32 39 33 40 83 41 34 42 88 43 82 44 84 45
REMARK SMILES IDX 35 46 87 47 81 48 80 49 36 51 68 52 48 53 67 54 49 55 52 56
REMARK SMILES IDX 66 57 85 58 50 59 51 60 65 62 86 63 53 64 37 65 38 66 46 67
REMARK SMILES IDX 39 68 41 69 47 70 40 71 42 72 43 73 44 74 45 75 69 76 70 77
REMARK SMILES IDX 78 78 71 79 73 80 79 81 72 82 74 83 75 84 76 85 77 86 54 87
REMARK SMILES IDX 55 88 63 89 56 90 58 91 64 92 57 93 59 94 60 95 61 96 62 97
REMARK H PARENT 9 16 1 24 1 25 84 50 52 61
REMARK Flexibility Score: inf
ROOT
ATOM      1  C   UNL A   1      31.642  29.529  25.250  1.00  0.00     0.202 C 
ENDROOT
BRANCH   1   2
ATOM      2  C   UNL A   1      32.779  29.406  24.232  1.00  0.00     0.261 C 
BRANCH   2   3
ATOM      3  O   UNL A   1      32.440  28.489  23.182  1.00  0.00    -0.460 OA
BRANCH   3   4
ATOM      4  C   UNL A   1      33.370  27.531  22.961  1.00  0.00     0.338 C 
ATOM      5  O   UNL A   1      34.287  27.584  22.155  1.00  0.00    -0.246 OA
BRANCH   4   6
ATOM      6  C   UNL A   1      33.220  26.401  23.913  1.00  0.00     0.060 A 
ATOM      7  C   UNL A   1      32.500  24.278  25.556  1.00  0.00     0.087 A 
ATOM      8  C   UNL A   1      32.487  24.115  24.167  1.00  0.00     0.023 A 
ATOM      9  C   UNL A   1      33.049  25.428  26.134  1.00  0.00     0.023 A 
ATOM     10  C   UNL A   1      32.853  25.174  23.349  1.00  0.00     0.017 A 
ATOM     11  C   UNL A   1      33.389  26.508  25.303  1.00  0.00     0.017 A 
BRANCH   7  12
ATOM     12  S   UNL A   1      31.566  23.092  26.497  1.00  0.00     0.262 S 
ATOM     13  O   UNL A   1      30.509  22.635  25.614  1.00  0.00    -0.201 OA
ATOM     14  O   UNL A   1      31.238  23.707  27.766  1.00  0.00    -0.201 OA
BRANCH  12  15
ATOM     15  N   UNL A   1      32.507  21.765  26.831  1.00  0.00    -0.270 N 
ATOM     16  H   UNL A   1      32.150  21.149  27.511  1.00  0.00     0.181 HD
BRANCH  15  17
ATOM     17  C   UNL A   1      33.762  21.402  26.264  1.00  0.00     0.115 A 
ATOM     18  C   UNL A   1      33.869  20.327  25.391  1.00  0.00     0.074 A 
ATOM     19  C   UNL A   1      35.075  20.435  24.613  1.00  0.00     0.028 A 
ATOM     20  C   UNL A   1      35.906  21.429  25.077  1.00  0.00     0.068 A 
ATOM     21  S   UNL A   1      35.299  22.085  26.533  1.00  0.00    -0.125 S 
BRANCH  18  22
ATOM     22  C   UNL A   1      32.861  19.289  25.263  1.00  0.00     0.251 C 
ATOM     23  N   UNL A   1      32.852  18.376  26.273  1.00  0.00    -0.366 N 
ATOM     24  H   UNL A   1      32.199  17.639  26.264  1.00  0.00     0.159 HD
ATOM     25  H   UNL A   1      33.498  18.452  27.012  1.00  0.00     0.159 HD
ATOM     26  O   UNL A   1      32.010  19.271  24.369  1.00  0.00    -0.269 OA
ENDBRANCH  18  22
ENDBRANCH  15  17
ENDBRANCH  12  15
ENDBRANCH   7  12
ENDBRANCH   4   6
ENDBRANCH   3   4
ENDBRANCH   2   3
ENDBRANCH   1   2
BRANCH   1  27
ATOM     27  O   UNL A   1      31.259  30.842  25.659  1.00  0.00    -0.374 OA
BRANCH  27  28
ATOM     28  C   UNL A   1      31.854  31.385  26.837  1.00  0.00     0.202 C 
BRANCH  28  29
ATOM     29  C   UNL A   1      32.076  32.901  26.909  1.00  0.00     0.261 C 
BRANCH  29  30
ATOM     30  O   UNL A   1      32.378  33.366  28.234  1.00  0.00    -0.460 OA
BRANCH  30  31
ATOM     31  C   UNL A   1      33.473  34.163  28.304  1.00  0.00     0.338 C 
ATOM     32  O   UNL A   1      33.498  35.384  28.251  1.00  0.00    -0.246 OA
BRANCH  31  33
ATOM     33  C   UNL A   1      34.664  33.368  28.650  1.00  0.00     0.060 A 
ATOM     34  C   UNL A   1      34.457  32.179  29.363  1.00  0.00     0.016 A 
ATOM     35  C   UNL A   1      35.956  33.820  28.378  1.00  0.00     0.016 A 
ATOM     36  C   UNL A   1      35.543  31.474  29.872  1.00  0.00     0.010 A 
ATOM     37  C   UNL A   1      37.047  33.113  28.895  1.00  0.00     0.010 A 
ATOM     38  C   UNL A   1      36.840  31.969  29.688  1.00  0.00    -0.014 A 
BRANCH  38  39
ATOM     39  C   UNL A   1      37.952  31.391  30.481  1.00  0.00     0.031 A 
ATOM     40  C   UNL A   1      38.823  30.339  29.847  1.00  0.00     0.074 A 
ATOM     41  C   UNL A   1      38.201  31.813  31.733  1.00  0.00     0.049 A 
ATOM     42  N   UNL A   1      39.843  29.695  30.350  1.00  0.00    -0.248 NA
ATOM     43  C   UNL A   1      38.495  29.959  28.462  1.00  0.00     0.031 C 
ATOM     44  C   UNL A   1      37.435  32.830  32.450  1.00  0.00     0.029 A 
ATOM     45  N   UNL A   1      39.163  31.419  32.629  1.00  0.00    -0.354 N 
ATOM     46  C   UNL A   1      40.260  28.814  29.358  1.00  0.00     0.074 A 
ATOM     47  C   UNL A   1      39.372  28.993  28.231  1.00  0.00     0.031 C 
ATOM     48  C   UNL A   1      37.941  32.963  33.689  1.00  0.00     0.029 A 
ATOM     49  C   UNL A   1      39.052  32.028  33.856  1.00  0.00     0.049 A 
ATOM     50  H   UNL A   1      39.864  30.763  32.413  1.00  0.00     0.167 HD
ATOM     51  C   UNL A   1      41.299  27.945  29.376  1.00  0.00     0.034 A 
ATOM     52  C   UNL A   1      39.759  31.839  34.988  1.00  0.00     0.034 A 
ATOM     53  C   UNL A   1      42.194  27.786  30.489  1.00  0.00     0.049 A 
ATOM     54  C   UNL A   1      40.908  30.864  34.985  1.00  0.00     0.074 A 
ATOM     55  C   UNL A   1      43.301  26.961  30.592  1.00  0.00     0.029 A 
ATOM     56  N   UNL A   1      42.085  28.460  31.694  1.00  0.00    -0.354 N 
ATOM     57  N   UNL A   1      41.355  30.117  34.004  1.00  0.00    -0.248 NA
ATOM     58  C   UNL A   1      41.676  30.737  36.232  1.00  0.00     0.031 C 
ATOM     59  C   UNL A   1      43.846  27.119  31.871  1.00  0.00     0.029 A 
ATOM     60  C   UNL A   1      43.100  28.069  32.550  1.00  0.00     0.049 A 
ATOM     61  H   UNL A   1      41.387  29.120  31.911  1.00  0.00     0.167 HD
ATOM     62  C   UNL A   1      42.482  29.470  34.499  1.00  0.00     0.074 A 
ATOM     63  C   UNL A   1      42.657  29.923  35.863  1.00  0.00     0.031 C 
ATOM     64  C   UNL A   1      43.296  28.575  33.885  1.00  0.00     0.034 A 
BRANCH  51  65
ATOM     65  C   UNL A   1      41.534  27.113  28.142  1.00  0.00     0.023 A 
ATOM     66  C   UNL A   1      42.363  27.604  27.113  1.00  0.00     0.012 A 
ATOM     67  C   UNL A   1      40.971  25.827  28.022  1.00  0.00     0.148 A 
ATOM     68  C   UNL A   1      42.601  26.843  25.969  1.00  0.00     0.002 A 
ATOM     69  C   UNL A   1      41.251  25.056  26.900  1.00  0.00     0.091 A 
ATOM     70  F   UNL A   1      40.165  25.387  28.999  1.00  0.00    -0.205 F 
ATOM     71  C   UNL A   1      42.054  25.566  25.868  1.00  0.00     0.022 A 
BRANCH  69  72
ATOM     72  S   UNL A   1      40.660  23.370  26.714  1.00  0.00     0.127 S 
ATOM     73  O   UNL A   1      41.434  22.911  25.561  1.00  0.00    -0.237 OA
ATOM     74  O   UNL A   1      41.048  22.765  27.988  1.00  0.00    -0.237 OA
ATOM     75  O   UNL A   1      39.223  23.470  26.503  1.00  0.00    -0.744 OA
ENDBRANCH  69  72
ENDBRANCH  51  65
BRANCH  52  76
ATOM     76  C   UNL A   1      39.427  32.624  36.211  1.00  0.00     0.023 A 
ATOM     77  C   UNL A   1      40.065  33.859  36.439  1.00  0.00     0.012 A 
ATOM     78  C   UNL A   1      38.475  32.160  37.138  1.00  0.00     0.148 A 
ATOM     79  C   UNL A   1      39.784  34.601  37.588  1.00  0.00     0.002 A 
ATOM     80  C   UNL A   1      38.158  32.931  38.251  1.00  0.00     0.091 A 
ATOM     81  F   UNL A   1      37.890  30.975  36.910  1.00  0.00    -0.205 F 
ATOM     82  C   UNL A   1      38.825  34.143  38.487  1.00  0.00     0.022 A 
BRANCH  80  83
ATOM     83  S   UNL A   1      36.843  32.482  39.389  1.00  0.00     0.127 S 
ATOM     84  O   UNL A   1      37.213  31.116  39.750  1.00  0.00    -0.237 OA
ATOM     85  O   UNL A   1      37.015  33.470  40.454  1.00  0.00    -0.237 OA
ATOM     86  O   UNL A   1      35.603  32.624  38.637  1.00  0.00    -0.744 OA
ENDBRANCH  80  83
ENDBRANCH  52  76
BRANCH  64  87
ATOM     87  C   UNL A   1      44.488  28.066  34.654  1.00  0.00     0.023 A 
ATOM     88  C   UNL A   1      45.714  28.757  34.600  1.00  0.00     0.012 A 
ATOM     89  C   UNL A   1      44.370  26.933  35.484  1.00  0.00     0.148 A 
ATOM     90  C   UNL A   1      46.814  28.307  35.329  1.00  0.00     0.002 A 
ATOM     91  C   UNL A   1      45.455  26.521  36.248  1.00  0.00     0.091 A 
ATOM     92  F   UNL A   1      43.202  26.275  35.509  1.00  0.00    -0.205 F 
ATOM     93  C   UNL A   1      46.683  27.198  36.162  1.00  0.00     0.022 A 
BRANCH  91  94
ATOM     94  S   UNL A   1      45.341  25.164  37.420  1.00  0.00     0.127 S 
ATOM     95  O   UNL A   1      46.721  25.058  37.889  1.00  0.00    -0.237 OA
ATOM     96  O   UNL A   1      44.398  25.686  38.412  1.00  0.00    -0.237 OA
ATOM     97  O   UNL A   1      44.845  24.023  36.662  1.00  0.00    -0.744 OA
ENDBRANCH  91  94
ENDBRANCH  64  87
ENDBRANCH  38  39
ENDBRANCH  31  33
ENDBRANCH  30  31
ENDBRANCH  29  30
ENDBRANCH  28  29
ENDBRANCH  27  28
ENDBRANCH   1  27
TORSDOF 21
ENDMDL
MODEL 2
REMARK VINA RESULT:     -10.6      6.071     11.265
REMARK SMILES NC(=O)c1ccsc1NS(=O)(=O)c1ccc(C(=O)OCCOCCOC(=O)c2ccc(-c3c4nc(c(-c5cccc(S(=O)(=O)[O-])c5F)c5ccc([nH]5)c(-c5cccc(S(=O)(=O)[O-])c5F)c5nc(c(-c6cccc(S(=O)(=O)[O-])c6F)c6ccc3[nH]6)C=C5)C=C4)cc2)cc1
REMARK SMILES IDX 21 1 20 2 19 3 17 4 18 5 16 6 13 7 14 8 92 9 15 10 91 11
REMARK SMILES IDX 10 12 11 13 12 14 9 15 8 17 4 18 5 19 6 20 7 21 2 22 1 23
REMARK SMILES IDX 3 26 22 27 23 28 24 29 25 30 26 31 27 32 28 33 29 34 90 35
REMARK SMILES IDX 30 36 89 37 31 38 32 39 33 40 83 41 34 42 88 43 82 44 84 45
REMARK SMILES IDX 35 46 87 47 81 48 80 49 36 51 68 52 48 53 67 54 49 55 52 56
REMARK SMILES IDX 66 57 85 58 50 59 51 60 65 62 86 63 53 64 37 65 38 66 46 67
REMARK SMILES IDX 39 68 41 69 47 70 40 71 42 72 43 73 44 74 45 75 69 76 70 77
REMARK SMILES IDX 78 78 71 79 73 80 79 81 72 82 74 83 75 84 76 85 77 86 54 87
REMARK SMILES IDX 55 88 63 89 56 90 58 91 64 92 57 93 59 94 60 95 61 96 62 97
REMARK H PARENT 9 16 1 24 1 25 84 50 52 61
REMARK Flexibility Score: inf
ROOT
ATOM      1  C   UNL A   1      35.870  20.437  25.028  1.00  0.00     0.202 C 
ENDROOT
BRANCH   1   2
ATOM      2  C   UNL A   1      34.388  20.819  25.070  1.00  0.00     0.261 C 
BRANCH   2   3
ATOM      3  O   UNL A   1      34.079  21.810  24.079  1.00  0.00    -0.460 OA
BRANCH   3   4
ATOM      4  C   UNL A   1      32.929  21.579  23.404  1.00  0.00     0.338 C 
ATOM      5  O   UNL A   1      32.476  20.486  23.098  1.00  0.00    -0.246 OA
BRANCH   4   6
ATOM      6  C   UNL A   1      32.186  22.841  23.152  1.00  0.00     0.060 A 
ATOM      7  C   UNL A   1      31.152  25.407  22.889  1.00  0.00     0.087 A 
ATOM      8  C   UNL A   1      32.317  25.055  22.199  1.00  0.00     0.023 A 
ATOM      9  C   UNL A   1      30.397  24.436  23.556  1.00  0.00     0.023 A 
ATOM     10  C   UNL A   1      32.828  23.771  22.328  1.00  0.00     0.017 A 
ATOM     11  C   UNL A   1      30.933  23.146  23.709  1.00  0.00     0.017 A 
BRANCH   7  12
ATOM     12  S   UNL A   1      30.846  27.149  23.080  1.00  0.00     0.262 S 
ATOM     13  O   UNL A   1      29.734  27.253  24.005  1.00  0.00    -0.201 OA
ATOM     14  O   UNL A   1      30.744  27.719  21.753  1.00  0.00    -0.201 OA
BRANCH  12  15
ATOM     15  N   UNL A   1      32.144  27.875  23.820  1.00  0.00    -0.270 N 
ATOM     16  H   UNL A   1      32.965  27.937  23.278  1.00  0.00     0.181 HD
BRANCH  15  17
ATOM     17  C   UNL A   1      32.227  28.418  25.133  1.00  0.00     0.115 A 
ATOM     18  C   UNL A   1      32.640  27.638  26.206  1.00  0.00     0.074 A 
ATOM     19  C   UNL A   1      33.082  28.474  27.290  1.00  0.00     0.028 A 
ATOM     20  C   UNL A   1      32.782  29.801  27.080  1.00  0.00     0.068 A 
ATOM     21  S   UNL A   1      31.825  29.982  25.676  1.00  0.00    -0.125 S 
BRANCH  18  22
ATOM     22  C   UNL A   1      32.664  26.186  26.184  1.00  0.00     0.251 C 
ATOM     23  N   UNL A   1      31.586  25.588  26.762  1.00  0.00    -0.366 N 
ATOM     24  H   UNL A   1      31.523  24.606  26.789  1.00  0.00     0.159 HD
ATOM     25  H   UNL A   1      30.869  26.138  27.153  1.00  0.00     0.159 HD
ATOM     26  O   UNL A   1      33.536  25.527  25.609  1.00  0.00    -0.269 OA
ENDBRANCH  18  22
ENDBRANCH  15  17
ENDBRANCH  12  15
ENDBRANCH   7  12
ENDBRANCH   4   6
ENDBRANCH   3   4
ENDBRANCH   2   3
ENDBRANCH   1   2
BRANCH   1  27
ATOM     27  O   UNL A   1      36.827  21.493  25.090  1.00  0.00    -0.374 OA
BRANCH  27  28
ATOM     28  C   UNL A   1      38.210  21.163  24.961  1.00  0.00     0.202 C 
BRANCH  28  29
ATOM     29  C   UNL A   1      39.154  21.512  26.118  1.00  0.00     0.261 C 
BRANCH  29  30
ATOM     30  O   UNL A   1      39.711  20.355  26.763  1.00  0.00    -0.460 OA
BRANCH  30  31
ATOM     31  C   UNL A   1      40.929  19.991  26.289  1.00  0.00     0.338 C 
ATOM     32  O   UNL A   1      41.205  18.969  25.680  1.00  0.00    -0.246 OA
BRANCH  31  33
ATOM     33  C   UNL A   1      41.889  21.099  26.439  1.00  0.00     0.060 A 
ATOM     34  C   UNL A   1      42.257  21.457  27.743  1.00  0.00     0.016 A 
ATOM     35  C   UNL A   1      42.338  21.838  25.343  1.00  0.00     0.016 A 
ATOM     36  C   UNL A   1      43.017  22.601  27.963  1.00  0.00     0.010 A 
ATOM     37  C   UNL A   1      43.097  22.991  25.567  1.00  0.00     0.010 A 
ATOM     38  C   UNL A   1      43.393  23.404  26.879  1.00  0.00    -0.014 A 
BRANCH  38  39
ATOM     39  C   UNL A   1      43.929  24.762  27.139  1.00  0.00     0.031 A 
ATOM     40  C   UNL A   1      43.006  25.809  27.702  1.00  0.00     0.074 A 
ATOM     41  C   UNL A   1      45.220  25.053  26.904  1.00  0.00     0.049 A 
ATOM     42  N   UNL A   1      43.253  27.057  28.002  1.00  0.00    -0.248 NA
ATOM     43  C   UNL A   1      41.615  25.394  27.956  1.00  0.00     0.031 C 
ATOM     44  C   UNL A   1      46.213  24.122  26.369  1.00  0.00     0.029 A 
ATOM     45  N   UNL A   1      45.912  26.226  27.071  1.00  0.00    -0.354 N 
ATOM     46  C   UNL A   1      42.047  27.584  28.450  1.00  0.00     0.074 A 
ATOM     47  C   UNL A   1      41.064  26.526  28.366  1.00  0.00     0.031 C 
ATOM     48  C   UNL A   1      47.383  24.769  26.225  1.00  0.00     0.029 A 
ATOM     49  C   UNL A   1      47.216  26.161  26.641  1.00  0.00     0.049 A 
ATOM     50  H   UNL A   1      45.512  27.037  27.460  1.00  0.00     0.167 HD
ATOM     51  C   UNL A   1      41.783  28.832  28.906  1.00  0.00     0.034 A 
ATOM     52  C   UNL A   1      48.161  27.120  26.576  1.00  0.00     0.034 A 
ATOM     53  C   UNL A   1      42.767  29.874  29.011  1.00  0.00     0.049 A 
ATOM     54  C   UNL A   1      47.842  28.502  27.087  1.00  0.00     0.074 A 
ATOM     55  C   UNL A   1      42.610  31.160  29.498  1.00  0.00     0.029 A 
ATOM     56  N   UNL A   1      44.091  29.754  28.619  1.00  0.00    -0.354 N 
ATOM     57  N   UNL A   1      46.726  28.954  27.607  1.00  0.00    -0.248 NA
ATOM     58  C   UNL A   1      48.926  29.494  27.041  1.00  0.00     0.031 C 
ATOM     59  C   UNL A   1      43.834  31.826  29.376  1.00  0.00     0.029 A 
ATOM     60  C   UNL A   1      44.762  30.943  28.848  1.00  0.00     0.049 A 
ATOM     61  H   UNL A   1      44.494  28.943  28.234  1.00  0.00     0.167 HD
ATOM     62  C   UNL A   1      46.987  30.264  27.993  1.00  0.00     0.074 A 
ATOM     63  C   UNL A   1      48.371  30.529  27.658  1.00  0.00     0.031 C 
ATOM     64  C   UNL A   1      46.157  31.171  28.565  1.00  0.00     0.034 A 
BRANCH  51  65
ATOM     65  C   UNL A   1      40.374  29.130  29.347  1.00  0.00     0.023 A 
ATOM     66  C   UNL A   1      39.422  29.572  28.406  1.00  0.00     0.012 A 
ATOM     67  C   UNL A   1      39.979  28.927  30.685  1.00  0.00     0.148 A 
ATOM     68  C   UNL A   1      38.110  29.841  28.793  1.00  0.00     0.002 A 
ATOM     69  C   UNL A   1      38.658  29.153  31.053  1.00  0.00     0.091 A 
ATOM     70  F   UNL A   1      40.903  28.531  31.571  1.00  0.00    -0.205 F 
ATOM     71  C   UNL A   1      37.727  29.621  30.114  1.00  0.00     0.022 A 
BRANCH  69  72
ATOM     72  S   UNL A   1      38.048  28.822  32.711  1.00  0.00     0.127 S 
ATOM     73  O   UNL A   1      38.173  27.367  32.786  1.00  0.00    -0.237 OA
ATOM     74  O   UNL A   1      39.000  29.560  33.541  1.00  0.00    -0.237 OA
ATOM     75  O   UNL A   1      36.687  29.337  32.747  1.00  0.00    -0.744 OA
ENDBRANCH  69  72
ENDBRANCH  51  65
BRANCH  52  76
ATOM     76  C   UNL A   1      49.515  26.795  26.047  1.00  0.00     0.023 A 
ATOM     77  C   UNL A   1      50.418  26.064  26.844  1.00  0.00     0.012 A 
ATOM     78  C   UNL A   1      49.907  27.195  24.754  1.00  0.00     0.148 A 
ATOM     79  C   UNL A   1      51.698  25.767  26.375  1.00  0.00     0.002 A 
ATOM     80  C   UNL A   1      51.163  26.845  24.272  1.00  0.00     0.091 A 
ATOM     81  F   UNL A   1      49.039  27.902  24.017  1.00  0.00    -0.205 F 
ATOM     82  C   UNL A   1      52.067  26.148  25.088  1.00  0.00     0.022 A 
BRANCH  80  83
ATOM     83  S   UNL A   1      51.671  27.179  22.582  1.00  0.00     0.127 S 
ATOM     84  O   UNL A   1      52.911  26.413  22.485  1.00  0.00    -0.237 OA
ATOM     85  O   UNL A   1      50.548  26.637  21.817  1.00  0.00    -0.237 OA
ATOM     86  O   UNL A   1      51.812  28.626  22.490  1.00  0.00    -0.744 OA
ENDBRANCH  80  83
ENDBRANCH  52  76
BRANCH  64  87
ATOM     87  C   UNL A   1      46.728  32.518  28.926  1.00  0.00     0.023 A 
ATOM     88  C   UNL A   1      47.388  32.701  30.157  1.00  0.00     0.012 A 
ATOM     89  C   UNL A   1      46.665  33.588  28.011  1.00  0.00     0.148 A 
ATOM     90  C   UNL A   1      47.942  33.937  30.487  1.00  0.00     0.002 A 
ATOM     91  C   UNL A   1      47.265  34.802  28.325  1.00  0.00     0.091 A 
ATOM     92  F   UNL A   1      46.016  33.404  26.852  1.00  0.00    -0.205 F 
ATOM     93  C   UNL A   1      47.892  34.983  29.568  1.00  0.00     0.022 A 
BRANCH  91  94
ATOM     94  S   UNL A   1      47.332  36.167  27.159  1.00  0.00     0.127 S 
ATOM     95  O   UNL A   1      48.117  37.153  27.899  1.00  0.00    -0.237 OA
ATOM     96  O   UNL A   1      48.026  35.568  26.016  1.00  0.00    -0.237 OA
ATOM     97  O   UNL A   1      45.947  36.534  26.895  1.00  0.00    -0.744 OA
ENDBRANCH  91  94
ENDBRANCH  64  87
ENDBRANCH  38  39
ENDBRANCH  31  33
ENDBRANCH  30  31
ENDBRANCH  29  30
ENDBRANCH  28  29
ENDBRANCH  27  28
ENDBRANCH   1  27
TORSDOF 21
ENDMDL
MODEL 3
REMARK VINA RESULT:     -10.5      2.143      7.953
REMARK SMILES NC(=O)c1ccsc1NS(=O)(=O)c1ccc(C(=O)OCCOCCOC(=O)c2ccc(-c3c4nc(c(-c5cccc(S(=O)(=O)[O-])c5F)c5ccc([nH]5)c(-c5cccc(S(=O)(=O)[O-])c5F)c5nc(c(-c6cccc(S(=O)(=O)[O-])c6F)c6ccc3[nH]6)C=C5)C=C4)cc2)cc1
REMARK SMILES IDX 21 1 20 2 19 3 17 4 18 5 16 6 13 7 14 8 92 9 15 10 91 11
REMARK SMILES IDX 10 12 11 13 12 14 9 15 8 17 4 18 5 19 6 20 7 21 2 22 1 23
REMARK SMILES IDX 3 26 22 27 23 28 24 29 25 30 26 31 27 32 28 33 29 34 90 35
REMARK SMILES IDX 30 36 89 37 31 38 32 39 33 40 83 41 34 42 88 43 82 44 84 45
REMARK SMILES IDX 35 46 87 47 81 48 80 49 36 51 68 52 48 53 67 54 49 55 52 56
REMARK SMILES IDX 66 57 85 58 50 59 51 60 65 62 86 63 53 64 37 65 38 66 46 67
REMARK SMILES IDX 39 68 41 69 47 70 40 71 42 72 43 73 44 74 45 75 69 76 70 77
REMARK SMILES IDX 78 78 71 79 73 80 79 81 72 82 74 83 75 84 76 85 77 86 54 87
REMARK SMILES IDX 55 88 63 89 56 90 58 91 64 92 57 93 59 94 60 95 61 96 62 97
REMARK H PARENT 9 16 1 24 1 25 84 50 52 61
REMARK Flexibility Score: inf
ROOT
ATOM      1  C   UNL A   1      35.120  32.738  27.981  1.00  0.00     0.202 C 
ENDROOT
BRANCH   1   2
ATOM      2  C   UNL A   1      34.065  31.631  28.051  1.00  0.00     0.261 C 
BRANCH   2   3
ATOM      3  O   UNL A   1      34.239  30.679  26.991  1.00  0.00    -0.460 OA
BRANCH   3   4
ATOM      4  C   UNL A   1      33.130  29.956  26.709  1.00  0.00     0.338 C 
ATOM      5  O   UNL A   1      31.982  30.242  27.013  1.00  0.00    -0.246 OA
BRANCH   4   6
ATOM      6  C   UNL A   1      33.454  28.778  25.863  1.00  0.00     0.060 A 
ATOM      7  C   UNL A   1      33.653  26.655  24.081  1.00  0.00     0.087 A 
ATOM      8  C   UNL A   1      33.659  27.968  23.598  1.00  0.00     0.023 A 
ATOM      9  C   UNL A   1      33.738  26.399  25.453  1.00  0.00     0.023 A 
ATOM     10  C   UNL A   1      33.566  29.026  24.490  1.00  0.00     0.017 A 
ATOM     11  C   UNL A   1      33.613  27.471  26.353  1.00  0.00     0.017 A 
BRANCH   7  12
ATOM     12  S   UNL A   1      33.273  25.383  22.896  1.00  0.00     0.262 S 
ATOM     13  O   UNL A   1      33.780  25.866  21.626  1.00  0.00    -0.201 OA
ATOM     14  O   UNL A   1      31.870  25.059  23.043  1.00  0.00    -0.201 OA
BRANCH  12  15
ATOM     15  N   UNL A   1      34.128  24.004  23.251  1.00  0.00    -0.270 N 
ATOM     16  H   UNL A   1      35.083  24.019  23.009  1.00  0.00     0.181 HD
BRANCH  15  17
ATOM     17  C   UNL A   1      33.663  22.803  23.858  1.00  0.00     0.115 A 
ATOM     18  C   UNL A   1      34.235  22.325  25.030  1.00  0.00     0.074 A 
ATOM     19  C   UNL A   1      33.339  21.408  25.685  1.00  0.00     0.028 A 
ATOM     20  C   UNL A   1      32.265  21.075  24.891  1.00  0.00     0.068 A 
ATOM     21  S   UNL A   1      32.453  21.729  23.324  1.00  0.00    -0.125 S 
BRANCH  18  22
ATOM     22  C   UNL A   1      35.531  22.753  25.526  1.00  0.00     0.251 C 
ATOM     23  N   UNL A   1      36.259  21.777  26.136  1.00  0.00    -0.366 N 
ATOM     24  H   UNL A   1      37.151  21.983  26.501  1.00  0.00     0.159 HD
ATOM     25  H   UNL A   1      35.895  20.866  26.212  1.00  0.00     0.159 HD
ATOM     26  O   UNL A   1      35.995  23.882  25.339  1.00  0.00    -0.269 OA
ENDBRANCH  18  22
ENDBRANCH  15  17
ENDBRANCH  12  15
ENDBRANCH   7  12
ENDBRANCH   4   6
ENDBRANCH   3   4
ENDBRANCH   2   3
ENDBRANCH   1   2
BRANCH   1  27
ATOM     27  O   UNL A   1      34.660  34.087  27.909  1.00  0.00    -0.374 OA
BRANCH  27  28
ATOM     28  C   UNL A   1      33.288  34.351  28.197  1.00  0.00     0.202 C 
BRANCH  28  29
ATOM     29  C   UNL A   1      32.953  35.467  29.194  1.00  0.00     0.261 C 
BRANCH  29  30
ATOM     30  O   UNL A   1      32.497  34.974  30.464  1.00  0.00    -0.460 OA
BRANCH  30  31
ATOM     31  C   UNL A   1      33.330  35.253  31.497  1.00  0.00     0.338 C 
ATOM     32  O   UNL A   1      33.104  35.989  32.445  1.00  0.00    -0.246 OA
BRANCH  31  33
ATOM     33  C   UNL A   1      34.523  34.389  31.440  1.00  0.00     0.060 A 
ATOM     34  C   UNL A   1      34.381  33.068  31.884  1.00  0.00     0.016 A 
ATOM     35  C   UNL A   1      35.772  34.883  31.062  1.00  0.00     0.016 A 
ATOM     36  C   UNL A   1      35.501  32.254  32.023  1.00  0.00     0.010 A 
ATOM     37  C   UNL A   1      36.899  34.066  31.207  1.00  0.00     0.010 A 
ATOM     38  C   UNL A   1      36.772  32.769  31.738  1.00  0.00    -0.014 A 
BRANCH  38  39
ATOM     39  C   UNL A   1      37.970  32.013  32.173  1.00  0.00     0.031 A 
ATOM     40  C   UNL A   1      38.597  32.351  33.500  1.00  0.00     0.074 A 
ATOM     41  C   UNL A   1      38.479  31.025  31.416  1.00  0.00     0.049 A 
ATOM     42  N   UNL A   1      39.646  31.828  34.078  1.00  0.00    -0.248 NA
ATOM     43  C   UNL A   1      37.957  33.427  34.276  1.00  0.00     0.031 C 
ATOM     44  C   UNL A   1      37.956  30.600  30.119  1.00  0.00     0.029 A 
ATOM     45  N   UNL A   1      39.564  30.212  31.626  1.00  0.00    -0.354 N 
ATOM     46  C   UNL A   1      39.811  32.528  35.268  1.00  0.00     0.074 A 
ATOM     47  C   UNL A   1      38.764  33.525  35.321  1.00  0.00     0.031 C 
ATOM     48  C   UNL A   1      38.738  29.620  29.634  1.00  0.00     0.029 A 
ATOM     49  C   UNL A   1      39.825  29.362  30.578  1.00  0.00     0.049 A 
ATOM     50  H   UNL A   1      40.104  30.235  32.449  1.00  0.00     0.167 HD
ATOM     51  C   UNL A   1      40.739  32.347  36.238  1.00  0.00     0.034 A 
ATOM     52  C   UNL A   1      40.835  28.489  30.396  1.00  0.00     0.034 A 
ATOM     53  C   UNL A   1      41.762  31.340  36.194  1.00  0.00     0.049 A 
ATOM     54  C   UNL A   1      41.857  28.308  31.488  1.00  0.00     0.074 A 
ATOM     55  C   UNL A   1      42.725  31.049  37.144  1.00  0.00     0.029 A 
ATOM     56  N   UNL A   1      41.961  30.461  35.141  1.00  0.00    -0.354 N 
ATOM     57  N   UNL A   1      41.936  28.904  32.654  1.00  0.00    -0.248 NA
ATOM     58  C   UNL A   1      42.906  27.305  31.257  1.00  0.00     0.031 C 
ATOM     59  C   UNL A   1      43.523  30.009  36.654  1.00  0.00     0.029 A 
ATOM     60  C   UNL A   1      43.033  29.629  35.415  1.00  0.00     0.049 A 
ATOM     61  H   UNL A   1      41.419  30.432  34.320  1.00  0.00     0.167 HD
ATOM     62  C   UNL A   1      43.009  28.316  33.313  1.00  0.00     0.074 A 
ATOM     63  C   UNL A   1      43.543  27.307  32.421  1.00  0.00     0.031 C 
ATOM     64  C   UNL A   1      43.515  28.588  34.542  1.00  0.00     0.034 A 
BRANCH  51  65
ATOM     65  C   UNL A   1      40.673  33.250  37.443  1.00  0.00     0.023 A 
ATOM     66  C   UNL A   1      41.573  34.328  37.562  1.00  0.00     0.012 A 
ATOM     67  C   UNL A   1      39.690  33.058  38.434  1.00  0.00     0.148 A 
ATOM     68  C   UNL A   1      41.519  35.181  38.664  1.00  0.00     0.002 A 
ATOM     69  C   UNL A   1      39.612  33.940  39.505  1.00  0.00     0.091 A 
ATOM     70  F   UNL A   1      38.859  32.012  38.317  1.00  0.00    -0.205 F 
ATOM     71  C   UNL A   1      40.533  34.992  39.629  1.00  0.00     0.022 A 
BRANCH  69  72
ATOM     72  S   UNL A   1      38.329  33.829  40.757  1.00  0.00     0.127 S 
ATOM     73  O   UNL A   1      38.204  35.224  41.176  1.00  0.00    -0.237 OA
ATOM     74  O   UNL A   1      37.193  33.319  39.989  1.00  0.00    -0.237 OA
ATOM     75  O   UNL A   1      38.835  32.914  41.770  1.00  0.00    -0.744 OA
ENDBRANCH  69  72
ENDBRANCH  51  65
BRANCH  52  76
ATOM     76  C   UNL A   1      40.904  27.683  29.144  1.00  0.00     0.023 A 
ATOM     77  C   UNL A   1      40.096  26.538  29.007  1.00  0.00     0.012 A 
ATOM     78  C   UNL A   1      41.756  28.055  28.085  1.00  0.00     0.148 A 
ATOM     79  C   UNL A   1      40.160  25.758  27.852  1.00  0.00     0.002 A 
ATOM     80  C   UNL A   1      41.772  27.305  26.914  1.00  0.00     0.091 A 
ATOM     81  F   UNL A   1      42.527  29.139  28.241  1.00  0.00    -0.205 F 
ATOM     82  C   UNL A   1      40.989  26.146  26.803  1.00  0.00     0.022 A 
BRANCH  80  83
ATOM     83  S   UNL A   1      42.709  27.806  25.466  1.00  0.00     0.127 S 
ATOM     84  O   UNL A   1      42.628  26.612  24.629  1.00  0.00    -0.237 OA
ATOM     85  O   UNL A   1      41.934  28.951  24.986  1.00  0.00    -0.237 OA
ATOM     86  O   UNL A   1      44.039  28.147  25.954  1.00  0.00    -0.744 OA
ENDBRANCH  80  83
ENDBRANCH  52  76
BRANCH  64  87
ATOM     87  C   UNL A   1      44.668  27.749  35.030  1.00  0.00     0.023 A 
ATOM     88  C   UNL A   1      45.987  28.232  34.931  1.00  0.00     0.012 A 
ATOM     89  C   UNL A   1      44.433  26.505  35.649  1.00  0.00     0.148 A 
ATOM     90  C   UNL A   1      47.057  27.474  35.404  1.00  0.00     0.002 A 
ATOM     91  C   UNL A   1      45.499  25.778  36.165  1.00  0.00     0.091 A 
ATOM     92  F   UNL A   1      43.173  26.051  35.718  1.00  0.00    -0.205 F 
ATOM     93  C   UNL A   1      46.813  26.254  36.031  1.00  0.00     0.022 A 
BRANCH  91  94
ATOM     94  S   UNL A   1      45.263  24.247  37.075  1.00  0.00     0.127 S 
ATOM     95  O   UNL A   1      46.642  23.830  37.319  1.00  0.00    -0.237 OA
ATOM     96  O   UNL A   1      44.542  24.700  38.267  1.00  0.00    -0.237 OA
ATOM     97  O   UNL A   1      44.488  23.379  36.199  1.00  0.00    -0.744 OA
ENDBRANCH  91  94
ENDBRANCH  64  87
ENDBRANCH  38  39
ENDBRANCH  31  33
ENDBRANCH  30  31
ENDBRANCH  29  30
ENDBRANCH  28  29
ENDBRANCH  27  28
ENDBRANCH   1  27
TORSDOF 21
ENDMDL
