MODEL 1
REMARK VINA RESULT:     -10.2      0.000      0.000
REMARK SMILES C[C@]12CC[C@@H]3[C@@H](CCC4=C/C(=N\OCC(=O)N5CCC[C@@H]5C(=O)OCCOCCOC(=O)c5ccc(-c6c7nc(c(-c8cccc(S(=O)(=O)[O-])c8F)c8ccc([nH]8)c(-c8cccc(S(=O)(=O)[O-])c8F)c8nc(c(-c9cccc(S(=O)(=O)[O-])c9F)c9ccc6[nH]9)C=C8)C=C7)cc5)CC[C@@]43C)[C@H]1CC[C@@H]2O
REMARK SMILES IDX 26 1 25 2 24 3 22 4 23 5 21 6 17 7 18 8 19 9 20 10 15 11
REMARK SMILES IDX 16 12 14 13 13 14 12 15 1 16 2 17 3 18 100 19 103 20 4 21
REMARK SMILES IDX 6 22 101 23 102 24 5 25 7 26 98 27 8 28 9 29 97 30 99 31
REMARK SMILES IDX 10 32 96 33 11 34 104 35 27 37 28 38 29 39 30 40 31 41 32 42
REMARK SMILES IDX 33 43 34 44 95 45 35 46 94 47 36 48 37 49 38 50 88 51 39 52
REMARK SMILES IDX 93 53 87 54 89 55 40 56 92 57 86 58 85 59 41 61 73 62 53 63
REMARK SMILES IDX 72 64 54 65 57 66 71 67 90 68 55 69 56 70 70 72 91 73 58 74
REMARK SMILES IDX 42 75 43 76 51 77 44 78 46 79 52 80 45 81 47 82 48 83 49 84
REMARK SMILES IDX 50 85 74 86 75 87 83 88 76 89 78 90 84 91 77 92 79 93 80 94
REMARK SMILES IDX 81 95 82 96 59 97 60 98 68 99 61 100 63 101 69 102 62 103
REMARK SMILES IDX 64 104 65 105 66 106 67 107
REMARK H PARENT 104 36 89 60 57 71
REMARK Flexibility Score: inf
ROOT
ATOM      1  C   UNL A   1      36.385  34.458  33.159  1.00  0.00     0.202 C 
ENDROOT
BRANCH   1   2
ATOM      2  C   UNL A   1      36.537  33.236  32.239  1.00  0.00     0.261 C 
BRANCH   2   3
ATOM      3  O   UNL A   1      36.322  33.376  30.843  1.00  0.00    -0.462 OA
BRANCH   3   4
ATOM      4  C   UNL A   1      37.468  33.417  30.114  1.00  0.00     0.328 C 
ATOM      5  O   UNL A   1      38.429  34.146  30.347  1.00  0.00    -0.250 OA
BRANCH   4   6
ATOM      6  C   UNL A   1      37.498  32.352  29.019  1.00  0.00     0.195 C 
ATOM      7  N   UNL A   1      36.234  31.702  28.661  1.00  0.00    -0.326 N 
ATOM      8  C   UNL A   1      36.260  30.280  28.947  1.00  0.00     0.120 C 
ATOM      9  C   UNL A   1      37.401  30.103  29.924  1.00  0.00     0.024 C 
ATOM     10  C   UNL A   1      38.385  31.199  29.519  1.00  0.00     0.039 C 
BRANCH   7  11
ATOM     11  C   UNL A   1      35.188  32.234  27.930  1.00  0.00     0.264 C 
ATOM     12  O   UNL A   1      35.309  33.343  27.400  1.00  0.00    -0.271 OA
BRANCH  11  13
ATOM     13  C   UNL A   1      33.817  31.529  27.931  1.00  0.00     0.363 C 
BRANCH  13  14
ATOM     14  O   UNL A   1      33.416  30.728  26.829  1.00  0.00    -0.385 OA
BRANCH  14  15
ATOM     15  N   UNL A   1      32.574  29.706  27.292  1.00  0.00    -0.091 NA
ATOM     16  C   UNL A   1      32.212  21.446  24.044  1.00  0.00     0.014 C 
ATOM     17  C   UNL A   1      32.415  22.978  24.185  1.00  0.00    -0.003 C 
ATOM     18  C   UNL A   1      31.092  23.510  24.754  1.00  0.00     0.010 C 
ATOM     19  C   UNL A   1      32.903  23.579  22.839  1.00  0.00     0.001 C 
ATOM     20  C   UNL A   1      33.631  23.345  25.061  1.00  0.00     0.120 C 
ATOM     21  C   UNL A   1      30.405  24.513  23.852  1.00  0.00     0.005 C 
ATOM     22  C   UNL A   1      32.523  25.079  22.581  1.00  0.00    -0.003 C 
ATOM     23  C   UNL A   1      34.403  23.193  22.789  1.00  0.00     0.007 C 
ATOM     24  C   UNL A   1      34.819  22.887  24.230  1.00  0.00     0.032 C 
ATOM     25  C   UNL A   1      31.337  25.635  23.389  1.00  0.00     0.002 C 
ATOM     26  C   UNL A   1      33.548  26.154  22.206  1.00  0.00     0.008 C 
ATOM     27  C   UNL A   1      31.551  26.789  24.449  1.00  0.00    -0.008 C 
ATOM     28  C   UNL A   1      33.818  27.292  23.183  1.00  0.00     0.032 C 
ATOM     29  C   UNL A   1      32.856  27.571  24.304  1.00  0.00    -0.062 C 
ATOM     30  C   UNL A   1      31.491  26.388  25.951  1.00  0.00     0.018 C 
ATOM     31  C   UNL A   1      30.330  27.711  24.176  1.00  0.00     0.016 C 
ATOM     32  C   UNL A   1      33.257  28.474  25.230  1.00  0.00     0.027 C 
ATOM     33  C   UNL A   1      31.584  27.557  26.942  1.00  0.00     0.061 C 
ATOM     34  C   UNL A   1      32.506  28.678  26.500  1.00  0.00     0.080 C 
BRANCH  20  35
ATOM     35  O   UNL A   1      33.611  22.742  26.332  1.00  0.00    -0.393 OA
ATOM     36  H   UNL A   1      34.373  23.047  26.848  1.00  0.00     0.210 HD
ENDBRANCH  20  35
ENDBRANCH  14  15
ENDBRANCH  13  14
ENDBRANCH  11  13
ENDBRANCH   7  11
ENDBRANCH   4   6
ENDBRANCH   3   4
ENDBRANCH   2   3
ENDBRANCH   1   2
BRANCH   1  37
ATOM     37  O   UNL A   1      37.444  34.898  33.986  1.00  0.00    -0.374 OA
BRANCH  37  38
ATOM     38  C   UNL A   1      38.093  33.947  34.806  1.00  0.00     0.202 C 
BRANCH  38  39
ATOM     39  C   UNL A   1      39.564  33.587  34.553  1.00  0.00     0.261 C 
BRANCH  39  40
ATOM     40  O   UNL A   1      39.975  33.500  33.181  1.00  0.00    -0.460 OA
BRANCH  40  41
ATOM     41  C   UNL A   1      40.219  32.233  32.754  1.00  0.00     0.338 C 
ATOM     42  O   UNL A   1      39.485  31.268  32.876  1.00  0.00    -0.246 OA
BRANCH  41  43
ATOM     43  C   UNL A   1      41.491  32.160  32.012  1.00  0.00     0.060 A 
ATOM     44  C   UNL A   1      41.476  32.430  30.637  1.00  0.00     0.016 A 
ATOM     45  C   UNL A   1      42.638  31.652  32.624  1.00  0.00     0.016 A 
ATOM     46  C   UNL A   1      42.592  32.127  29.854  1.00  0.00     0.010 A 
ATOM     47  C   UNL A   1      43.752  31.345  31.838  1.00  0.00     0.010 A 
ATOM     48  C   UNL A   1      43.716  31.534  30.444  1.00  0.00    -0.014 A 
BRANCH  48  49
ATOM     49  C   UNL A   1      44.787  30.943  29.601  1.00  0.00     0.031 A 
ATOM     50  C   UNL A   1      44.734  29.470  29.287  1.00  0.00     0.074 A 
ATOM     51  C   UNL A   1      45.810  31.693  29.154  1.00  0.00     0.049 A 
ATOM     52  N   UNL A   1      45.607  28.720  28.669  1.00  0.00    -0.248 NA
ATOM     53  C   UNL A   1      43.534  28.745  29.740  1.00  0.00     0.031 C 
ATOM     54  C   UNL A   1      45.970  33.128  29.383  1.00  0.00     0.029 A 
ATOM     55  N   UNL A   1      46.930  31.336  28.444  1.00  0.00    -0.354 N 
ATOM     56  C   UNL A   1      45.087  27.432  28.692  1.00  0.00     0.074 A 
ATOM     57  C   UNL A   1      43.820  27.499  29.389  1.00  0.00     0.031 C 
ATOM     58  C   UNL A   1      47.141  33.524  28.856  1.00  0.00     0.029 A 
ATOM     59  C   UNL A   1      47.825  32.367  28.281  1.00  0.00     0.049 A 
ATOM     60  H   UNL A   1      47.076  30.431  28.086  1.00  0.00     0.167 HD
ATOM     61  C   UNL A   1      45.607  26.295  28.170  1.00  0.00     0.034 A 
ATOM     62  C   UNL A   1      49.068  32.368  27.757  1.00  0.00     0.034 A 
ATOM     63  C   UNL A   1      46.855  26.234  27.457  1.00  0.00     0.049 A 
ATOM     64  C   UNL A   1      49.635  31.085  27.201  1.00  0.00     0.074 A 
ATOM     65  C   UNL A   1      47.449  25.140  26.855  1.00  0.00     0.029 A 
ATOM     66  N   UNL A   1      47.703  27.312  27.257  1.00  0.00    -0.354 N 
ATOM     67  N   UNL A   1      49.084  29.896  27.135  1.00  0.00    -0.248 NA
ATOM     68  C   UNL A   1      50.983  31.151  26.615  1.00  0.00     0.031 C 
ATOM     69  C   UNL A   1      48.668  25.552  26.307  1.00  0.00     0.029 A 
ATOM     70  C   UNL A   1      48.818  26.909  26.544  1.00  0.00     0.049 A 
ATOM     71  H   UNL A   1      47.536  28.229  27.575  1.00  0.00     0.167 HD
ATOM     72  C   UNL A   1      49.996  29.088  26.464  1.00  0.00     0.074 A 
ATOM     73  C   UNL A   1      51.132  29.924  26.134  1.00  0.00     0.031 C 
ATOM     74  C   UNL A   1      49.908  27.769  26.160  1.00  0.00     0.034 A 
BRANCH  61  75
ATOM     75  C   UNL A   1      44.815  25.023  28.327  1.00  0.00     0.023 A 
ATOM     76  C   UNL A   1      44.935  24.269  29.511  1.00  0.00     0.012 A 
ATOM     77  C   UNL A   1      43.908  24.606  27.331  1.00  0.00     0.148 A 
ATOM     78  C   UNL A   1      44.192  23.102  29.689  1.00  0.00     0.002 A 
ATOM     79  C   UNL A   1      43.140  23.465  27.534  1.00  0.00     0.091 A 
ATOM     80  F   UNL A   1      43.823  25.325  26.202  1.00  0.00    -0.205 F 
ATOM     81  C   UNL A   1      43.287  22.707  28.707  1.00  0.00     0.022 A 
BRANCH  79  82
ATOM     82  S   UNL A   1      41.892  22.917  26.363  1.00  0.00     0.127 S 
ATOM     83  O   UNL A   1      42.690  22.715  25.155  1.00  0.00    -0.237 OA
ATOM     84  O   UNL A   1      41.406  21.685  26.985  1.00  0.00    -0.237 OA
ATOM     85  O   UNL A   1      40.909  23.989  26.291  1.00  0.00    -0.744 OA
ENDBRANCH  79  82
ENDBRANCH  61  75
BRANCH  62  86
ATOM     86  C   UNL A   1      49.852  33.633  27.697  1.00  0.00     0.023 A 
ATOM     87  C   UNL A   1      50.565  34.059  28.834  1.00  0.00     0.012 A 
ATOM     88  C   UNL A   1      49.905  34.410  26.523  1.00  0.00     0.148 A 
ATOM     89  C   UNL A   1      51.292  35.250  28.814  1.00  0.00     0.002 A 
ATOM     90  C   UNL A   1      50.675  35.567  26.492  1.00  0.00     0.091 A 
ATOM     91  F   UNL A   1      49.206  33.998  25.456  1.00  0.00    -0.205 F 
ATOM     92  C   UNL A   1      51.355  35.998  27.642  1.00  0.00     0.022 A 
BRANCH  90  93
ATOM     93  S   UNL A   1      50.913  36.528  24.993  1.00  0.00     0.127 S 
ATOM     94  O   UNL A   1      49.557  36.995  24.718  1.00  0.00    -0.237 OA
ATOM     95  O   UNL A   1      51.843  37.566  25.445  1.00  0.00    -0.237 OA
ATOM     96  O   UNL A   1      51.476  35.603  24.020  1.00  0.00    -0.744 OA
ENDBRANCH  90  93
ENDBRANCH  62  86
BRANCH  74  97
ATOM     97  C   UNL A   1      51.036  27.147  25.379  1.00  0.00     0.023 A 
ATOM     98  C   UNL A   1      50.962  27.067  23.975  1.00  0.00     0.012 A 
ATOM     99  C   UNL A   1      52.212  26.727  26.035  1.00  0.00     0.148 A 
ATOM    100  C   UNL A   1      52.030  26.555  23.238  1.00  0.00     0.002 A 
ATOM    101  C   UNL A   1      53.289  26.263  25.290  1.00  0.00     0.091 A 
ATOM    102  F   UNL A   1      52.256  26.795  27.374  1.00  0.00    -0.205 F 
ATOM    103  C   UNL A   1      53.196  26.165  23.893  1.00  0.00     0.022 A 
BRANCH 101 104
ATOM    104  S   UNL A   1      54.864  25.833  26.041  1.00  0.00     0.127 S 
ATOM    105  O   UNL A   1      54.453  24.884  27.074  1.00  0.00    -0.237 OA
ATOM    106  O   UNL A   1      55.590  25.235  24.920  1.00  0.00    -0.237 OA
ATOM    107  O   UNL A   1      55.431  27.082  26.529  1.00  0.00    -0.744 OA
ENDBRANCH 101 104
ENDBRANCH  74  97
ENDBRANCH  48  49
ENDBRANCH  41  43
ENDBRANCH  40  41
ENDBRANCH  39  40
ENDBRANCH  38  39
ENDBRANCH  37  38
ENDBRANCH   1  37
TORSDOF 22
ENDMDL
MODEL 2
REMARK VINA RESULT:     -10.2      5.567      8.774
REMARK SMILES C[C@]12CC[C@@H]3[C@@H](CCC4=C/C(=N\OCC(=O)N5CCC[C@@H]5C(=O)OCCOCCOC(=O)c5ccc(-c6c7nc(c(-c8cccc(S(=O)(=O)[O-])c8F)c8ccc([nH]8)c(-c8cccc(S(=O)(=O)[O-])c8F)c8nc(c(-c9cccc(S(=O)(=O)[O-])c9F)c9ccc6[nH]9)C=C8)C=C7)cc5)CC[C@@]43C)[C@H]1CC[C@@H]2O
REMARK SMILES IDX 26 1 25 2 24 3 22 4 23 5 21 6 17 7 18 8 19 9 20 10 15 11
REMARK SMILES IDX 16 12 14 13 13 14 12 15 1 16 2 17 3 18 100 19 103 20 4 21
REMARK SMILES IDX 6 22 101 23 102 24 5 25 7 26 98 27 8 28 9 29 97 30 99 31
REMARK SMILES IDX 10 32 96 33 11 34 104 35 27 37 28 38 29 39 30 40 31 41 32 42
REMARK SMILES IDX 33 43 34 44 95 45 35 46 94 47 36 48 37 49 38 50 88 51 39 52
REMARK SMILES IDX 93 53 87 54 89 55 40 56 92 57 86 58 85 59 41 61 73 62 53 63
REMARK SMILES IDX 72 64 54 65 57 66 71 67 90 68 55 69 56 70 70 72 91 73 58 74
REMARK SMILES IDX 42 75 43 76 51 77 44 78 46 79 52 80 45 81 47 82 48 83 49 84
REMARK SMILES IDX 50 85 74 86 75 87 83 88 76 89 78 90 84 91 77 92 79 93 80 94
REMARK SMILES IDX 81 95 82 96 59 97 60 98 68 99 61 100 63 101 69 102 62 103
REMARK SMILES IDX 64 104 65 105 66 106 67 107
REMARK H PARENT 104 36 89 60 57 71
REMARK Flexibility Score: inf
ROOT
ATOM      1  C   UNL A   1      39.224  27.086  29.515  1.00  0.00     0.202 C 
ENDROOT
BRANCH   1   2
ATOM      2  C   UNL A   1      39.710  26.022  28.519  1.00  0.00     0.261 C 
BRANCH   2   3
ATOM      3  O   UNL A   1      40.948  26.203  27.846  1.00  0.00    -0.462 OA
BRANCH   3   4
ATOM      4  C   UNL A   1      41.121  25.373  26.784  1.00  0.00     0.328 C 
ATOM      5  O   UNL A   1      40.428  25.368  25.770  1.00  0.00    -0.250 OA
BRANCH   4   6
ATOM      6  C   UNL A   1      42.373  24.508  26.921  1.00  0.00     0.195 C 
ATOM      7  N   UNL A   1      42.202  23.122  27.367  1.00  0.00    -0.326 N 
ATOM      8  C   UNL A   1      42.857  22.882  28.638  1.00  0.00     0.120 C 
ATOM      9  C   UNL A   1      43.067  24.257  29.232  1.00  0.00     0.024 C 
ATOM     10  C   UNL A   1      43.261  25.145  28.004  1.00  0.00     0.039 C 
BRANCH   7  11
ATOM     11  C   UNL A   1      41.705  22.056  26.641  1.00  0.00     0.264 C 
ATOM     12  O   UNL A   1      42.088  21.870  25.481  1.00  0.00    -0.271 OA
BRANCH  11  13
ATOM     13  C   UNL A   1      40.546  21.215  27.212  1.00  0.00     0.363 C 
BRANCH  13  14
ATOM     14  O   UNL A   1      39.286  21.184  26.558  1.00  0.00    -0.385 OA
BRANCH  14  15
ATOM     15  N   UNL A   1      38.882  22.500  26.289  1.00  0.00    -0.091 NA
ATOM     16  C   UNL A   1      30.538  25.122  24.735  1.00  0.00     0.014 C 
ATOM     17  C   UNL A   1      31.831  24.271  24.840  1.00  0.00    -0.003 C 
ATOM     18  C   UNL A   1      32.913  25.090  24.122  1.00  0.00     0.010 C 
ATOM     19  C   UNL A   1      31.567  22.831  24.321  1.00  0.00     0.001 C 
ATOM     20  C   UNL A   1      32.209  23.930  26.297  1.00  0.00     0.120 C 
ATOM     21  C   UNL A   1      33.523  24.377  22.934  1.00  0.00     0.005 C 
ATOM     22  C   UNL A   1      32.809  22.079  23.728  1.00  0.00    -0.003 C 
ATOM     23  C   UNL A   1      30.802  22.158  25.488  1.00  0.00     0.007 C 
ATOM     24  C   UNL A   1      31.104  22.985  26.740  1.00  0.00     0.032 C 
ATOM     25  C   UNL A   1      33.985  22.957  23.263  1.00  0.00     0.002 C 
ATOM     26  C   UNL A   1      33.248  20.685  24.190  1.00  0.00     0.008 C 
ATOM     27  C   UNL A   1      35.390  22.875  23.986  1.00  0.00    -0.008 C 
ATOM     28  C   UNL A   1      34.585  20.530  24.905  1.00  0.00     0.032 C 
ATOM     29  C   UNL A   1      35.613  21.625  24.835  1.00  0.00    -0.062 C 
ATOM     30  C   UNL A   1      35.775  24.062  24.915  1.00  0.00     0.018 C 
ATOM     31  C   UNL A   1      36.375  22.901  22.785  1.00  0.00     0.016 C 
ATOM     32  C   UNL A   1      36.692  21.489  25.642  1.00  0.00     0.027 C 
ATOM     33  C   UNL A   1      37.193  23.999  25.500  1.00  0.00     0.061 C 
ATOM     34  C   UNL A   1      37.668  22.597  25.836  1.00  0.00     0.080 C 
BRANCH  20  35
ATOM     35  O   UNL A   1      32.306  25.060  27.131  1.00  0.00    -0.393 OA
ATOM     36  H   UNL A   1      31.591  25.680  26.919  1.00  0.00     0.210 HD
ENDBRANCH  20  35
ENDBRANCH  14  15
ENDBRANCH  13  14
ENDBRANCH  11  13
ENDBRANCH   7  11
ENDBRANCH   4   6
ENDBRANCH   3   4
ENDBRANCH   2   3
ENDBRANCH   1   2
BRANCH   1  37
ATOM     37  O   UNL A   1      38.169  27.971  29.196  1.00  0.00    -0.374 OA
BRANCH  37  38
ATOM     38  C   UNL A   1      38.496  29.262  28.721  1.00  0.00     0.202 C 
BRANCH  38  39
ATOM     39  C   UNL A   1      37.787  30.497  29.294  1.00  0.00     0.261 C 
BRANCH  39  40
ATOM     40  O   UNL A   1      38.511  31.253  30.275  1.00  0.00    -0.460 OA
BRANCH  40  41
ATOM     41  C   UNL A   1      38.253  30.890  31.559  1.00  0.00     0.338 C 
ATOM     42  O   UNL A   1      37.186  30.976  32.141  1.00  0.00    -0.246 OA
BRANCH  41  43
ATOM     43  C   UNL A   1      39.436  30.267  32.182  1.00  0.00     0.060 A 
ATOM     44  C   UNL A   1      40.595  31.041  32.328  1.00  0.00     0.016 A 
ATOM     45  C   UNL A   1      39.458  28.897  32.443  1.00  0.00     0.016 A 
ATOM     46  C   UNL A   1      41.803  30.430  32.672  1.00  0.00     0.010 A 
ATOM     47  C   UNL A   1      40.669  28.286  32.782  1.00  0.00     0.010 A 
ATOM     48  C   UNL A   1      41.855  29.041  32.849  1.00  0.00    -0.014 A 
BRANCH  48  49
ATOM     49  C   UNL A   1      43.162  28.339  32.927  1.00  0.00     0.031 A 
ATOM     50  C   UNL A   1      43.723  28.000  34.284  1.00  0.00     0.074 A 
ATOM     51  C   UNL A   1      43.858  28.045  31.815  1.00  0.00     0.049 A 
ATOM     52  N   UNL A   1      44.885  27.494  34.600  1.00  0.00    -0.248 NA
ATOM     53  C   UNL A   1      42.855  28.277  35.442  1.00  0.00     0.031 C 
ATOM     54  C   UNL A   1      43.420  28.314  30.447  1.00  0.00     0.029 A 
ATOM     55  N   UNL A   1      45.104  27.487  31.669  1.00  0.00    -0.354 N 
ATOM     56  C   UNL A   1      44.907  27.428  35.988  1.00  0.00     0.074 A 
ATOM     57  C   UNL A   1      43.642  27.949  36.457  1.00  0.00     0.031 C 
ATOM     58  C   UNL A   1      44.398  27.955  29.599  1.00  0.00     0.029 A 
ATOM     59  C   UNL A   1      45.541  27.460  30.365  1.00  0.00     0.049 A 
ATOM     60  H   UNL A   1      45.632  27.138  32.423  1.00  0.00     0.167 HD
ATOM     61  C   UNL A   1      45.886  26.964  36.802  1.00  0.00     0.034 A 
ATOM     62  C   UNL A   1      46.738  27.107  29.854  1.00  0.00     0.034 A 
ATOM     63  C   UNL A   1      47.134  26.424  36.333  1.00  0.00     0.049 A 
ATOM     64  C   UNL A   1      47.820  26.613  30.782  1.00  0.00     0.074 A 
ATOM     65  C   UNL A   1      48.173  25.890  37.074  1.00  0.00     0.029 A 
ATOM     66  N   UNL A   1      47.514  26.355  35.002  1.00  0.00    -0.354 N 
ATOM     67  N   UNL A   1      47.786  26.457  32.084  1.00  0.00    -0.248 NA
ATOM     68  C   UNL A   1      49.096  26.215  30.166  1.00  0.00     0.031 C 
ATOM     69  C   UNL A   1      49.191  25.517  36.191  1.00  0.00     0.029 A 
ATOM     70  C   UNL A   1      48.773  25.791  34.899  1.00  0.00     0.049 A 
ATOM     71  H   UNL A   1      46.968  26.661  34.242  1.00  0.00     0.167 HD
ATOM     72  C   UNL A   1      49.013  25.903  32.435  1.00  0.00     0.074 A 
ATOM     73  C   UNL A   1      49.765  25.740  31.208  1.00  0.00     0.031 C 
ATOM     74  C   UNL A   1      49.481  25.570  33.664  1.00  0.00     0.034 A 
BRANCH  61  75
ATOM     75  C   UNL A   1      45.637  26.994  38.288  1.00  0.00     0.023 A 
ATOM     76  C   UNL A   1      45.113  25.854  38.929  1.00  0.00     0.012 A 
ATOM     77  C   UNL A   1      45.977  28.125  39.057  1.00  0.00     0.148 A 
ATOM     78  C   UNL A   1      44.899  25.850  40.308  1.00  0.00     0.002 A 
ATOM     79  C   UNL A   1      45.800  28.098  40.436  1.00  0.00     0.091 A 
ATOM     80  F   UNL A   1      46.455  29.208  38.426  1.00  0.00    -0.205 F 
ATOM     81  C   UNL A   1      45.253  26.966  41.061  1.00  0.00     0.022 A 
BRANCH  79  82
ATOM     82  S   UNL A   1      46.296  29.456  41.503  1.00  0.00     0.127 S 
ATOM     83  O   UNL A   1      45.082  30.269  41.529  1.00  0.00    -0.237 OA
ATOM     84  O   UNL A   1      46.595  28.768  42.759  1.00  0.00    -0.237 OA
ATOM     85  O   UNL A   1      47.448  30.073  40.860  1.00  0.00    -0.744 OA
ENDBRANCH  79  82
ENDBRANCH  61  75
BRANCH  62  86
ATOM     86  C   UNL A   1      46.970  27.172  28.384  1.00  0.00     0.023 A 
ATOM     87  C   UNL A   1      47.500  28.348  27.818  1.00  0.00     0.012 A 
ATOM     88  C   UNL A   1      46.681  26.077  27.545  1.00  0.00     0.148 A 
ATOM     89  C   UNL A   1      47.709  28.444  26.442  1.00  0.00     0.002 A 
ATOM     90  C   UNL A   1      46.943  26.160  26.182  1.00  0.00     0.091 A 
ATOM     91  F   UNL A   1      46.161  24.972  28.099  1.00  0.00    -0.205 F 
ATOM     92  C   UNL A   1      47.440  27.349  25.626  1.00  0.00     0.022 A 
BRANCH  90  93
ATOM     93  S   UNL A   1      46.742  24.760  25.074  1.00  0.00     0.127 S 
ATOM     94  O   UNL A   1      45.330  24.862  24.715  1.00  0.00    -0.237 OA
ATOM     95  O   UNL A   1      47.678  25.092  23.998  1.00  0.00    -0.237 OA
ATOM     96  O   UNL A   1      47.117  23.588  25.852  1.00  0.00    -0.744 OA
ENDBRANCH  90  93
ENDBRANCH  62  86
BRANCH  74  97
ATOM     97  C   UNL A   1      50.846  24.938  33.754  1.00  0.00     0.023 A 
ATOM     98  C   UNL A   1      51.987  25.746  33.920  1.00  0.00     0.012 A 
ATOM     99  C   UNL A   1      50.983  23.535  33.768  1.00  0.00     0.148 A 
ATOM    100  C   UNL A   1      53.247  25.168  34.072  1.00  0.00     0.002 A 
ATOM    101  C   UNL A   1      52.235  22.966  33.968  1.00  0.00     0.091 A 
ATOM    102  F   UNL A   1      49.886  22.783  33.591  1.00  0.00    -0.205 F 
ATOM    103  C   UNL A   1      53.370  23.781  34.109  1.00  0.00     0.022 A 
BRANCH 101 104
ATOM    104  S   UNL A   1      52.472  21.192  34.127  1.00  0.00     0.127 S 
ATOM    105  O   UNL A   1      53.923  21.096  34.270  1.00  0.00    -0.237 OA
ATOM    106  O   UNL A   1      51.719  20.886  35.344  1.00  0.00    -0.237 OA
ATOM    107  O   UNL A   1      51.921  20.602  32.914  1.00  0.00    -0.744 OA
ENDBRANCH 101 104
ENDBRANCH  74  97
ENDBRANCH  48  49
ENDBRANCH  41  43
ENDBRANCH  40  41
ENDBRANCH  39  40
ENDBRANCH  38  39
ENDBRANCH  37  38
ENDBRANCH   1  37
TORSDOF 22
ENDMDL
MODEL 3
REMARK VINA RESULT:     -10.0      5.656     12.398
REMARK SMILES C[C@]12CC[C@@H]3[C@@H](CCC4=C/C(=N\OCC(=O)N5CCC[C@@H]5C(=O)OCCOCCOC(=O)c5ccc(-c6c7nc(c(-c8cccc(S(=O)(=O)[O-])c8F)c8ccc([nH]8)c(-c8cccc(S(=O)(=O)[O-])c8F)c8nc(c(-c9cccc(S(=O)(=O)[O-])c9F)c9ccc6[nH]9)C=C8)C=C7)cc5)CC[C@@]43C)[C@H]1CC[C@@H]2O
REMARK SMILES IDX 26 1 25 2 24 3 22 4 23 5 21 6 17 7 18 8 19 9 20 10 15 11
REMARK SMILES IDX 16 12 14 13 13 14 12 15 1 16 2 17 3 18 100 19 103 20 4 21
REMARK SMILES IDX 6 22 101 23 102 24 5 25 7 26 98 27 8 28 9 29 97 30 99 31
REMARK SMILES IDX 10 32 96 33 11 34 104 35 27 37 28 38 29 39 30 40 31 41 32 42
REMARK SMILES IDX 33 43 34 44 95 45 35 46 94 47 36 48 37 49 38 50 88 51 39 52
REMARK SMILES IDX 93 53 87 54 89 55 40 56 92 57 86 58 85 59 41 61 73 62 53 63
REMARK SMILES IDX 72 64 54 65 57 66 71 67 90 68 55 69 56 70 70 72 91 73 58 74
REMARK SMILES IDX 42 75 43 76 51 77 44 78 46 79 52 80 45 81 47 82 48 83 49 84
REMARK SMILES IDX 50 85 74 86 75 87 83 88 76 89 78 90 84 91 77 92 79 93 80 94
REMARK SMILES IDX 81 95 82 96 59 97 60 98 68 99 61 100 63 101 69 102 62 103
REMARK SMILES IDX 64 104 65 105 66 106 67 107
REMARK H PARENT 104 36 89 60 57 71
REMARK Flexibility Score: inf
ROOT
ATOM      1  C   UNL A   1      45.477  24.112  24.982  1.00  0.00     0.202 C 
ENDROOT
BRANCH   1   2
ATOM      2  C   UNL A   1      44.753  22.880  24.416  1.00  0.00     0.261 C 
BRANCH   2   3
ATOM      3  O   UNL A   1      43.346  22.917  24.229  1.00  0.00    -0.462 OA
BRANCH   3   4
ATOM      4  C   UNL A   1      42.662  23.399  25.299  1.00  0.00     0.328 C 
ATOM      5  O   UNL A   1      42.406  24.583  25.499  1.00  0.00    -0.250 OA
BRANCH   4   6
ATOM      6  C   UNL A   1      42.119  22.284  26.191  1.00  0.00     0.195 C 
ATOM      7  N   UNL A   1      40.902  22.556  26.962  1.00  0.00    -0.326 N 
ATOM      8  C   UNL A   1      41.148  22.501  28.391  1.00  0.00     0.120 C 
ATOM      9  C   UNL A   1      42.648  22.641  28.532  1.00  0.00     0.024 C 
ATOM     10  C   UNL A   1      43.184  21.986  27.261  1.00  0.00     0.039 C 
BRANCH   7  11
ATOM     11  C   UNL A   1      39.605  22.633  26.494  1.00  0.00     0.264 C 
ATOM     12  O   UNL A   1      38.901  23.607  26.788  1.00  0.00    -0.271 OA
BRANCH  11  13
ATOM     13  C   UNL A   1      38.980  21.427  25.764  1.00  0.00     0.363 C 
BRANCH  13  14
ATOM     14  O   UNL A   1      37.570  21.275  25.697  1.00  0.00    -0.385 OA
BRANCH  14  15
ATOM     15  N   UNL A   1      37.114  21.804  24.480  1.00  0.00    -0.091 NA
ATOM     16  C   UNL A   1      30.211  27.310  23.506  1.00  0.00     0.014 C 
ATOM     17  C   UNL A   1      31.178  26.222  24.045  1.00  0.00    -0.003 C 
ATOM     18  C   UNL A   1      31.431  25.284  22.858  1.00  0.00     0.010 C 
ATOM     19  C   UNL A   1      30.602  25.590  25.341  1.00  0.00     0.001 C 
ATOM     20  C   UNL A   1      32.480  26.810  24.629  1.00  0.00     0.120 C 
ATOM     21  C   UNL A   1      30.997  23.856  23.110  1.00  0.00     0.005 C 
ATOM     22  C   UNL A   1      31.034  24.111  25.632  1.00  0.00    -0.003 C 
ATOM     23  C   UNL A   1      30.892  26.655  26.428  1.00  0.00     0.007 C 
ATOM     24  C   UNL A   1      32.011  27.543  25.876  1.00  0.00     0.032 C 
ATOM     25  C   UNL A   1      31.535  23.293  24.427  1.00  0.00     0.002 C 
ATOM     26  C   UNL A   1      31.651  23.659  26.960  1.00  0.00     0.008 C 
ATOM     27  C   UNL A   1      33.032  22.787  24.361  1.00  0.00    -0.008 C 
ATOM     28  C   UNL A   1      33.094  23.170  26.976  1.00  0.00     0.032 C 
ATOM     29  C   UNL A   1      33.778  22.784  25.694  1.00  0.00    -0.062 C 
ATOM     30  C   UNL A   1      33.983  23.524  23.375  1.00  0.00     0.018 C 
ATOM     31  C   UNL A   1      32.862  21.337  23.829  1.00  0.00     0.016 C 
ATOM     32  C   UNL A   1      35.107  22.536  25.772  1.00  0.00     0.027 C 
ATOM     33  C   UNL A   1      35.391  22.924  23.255  1.00  0.00     0.061 C 
ATOM     34  C   UNL A   1      35.944  22.363  24.553  1.00  0.00     0.080 C 
BRANCH  20  35
ATOM     35  O   UNL A   1      33.160  27.662  23.739  1.00  0.00    -0.393 OA
ATOM     36  H   UNL A   1      34.086  27.384  23.669  1.00  0.00     0.210 HD
ENDBRANCH  20  35
ENDBRANCH  14  15
ENDBRANCH  13  14
ENDBRANCH  11  13
ENDBRANCH   7  11
ENDBRANCH   4   6
ENDBRANCH   3   4
ENDBRANCH   2   3
ENDBRANCH   1   2
BRANCH   1  37
ATOM     37  O   UNL A   1      46.699  24.567  24.435  1.00  0.00    -0.374 OA
BRANCH  37  38
ATOM     38  C   UNL A   1      47.522  25.396  25.231  1.00  0.00     0.202 C 
BRANCH  38  39
ATOM     39  C   UNL A   1      46.892  26.458  26.145  1.00  0.00     0.261 C 
BRANCH  39  40
ATOM     40  O   UNL A   1      47.077  26.278  27.557  1.00  0.00    -0.460 OA
BRANCH  40  41
ATOM     41  C   UNL A   1      46.031  25.677  28.181  1.00  0.00     0.338 C 
ATOM     42  O   UNL A   1      45.808  24.481  28.245  1.00  0.00    -0.246 OA
BRANCH  41  43
ATOM     43  C   UNL A   1      45.195  26.667  28.886  1.00  0.00     0.060 A 
ATOM     44  C   UNL A   1      45.753  27.916  29.187  1.00  0.00     0.016 A 
ATOM     45  C   UNL A   1      43.952  26.301  29.404  1.00  0.00     0.016 A 
ATOM     46  C   UNL A   1      45.098  28.781  30.066  1.00  0.00     0.010 A 
ATOM     47  C   UNL A   1      43.299  27.166  30.288  1.00  0.00     0.010 A 
ATOM     48  C   UNL A   1      43.892  28.385  30.662  1.00  0.00    -0.014 A 
BRANCH  48  49
ATOM     49  C   UNL A   1      43.331  29.149  31.805  1.00  0.00     0.031 A 
ATOM     50  C   UNL A   1      42.170  30.078  31.556  1.00  0.00     0.074 A 
ATOM     51  C   UNL A   1      43.867  29.051  33.034  1.00  0.00     0.049 A 
ATOM     52  N   UNL A   1      41.592  30.921  32.370  1.00  0.00    -0.248 NA
ATOM     53  C   UNL A   1      41.589  30.056  30.203  1.00  0.00     0.031 C 
ATOM     54  C   UNL A   1      44.983  28.184  33.403  1.00  0.00     0.029 A 
ATOM     55  N   UNL A   1      43.562  29.722  34.193  1.00  0.00    -0.354 N 
ATOM     56  C   UNL A   1      40.608  31.558  31.622  1.00  0.00     0.074 A 
ATOM     57  C   UNL A   1      40.669  31.007  30.285  1.00  0.00     0.031 C 
ATOM     58  C   UNL A   1      45.297  28.402  34.691  1.00  0.00     0.029 A 
ATOM     59  C   UNL A   1      44.423  29.444  35.228  1.00  0.00     0.049 A 
ATOM     60  H   UNL A   1      42.800  30.340  34.274  1.00  0.00     0.167 HD
ATOM     61  C   UNL A   1      39.725  32.508  32.013  1.00  0.00     0.034 A 
ATOM     62  C   UNL A   1      44.515  29.993  36.457  1.00  0.00     0.034 A 
ATOM     63  C   UNL A   1      39.650  33.037  33.347  1.00  0.00     0.049 A 
ATOM     64  C   UNL A   1      43.532  31.064  36.862  1.00  0.00     0.074 A 
ATOM     65  C   UNL A   1      38.764  33.971  33.854  1.00  0.00     0.029 A 
ATOM     66  N   UNL A   1      40.497  32.685  34.385  1.00  0.00    -0.354 N 
ATOM     67  N   UNL A   1      42.540  31.579  36.176  1.00  0.00    -0.248 NA
ATOM     68  C   UNL A   1      43.662  31.606  38.224  1.00  0.00     0.031 C 
ATOM     69  C   UNL A   1      39.090  34.199  35.195  1.00  0.00     0.029 A 
ATOM     70  C   UNL A   1      40.160  33.384  35.530  1.00  0.00     0.049 A 
ATOM     71  H   UNL A   1      41.232  32.032  34.318  1.00  0.00     0.167 HD
ATOM     72  C   UNL A   1      41.903  32.469  37.035  1.00  0.00     0.074 A 
ATOM     73  C   UNL A   1      42.614  32.416  38.295  1.00  0.00     0.031 C 
ATOM     74  C   UNL A   1      40.832  33.268  36.798  1.00  0.00     0.034 A 
BRANCH  61  75
ATOM     75  C   UNL A   1      38.745  33.019  30.989  1.00  0.00     0.023 A 
ATOM     76  C   UNL A   1      39.141  34.027  30.087  1.00  0.00     0.012 A 
ATOM     77  C   UNL A   1      37.454  32.463  30.879  1.00  0.00     0.148 A 
ATOM     78  C   UNL A   1      38.260  34.498  29.114  1.00  0.00     0.002 A 
ATOM     79  C   UNL A   1      36.596  32.907  29.878  1.00  0.00     0.091 A 
ATOM     80  F   UNL A   1      37.087  31.520  31.758  1.00  0.00    -0.205 F 
ATOM     81  C   UNL A   1      36.994  33.930  29.003  1.00  0.00     0.022 A 
BRANCH  79  82
ATOM     82  S   UNL A   1      34.973  32.187  29.605  1.00  0.00     0.127 S 
ATOM     83  O   UNL A   1      34.377  32.288  30.936  1.00  0.00    -0.237 OA
ATOM     84  O   UNL A   1      34.397  33.093  28.610  1.00  0.00    -0.237 OA
ATOM     85  O   UNL A   1      35.209  30.832  29.126  1.00  0.00    -0.744 OA
ENDBRANCH  79  82
ENDBRANCH  61  75
BRANCH  62  86
ATOM     86  C   UNL A   1      45.554  29.515  37.411  1.00  0.00     0.023 A 
ATOM     87  C   UNL A   1      46.783  30.198  37.495  1.00  0.00     0.012 A 
ATOM     88  C   UNL A   1      45.331  28.400  38.243  1.00  0.00     0.148 A 
ATOM     89  C   UNL A   1      47.782  29.762  38.365  1.00  0.00     0.002 A 
ATOM     90  C   UNL A   1      46.310  28.003  39.147  1.00  0.00     0.091 A 
ATOM     91  F   UNL A   1      44.162  27.752  38.137  1.00  0.00    -0.205 F 
ATOM     92  C   UNL A   1      47.543  28.672  39.197  1.00  0.00     0.022 A 
BRANCH  90  93
ATOM     93  S   UNL A   1      46.045  26.688  40.341  1.00  0.00     0.127 S 
ATOM     94  O   UNL A   1      44.827  27.134  41.013  1.00  0.00    -0.237 OA
ATOM     95  O   UNL A   1      45.877  25.521  39.473  1.00  0.00    -0.237 OA
ATOM     96  O   UNL A   1      47.247  26.655  41.161  1.00  0.00    -0.744 OA
ENDBRANCH  90  93
ENDBRANCH  62  86
BRANCH  74  97
ATOM     97  C   UNL A   1      40.315  34.112  37.935  1.00  0.00     0.023 A 
ATOM     98  C   UNL A   1      40.630  35.482  37.995  1.00  0.00     0.012 A 
ATOM     99  C   UNL A   1      39.437  33.560  38.891  1.00  0.00     0.148 A 
ATOM    100  C   UNL A   1      40.100  36.286  39.005  1.00  0.00     0.002 A 
ATOM    101  C   UNL A   1      38.876  34.377  39.865  1.00  0.00     0.091 A 
ATOM    102  F   UNL A   1      39.164  32.249  38.826  1.00  0.00    -0.205 F 
ATOM    103  C   UNL A   1      39.215  35.738  39.930  1.00  0.00     0.022 A 
BRANCH 101 104
ATOM    104  S   UNL A   1      37.652  33.777  41.035  1.00  0.00     0.127 S 
ATOM    105  O   UNL A   1      36.701  33.103  40.155  1.00  0.00    -0.237 OA
ATOM    106  O   UNL A   1      38.443  32.880  41.879  1.00  0.00    -0.237 OA
ATOM    107  O   UNL A   1      37.142  34.956  41.723  1.00  0.00    -0.744 OA
ENDBRANCH 101 104
ENDBRANCH  74  97
ENDBRANCH  48  49
ENDBRANCH  41  43
ENDBRANCH  40  41
ENDBRANCH  39  40
ENDBRANCH  38  39
ENDBRANCH  37  38
ENDBRANCH   1  37
TORSDOF 22
ENDMDL
