MODEL 1
REMARK VINA RESULT:     -13.0      0.000      0.000
REMARK SMILES O=C(OCCOCCOC(=O)c1ccc(-c2c3nc(c(-c4cccc(S(=O)(=O)[O-])c4F)c4ccc([nH]4)c(-c4cccc(S(=O)(=O)[O-])c4F)c4nc(c(-c5cccc(S(=O)(=O)[O-])c5F)c5ccc2[nH]5)C=C4)C=C3)cc1)C1=Cc2cc(S(F)(F)(F)(F)F)cc(Br)c2O[C@@H]1C(F)(F)F
REMARK SMILES IDX 7 1 6 2 5 3 4 4 3 5 2 6 1 7 75 8 76 9 91 10 77 11 90 12
REMARK SMILES IDX 78 13 89 14 79 15 87 16 86 17 88 18 92 19 93 20 94 21 95 22
REMARK SMILES IDX 80 23 81 24 82 25 83 26 84 27 85 28 8 29 9 30 10 31 11 32
REMARK SMILES IDX 12 33 13 34 74 35 14 36 73 37 15 38 16 39 17 40 67 41 18 42
REMARK SMILES IDX 72 43 66 44 68 45 19 46 71 47 65 48 64 49 20 51 52 52 32 53
REMARK SMILES IDX 51 54 33 55 36 56 50 57 69 58 34 59 35 60 49 62 70 63 37 64
REMARK SMILES IDX 21 65 22 66 30 67 23 68 25 69 31 70 24 71 26 72 27 73 28 74
REMARK SMILES IDX 29 75 53 76 54 77 62 78 55 79 57 80 63 81 56 82 58 83 59 84
REMARK SMILES IDX 60 85 61 86 38 87 39 88 47 89 40 90 42 91 48 92 41 93 43 94
REMARK SMILES IDX 44 95 45 96 46 97
REMARK H PARENT 68 50 36 61
REMARK Flexibility Score: inf
ROOT
ATOM      1  C   UNL A   1      31.870  28.273  24.410  1.00  0.00     0.202 C 
ENDROOT
BRANCH   1   2
ATOM      2  O   UNL A   1      32.142  27.313  25.420  1.00  0.00    -0.374 OA
BRANCH   2   3
ATOM      3  C   UNL A   1      33.458  26.809  25.252  1.00  0.00     0.202 C 
BRANCH   3   4
ATOM      4  C   UNL A   1      33.549  26.058  23.934  1.00  0.00     0.261 C 
BRANCH   4   5
ATOM      5  O   UNL A   1      33.875  24.699  24.185  1.00  0.00    -0.460 OA
BRANCH   5   6
ATOM      6  C   UNL A   1      33.050  23.664  23.669  1.00  0.00     0.338 C 
ATOM      7  O   UNL A   1      33.354  23.097  22.572  1.00  0.00    -0.246 OA
BRANCH   6   8
ATOM      8  C   UNL A   1      31.805  23.235  24.427  1.00  0.00     0.087 C 
ATOM      9  C   UNL A   1      31.685  21.954  24.868  1.00  0.00     0.027 C 
ATOM     10  C   UNL A   1      30.692  24.236  24.689  1.00  0.00     0.316 C 
ATOM     11  C   UNL A   1      32.797  20.952  24.604  1.00  0.00     0.020 A 
ATOM     12  O   UNL A   1      34.285  22.761  25.009  1.00  0.00    -0.474 OA
ATOM     13  C   UNL A   1      32.538  19.632  24.271  1.00  0.00     0.036 A 
ATOM     14  C   UNL A   1      34.036  21.374  24.828  1.00  0.00     0.142 A 
ATOM     15  C   UNL A   1      33.633  18.762  24.480  1.00  0.00     0.109 A 
ATOM     16  C   UNL A   1      35.080  20.482  24.886  1.00  0.00     0.062 A 
ATOM     17  C   UNL A   1      34.886  19.154  24.625  1.00  0.00     0.044 A 
ATOM     18  Br  UNL A   1      36.873  21.123  25.348  1.00  0.00    -0.047 Br
BRANCH  10  19
ATOM     19  C   UNL A   1      30.487  24.383  26.189  1.00  0.00     0.430 C 
ATOM     20  F   UNL A   1      31.669  24.494  26.789  1.00  0.00    -0.167 F 
ATOM     21  F   UNL A   1      29.761  25.470  26.433  1.00  0.00    -0.167 F 
ATOM     22  F   UNL A   1      29.852  23.311  26.656  1.00  0.00    -0.167 F 
ENDBRANCH  10  19
BRANCH  15  23
ATOM     23  S   UNL A   1      33.294  16.986  24.558  1.00  0.00     0.310 S 
ATOM     24  F   UNL A   1      34.838  16.624  24.582  1.00  0.00    -0.094 F 
ATOM     25  F   UNL A   1      33.376  16.934  22.986  1.00  0.00    -0.094 F 
ATOM     26  F   UNL A   1      32.997  15.461  24.620  1.00  0.00    -0.094 F 
ATOM     27  F   UNL A   1      33.353  17.030  26.135  1.00  0.00    -0.094 F 
ATOM     28  F   UNL A   1      33.704  18.511  24.513  1.00  0.00    -0.094 F 
ENDBRANCH  15  23
ENDBRANCH   6   8
ENDBRANCH   5   6
ENDBRANCH   4   5
ENDBRANCH   3   4
ENDBRANCH   2   3
ENDBRANCH   1   2
BRANCH   1  29
ATOM     29  C   UNL A   1      31.608  29.626  25.053  1.00  0.00     0.261 C 
BRANCH  29  30
ATOM     30  O   UNL A   1      32.844  30.219  25.425  1.00  0.00    -0.460 OA
BRANCH  30  31
ATOM     31  C   UNL A   1      32.941  30.965  26.629  1.00  0.00     0.338 C 
ATOM     32  O   UNL A   1      32.005  31.759  26.962  1.00  0.00    -0.246 OA
BRANCH  31  33
ATOM     33  C   UNL A   1      34.162  30.813  27.521  1.00  0.00     0.060 A 
ATOM     34  C   UNL A   1      34.965  31.901  27.823  1.00  0.00     0.016 A 
ATOM     35  C   UNL A   1      34.520  29.580  27.857  1.00  0.00     0.016 A 
ATOM     36  C   UNL A   1      36.274  31.552  28.231  1.00  0.00     0.010 A 
ATOM     37  C   UNL A   1      35.766  29.329  28.377  1.00  0.00     0.010 A 
ATOM     38  C   UNL A   1      36.633  30.351  28.647  1.00  0.00    -0.014 A 
BRANCH  38  39
ATOM     39  C   UNL A   1      37.940  30.117  29.386  1.00  0.00     0.031 A 
ATOM     40  C   UNL A   1      38.021  30.737  30.635  1.00  0.00     0.074 A 
ATOM     41  C   UNL A   1      38.881  29.224  28.903  1.00  0.00     0.049 A 
ATOM     42  N   UNL A   1      38.959  30.566  31.568  1.00  0.00    -0.248 NA
ATOM     43  C   UNL A   1      37.042  31.711  31.136  1.00  0.00     0.031 C 
ATOM     44  C   UNL A   1      38.802  28.588  27.649  1.00  0.00     0.029 A 
ATOM     45  N   UNL A   1      40.034  28.793  29.521  1.00  0.00    -0.354 N 
ATOM     46  C   UNL A   1      38.687  31.317  32.638  1.00  0.00     0.074 A 
ATOM     47  C   UNL A   1      37.453  32.069  32.373  1.00  0.00     0.031 C 
ATOM     48  C   UNL A   1      39.896  27.796  27.508  1.00  0.00     0.029 A 
ATOM     49  C   UNL A   1      40.678  27.922  28.673  1.00  0.00     0.049 A 
ATOM     50  H   UNL A   1      40.344  29.063  30.417  1.00  0.00     0.167 HD
ATOM     51  C   UNL A   1      39.417  31.401  33.825  1.00  0.00     0.034 A 
ATOM     52  C   UNL A   1      41.880  27.265  28.882  1.00  0.00     0.034 A 
ATOM     53  C   UNL A   1      40.597  30.711  34.051  1.00  0.00     0.049 A 
ATOM     54  C   UNL A   1      42.642  27.395  30.045  1.00  0.00     0.074 A 
ATOM     55  C   UNL A   1      41.342  30.779  35.244  1.00  0.00     0.029 A 
ATOM     56  N   UNL A   1      41.255  29.858  33.192  1.00  0.00    -0.354 N 
ATOM     57  N   UNL A   1      42.349  28.114  31.130  1.00  0.00    -0.248 NA
ATOM     58  C   UNL A   1      43.933  26.729  30.265  1.00  0.00     0.031 C 
ATOM     59  C   UNL A   1      42.438  29.986  35.103  1.00  0.00     0.029 A 
ATOM     60  C   UNL A   1      42.395  29.410  33.819  1.00  0.00     0.049 A 
ATOM     61  H   UNL A   1      40.958  29.611  32.286  1.00  0.00     0.167 HD
ATOM     62  C   UNL A   1      43.308  27.975  32.046  1.00  0.00     0.074 A 
ATOM     63  C   UNL A   1      44.345  27.088  31.501  1.00  0.00     0.031 C 
ATOM     64  C   UNL A   1      43.360  28.549  33.318  1.00  0.00     0.034 A 
BRANCH  51  65
ATOM     65  C   UNL A   1      38.889  32.301  34.929  1.00  0.00     0.023 A 
ATOM     66  C   UNL A   1      39.055  33.675  34.867  1.00  0.00     0.012 A 
ATOM     67  C   UNL A   1      38.280  31.727  35.959  1.00  0.00     0.148 A 
ATOM     68  C   UNL A   1      38.796  34.340  36.089  1.00  0.00     0.002 A 
ATOM     69  C   UNL A   1      37.932  32.464  37.066  1.00  0.00     0.091 A 
ATOM     70  F   UNL A   1      38.003  30.427  35.920  1.00  0.00    -0.205 F 
ATOM     71  C   UNL A   1      38.121  33.818  37.098  1.00  0.00     0.022 A 
BRANCH  69  72
ATOM     72  S   UNL A   1      37.214  31.629  38.503  1.00  0.00     0.127 S 
ATOM     73  O   UNL A   1      37.024  30.144  38.187  1.00  0.00    -0.237 OA
ATOM     74  O   UNL A   1      38.155  31.779  39.702  1.00  0.00    -0.237 OA
ATOM     75  O   UNL A   1      35.702  32.332  38.874  1.00  0.00    -0.744 OA
ENDBRANCH  69  72
ENDBRANCH  51  65
BRANCH  52  76
ATOM     76  C   UNL A   1      42.400  26.352  27.783  1.00  0.00     0.023 A 
ATOM     77  C   UNL A   1      43.237  26.896  26.823  1.00  0.00     0.012 A 
ATOM     78  C   UNL A   1      42.062  25.068  27.755  1.00  0.00     0.148 A 
ATOM     79  C   UNL A   1      43.438  26.060  25.698  1.00  0.00     0.002 A 
ATOM     80  C   UNL A   1      42.408  24.277  26.686  1.00  0.00     0.091 A 
ATOM     81  F   UNL A   1      41.381  24.544  28.769  1.00  0.00    -0.205 F 
ATOM     82  C   UNL A   1      43.185  24.765  25.672  1.00  0.00     0.022 A 
BRANCH  80  83
ATOM     83  S   UNL A   1      41.828  22.564  26.619  1.00  0.00     0.127 S 
ATOM     84  O   UNL A   1      42.232  21.837  27.904  1.00  0.00    -0.237 OA
ATOM     85  O   UNL A   1      40.304  22.546  26.479  1.00  0.00    -0.237 OA
ATOM     86  O   UNL A   1      42.532  21.776  25.274  1.00  0.00    -0.744 OA
ENDBRANCH  80  83
ENDBRANCH  52  76
BRANCH  64  87
ATOM     87  C   UNL A   1      44.545  28.210  34.208  1.00  0.00     0.023 A 
ATOM     88  C   UNL A   1      45.729  28.924  34.144  1.00  0.00     0.012 A 
ATOM     89  C   UNL A   1      44.438  27.117  34.954  1.00  0.00     0.148 A 
ATOM     90  C   UNL A   1      46.843  28.238  34.685  1.00  0.00     0.002 A 
ATOM     91  C   UNL A   1      45.544  26.577  35.565  1.00  0.00     0.091 A 
ATOM     92  F   UNL A   1      43.250  26.540  35.112  1.00  0.00    -0.205 F 
ATOM     93  C   UNL A   1      46.760  27.199  35.496  1.00  0.00     0.022 A 
BRANCH  91  94
ATOM     94  S   UNL A   1      45.389  25.020  36.476  1.00  0.00     0.127 S 
ATOM     95  O   UNL A   1      44.975  25.313  37.920  1.00  0.00    -0.237 OA
ATOM     96  O   UNL A   1      44.326  24.143  35.809  1.00  0.00    -0.237 OA
ATOM     97  O   UNL A   1      46.891  24.202  36.467  1.00  0.00    -0.744 OA
ENDBRANCH  91  94
ENDBRANCH  64  87
ENDBRANCH  38  39
ENDBRANCH  31  33
ENDBRANCH  30  31
ENDBRANCH  29  30
ENDBRANCH   1  29
TORSDOF 19
ENDMDL
MODEL 2
REMARK VINA RESULT:     -12.8      1.461      1.905
REMARK SMILES O=C(OCCOCCOC(=O)c1ccc(-c2c3nc(c(-c4cccc(S(=O)(=O)[O-])c4F)c4ccc([nH]4)c(-c4cccc(S(=O)(=O)[O-])c4F)c4nc(c(-c5cccc(S(=O)(=O)[O-])c5F)c5ccc2[nH]5)C=C4)C=C3)cc1)C1=Cc2cc(S(F)(F)(F)(F)F)cc(Br)c2O[C@@H]1C(F)(F)F
REMARK SMILES IDX 7 1 6 2 5 3 4 4 3 5 2 6 1 7 75 8 76 9 91 10 77 11 90 12
REMARK SMILES IDX 78 13 89 14 79 15 87 16 86 17 88 18 92 19 93 20 94 21 95 22
REMARK SMILES IDX 80 23 81 24 82 25 83 26 84 27 85 28 8 29 9 30 10 31 11 32
REMARK SMILES IDX 12 33 13 34 74 35 14 36 73 37 15 38 16 39 17 40 67 41 18 42
REMARK SMILES IDX 72 43 66 44 68 45 19 46 71 47 65 48 64 49 20 51 52 52 32 53
REMARK SMILES IDX 51 54 33 55 36 56 50 57 69 58 34 59 35 60 49 62 70 63 37 64
REMARK SMILES IDX 21 65 22 66 30 67 23 68 25 69 31 70 24 71 26 72 27 73 28 74
REMARK SMILES IDX 29 75 53 76 54 77 62 78 55 79 57 80 63 81 56 82 58 83 59 84
REMARK SMILES IDX 60 85 61 86 38 87 39 88 47 89 40 90 42 91 48 92 41 93 43 94
REMARK SMILES IDX 44 95 45 96 46 97
REMARK H PARENT 68 50 36 61
REMARK Flexibility Score: inf
ROOT
ATOM      1  C   UNL A   1      31.883  28.290  26.045  1.00  0.00     0.202 C 
ENDROOT
BRANCH   1   2
ATOM      2  O   UNL A   1      33.108  28.030  25.375  1.00  0.00    -0.374 OA
BRANCH   2   3
ATOM      3  C   UNL A   1      32.840  27.432  24.115  1.00  0.00     0.202 C 
BRANCH   3   4
ATOM      4  C   UNL A   1      33.989  26.512  23.736  1.00  0.00     0.261 C 
BRANCH   4   5
ATOM      5  O   UNL A   1      33.819  25.255  24.376  1.00  0.00    -0.460 OA
BRANCH   5   6
ATOM      6  C   UNL A   1      33.018  24.252  23.768  1.00  0.00     0.338 C 
ATOM      7  O   UNL A   1      33.360  23.757  22.648  1.00  0.00    -0.246 OA
BRANCH   6   8
ATOM      8  C   UNL A   1      31.751  23.771  24.455  1.00  0.00     0.087 C 
ATOM      9  C   UNL A   1      31.646  22.477  24.860  1.00  0.00     0.027 C 
ATOM     10  C   UNL A   1      30.600  24.736  24.690  1.00  0.00     0.316 C 
ATOM     11  C   UNL A   1      32.796  21.512  24.625  1.00  0.00     0.020 A 
ATOM     12  O   UNL A   1      34.213  23.349  25.143  1.00  0.00    -0.474 OA
ATOM     13  C   UNL A   1      32.589  20.195  24.248  1.00  0.00     0.036 A 
ATOM     14  C   UNL A   1      34.011  21.961  24.917  1.00  0.00     0.142 A 
ATOM     15  C   UNL A   1      33.696  19.348  24.488  1.00  0.00     0.109 A 
ATOM     16  C   UNL A   1      35.076  21.095  25.002  1.00  0.00     0.062 A 
ATOM     17  C   UNL A   1      34.930  19.769  24.701  1.00  0.00     0.044 A 
ATOM     18  Br  UNL A   1      36.827  21.771  25.564  1.00  0.00    -0.047 Br
BRANCH  10  19
ATOM     19  C   UNL A   1      30.322  24.839  26.181  1.00  0.00     0.430 C 
ATOM     20  F   UNL A   1      29.735  23.723  26.601  1.00  0.00    -0.167 F 
ATOM     21  F   UNL A   1      31.467  25.012  26.835  1.00  0.00    -0.167 F 
ATOM     22  F   UNL A   1      29.520  25.876  26.411  1.00  0.00    -0.167 F 
ENDBRANCH  10  19
BRANCH  15  23
ATOM     23  S   UNL A   1      33.403  17.562  24.507  1.00  0.00     0.310 S 
ATOM     24  F   UNL A   1      31.843  17.749  24.291  1.00  0.00    -0.094 F 
ATOM     25  F   UNL A   1      33.131  17.656  26.056  1.00  0.00    -0.094 F 
ATOM     26  F   UNL A   1      33.155  16.028  24.528  1.00  0.00    -0.094 F 
ATOM     27  F   UNL A   1      33.541  17.510  22.935  1.00  0.00    -0.094 F 
ATOM     28  F   UNL A   1      33.547  19.135  24.453  1.00  0.00    -0.094 F 
ENDBRANCH  15  23
ENDBRANCH   6   8
ENDBRANCH   5   6
ENDBRANCH   4   5
ENDBRANCH   3   4
ENDBRANCH   2   3
ENDBRANCH   1   2
BRANCH   1  29
ATOM     29  C   UNL A   1      31.733  29.787  26.264  1.00  0.00     0.261 C 
BRANCH  29  30
ATOM     30  O   UNL A   1      32.980  30.426  26.031  1.00  0.00    -0.460 OA
BRANCH  30  31
ATOM     31  C   UNL A   1      33.575  31.216  27.050  1.00  0.00     0.338 C 
ATOM     32  O   UNL A   1      32.976  32.248  27.485  1.00  0.00    -0.246 OA
BRANCH  31  33
ATOM     33  C   UNL A   1      34.929  30.825  27.621  1.00  0.00     0.060 A 
ATOM     34  C   UNL A   1      35.175  29.531  28.050  1.00  0.00     0.016 A 
ATOM     35  C   UNL A   1      35.799  31.802  27.844  1.00  0.00     0.016 A 
ATOM     36  C   UNL A   1      36.248  29.426  28.967  1.00  0.00     0.010 A 
ATOM     37  C   UNL A   1      36.899  31.592  28.640  1.00  0.00     0.010 A 
ATOM     38  C   UNL A   1      37.173  30.352  29.147  1.00  0.00    -0.014 A 
BRANCH  38  39
ATOM     39  C   UNL A   1      38.472  30.055  29.877  1.00  0.00     0.031 A 
ATOM     40  C   UNL A   1      38.553  30.597  31.162  1.00  0.00     0.074 A 
ATOM     41  C   UNL A   1      39.402  29.178  29.346  1.00  0.00     0.049 A 
ATOM     42  N   UNL A   1      39.483  30.356  32.088  1.00  0.00    -0.248 NA
ATOM     43  C   UNL A   1      37.585  31.554  31.715  1.00  0.00     0.031 C 
ATOM     44  C   UNL A   1      39.322  28.621  28.056  1.00  0.00     0.029 A 
ATOM     45  N   UNL A   1      40.545  28.694  29.944  1.00  0.00    -0.354 N 
ATOM     46  C   UNL A   1      39.215  31.045  33.200  1.00  0.00     0.074 A 
ATOM     47  C   UNL A   1      37.993  31.830  32.974  1.00  0.00     0.031 C 
ATOM     48  C   UNL A   1      40.406  27.822  27.873  1.00  0.00     0.029 A 
ATOM     49  C   UNL A   1      41.182  27.866  29.047  1.00  0.00     0.049 A 
ATOM     50  H   UNL A   1      40.854  28.905  30.855  1.00  0.00     0.167 HD
ATOM     51  C   UNL A   1      39.939  31.047  34.393  1.00  0.00     0.034 A 
ATOM     52  C   UNL A   1      42.373  27.180  29.223  1.00  0.00     0.034 A 
ATOM     53  C   UNL A   1      41.107  30.327  34.584  1.00  0.00     0.049 A 
ATOM     54  C   UNL A   1      43.130  27.228  30.397  1.00  0.00     0.074 A 
ATOM     55  C   UNL A   1      41.845  30.312  35.783  1.00  0.00     0.029 A 
ATOM     56  N   UNL A   1      41.758  29.518  33.678  1.00  0.00    -0.354 N 
ATOM     57  N   UNL A   1      42.840  27.885  31.521  1.00  0.00    -0.248 NA
ATOM     58  C   UNL A   1      44.409  26.531  30.583  1.00  0.00     0.031 C 
ATOM     59  C   UNL A   1      42.931  29.513  35.600  1.00  0.00     0.029 A 
ATOM     60  C   UNL A   1      42.888  29.016  34.284  1.00  0.00     0.049 A 
ATOM     61  H   UNL A   1      41.464  29.330  32.758  1.00  0.00     0.167 HD
ATOM     62  C   UNL A   1      43.791  27.677  32.433  1.00  0.00     0.074 A 
ATOM     63  C   UNL A   1      44.819  26.809  31.840  1.00  0.00     0.031 C 
ATOM     64  C   UNL A   1      43.843  28.173  33.737  1.00  0.00     0.034 A 
BRANCH  51  65
ATOM     65  C   UNL A   1      39.417  31.886  35.547  1.00  0.00     0.023 A 
ATOM     66  C   UNL A   1      38.446  31.393  36.403  1.00  0.00     0.012 A 
ATOM     67  C   UNL A   1      39.909  33.110  35.697  1.00  0.00     0.148 A 
ATOM     68  C   UNL A   1      37.845  32.380  37.220  1.00  0.00     0.002 A 
ATOM     69  C   UNL A   1      39.360  33.978  36.611  1.00  0.00     0.091 A 
ATOM     70  F   UNL A   1      40.943  33.500  34.957  1.00  0.00    -0.205 F 
ATOM     71  C   UNL A   1      38.358  33.576  37.449  1.00  0.00     0.022 A 
BRANCH  69  72
ATOM     72  S   UNL A   1      39.974  35.678  36.704  1.00  0.00     0.127 S 
ATOM     73  O   UNL A   1      39.639  36.414  35.405  1.00  0.00    -0.237 OA
ATOM     74  O   UNL A   1      39.309  36.396  37.882  1.00  0.00    -0.237 OA
ATOM     75  O   UNL A   1      41.668  35.661  36.930  1.00  0.00    -0.744 OA
ENDBRANCH  69  72
ENDBRANCH  51  65
BRANCH  52  76
ATOM     76  C   UNL A   1      42.887  26.328  28.074  1.00  0.00     0.023 A 
ATOM     77  C   UNL A   1      43.822  26.882  27.216  1.00  0.00     0.012 A 
ATOM     78  C   UNL A   1      42.451  25.084  27.908  1.00  0.00     0.148 A 
ATOM     79  C   UNL A   1      44.025  26.135  26.031  1.00  0.00     0.002 A 
ATOM     80  C   UNL A   1      42.799  24.364  26.791  1.00  0.00     0.091 A 
ATOM     81  F   UNL A   1      41.669  24.531  28.831  1.00  0.00    -0.205 F 
ATOM     82  C   UNL A   1      43.674  24.873  25.871  1.00  0.00     0.022 A 
BRANCH  80  83
ATOM     83  S   UNL A   1      42.092  22.719  26.533  1.00  0.00     0.127 S 
ATOM     84  O   UNL A   1      42.557  22.169  25.182  1.00  0.00    -0.237 OA
ATOM     85  O   UNL A   1      42.553  21.783  27.652  1.00  0.00    -0.237 OA
ATOM     86  O   UNL A   1      40.384  22.824  26.547  1.00  0.00    -0.744 OA
ENDBRANCH  80  83
ENDBRANCH  52  76
BRANCH  64  87
ATOM     87  C   UNL A   1      45.017  27.763  34.611  1.00  0.00     0.023 A 
ATOM     88  C   UNL A   1      46.192  28.496  34.641  1.00  0.00     0.012 A 
ATOM     89  C   UNL A   1      44.914  26.599  35.244  1.00  0.00     0.148 A 
ATOM     90  C   UNL A   1      47.306  27.774  35.132  1.00  0.00     0.002 A 
ATOM     91  C   UNL A   1      46.018  26.017  35.819  1.00  0.00     0.091 A 
ATOM     92  F   UNL A   1      43.733  25.994  35.321  1.00  0.00    -0.205 F 
ATOM     93  C   UNL A   1      47.225  26.659  35.835  1.00  0.00     0.022 A 
BRANCH  91  94
ATOM     94  S   UNL A   1      45.870  24.375  36.568  1.00  0.00     0.127 S 
ATOM     95  O   UNL A   1      47.197  23.996  37.230  1.00  0.00    -0.237 OA
ATOM     96  O   UNL A   1      44.761  24.393  37.622  1.00  0.00    -0.237 OA
ATOM     97  O   UNL A   1      45.488  23.229  35.357  1.00  0.00    -0.744 OA
ENDBRANCH  91  94
ENDBRANCH  64  87
ENDBRANCH  38  39
ENDBRANCH  31  33
ENDBRANCH  30  31
ENDBRANCH  29  30
ENDBRANCH   1  29
TORSDOF 19
ENDMDL
MODEL 3
REMARK VINA RESULT:     -12.4      2.223      2.987
REMARK SMILES O=C(OCCOCCOC(=O)c1ccc(-c2c3nc(c(-c4cccc(S(=O)(=O)[O-])c4F)c4ccc([nH]4)c(-c4cccc(S(=O)(=O)[O-])c4F)c4nc(c(-c5cccc(S(=O)(=O)[O-])c5F)c5ccc2[nH]5)C=C4)C=C3)cc1)C1=Cc2cc(S(F)(F)(F)(F)F)cc(Br)c2O[C@@H]1C(F)(F)F
REMARK SMILES IDX 7 1 6 2 5 3 4 4 3 5 2 6 1 7 75 8 76 9 91 10 77 11 90 12
REMARK SMILES IDX 78 13 89 14 79 15 87 16 86 17 88 18 92 19 93 20 94 21 95 22
REMARK SMILES IDX 80 23 81 24 82 25 83 26 84 27 85 28 8 29 9 30 10 31 11 32
REMARK SMILES IDX 12 33 13 34 74 35 14 36 73 37 15 38 16 39 17 40 67 41 18 42
REMARK SMILES IDX 72 43 66 44 68 45 19 46 71 47 65 48 64 49 20 51 52 52 32 53
REMARK SMILES IDX 51 54 33 55 36 56 50 57 69 58 34 59 35 60 49 62 70 63 37 64
REMARK SMILES IDX 21 65 22 66 30 67 23 68 25 69 31 70 24 71 26 72 27 73 28 74
REMARK SMILES IDX 29 75 53 76 54 77 62 78 55 79 57 80 63 81 56 82 58 83 59 84
REMARK SMILES IDX 60 85 61 86 38 87 39 88 47 89 40 90 42 91 48 92 41 93 43 94
REMARK SMILES IDX 44 95 45 96 46 97
REMARK H PARENT 68 50 36 61
REMARK Flexibility Score: inf
ROOT
ATOM      1  C   UNL A   1      33.561  27.397  26.532  1.00  0.00     0.202 C 
ENDROOT
BRANCH   1   2
ATOM      2  O   UNL A   1      33.972  26.517  25.496  1.00  0.00    -0.374 OA
BRANCH   2   3
ATOM      3  C   UNL A   1      33.435  26.960  24.258  1.00  0.00     0.202 C 
BRANCH   3   4
ATOM      4  C   UNL A   1      33.776  25.955  23.170  1.00  0.00     0.261 C 
BRANCH   4   5
ATOM      5  O   UNL A   1      34.006  24.683  23.756  1.00  0.00    -0.460 OA
BRANCH   5   6
ATOM      6  C   UNL A   1      33.203  23.572  23.381  1.00  0.00     0.338 C 
ATOM      7  O   UNL A   1      33.483  22.913  22.331  1.00  0.00    -0.246 OA
BRANCH   6   8
ATOM      8  C   UNL A   1      32.011  23.173  24.235  1.00  0.00     0.087 C 
ATOM      9  C   UNL A   1      31.963  21.937  24.800  1.00  0.00     0.027 C 
ATOM     10  C   UNL A   1      30.872  24.155  24.455  1.00  0.00     0.316 C 
ATOM     11  C   UNL A   1      33.101  20.955  24.579  1.00  0.00     0.020 A 
ATOM     12  O   UNL A   1      34.531  22.847  24.740  1.00  0.00    -0.474 OA
ATOM     13  C   UNL A   1      32.881  19.601  24.384  1.00  0.00     0.036 A 
ATOM     14  C   UNL A   1      34.330  21.441  24.702  1.00  0.00     0.142 A 
ATOM     15  C   UNL A   1      34.018  18.794  24.622  1.00  0.00     0.109 A 
ATOM     16  C   UNL A   1      35.412  20.597  24.794  1.00  0.00     0.062 A 
ATOM     17  C   UNL A   1      35.259  19.244  24.668  1.00  0.00     0.044 A 
ATOM     18  Br  UNL A   1      37.196  21.343  25.107  1.00  0.00    -0.047 Br
BRANCH  10  19
ATOM     19  C   UNL A   1      30.727  24.437  25.942  1.00  0.00     0.430 C 
ATOM     20  F   UNL A   1      29.951  23.511  26.496  1.00  0.00    -0.167 F 
ATOM     21  F   UNL A   1      31.927  24.412  26.516  1.00  0.00    -0.167 F 
ATOM     22  F   UNL A   1      30.179  25.637  26.114  1.00  0.00    -0.167 F 
ENDBRANCH  10  19
BRANCH  15  23
ATOM     23  S   UNL A   1      33.754  17.023  24.882  1.00  0.00     0.310 S 
ATOM     24  F   UNL A   1      32.431  17.024  24.008  1.00  0.00    -0.094 F 
ATOM     25  F   UNL A   1      32.852  17.373  26.125  1.00  0.00    -0.094 F 
ATOM     26  F   UNL A   1      33.530  15.502  25.113  1.00  0.00    -0.094 F 
ATOM     27  F   UNL A   1      34.545  16.697  23.555  1.00  0.00    -0.094 F 
ATOM     28  F   UNL A   1      33.898  18.566  24.573  1.00  0.00    -0.094 F 
ENDBRANCH  15  23
ENDBRANCH   6   8
ENDBRANCH   5   6
ENDBRANCH   4   5
ENDBRANCH   3   4
ENDBRANCH   2   3
ENDBRANCH   1   2
BRANCH   1  29
ATOM     29  C   UNL A   1      34.057  28.803  26.229  1.00  0.00     0.261 C 
BRANCH  29  30
ATOM     30  O   UNL A   1      33.587  29.695  27.229  1.00  0.00    -0.460 OA
BRANCH  30  31
ATOM     31  C   UNL A   1      34.428  30.735  27.706  1.00  0.00     0.338 C 
ATOM     32  O   UNL A   1      34.008  31.934  27.724  1.00  0.00    -0.246 OA
BRANCH  31  33
ATOM     33  C   UNL A   1      35.831  30.413  28.197  1.00  0.00     0.060 A 
ATOM     34  C   UNL A   1      36.944  30.744  27.442  1.00  0.00     0.016 A 
ATOM     35  C   UNL A   1      35.936  29.662  29.286  1.00  0.00     0.016 A 
ATOM     36  C   UNL A   1      38.098  29.988  27.760  1.00  0.00     0.010 A 
ATOM     37  C   UNL A   1      37.129  29.064  29.611  1.00  0.00     0.010 A 
ATOM     38  C   UNL A   1      38.257  29.299  28.875  1.00  0.00    -0.014 A 
BRANCH  38  39
ATOM     39  C   UNL A   1      39.621  28.795  29.317  1.00  0.00     0.031 A 
ATOM     40  C   UNL A   1      40.254  29.592  30.273  1.00  0.00     0.074 A 
ATOM     41  C   UNL A   1      40.089  27.558  28.908  1.00  0.00     0.049 A 
ATOM     42  N   UNL A   1      41.359  29.310  30.964  1.00  0.00    -0.248 NA
ATOM     43  C   UNL A   1      39.777  30.920  30.685  1.00  0.00     0.031 C 
ATOM     44  C   UNL A   1      39.452  26.745  27.951  1.00  0.00     0.029 A 
ATOM     45  N   UNL A   1      41.222  26.900  29.332  1.00  0.00    -0.354 N 
ATOM     46  C   UNL A   1      41.649  30.310  31.800  1.00  0.00     0.074 A 
ATOM     47  C   UNL A   1      40.638  31.363  31.628  1.00  0.00     0.031 C 
ATOM     48  C   UNL A   1      40.195  25.619  27.793  1.00  0.00     0.029 A 
ATOM     49  C   UNL A   1      41.310  25.709  28.648  1.00  0.00     0.049 A 
ATOM     50  H   UNL A   1      41.860  27.226  30.008  1.00  0.00     0.167 HD
ATOM     51  C   UNL A   1      42.713  30.384  32.700  1.00  0.00     0.034 A 
ATOM     52  C   UNL A   1      42.298  24.743  28.748  1.00  0.00     0.034 A 
ATOM     53  C   UNL A   1      43.678  29.398  32.831  1.00  0.00     0.049 A 
ATOM     54  C   UNL A   1      43.396  24.843  29.606  1.00  0.00     0.074 A 
ATOM     55  C   UNL A   1      44.753  29.454  33.739  1.00  0.00     0.029 A 
ATOM     56  N   UNL A   1      43.779  28.217  32.128  1.00  0.00    -0.354 N 
ATOM     57  N   UNL A   1      43.663  25.825  30.469  1.00  0.00    -0.248 NA
ATOM     58  C   UNL A   1      44.467  23.841  29.698  1.00  0.00     0.031 C 
ATOM     59  C   UNL A   1      45.498  28.326  33.580  1.00  0.00     0.029 A 
ATOM     60  C   UNL A   1      44.900  27.550  32.570  1.00  0.00     0.049 A 
ATOM     61  H   UNL A   1      43.157  27.905  31.433  1.00  0.00     0.167 HD
ATOM     62  C   UNL A   1      44.791  25.561  31.131  1.00  0.00     0.074 A 
ATOM     63  C   UNL A   1      45.329  24.285  30.639  1.00  0.00     0.031 C 
ATOM     64  C   UNL A   1      45.393  26.331  32.128  1.00  0.00     0.034 A 
BRANCH  51  65
ATOM     65  C   UNL A   1      42.819  31.614  33.585  1.00  0.00     0.023 A 
ATOM     66  C   UNL A   1      43.462  32.758  33.139  1.00  0.00     0.012 A 
ATOM     67  C   UNL A   1      42.292  31.552  34.801  1.00  0.00     0.148 A 
ATOM     68  C   UNL A   1      43.751  33.691  34.163  1.00  0.00     0.002 A 
ATOM     69  C   UNL A   1      42.501  32.563  35.708  1.00  0.00     0.091 A 
ATOM     70  F   UNL A   1      41.553  30.501  35.146  1.00  0.00    -0.205 F 
ATOM     71  C   UNL A   1      43.179  33.697  35.353  1.00  0.00     0.022 A 
BRANCH  69  72
ATOM     72  S   UNL A   1      41.872  32.391  37.396  1.00  0.00     0.127 S 
ATOM     73  O   UNL A   1      42.490  31.151  38.047  1.00  0.00    -0.237 OA
ATOM     74  O   UNL A   1      42.246  33.633  38.209  1.00  0.00    -0.237 OA
ATOM     75  O   UNL A   1      40.171  32.226  37.357  1.00  0.00    -0.744 OA
ENDBRANCH  69  72
ENDBRANCH  51  65
BRANCH  52  76
ATOM     76  C   UNL A   1      42.183  23.505  27.874  1.00  0.00     0.023 A 
ATOM     77  C   UNL A   1      41.138  22.629  28.117  1.00  0.00     0.012 A 
ATOM     78  C   UNL A   1      43.059  23.279  26.902  1.00  0.00     0.148 A 
ATOM     79  C   UNL A   1      41.271  21.382  27.460  1.00  0.00     0.002 A 
ATOM     80  C   UNL A   1      43.046  22.093  26.209  1.00  0.00     0.091 A 
ATOM     81  F   UNL A   1      43.959  24.209  26.598  1.00  0.00    -0.205 F 
ATOM     82  C   UNL A   1      42.076  21.156  26.439  1.00  0.00     0.022 A 
BRANCH  80  83
ATOM     83  S   UNL A   1      44.328  21.765  24.975  1.00  0.00     0.127 S 
ATOM     84  O   UNL A   1      45.706  22.014  25.592  1.00  0.00    -0.237 OA
ATOM     85  O   UNL A   1      44.231  20.310  24.512  1.00  0.00    -0.237 OA
ATOM     86  O   UNL A   1      44.108  22.805  23.635  1.00  0.00    -0.744 OA
ENDBRANCH  80  83
ENDBRANCH  52  76
BRANCH  64  87
ATOM     87  C   UNL A   1      46.665  25.801  32.769  1.00  0.00     0.023 A 
ATOM     88  C   UNL A   1      47.918  26.129  32.278  1.00  0.00     0.012 A 
ATOM     89  C   UNL A   1      46.518  24.907  33.740  1.00  0.00     0.148 A 
ATOM     90  C   UNL A   1      48.942  25.240  32.681  1.00  0.00     0.002 A 
ATOM     91  C   UNL A   1      47.591  24.170  34.180  1.00  0.00     0.091 A 
ATOM     92  F   UNL A   1      45.322  24.725  34.292  1.00  0.00    -0.205 F 
ATOM     93  C   UNL A   1      48.849  24.400  33.695  1.00  0.00     0.022 A 
BRANCH  91  94
ATOM     94  S   UNL A   1      47.334  22.874  35.418  1.00  0.00     0.127 S 
ATOM     95  O   UNL A   1      46.881  23.510  36.735  1.00  0.00    -0.237 OA
ATOM     96  O   UNL A   1      46.261  21.903  34.925  1.00  0.00    -0.237 OA
ATOM     97  O   UNL A   1      48.799  22.027  35.669  1.00  0.00    -0.744 OA
ENDBRANCH  91  94
ENDBRANCH  64  87
ENDBRANCH  38  39
ENDBRANCH  31  33
ENDBRANCH  30  31
ENDBRANCH  29  30
ENDBRANCH   1  29
TORSDOF 19
ENDMDL
