MODEL 1
REMARK VINA RESULT:      -9.3      0.000      0.000
REMARK SMILES CC[C@@H](C)[C@H](NC(=O)[C@@H](C)N1C(=O)N2CCC3=c4cc(OC)ccc4=N[C@@H]3[C@@]2(C)C1=O)C(=O)OCCOCCOC(=O)c1ccc(-c2c3nc(c(-c4cccc(S(=O)(=O)[O-])c4F)c4ccc([nH]4)c(-c4cccc(S(=O)(=O)[O-])c4F)c4nc(c(-c5cccc(S(=O)(=O)[O-])c5F)c5ccc2[nH]5)C=C4)C=C3)cc1
REMARK SMILES IDX 36 1 35 2 34 3 32 4 33 5 5 6 3 7 4 8 2 9 1 10 6 11 7 12 8 14
REMARK SMILES IDX 9 15 10 16 11 17 12 18 30 19 14 20 13 21 28 22 31 23 15 24
REMARK SMILES IDX 27 25 29 26 16 27 17 28 26 29 18 30 25 31 19 32 24 33 20 34
REMARK SMILES IDX 23 35 21 36 22 37 37 38 38 39 39 40 40 41 41 42 42 43 43 44
REMARK SMILES IDX 44 45 105 46 45 47 104 48 46 49 47 50 48 51 98 52 49 53
REMARK SMILES IDX 103 54 97 55 99 56 50 57 102 58 96 59 95 60 51 62 83 63
REMARK SMILES IDX 63 64 82 65 64 66 67 67 81 68 100 69 65 70 66 71 80 73
REMARK SMILES IDX 101 74 68 75 52 76 53 77 61 78 54 79 56 80 62 81 55 82 57 83
REMARK SMILES IDX 58 84 59 85 60 86 84 87 85 88 93 89 86 90 88 91 94 92 87 93
REMARK SMILES IDX 89 94 90 95 91 96 92 97 69 98 70 99 78 100 71 101 73 102
REMARK SMILES IDX 79 103 72 104 74 105 75 106 76 107 77 108
REMARK H PARENT 6 13 99 61 67 72
REMARK Flexibility Score: inf
ROOT
ATOM      1  C   UNL A   1      43.125  25.915  34.715  1.00  0.00     0.202 C 
ENDROOT
BRANCH   1   2
ATOM      2  C   UNL A   1      41.526  27.402  34.369  1.00  0.00     0.261 C 
BRANCH   2   3
ATOM      3  O   UNL A   1      41.230  28.017  32.686  1.00  0.00    -0.462 OA
BRANCH   3   4
ATOM      4  C   UNL A   1      42.227  28.277  31.727  1.00  0.00     0.328 C 
ATOM      5  O   UNL A   1      43.401  27.959  31.953  1.00  0.00    -0.250 OA
BRANCH   4   6
ATOM      6  C   UNL A   1      41.796  28.835  30.130  1.00  0.00     0.195 C 
BRANCH   6   7
ATOM      7  C   UNL A   1      41.313  30.341  30.152  1.00  0.00     0.019 C 
ATOM      8  C   UNL A   1      39.792  30.448  29.856  1.00  0.00     0.010 C 
BRANCH   7   9
ATOM      9  C   UNL A   1      42.134  31.178  29.168  1.00  0.00     0.002 C 
ATOM     10  C   UNL A   1      43.591  30.803  29.030  1.00  0.00     0.004 C 
ENDBRANCH   7   9
ENDBRANCH   6   7
BRANCH   6  11
ATOM     11  N   UNL A   1      41.075  28.158  28.889  1.00  0.00    -0.341 N 
ATOM     12  C   UNL A   1      41.383  27.890  27.525  1.00  0.00     0.243 C 
ATOM     13  H   UNL A   1      40.175  27.837  29.125  1.00  0.00     0.164 HD
ATOM     14  O   UNL A   1      40.401  28.009  26.783  1.00  0.00    -0.273 OA
BRANCH  12  15
ATOM     15  C   UNL A   1      42.821  27.058  27.076  1.00  0.00     0.181 C 
ATOM     16  C   UNL A   1      42.350  27.408  25.321  1.00  0.00     0.042 C 
BRANCH  15  17
ATOM     17  N   UNL A   1      44.439  26.171  27.708  1.00  0.00    -0.250 N 
ATOM     18  C   UNL A   1      45.317  24.912  28.421  1.00  0.00     0.328 C 
ATOM     19  C   UNL A   1      45.540  26.733  28.052  1.00  0.00     0.259 C 
ATOM     20  N   UNL A   1      46.977  25.116  28.090  1.00  0.00    -0.307 N 
ATOM     21  O   UNL A   1      45.046  23.972  29.161  1.00  0.00    -0.248 OA
ATOM     22  C   UNL A   1      46.488  25.966  27.223  1.00  0.00     0.147 C 
ATOM     23  O   UNL A   1      45.800  27.278  29.124  1.00  0.00    -0.271 OA
ATOM     24  C   UNL A   1      48.192  24.828  26.868  1.00  0.00     0.127 C 
ATOM     25  C   UNL A   1      46.133  24.255  26.289  1.00  0.00     0.168 C 
ATOM     26  C   UNL A   1      47.706  27.159  27.412  1.00  0.00     0.048 C 
ATOM     27  C   UNL A   1      47.413  25.320  25.160  1.00  0.00     0.055 C 
ATOM     28  C   UNL A   1      45.857  24.677  24.998  1.00  0.00    -0.032 C 
ATOM     29  N   UNL A   1      45.421  22.808  26.516  1.00  0.00    -0.274 NA
ATOM     30  C   UNL A   1      44.489  24.404  24.960  1.00  0.00     0.005 A 
ATOM     31  C   UNL A   1      44.437  22.728  25.591  1.00  0.00     0.066 A 
ATOM     32  C   UNL A   1      43.092  25.259  25.763  1.00  0.00     0.056 A 
ATOM     33  C   UNL A   1      42.775  21.869  26.069  1.00  0.00     0.032 A 
ATOM     34  C   UNL A   1      41.704  24.665  26.601  1.00  0.00     0.119 A 
ATOM     35  C   UNL A   1      41.534  22.741  26.654  1.00  0.00     0.048 A 
BRANCH  34  36
ATOM     36  O   UNL A   1      40.880  25.354  27.448  1.00  0.00    -0.497 OA
ATOM     37  C   UNL A   1      39.620  24.968  27.996  1.00  0.00     0.278 C 
ENDBRANCH  34  36
ENDBRANCH  15  17
ENDBRANCH  12  15
ENDBRANCH   6  11
ENDBRANCH   4   6
ENDBRANCH   3   4
ENDBRANCH   2   3
ENDBRANCH   1   2
BRANCH   1  38
ATOM     38  O   UNL A   1      42.985  24.136  34.701  1.00  0.00    -0.374 OA
BRANCH  38  39
ATOM     39  C   UNL A   1      43.788  22.880  35.157  1.00  0.00     0.202 C 
BRANCH  39  40
ATOM     40  C   UNL A   1      45.280  21.925  34.697  1.00  0.00     0.261 C 
BRANCH  40  41
ATOM     41  O   UNL A   1      46.874  22.490  34.600  1.00  0.00    -0.460 OA
BRANCH  41  42
ATOM     42  C   UNL A   1      47.849  23.516  34.498  1.00  0.00     0.338 C 
ATOM     43  O   UNL A   1      49.050  23.284  34.543  1.00  0.00    -0.246 OA
BRANCH  42  44
ATOM     44  C   UNL A   1      47.369  25.141  34.164  1.00  0.00     0.060 A 
ATOM     45  C   UNL A   1      47.716  26.197  35.007  1.00  0.00     0.016 A 
ATOM     46  C   UNL A   1      46.756  25.683  33.000  1.00  0.00     0.016 A 
ATOM     47  C   UNL A   1      47.396  27.597  34.718  1.00  0.00     0.010 A 
ATOM     48  C   UNL A   1      46.370  27.041  32.704  1.00  0.00     0.010 A 
ATOM     49  C   UNL A   1      46.699  28.050  33.568  1.00  0.00    -0.014 A 
BRANCH  49  50
ATOM     50  C   UNL A   1      46.546  29.516  33.216  1.00  0.00     0.031 A 
ATOM     51  C   UNL A   1      47.484  30.303  32.316  1.00  0.00     0.074 A 
ATOM     52  C   UNL A   1      45.454  30.153  33.696  1.00  0.00     0.049 A 
ATOM     53  N   UNL A   1      47.200  31.329  31.547  1.00  0.00    -0.248 NA
ATOM     54  C   UNL A   1      48.910  29.934  32.279  1.00  0.00     0.031 C 
ATOM     55  C   UNL A   1      44.593  29.624  34.755  1.00  0.00     0.029 A 
ATOM     56  N   UNL A   1      44.819  31.310  33.304  1.00  0.00    -0.354 N 
ATOM     57  C   UNL A   1      48.381  31.680  30.892  1.00  0.00     0.074 A 
ATOM     58  C   UNL A   1      49.411  30.805  31.404  1.00  0.00     0.031 C 
ATOM     59  C   UNL A   1      43.456  30.333  34.794  1.00  0.00     0.029 A 
ATOM     60  C   UNL A   1      43.529  31.390  33.791  1.00  0.00     0.049 A 
ATOM     61  H   UNL A   1      45.237  32.001  32.740  1.00  0.00     0.167 HD
ATOM     62  C   UNL A   1      48.566  32.616  29.927  1.00  0.00     0.034 A 
ATOM     63  C   UNL A   1      42.489  32.166  33.419  1.00  0.00     0.034 A 
ATOM     64  C   UNL A   1      47.517  33.476  29.446  1.00  0.00     0.049 A 
ATOM     65  C   UNL A   1      42.678  33.132  32.287  1.00  0.00     0.074 A 
ATOM     66  C   UNL A   1      47.559  34.394  28.411  1.00  0.00     0.029 A 
ATOM     67  N   UNL A   1      46.247  33.540  29.991  1.00  0.00    -0.354 N 
ATOM     68  N   UNL A   1      43.730  33.294  31.521  1.00  0.00    -0.248 NA
ATOM     69  C   UNL A   1      41.545  34.007  31.954  1.00  0.00     0.031 C 
ATOM     70  C   UNL A   1      46.323  35.042  28.357  1.00  0.00     0.029 A 
ATOM     71  C   UNL A   1      45.501  34.495  29.331  1.00  0.00     0.049 A 
ATOM     72  H   UNL A   1      45.922  32.988  30.739  1.00  0.00     0.167 HD
ATOM     73  C   UNL A   1      43.383  34.280  30.608  1.00  0.00     0.074 A 
ATOM     74  C   UNL A   1      42.016  34.662  30.900  1.00  0.00     0.031 C 
ATOM     75  C   UNL A   1      44.134  34.831  29.626  1.00  0.00     0.034 A 
BRANCH  62  76
ATOM     76  C   UNL A   1      49.906  32.740  29.242  1.00  0.00     0.023 A 
ATOM     77  C   UNL A   1      50.913  33.521  29.844  1.00  0.00     0.012 A 
ATOM     78  C   UNL A   1      50.234  31.932  28.133  1.00  0.00     0.148 A 
ATOM     79  C   UNL A   1      52.224  33.490  29.363  1.00  0.00     0.002 A 
ATOM     80  C   UNL A   1      51.546  31.894  27.668  1.00  0.00     0.091 A 
ATOM     81  F   UNL A   1      49.266  31.188  27.582  1.00  0.00    -0.205 F 
ATOM     82  C   UNL A   1      52.542  32.668  28.285  1.00  0.00     0.022 A 
BRANCH  80  83
ATOM     83  S   UNL A   1      52.067  30.854  26.298  1.00  0.00     0.127 S 
ATOM     84  O   UNL A   1      51.654  29.528  26.763  1.00  0.00    -0.237 OA
ATOM     85  O   UNL A   1      51.277  31.385  25.189  1.00  0.00    -0.237 OA
ATOM     86  O   UNL A   1      53.507  31.036  26.178  1.00  0.00    -0.744 OA
ENDBRANCH  80  83
ENDBRANCH  62  76
BRANCH  63  87
ATOM     87  C   UNL A   1      41.157  31.984  34.067  1.00  0.00     0.023 A 
ATOM     88  C   UNL A   1      40.187  31.145  33.484  1.00  0.00     0.012 A 
ATOM     89  C   UNL A   1      40.875  32.610  35.294  1.00  0.00     0.148 A 
ATOM     90  C   UNL A   1      38.957  30.937  34.115  1.00  0.00     0.002 A 
ATOM     91  C   UNL A   1      39.664  32.375  35.933  1.00  0.00     0.091 A 
ATOM     92  F   UNL A   1      41.817  33.401  35.828  1.00  0.00    -0.205 F 
ATOM     93  C   UNL A   1      38.700  31.543  35.343  1.00  0.00     0.022 A 
BRANCH  91  94
ATOM     94  S   UNL A   1      39.280  33.070  37.543  1.00  0.00     0.127 S 
ATOM     95  O   UNL A   1      39.192  34.495  37.235  1.00  0.00    -0.237 OA
ATOM     96  O   UNL A   1      38.007  32.423  37.855  1.00  0.00    -0.237 OA
ATOM     97  O   UNL A   1      40.383  32.684  38.412  1.00  0.00    -0.744 OA
ENDBRANCH  91  94
ENDBRANCH  63  87
BRANCH  75  98
ATOM     98  C   UNL A   1      43.512  35.902  28.781  1.00  0.00     0.023 A 
ATOM     99  C   UNL A   1      42.608  35.544  27.763  1.00  0.00     0.012 A 
ATOM    100  C   UNL A   1      43.709  37.258  29.102  1.00  0.00     0.148 A 
ATOM    101  C   UNL A   1      41.904  36.528  27.074  1.00  0.00     0.002 A 
ATOM    102  C   UNL A   1      42.982  38.231  28.433  1.00  0.00     0.091 A 
ATOM    103  F   UNL A   1      44.575  37.561  30.082  1.00  0.00    -0.205 F 
ATOM    104  C   UNL A   1      42.080  37.868  27.419  1.00  0.00     0.022 A 
BRANCH 102 105
ATOM    105  S   UNL A   1      43.105  39.975  28.839  1.00  0.00     0.127 S 
ATOM    106  O   UNL A   1      42.177  40.566  27.876  1.00  0.00    -0.237 OA
ATOM    107  O   UNL A   1      42.645  40.000  30.227  1.00  0.00    -0.237 OA
ATOM    108  O   UNL A   1      44.503  40.339  28.651  1.00  0.00    -0.744 OA
ENDBRANCH 102 105
ENDBRANCH  75  98
ENDBRANCH  49  50
ENDBRANCH  42  44
ENDBRANCH  41  42
ENDBRANCH  40  41
ENDBRANCH  39  40
ENDBRANCH  38  39
ENDBRANCH   1  38
TORSDOF 23
ENDMDL
MODEL 2
REMARK VINA RESULT:      -9.0      2.731      7.648
REMARK SMILES CC[C@@H](C)[C@H](NC(=O)[C@@H](C)N1C(=O)N2CCC3=c4cc(OC)ccc4=N[C@@H]3[C@@]2(C)C1=O)C(=O)OCCOCCOC(=O)c1ccc(-c2c3nc(c(-c4cccc(S(=O)(=O)[O-])c4F)c4ccc([nH]4)c(-c4cccc(S(=O)(=O)[O-])c4F)c4nc(c(-c5cccc(S(=O)(=O)[O-])c5F)c5ccc2[nH]5)C=C4)C=C3)cc1
REMARK SMILES IDX 36 1 35 2 34 3 32 4 33 5 5 6 3 7 4 8 2 9 1 10 6 11 7 12 8 14
REMARK SMILES IDX 9 15 10 16 11 17 12 18 30 19 14 20 13 21 28 22 31 23 15 24
REMARK SMILES IDX 27 25 29 26 16 27 17 28 26 29 18 30 25 31 19 32 24 33 20 34
REMARK SMILES IDX 23 35 21 36 22 37 37 38 38 39 39 40 40 41 41 42 42 43 43 44
REMARK SMILES IDX 44 45 105 46 45 47 104 48 46 49 47 50 48 51 98 52 49 53
REMARK SMILES IDX 103 54 97 55 99 56 50 57 102 58 96 59 95 60 51 62 83 63
REMARK SMILES IDX 63 64 82 65 64 66 67 67 81 68 100 69 65 70 66 71 80 73
REMARK SMILES IDX 101 74 68 75 52 76 53 77 61 78 54 79 56 80 62 81 55 82 57 83
REMARK SMILES IDX 58 84 59 85 60 86 84 87 85 88 93 89 86 90 88 91 94 92 87 93
REMARK SMILES IDX 89 94 90 95 91 96 92 97 69 98 70 99 78 100 71 101 73 102
REMARK SMILES IDX 79 103 72 104 74 105 75 106 76 107 77 108
REMARK H PARENT 6 13 99 61 67 72
REMARK Flexibility Score: inf
ROOT
ATOM      1  C   UNL A   1      50.932  26.687  24.253  1.00  0.00     0.202 C 
ENDROOT
BRANCH   1   2
ATOM      2  C   UNL A   1      48.748  26.667  24.595  1.00  0.00     0.261 C 
BRANCH   2   3
ATOM      3  O   UNL A   1      47.900  25.082  24.852  1.00  0.00    -0.462 OA
BRANCH   3   4
ATOM      4  C   UNL A   1      46.512  24.916  25.007  1.00  0.00     0.328 C 
ATOM      5  O   UNL A   1      45.731  25.721  24.484  1.00  0.00    -0.250 OA
BRANCH   4   6
ATOM      6  C   UNL A   1      45.868  23.466  25.736  1.00  0.00     0.195 C 
BRANCH   6   7
ATOM      7  C   UNL A   1      45.780  22.281  24.691  1.00  0.00     0.019 C 
ATOM      8  C   UNL A   1      44.599  22.487  23.705  1.00  0.00     0.010 C 
BRANCH   7   9
ATOM      9  C   UNL A   1      45.675  20.939  25.417  1.00  0.00     0.002 C 
ATOM     10  C   UNL A   1      46.562  19.830  24.900  1.00  0.00     0.004 C 
ENDBRANCH   7   9
ENDBRANCH   6   7
BRANCH   6  11
ATOM     11  N   UNL A   1      44.737  23.189  26.814  1.00  0.00    -0.341 N 
ATOM     12  C   UNL A   1      44.417  23.639  28.126  1.00  0.00     0.243 C 
ATOM     13  H   UNL A   1      44.082  22.529  26.488  1.00  0.00     0.164 HD
ATOM     14  O   UNL A   1      43.943  22.744  28.835  1.00  0.00    -0.273 OA
BRANCH  12  15
ATOM     15  C   UNL A   1      44.280  25.316  28.490  1.00  0.00     0.181 C 
ATOM     16  C   UNL A   1      44.175  24.812  30.269  1.00  0.00     0.042 C 
BRANCH  15  17
ATOM     17  N   UNL A   1      44.300  27.132  27.779  1.00  0.00    -0.250 N 
ATOM     18  C   UNL A   1      43.719  28.416  26.842  1.00  0.00     0.328 C 
ATOM     19  C   UNL A   1      45.319  27.903  27.665  1.00  0.00     0.259 C 
ATOM     20  N   UNL A   1      44.472  29.865  27.334  1.00  0.00    -0.307 N 
ATOM     21  O   UNL A   1      42.971  28.521  25.876  1.00  0.00    -0.248 OA
ATOM     22  C   UNL A   1      44.807  29.105  28.346  1.00  0.00     0.147 C 
ATOM     23  O   UNL A   1      46.176  27.885  26.783  1.00  0.00    -0.271 OA
ATOM     24  C   UNL A   1      44.388  31.134  28.532  1.00  0.00     0.127 C 
ATOM     25  C   UNL A   1      42.919  29.498  28.800  1.00  0.00     0.168 C 
ATOM     26  C   UNL A   1      46.390  29.735  28.546  1.00  0.00     0.048 C 
ATOM     27  C   UNL A   1      44.078  30.281  30.248  1.00  0.00     0.055 C 
ATOM     28  C   UNL A   1      42.853  29.120  30.132  1.00  0.00    -0.032 C 
ATOM     29  N   UNL A   1      41.419  29.421  28.172  1.00  0.00    -0.274 NA
ATOM     30  C   UNL A   1      42.061  27.979  30.002  1.00  0.00     0.005 A 
ATOM     31  C   UNL A   1      40.722  28.583  28.975  1.00  0.00     0.066 A 
ATOM     32  C   UNL A   1      42.465  26.330  29.335  1.00  0.00     0.056 A 
ATOM     33  C   UNL A   1      39.428  27.390  28.179  1.00  0.00     0.032 A 
ATOM     34  C   UNL A   1      41.606  25.270  28.278  1.00  0.00     0.119 A 
ATOM     35  C   UNL A   1      39.855  25.885  27.739  1.00  0.00     0.048 A 
BRANCH  34  36
ATOM     36  O   UNL A   1      42.103  24.210  27.570  1.00  0.00    -0.497 OA
ATOM     37  C   UNL A   1      41.417  23.283  26.729  1.00  0.00     0.278 C 
ENDBRANCH  34  36
ENDBRANCH  15  17
ENDBRANCH  12  15
ENDBRANCH   6  11
ENDBRANCH   4   6
ENDBRANCH   3   4
ENDBRANCH   2   3
ENDBRANCH   1   2
BRANCH   1  38
ATOM     38  O   UNL A   1      52.229  26.763  25.477  1.00  0.00    -0.374 OA
BRANCH  38  39
ATOM     39  C   UNL A   1      52.534  27.456  26.839  1.00  0.00     0.202 C 
BRANCH  39  40
ATOM     40  C   UNL A   1      53.958  27.905  27.899  1.00  0.00     0.261 C 
BRANCH  40  41
ATOM     41  O   UNL A   1      53.922  28.373  29.526  1.00  0.00    -0.460 OA
BRANCH  41  42
ATOM     42  C   UNL A   1      53.340  28.413  30.819  1.00  0.00     0.338 C 
ATOM     43  O   UNL A   1      53.870  27.896  31.793  1.00  0.00    -0.246 OA
BRANCH  42  44
ATOM     44  C   UNL A   1      51.901  29.328  31.095  1.00  0.00     0.060 A 
ATOM     45  C   UNL A   1      50.648  28.870  30.686  1.00  0.00     0.016 A 
ATOM     46  C   UNL A   1      51.712  30.506  31.872  1.00  0.00     0.016 A 
ATOM     47  C   UNL A   1      49.398  29.578  30.970  1.00  0.00     0.010 A 
ATOM     48  C   UNL A   1      50.511  31.265  32.125  1.00  0.00     0.010 A 
ATOM     49  C   UNL A   1      49.302  30.802  31.682  1.00  0.00    -0.014 A 
BRANCH  49  50
ATOM     50  C   UNL A   1      47.982  31.409  32.111  1.00  0.00     0.031 A 
ATOM     51  C   UNL A   1      47.316  32.607  31.455  1.00  0.00     0.074 A 
ATOM     52  C   UNL A   1      47.321  30.795  33.118  1.00  0.00     0.049 A 
ATOM     53  N   UNL A   1      46.034  32.875  31.366  1.00  0.00    -0.248 NA
ATOM     54  C   UNL A   1      48.164  33.649  30.850  1.00  0.00     0.031 C 
ATOM     55  C   UNL A   1      47.918  29.795  34.004  1.00  0.00     0.029 A 
ATOM     56  N   UNL A   1      46.000  30.830  33.505  1.00  0.00    -0.354 N 
ATOM     57  C   UNL A   1      45.920  34.064  30.645  1.00  0.00     0.074 A 
ATOM     58  C   UNL A   1      47.266  34.514  30.378  1.00  0.00     0.031 C 
ATOM     59  C   UNL A   1      46.946  29.175  34.687  1.00  0.00     0.029 A 
ATOM     60  C   UNL A   1      45.663  29.763  34.316  1.00  0.00     0.049 A 
ATOM     61  H   UNL A   1      45.368  31.535  33.234  1.00  0.00     0.167 HD
ATOM     62  C   UNL A   1      44.793  34.688  30.217  1.00  0.00     0.034 A 
ATOM     63  C   UNL A   1      44.460  29.256  34.658  1.00  0.00     0.034 A 
ATOM     64  C   UNL A   1      43.466  34.215  30.509  1.00  0.00     0.049 A 
ATOM     65  C   UNL A   1      43.223  29.898  34.102  1.00  0.00     0.074 A 
ATOM     66  C   UNL A   1      42.254  34.706  30.054  1.00  0.00     0.029 A 
ATOM     67  N   UNL A   1      43.181  33.158  31.356  1.00  0.00    -0.354 N 
ATOM     68  N   UNL A   1      43.131  30.879  33.237  1.00  0.00    -0.248 NA
ATOM     69  C   UNL A   1      41.929  29.361  34.549  1.00  0.00     0.031 C 
ATOM     70  C   UNL A   1      41.234  33.968  30.659  1.00  0.00     0.029 A 
ATOM     71  C   UNL A   1      41.814  32.993  31.455  1.00  0.00     0.049 A 
ATOM     72  H   UNL A   1      43.851  32.606  31.819  1.00  0.00     0.167 HD
ATOM     73  C   UNL A   1      41.773  31.070  33.026  1.00  0.00     0.074 A 
ATOM     74  C   UNL A   1      41.079  30.089  33.835  1.00  0.00     0.031 C 
ATOM     75  C   UNL A   1      41.156  31.987  32.245  1.00  0.00     0.034 A 
BRANCH  62  76
ATOM     76  C   UNL A   1      44.894  35.899  29.321  1.00  0.00     0.023 A 
ATOM     77  C   UNL A   1      44.921  35.715  27.923  1.00  0.00     0.012 A 
ATOM     78  C   UNL A   1      44.753  37.203  29.840  1.00  0.00     0.148 A 
ATOM     79  C   UNL A   1      44.796  36.804  27.058  1.00  0.00     0.002 A 
ATOM     80  C   UNL A   1      44.613  38.282  28.971  1.00  0.00     0.091 A 
ATOM     81  F   UNL A   1      44.717  37.355  31.170  1.00  0.00    -0.205 F 
ATOM     82  C   UNL A   1      44.630  38.084  27.581  1.00  0.00     0.022 A 
BRANCH  80  83
ATOM     83  S   UNL A   1      44.373  39.970  29.541  1.00  0.00     0.127 S 
ATOM     84  O   UNL A   1      45.541  40.157  30.403  1.00  0.00    -0.237 OA
ATOM     85  O   UNL A   1      44.410  40.726  28.290  1.00  0.00    -0.237 OA
ATOM     86  O   UNL A   1      43.093  39.983  30.236  1.00  0.00    -0.744 OA
ENDBRANCH  80  83
ENDBRANCH  62  76
BRANCH  63  87
ATOM     87  C   UNL A   1      44.384  28.023  35.494  1.00  0.00     0.023 A 
ATOM     88  C   UNL A   1      44.207  28.114  36.888  1.00  0.00     0.012 A 
ATOM     89  C   UNL A   1      44.435  26.754  34.890  1.00  0.00     0.148 A 
ATOM     90  C   UNL A   1      44.087  26.958  37.665  1.00  0.00     0.002 A 
ATOM     91  C   UNL A   1      44.284  25.609  35.662  1.00  0.00     0.091 A 
ATOM     92  F   UNL A   1      44.601  26.696  33.561  1.00  0.00    -0.205 F 
ATOM     93  C   UNL A   1      44.115  25.708  37.052  1.00  0.00     0.022 A 
BRANCH  91  94
ATOM     94  S   UNL A   1      44.248  23.965  34.941  1.00  0.00     0.127 S 
ATOM     95  O   UNL A   1      42.870  23.884  34.463  1.00  0.00    -0.237 OA
ATOM     96  O   UNL A   1      45.262  24.074  33.893  1.00  0.00    -0.237 OA
ATOM     97  O   UNL A   1      44.592  23.053  36.023  1.00  0.00    -0.744 OA
ENDBRANCH  91  94
ENDBRANCH  63  87
BRANCH  75  98
ATOM     98  C   UNL A   1      39.656  31.985  32.209  1.00  0.00     0.023 A 
ATOM     99  C   UNL A   1      38.986  31.102  31.343  1.00  0.00     0.012 A 
ATOM    100  C   UNL A   1      38.927  32.747  33.141  1.00  0.00     0.148 A 
ATOM    101  C   UNL A   1      37.600  30.975  31.407  1.00  0.00     0.002 A 
ATOM    102  C   UNL A   1      37.551  32.593  33.220  1.00  0.00     0.091 A 
ATOM    103  F   UNL A   1      39.601  33.574  33.954  1.00  0.00    -0.205 F 
ATOM    104  C   UNL A   1      36.887  31.709  32.354  1.00  0.00     0.022 A 
BRANCH 102 105
ATOM    105  S   UNL A   1      36.554  33.457  34.438  1.00  0.00     0.127 S 
ATOM    106  O   UNL A   1      36.768  34.852  34.055  1.00  0.00    -0.237 OA
ATOM    107  O   UNL A   1      35.214  32.943  34.157  1.00  0.00    -0.237 OA
ATOM    108  O   UNL A   1      37.091  33.086  35.740  1.00  0.00    -0.744 OA
ENDBRANCH 102 105
ENDBRANCH  75  98
ENDBRANCH  49  50
ENDBRANCH  42  44
ENDBRANCH  41  42
ENDBRANCH  40  41
ENDBRANCH  39  40
ENDBRANCH  38  39
ENDBRANCH   1  38
TORSDOF 23
ENDMDL
MODEL 3
REMARK VINA RESULT:      -9.0      3.907     11.493
REMARK SMILES CC[C@@H](C)[C@H](NC(=O)[C@@H](C)N1C(=O)N2CCC3=c4cc(OC)ccc4=N[C@@H]3[C@@]2(C)C1=O)C(=O)OCCOCCOC(=O)c1ccc(-c2c3nc(c(-c4cccc(S(=O)(=O)[O-])c4F)c4ccc([nH]4)c(-c4cccc(S(=O)(=O)[O-])c4F)c4nc(c(-c5cccc(S(=O)(=O)[O-])c5F)c5ccc2[nH]5)C=C4)C=C3)cc1
REMARK SMILES IDX 36 1 35 2 34 3 32 4 33 5 5 6 3 7 4 8 2 9 1 10 6 11 7 12 8 14
REMARK SMILES IDX 9 15 10 16 11 17 12 18 30 19 14 20 13 21 28 22 31 23 15 24
REMARK SMILES IDX 27 25 29 26 16 27 17 28 26 29 18 30 25 31 19 32 24 33 20 34
REMARK SMILES IDX 23 35 21 36 22 37 37 38 38 39 39 40 40 41 41 42 42 43 43 44
REMARK SMILES IDX 44 45 105 46 45 47 104 48 46 49 47 50 48 51 98 52 49 53
REMARK SMILES IDX 103 54 97 55 99 56 50 57 102 58 96 59 95 60 51 62 83 63
REMARK SMILES IDX 63 64 82 65 64 66 67 67 81 68 100 69 65 70 66 71 80 73
REMARK SMILES IDX 101 74 68 75 52 76 53 77 61 78 54 79 56 80 62 81 55 82 57 83
REMARK SMILES IDX 58 84 59 85 60 86 84 87 85 88 93 89 86 90 88 91 94 92 87 93
REMARK SMILES IDX 89 94 90 95 91 96 92 97 69 98 70 99 78 100 71 101 73 102
REMARK SMILES IDX 79 103 72 104 74 105 75 106 76 107 77 108
REMARK H PARENT 6 13 99 61 67 72
REMARK Flexibility Score: inf
ROOT
ATOM      1  C   UNL A   1      46.219  35.788  32.305  1.00  0.00     0.202 C 
ENDROOT
BRANCH   1   2
ATOM      2  C   UNL A   1      44.482  34.628  33.028  1.00  0.00     0.261 C 
BRANCH   2   3
ATOM      3  O   UNL A   1      43.483  35.280  34.397  1.00  0.00    -0.462 OA
BRANCH   3   4
ATOM      4  C   UNL A   1      42.130  34.975  34.635  1.00  0.00     0.328 C 
ATOM      5  O   UNL A   1      41.256  35.408  33.875  1.00  0.00    -0.250 OA
BRANCH   4   6
ATOM      6  C   UNL A   1      41.685  33.807  35.855  1.00  0.00     0.195 C 
BRANCH   6   7
ATOM      7  C   UNL A   1      41.885  34.386  37.313  1.00  0.00     0.019 C 
ATOM      8  C   UNL A   1      42.606  33.362  38.231  1.00  0.00     0.010 C 
BRANCH   7   9
ATOM      9  C   UNL A   1      40.541  34.816  37.903  1.00  0.00     0.002 C 
ATOM     10  C   UNL A   1      39.673  35.685  37.023  1.00  0.00     0.004 C 
ENDBRANCH   7   9
ENDBRANCH   6   7
BRANCH   6  11
ATOM     11  N   UNL A   1      41.848  32.234  35.978  1.00  0.00    -0.341 N 
ATOM     12  C   UNL A   1      41.098  31.078  35.620  1.00  0.00     0.243 C 
ATOM     13  H   UNL A   1      42.695  31.992  36.420  1.00  0.00     0.164 HD
ATOM     14  O   UNL A   1      41.197  30.169  36.453  1.00  0.00    -0.273 OA
BRANCH  12  15
ATOM     15  C   UNL A   1      40.529  30.840  34.014  1.00  0.00     0.181 C 
ATOM     16  C   UNL A   1      41.905  31.955  33.474  1.00  0.00     0.042 C 
BRANCH  15  17
ATOM     17  N   UNL A   1      39.253  29.904  32.872  1.00  0.00    -0.250 N 
ATOM     18  C   UNL A   1      37.712  29.541  32.275  1.00  0.00     0.328 C 
ATOM     19  C   UNL A   1      39.409  28.753  32.327  1.00  0.00     0.259 C 
ATOM     20  N   UNL A   1      37.859  28.660  30.822  1.00  0.00    -0.307 N 
ATOM     21  O   UNL A   1      36.564  29.690  32.678  1.00  0.00    -0.248 OA
ATOM     22  C   UNL A   1      39.091  29.089  30.927  1.00  0.00     0.147 C 
ATOM     23  O   UNL A   1      39.268  27.650  32.853  1.00  0.00    -0.271 OA
ATOM     24  C   UNL A   1      38.117  28.852  29.105  1.00  0.00     0.127 C 
ATOM     25  C   UNL A   1      38.192  30.730  30.275  1.00  0.00     0.168 C 
ATOM     26  C   UNL A   1      39.844  27.659  30.353  1.00  0.00     0.048 C 
ATOM     27  C   UNL A   1      39.530  30.164  28.882  1.00  0.00     0.055 C 
ATOM     28  C   UNL A   1      39.264  31.510  29.871  1.00  0.00    -0.032 C 
ATOM     29  N   UNL A   1      36.944  31.716  30.620  1.00  0.00    -0.274 NA
ATOM     30  C   UNL A   1      39.221  32.485  30.869  1.00  0.00     0.005 A 
ATOM     31  C   UNL A   1      37.486  32.933  30.862  1.00  0.00     0.066 A 
ATOM     32  C   UNL A   1      39.681  32.392  32.632  1.00  0.00     0.056 A 
ATOM     33  C   UNL A   1      36.712  34.041  32.242  1.00  0.00     0.032 A 
ATOM     34  C   UNL A   1      38.908  32.978  34.059  1.00  0.00     0.119 A 
ATOM     35  C   UNL A   1      37.284  33.984  33.763  1.00  0.00     0.048 A 
BRANCH  34  36
ATOM     36  O   UNL A   1      39.136  32.595  35.352  1.00  0.00    -0.497 OA
ATOM     37  C   UNL A   1      38.200  32.339  36.399  1.00  0.00     0.278 C 
ENDBRANCH  34  36
ENDBRANCH  15  17
ENDBRANCH  12  15
ENDBRANCH   6  11
ENDBRANCH   4   6
ENDBRANCH   3   4
ENDBRANCH   2   3
ENDBRANCH   1   2
BRANCH   1  38
ATOM     38  O   UNL A   1      46.206  37.278  31.322  1.00  0.00    -0.374 OA
BRANCH  38  39
ATOM     39  C   UNL A   1      45.507  37.856  30.055  1.00  0.00     0.202 C 
BRANCH  39  40
ATOM     40  C   UNL A   1      43.849  38.377  29.480  1.00  0.00     0.261 C 
BRANCH  40  41
ATOM     41  O   UNL A   1      42.715  37.449  28.631  1.00  0.00    -0.460 OA
BRANCH  41  42
ATOM     42  C   UNL A   1      42.224  36.230  28.095  1.00  0.00     0.338 C 
ATOM     43  O   UNL A   1      41.378  36.197  27.211  1.00  0.00    -0.246 OA
BRANCH  42  44
ATOM     44  C   UNL A   1      42.914  34.725  28.585  1.00  0.00     0.060 A 
ATOM     45  C   UNL A   1      44.142  34.284  28.091  1.00  0.00     0.016 A 
ATOM     46  C   UNL A   1      42.501  33.831  29.613  1.00  0.00     0.016 A 
ATOM     47  C   UNL A   1      44.797  33.053  28.541  1.00  0.00     0.010 A 
ATOM     48  C   UNL A   1      43.082  32.582  30.043  1.00  0.00     0.010 A 
ATOM     49  C   UNL A   1      44.273  32.164  29.515  1.00  0.00    -0.014 A 
BRANCH  49  50
ATOM     50  C   UNL A   1      45.061  31.001  30.082  1.00  0.00     0.031 A 
ATOM     51  C   UNL A   1      45.920  31.054  31.336  1.00  0.00     0.074 A 
ATOM     52  C   UNL A   1      44.938  29.810  29.454  1.00  0.00     0.049 A 
ATOM     53  N   UNL A   1      46.186  30.083  32.178  1.00  0.00    -0.248 NA
ATOM     54  C   UNL A   1      46.588  32.320  31.687  1.00  0.00     0.031 C 
ATOM     55  C   UNL A   1      44.358  29.639  28.122  1.00  0.00     0.029 A 
ATOM     56  N   UNL A   1      45.187  28.521  29.872  1.00  0.00    -0.354 N 
ATOM     57  C   UNL A   1      46.985  30.630  33.183  1.00  0.00     0.074 A 
ATOM     58  C   UNL A   1      47.227  32.006  32.813  1.00  0.00     0.031 C 
ATOM     59  C   UNL A   1      44.112  28.339  27.912  1.00  0.00     0.029 A 
ATOM     60  C   UNL A   1      44.556  27.583  29.078  1.00  0.00     0.049 A 
ATOM     61  H   UNL A   1      45.749  28.295  30.648  1.00  0.00     0.167 HD
ATOM     62  C   UNL A   1      47.432  30.042  34.321  1.00  0.00     0.034 A 
ATOM     63  C   UNL A   1      44.286  26.279  29.294  1.00  0.00     0.034 A 
ATOM     64  C   UNL A   1      47.178  28.665  34.654  1.00  0.00     0.049 A 
ATOM     65  C   UNL A   1      44.702  25.662  30.597  1.00  0.00     0.074 A 
ATOM     66  C   UNL A   1      47.497  27.984  35.816  1.00  0.00     0.029 A 
ATOM     67  N   UNL A   1      46.569  27.755  33.807  1.00  0.00    -0.354 N 
ATOM     68  N   UNL A   1      45.252  26.244  31.636  1.00  0.00    -0.248 NA
ATOM     69  C   UNL A   1      44.451  24.224  30.770  1.00  0.00     0.031 C 
ATOM     70  C   UNL A   1      47.114  26.651  35.655  1.00  0.00     0.029 A 
ATOM     71  C   UNL A   1      46.520  26.515  34.410  1.00  0.00     0.049 A 
ATOM     72  H   UNL A   1      46.222  27.961  32.910  1.00  0.00     0.167 HD
ATOM     73  C   UNL A   1      45.403  25.247  32.590  1.00  0.00     0.074 A 
ATOM     74  C   UNL A   1      44.865  24.031  32.017  1.00  0.00     0.031 C 
ATOM     75  C   UNL A   1      45.951  25.330  33.825  1.00  0.00     0.034 A 
BRANCH  62  76
ATOM     76  C   UNL A   1      48.170  30.859  35.354  1.00  0.00     0.023 A 
ATOM     77  C   UNL A   1      49.572  30.982  35.256  1.00  0.00     0.012 A 
ATOM     78  C   UNL A   1      47.473  31.662  36.281  1.00  0.00     0.148 A 
ATOM     79  C   UNL A   1      50.265  31.895  36.054  1.00  0.00     0.002 A 
ATOM     80  C   UNL A   1      48.169  32.581  37.062  1.00  0.00     0.091 A 
ATOM     81  F   UNL A   1      46.141  31.539  36.351  1.00  0.00    -0.205 F 
ATOM     82  C   UNL A   1      49.563  32.702  36.946  1.00  0.00     0.022 A 
BRANCH  80  83
ATOM     83  S   UNL A   1      47.360  33.684  38.228  1.00  0.00     0.127 S 
ATOM     84  O   UNL A   1      46.375  34.346  37.371  1.00  0.00    -0.237 OA
ATOM     85  O   UNL A   1      46.793  32.746  39.196  1.00  0.00    -0.237 OA
ATOM     86  O   UNL A   1      48.402  34.558  38.748  1.00  0.00    -0.744 OA
ENDBRANCH  80  83
ENDBRANCH  62  76
BRANCH  63  87
ATOM     87  C   UNL A   1      43.501  25.505  28.288  1.00  0.00     0.023 A 
ATOM     88  C   UNL A   1      42.094  25.573  28.273  1.00  0.00     0.012 A 
ATOM     89  C   UNL A   1      44.162  24.740  27.310  1.00  0.00     0.148 A 
ATOM     90  C   UNL A   1      41.361  24.886  27.300  1.00  0.00     0.002 A 
ATOM     91  C   UNL A   1      43.431  24.085  26.328  1.00  0.00     0.091 A 
ATOM     92  F   UNL A   1      45.502  24.695  27.347  1.00  0.00    -0.205 F 
ATOM     93  C   UNL A   1      42.029  24.152  26.323  1.00  0.00     0.022 A 
BRANCH  91  94
ATOM     94  S   UNL A   1      44.218  23.169  25.000  1.00  0.00     0.127 S 
ATOM     95  O   UNL A   1      45.059  24.197  24.391  1.00  0.00    -0.237 OA
ATOM     96  O   UNL A   1      44.942  22.133  25.736  1.00  0.00    -0.237 OA
ATOM     97  O   UNL A   1      43.133  22.671  24.166  1.00  0.00    -0.744 OA
ENDBRANCH  91  94
ENDBRANCH  63  87
BRANCH  75  98
ATOM     98  C   UNL A   1      46.002  24.084  34.657  1.00  0.00     0.023 A 
ATOM     99  C   UNL A   1      44.859  23.682  35.373  1.00  0.00     0.012 A 
ATOM    100  C   UNL A   1      47.129  23.242  34.599  1.00  0.00     0.148 A 
ATOM    101  C   UNL A   1      44.838  22.451  36.023  1.00  0.00     0.002 A 
ATOM    102  C   UNL A   1      47.089  22.004  35.223  1.00  0.00     0.091 A 
ATOM    103  F   UNL A   1      48.197  23.656  33.902  1.00  0.00    -0.205 F 
ATOM    104  C   UNL A   1      45.945  21.607  35.935  1.00  0.00     0.022 A 
BRANCH 102 105
ATOM    105  S   UNL A   1      48.445  20.833  35.125  1.00  0.00     0.127 S 
ATOM    106  O   UNL A   1      48.496  20.328  36.496  1.00  0.00    -0.237 OA
ATOM    107  O   UNL A   1      47.951  19.873  34.137  1.00  0.00    -0.237 OA
ATOM    108  O   UNL A   1      49.613  21.595  34.705  1.00  0.00    -0.744 OA
ENDBRANCH 102 105
ENDBRANCH  75  98
ENDBRANCH  49  50
ENDBRANCH  42  44
ENDBRANCH  41  42
ENDBRANCH  40  41
ENDBRANCH  39  40
ENDBRANCH  38  39
ENDBRANCH   1  38
TORSDOF 23
ENDMDL
