MODEL 1
REMARK VINA RESULT:     -12.1      0.000      0.000
REMARK SMILES O=C(OCCOCCOC(=O)[C@@H](Cc1ccccc1)N1C(=O)/C(=C/c2ccncc2)SC1=S)c1ccc(-c2c3nc(c(-c4cccc(S(=O)(=O)[O-])c4F)c4ccc([nH]4)c(-c4cccc(S(=O)(=O)[O-])c4F)c4nc(c(-c5cccc(S(=O)(=O)[O-])c5F)c5ccc2[nH]5)C=C4)C=C3)cc1
REMARK SMILES IDX 5 1 4 2 3 3 2 4 1 5 34 6 35 7 96 8 36 9 95 10 37 11 38 12
REMARK SMILES IDX 39 13 89 14 40 15 94 16 88 17 90 18 41 19 93 20 87 21 86 22
REMARK SMILES IDX 42 24 74 25 54 26 73 27 55 28 58 29 72 30 91 31 56 32 57 33
REMARK SMILES IDX 71 35 92 36 59 37 43 38 44 39 52 40 45 41 47 42 53 43 46 44
REMARK SMILES IDX 48 45 49 46 50 47 51 48 75 49 76 50 84 51 77 52 79 53 85 54
REMARK SMILES IDX 78 55 80 56 81 57 82 58 83 59 60 60 61 61 69 62 62 63 64 64
REMARK SMILES IDX 70 65 63 66 65 67 66 68 67 69 68 70 6 71 7 72 8 73 9 74
REMARK SMILES IDX 10 75 11 76 12 77 13 78 14 79 15 80 19 81 16 82 18 83 17 84
REMARK SMILES IDX 20 85 21 86 32 87 22 88 23 89 31 90 33 91 24 92 25 93 26 94
REMARK SMILES IDX 30 95 27 96 29 97 28 98
REMARK H PARENT 90 23 58 34
REMARK Flexibility Score: inf
ROOT
ATOM      1  C   UNL A   1      31.355  31.864  26.906  1.00  0.00     0.202 C 
ENDROOT
BRANCH   1   2
ATOM      2  C   UNL A   1      32.144  33.180  26.755  1.00  0.00     0.261 C 
BRANCH   2   3
ATOM      3  O   UNL A   1      32.264  33.892  27.999  1.00  0.00    -0.460 OA
BRANCH   3   4
ATOM      4  C   UNL A   1      33.365  34.461  28.548  1.00  0.00     0.338 C 
ATOM      5  O   UNL A   1      33.423  35.688  28.600  1.00  0.00    -0.246 OA
BRANCH   4   6
ATOM      6  C   UNL A   1      34.533  33.670  29.040  1.00  0.00     0.060 A 
ATOM      7  C   UNL A   1      34.433  32.415  29.638  1.00  0.00     0.016 A 
ATOM      8  C   UNL A   1      35.818  34.182  28.811  1.00  0.00     0.016 A 
ATOM      9  C   UNL A   1      35.522  31.648  29.946  1.00  0.00     0.010 A 
ATOM     10  C   UNL A   1      36.946  33.449  29.185  1.00  0.00     0.010 A 
ATOM     11  C   UNL A   1      36.777  32.182  29.750  1.00  0.00    -0.014 A 
BRANCH  11  12
ATOM     12  C   UNL A   1      37.838  31.435  30.406  1.00  0.00     0.031 A 
ATOM     13  C   UNL A   1      37.979  31.635  31.874  1.00  0.00     0.074 A 
ATOM     14  C   UNL A   1      38.454  30.460  29.725  1.00  0.00     0.049 A 
ATOM     15  N   UNL A   1      38.871  31.156  32.685  1.00  0.00    -0.248 NA
ATOM     16  C   UNL A   1      36.953  32.476  32.525  1.00  0.00     0.031 C 
ATOM     17  C   UNL A   1      38.163  30.089  28.336  1.00  0.00     0.029 A 
ATOM     18  N   UNL A   1      39.441  29.603  30.108  1.00  0.00    -0.354 N 
ATOM     19  C   UNL A   1      38.574  31.710  33.921  1.00  0.00     0.074 A 
ATOM     20  C   UNL A   1      37.381  32.507  33.775  1.00  0.00     0.031 C 
ATOM     21  C   UNL A   1      39.005  29.113  27.963  1.00  0.00     0.029 A 
ATOM     22  C   UNL A   1      39.931  28.865  29.060  1.00  0.00     0.049 A 
ATOM     23  H   UNL A   1      39.766  29.521  31.033  1.00  0.00     0.167 HD
ATOM     24  C   UNL A   1      39.288  31.586  35.059  1.00  0.00     0.034 A 
ATOM     25  C   UNL A   1      41.069  28.152  28.992  1.00  0.00     0.034 A 
ATOM     26  C   UNL A   1      40.481  30.792  35.115  1.00  0.00     0.049 A 
ATOM     27  C   UNL A   1      41.905  28.097  30.239  1.00  0.00     0.074 A 
ATOM     28  C   UNL A   1      41.351  30.605  36.166  1.00  0.00     0.029 A 
ATOM     29  N   UNL A   1      40.977  30.064  34.036  1.00  0.00    -0.354 N 
ATOM     30  N   UNL A   1      41.668  28.651  31.408  1.00  0.00    -0.248 NA
ATOM     31  C   UNL A   1      43.147  27.324  30.176  1.00  0.00     0.031 C 
ATOM     32  C   UNL A   1      42.400  29.801  35.706  1.00  0.00     0.029 A 
ATOM     33  C   UNL A   1      42.153  29.439  34.386  1.00  0.00     0.049 A 
ATOM     34  H   UNL A   1      40.548  30.005  33.151  1.00  0.00     0.167 HD
ATOM     35  C   UNL A   1      42.713  28.271  32.233  1.00  0.00     0.074 A 
ATOM     36  C   UNL A   1      43.584  27.434  31.425  1.00  0.00     0.031 C 
ATOM     37  C   UNL A   1      42.944  28.582  33.533  1.00  0.00     0.034 A 
BRANCH  24  38
ATOM     38  C   UNL A   1      38.852  32.422  36.229  1.00  0.00     0.023 A 
ATOM     39  C   UNL A   1      39.274  33.760  36.362  1.00  0.00     0.012 A 
ATOM     40  C   UNL A   1      38.088  31.835  37.256  1.00  0.00     0.148 A 
ATOM     41  C   UNL A   1      38.990  34.482  37.523  1.00  0.00     0.002 A 
ATOM     42  C   UNL A   1      37.764  32.576  38.386  1.00  0.00     0.091 A 
ATOM     43  F   UNL A   1      37.733  30.548  37.133  1.00  0.00    -0.205 F 
ATOM     44  C   UNL A   1      38.230  33.892  38.531  1.00  0.00     0.022 A 
BRANCH  42  45
ATOM     45  S   UNL A   1      36.740  31.921  39.706  1.00  0.00     0.127 S 
ATOM     46  O   UNL A   1      35.443  31.796  39.042  1.00  0.00    -0.237 OA
ATOM     47  O   UNL A   1      37.400  30.648  39.998  1.00  0.00    -0.237 OA
ATOM     48  O   UNL A   1      36.800  32.897  40.784  1.00  0.00    -0.744 OA
ENDBRANCH  42  45
ENDBRANCH  24  38
BRANCH  25  49
ATOM     49  C   UNL A   1      41.473  27.534  27.701  1.00  0.00     0.023 A 
ATOM     50  C   UNL A   1      41.871  28.345  26.624  1.00  0.00     0.012 A 
ATOM     51  C   UNL A   1      41.549  26.129  27.570  1.00  0.00     0.148 A 
ATOM     52  C   UNL A   1      42.327  27.769  25.435  1.00  0.00     0.002 A 
ATOM     53  C   UNL A   1      42.055  25.565  26.405  1.00  0.00     0.091 A 
ATOM     54  F   UNL A   1      41.159  25.374  28.606  1.00  0.00    -0.205 F 
ATOM     55  C   UNL A   1      42.431  26.383  25.331  1.00  0.00     0.022 A 
BRANCH  53  56
ATOM     56  S   UNL A   1      42.349  23.800  26.234  1.00  0.00     0.127 S 
ATOM     57  O   UNL A   1      42.927  23.723  24.894  1.00  0.00    -0.237 OA
ATOM     58  O   UNL A   1      43.290  23.546  27.326  1.00  0.00    -0.237 OA
ATOM     59  O   UNL A   1      41.050  23.162  26.396  1.00  0.00    -0.744 OA
ENDBRANCH  53  56
ENDBRANCH  25  49
BRANCH  37  60
ATOM     60  C   UNL A   1      44.146  27.960  34.179  1.00  0.00     0.023 A 
ATOM     61  C   UNL A   1      45.402  28.584  34.079  1.00  0.00     0.012 A 
ATOM     62  C   UNL A   1      43.979  26.838  35.010  1.00  0.00     0.148 A 
ATOM     63  C   UNL A   1      46.486  28.088  34.800  1.00  0.00     0.002 A 
ATOM     64  C   UNL A   1      45.045  26.387  35.770  1.00  0.00     0.091 A 
ATOM     65  F   UNL A   1      42.769  26.259  35.066  1.00  0.00    -0.205 F 
ATOM     66  C   UNL A   1      46.302  27.003  35.658  1.00  0.00     0.022 A 
BRANCH  64  67
ATOM     67  S   UNL A   1      44.865  25.086  36.991  1.00  0.00     0.127 S 
ATOM     68  O   UNL A   1      43.573  25.417  37.589  1.00  0.00    -0.237 OA
ATOM     69  O   UNL A   1      44.864  23.883  36.159  1.00  0.00    -0.237 OA
ATOM     70  O   UNL A   1      46.009  25.205  37.884  1.00  0.00    -0.744 OA
ENDBRANCH  64  67
ENDBRANCH  37  60
ENDBRANCH  11  12
ENDBRANCH   4   6
ENDBRANCH   3   4
ENDBRANCH   2   3
ENDBRANCH   1   2
BRANCH   1  71
ATOM     71  O   UNL A   1      31.869  30.685  26.283  1.00  0.00    -0.374 OA
BRANCH  71  72
ATOM     72  C   UNL A   1      33.098  30.147  26.796  1.00  0.00     0.202 C 
BRANCH  72  73
ATOM     73  C   UNL A   1      33.187  28.669  26.495  1.00  0.00     0.261 C 
BRANCH  73  74
ATOM     74  O   UNL A   1      32.221  28.454  25.463  1.00  0.00    -0.462 OA
BRANCH  74  75
ATOM     75  C   UNL A   1      31.264  27.540  25.717  1.00  0.00     0.329 C 
ATOM     76  O   UNL A   1      30.746  27.328  26.807  1.00  0.00    -0.250 OA
BRANCH  75  77
ATOM     77  C   UNL A   1      31.014  26.672  24.499  1.00  0.00     0.206 C 
BRANCH  77  78
ATOM     78  C   UNL A   1      30.378  27.199  23.187  1.00  0.00     0.073 C 
BRANCH  78  79
ATOM     79  C   UNL A   1      29.449  28.383  23.219  1.00  0.00    -0.045 A 
ATOM     80  C   UNL A   1      28.059  28.225  23.132  1.00  0.00     0.004 A 
ATOM     81  C   UNL A   1      29.954  29.681  23.324  1.00  0.00     0.004 A 
ATOM     82  C   UNL A   1      27.195  29.308  23.288  1.00  0.00     0.000 A 
ATOM     83  C   UNL A   1      29.094  30.766  23.503  1.00  0.00     0.000 A 
ATOM     84  C   UNL A   1      27.715  30.577  23.506  1.00  0.00     0.000 A 
ENDBRANCH  78  79
ENDBRANCH  77  78
BRANCH  77  85
ATOM     85  N   UNL A   1      32.157  25.775  24.331  1.00  0.00    -0.278 N 
ATOM     86  C   UNL A   1      32.238  24.688  25.194  1.00  0.00     0.267 C 
ATOM     87  C   UNL A   1      33.202  25.905  23.432  1.00  0.00     0.149 C 
ATOM     88  O   UNL A   1      31.456  24.373  26.069  1.00  0.00    -0.268 OA
ATOM     89  C   UNL A   1      33.474  23.942  24.892  1.00  0.00     0.081 C 
ATOM     90  S   UNL A   1      34.012  24.360  23.312  1.00  0.00    -0.054 SA
ATOM     91  S   UNL A   1      33.819  27.207  22.597  1.00  0.00    -0.052 S 
ATOM     92  C   UNL A   1      34.140  23.212  25.793  1.00  0.00     0.029 C 
BRANCH  92  93
ATOM     93  C   UNL A   1      35.446  22.671  25.425  1.00  0.00    -0.021 A 
ATOM     94  C   UNL A   1      35.554  21.339  25.017  1.00  0.00     0.028 A 
ATOM     95  C   UNL A   1      36.590  23.390  25.754  1.00  0.00     0.028 A 
ATOM     96  C   UNL A   1      36.814  20.770  24.998  1.00  0.00     0.111 A 
ATOM     97  C   UNL A   1      37.803  22.731  25.691  1.00  0.00     0.111 A 
ATOM     98  N   UNL A   1      37.942  21.439  25.322  1.00  0.00    -0.265 NA
ENDBRANCH  92  93
ENDBRANCH  77  85
ENDBRANCH  75  77
ENDBRANCH  74  75
ENDBRANCH  73  74
ENDBRANCH  72  73
ENDBRANCH  71  72
ENDBRANCH   1  71
TORSDOF 21
ENDMDL
MODEL 2
REMARK VINA RESULT:     -11.8      5.198     11.441
REMARK SMILES O=C(OCCOCCOC(=O)[C@@H](Cc1ccccc1)N1C(=O)/C(=C/c2ccncc2)SC1=S)c1ccc(-c2c3nc(c(-c4cccc(S(=O)(=O)[O-])c4F)c4ccc([nH]4)c(-c4cccc(S(=O)(=O)[O-])c4F)c4nc(c(-c5cccc(S(=O)(=O)[O-])c5F)c5ccc2[nH]5)C=C4)C=C3)cc1
REMARK SMILES IDX 5 1 4 2 3 3 2 4 1 5 34 6 35 7 96 8 36 9 95 10 37 11 38 12
REMARK SMILES IDX 39 13 89 14 40 15 94 16 88 17 90 18 41 19 93 20 87 21 86 22
REMARK SMILES IDX 42 24 74 25 54 26 73 27 55 28 58 29 72 30 91 31 56 32 57 33
REMARK SMILES IDX 71 35 92 36 59 37 43 38 44 39 52 40 45 41 47 42 53 43 46 44
REMARK SMILES IDX 48 45 49 46 50 47 51 48 75 49 76 50 84 51 77 52 79 53 85 54
REMARK SMILES IDX 78 55 80 56 81 57 82 58 83 59 60 60 61 61 69 62 62 63 64 64
REMARK SMILES IDX 70 65 63 66 65 67 66 68 67 69 68 70 6 71 7 72 8 73 9 74
REMARK SMILES IDX 10 75 11 76 12 77 13 78 14 79 15 80 19 81 16 82 18 83 17 84
REMARK SMILES IDX 20 85 21 86 32 87 22 88 23 89 31 90 33 91 24 92 25 93 26 94
REMARK SMILES IDX 30 95 27 96 29 97 28 98
REMARK H PARENT 90 23 58 34
REMARK Flexibility Score: inf
ROOT
ATOM      1  C   UNL A   1      38.698  21.013  25.976  1.00  0.00     0.202 C 
ENDROOT
BRANCH   1   2
ATOM      2  C   UNL A   1      39.372  19.705  25.514  1.00  0.00     0.261 C 
BRANCH   2   3
ATOM      3  O   UNL A   1      40.522  19.370  26.310  1.00  0.00    -0.460 OA
BRANCH   3   4
ATOM      4  C   UNL A   1      41.740  19.964  26.333  1.00  0.00     0.338 C 
ATOM      5  O   UNL A   1      42.732  19.267  26.129  1.00  0.00    -0.246 OA
BRANCH   4   6
ATOM      6  C   UNL A   1      41.936  21.410  26.650  1.00  0.00     0.060 A 
ATOM      7  C   UNL A   1      41.814  22.440  25.719  1.00  0.00     0.016 A 
ATOM      8  C   UNL A   1      42.177  21.764  27.986  1.00  0.00     0.016 A 
ATOM      9  C   UNL A   1      41.853  23.763  26.064  1.00  0.00     0.010 A 
ATOM     10  C   UNL A   1      42.295  23.107  28.349  1.00  0.00     0.010 A 
ATOM     11  C   UNL A   1      42.128  24.093  27.373  1.00  0.00    -0.014 A 
BRANCH  11  12
ATOM     12  C   UNL A   1      42.471  25.493  27.562  1.00  0.00     0.031 A 
ATOM     13  C   UNL A   1      43.756  25.946  26.963  1.00  0.00     0.074 A 
ATOM     14  C   UNL A   1      41.537  26.326  28.037  1.00  0.00     0.049 A 
ATOM     15  N   UNL A   1      44.333  27.106  27.038  1.00  0.00    -0.248 NA
ATOM     16  C   UNL A   1      44.484  24.958  26.140  1.00  0.00     0.031 C 
ATOM     17  C   UNL A   1      40.175  25.936  28.417  1.00  0.00     0.029 A 
ATOM     18  N   UNL A   1      41.586  27.667  28.275  1.00  0.00    -0.354 N 
ATOM     19  C   UNL A   1      45.532  26.962  26.358  1.00  0.00     0.074 A 
ATOM     20  C   UNL A   1      45.576  25.627  25.815  1.00  0.00     0.031 C 
ATOM     21  C   UNL A   1      39.535  27.012  28.901  1.00  0.00     0.029 A 
ATOM     22  C   UNL A   1      40.474  28.124  28.936  1.00  0.00     0.049 A 
ATOM     23  H   UNL A   1      42.336  28.242  28.002  1.00  0.00     0.167 HD
ATOM     24  C   UNL A   1      46.521  27.874  26.254  1.00  0.00     0.034 A 
ATOM     25  C   UNL A   1      40.300  29.291  29.581  1.00  0.00     0.034 A 
ATOM     26  C   UNL A   1      46.408  29.175  26.845  1.00  0.00     0.049 A 
ATOM     27  C   UNL A   1      41.445  30.263  29.537  1.00  0.00     0.074 A 
ATOM     28  C   UNL A   1      47.334  30.195  26.884  1.00  0.00     0.029 A 
ATOM     29  N   UNL A   1      45.280  29.619  27.531  1.00  0.00    -0.354 N 
ATOM     30  N   UNL A   1      42.607  30.131  28.938  1.00  0.00    -0.248 NA
ATOM     31  C   UNL A   1      41.265  31.536  30.237  1.00  0.00     0.031 C 
ATOM     32  C   UNL A   1      46.780  31.238  27.636  1.00  0.00     0.029 A 
ATOM     33  C   UNL A   1      45.488  30.891  28.015  1.00  0.00     0.049 A 
ATOM     34  H   UNL A   1      44.453  29.097  27.652  1.00  0.00     0.167 HD
ATOM     35  C   UNL A   1      43.291  31.314  29.159  1.00  0.00     0.074 A 
ATOM     36  C   UNL A   1      42.405  32.153  29.948  1.00  0.00     0.031 C 
ATOM     37  C   UNL A   1      44.534  31.682  28.759  1.00  0.00     0.034 A 
BRANCH  24  38
ATOM     38  C   UNL A   1      47.797  27.420  25.605  1.00  0.00     0.023 A 
ATOM     39  C   UNL A   1      48.871  26.932  26.378  1.00  0.00     0.012 A 
ATOM     40  C   UNL A   1      47.963  27.570  24.215  1.00  0.00     0.148 A 
ATOM     41  C   UNL A   1      50.104  26.655  25.785  1.00  0.00     0.002 A 
ATOM     42  C   UNL A   1      49.176  27.243  23.623  1.00  0.00     0.091 A 
ATOM     43  F   UNL A   1      46.947  28.078  23.502  1.00  0.00    -0.205 F 
ATOM     44  C   UNL A   1      50.254  26.804  24.409  1.00  0.00     0.022 A 
BRANCH  42  45
ATOM     45  S   UNL A   1      49.443  27.345  21.852  1.00  0.00     0.127 S 
ATOM     46  O   UNL A   1      48.409  26.444  21.343  1.00  0.00    -0.237 OA
ATOM     47  O   UNL A   1      49.198  28.763  21.590  1.00  0.00    -0.237 OA
ATOM     48  O   UNL A   1      50.815  26.913  21.625  1.00  0.00    -0.744 OA
ENDBRANCH  42  45
ENDBRANCH  24  38
BRANCH  25  49
ATOM     49  C   UNL A   1      39.048  29.525  30.349  1.00  0.00     0.023 A 
ATOM     50  C   UNL A   1      38.868  28.924  31.606  1.00  0.00     0.012 A 
ATOM     51  C   UNL A   1      38.068  30.422  29.868  1.00  0.00     0.148 A 
ATOM     52  C   UNL A   1      37.730  29.203  32.368  1.00  0.00     0.002 A 
ATOM     53  C   UNL A   1      36.966  30.737  30.655  1.00  0.00     0.091 A 
ATOM     54  F   UNL A   1      38.255  30.980  28.664  1.00  0.00    -0.205 F 
ATOM     55  C   UNL A   1      36.788  30.117  31.899  1.00  0.00     0.022 A 
BRANCH  53  56
ATOM     56  S   UNL A   1      35.775  32.000  30.190  1.00  0.00     0.127 S 
ATOM     57  O   UNL A   1      35.151  31.401  29.012  1.00  0.00    -0.237 OA
ATOM     58  O   UNL A   1      34.921  32.057  31.377  1.00  0.00    -0.237 OA
ATOM     59  O   UNL A   1      36.550  33.208  29.946  1.00  0.00    -0.744 OA
ENDBRANCH  53  56
ENDBRANCH  25  49
BRANCH  37  60
ATOM     60  C   UNL A   1      44.979  33.070  29.108  1.00  0.00     0.023 A 
ATOM     61  C   UNL A   1      45.689  33.306  30.298  1.00  0.00     0.012 A 
ATOM     62  C   UNL A   1      44.817  34.103  28.165  1.00  0.00     0.148 A 
ATOM     63  C   UNL A   1      46.229  34.565  30.549  1.00  0.00     0.002 A 
ATOM     64  C   UNL A   1      45.408  35.334  28.394  1.00  0.00     0.091 A 
ATOM     65  F   UNL A   1      44.119  33.844  27.049  1.00  0.00    -0.205 F 
ATOM     66  C   UNL A   1      46.106  35.570  29.591  1.00  0.00     0.022 A 
BRANCH  64  67
ATOM     67  S   UNL A   1      45.410  36.637  27.162  1.00  0.00     0.127 S 
ATOM     68  O   UNL A   1      46.196  37.674  27.829  1.00  0.00    -0.237 OA
ATOM     69  O   UNL A   1      46.080  35.991  26.034  1.00  0.00    -0.237 OA
ATOM     70  O   UNL A   1      44.013  36.975  26.926  1.00  0.00    -0.744 OA
ENDBRANCH  64  67
ENDBRANCH  37  60
ENDBRANCH  11  12
ENDBRANCH   4   6
ENDBRANCH   3   4
ENDBRANCH   2   3
ENDBRANCH   1   2
BRANCH   1  71
ATOM     71  O   UNL A   1      38.393  22.007  24.996  1.00  0.00    -0.374 OA
BRANCH  71  72
ATOM     72  C   UNL A   1      37.326  22.922  25.291  1.00  0.00     0.202 C 
BRANCH  72  73
ATOM     73  C   UNL A   1      36.311  22.918  24.171  1.00  0.00     0.261 C 
BRANCH  73  74
ATOM     74  O   UNL A   1      35.057  22.704  24.823  1.00  0.00    -0.462 OA
BRANCH  74  75
ATOM     75  C   UNL A   1      34.594  21.437  24.833  1.00  0.00     0.329 C 
ATOM     76  O   UNL A   1      35.190  20.460  25.270  1.00  0.00    -0.250 OA
BRANCH  75  77
ATOM     77  C   UNL A   1      33.286  21.338  24.074  1.00  0.00     0.206 C 
BRANCH  77  78
ATOM     78  C   UNL A   1      32.289  20.162  24.234  1.00  0.00     0.073 C 
BRANCH  78  79
ATOM     79  C   UNL A   1      32.798  18.750  24.363  1.00  0.00    -0.045 A 
ATOM     80  C   UNL A   1      32.717  18.052  25.576  1.00  0.00     0.004 A 
ATOM     81  C   UNL A   1      33.379  18.101  23.271  1.00  0.00     0.004 A 
ATOM     82  C   UNL A   1      33.071  16.706  25.662  1.00  0.00     0.000 A 
ATOM     83  C   UNL A   1      33.715  16.748  23.346  1.00  0.00     0.000 A 
ATOM     84  C   UNL A   1      33.541  16.045  24.534  1.00  0.00     0.000 A 
ENDBRANCH  78  79
ENDBRANCH  77  78
BRANCH  77  85
ATOM     85  N   UNL A   1      32.686  22.671  24.015  1.00  0.00    -0.278 N 
ATOM     86  C   UNL A   1      32.907  23.412  22.861  1.00  0.00     0.267 C 
ATOM     87  C   UNL A   1      31.950  23.305  25.003  1.00  0.00     0.149 C 
ATOM     88  O   UNL A   1      33.527  23.080  21.871  1.00  0.00    -0.268 OA
ATOM     89  C   UNL A   1      32.262  24.729  23.020  1.00  0.00     0.081 C 
ATOM     90  S   UNL A   1      31.080  24.631  24.266  1.00  0.00    -0.054 SA
ATOM     91  S   UNL A   1      31.849  23.090  26.651  1.00  0.00    -0.052 S 
ATOM     92  C   UNL A   1      32.683  25.841  22.406  1.00  0.00     0.029 C 
BRANCH  92  93
ATOM     93  C   UNL A   1      32.080  27.117  22.784  1.00  0.00    -0.021 A 
ATOM     94  C   UNL A   1      32.599  27.835  23.865  1.00  0.00     0.028 A 
ATOM     95  C   UNL A   1      30.838  27.456  22.258  1.00  0.00     0.028 A 
ATOM     96  C   UNL A   1      31.822  28.846  24.401  1.00  0.00     0.111 A 
ATOM     97  C   UNL A   1      30.147  28.491  22.860  1.00  0.00     0.111 A 
ATOM     98  N   UNL A   1      30.608  29.192  23.918  1.00  0.00    -0.265 NA
ENDBRANCH  92  93
ENDBRANCH  77  85
ENDBRANCH  75  77
ENDBRANCH  74  75
ENDBRANCH  73  74
ENDBRANCH  72  73
ENDBRANCH  71  72
ENDBRANCH   1  71
TORSDOF 21
ENDMDL
MODEL 3
REMARK VINA RESULT:     -11.8      1.939      2.367
REMARK SMILES O=C(OCCOCCOC(=O)[C@@H](Cc1ccccc1)N1C(=O)/C(=C/c2ccncc2)SC1=S)c1ccc(-c2c3nc(c(-c4cccc(S(=O)(=O)[O-])c4F)c4ccc([nH]4)c(-c4cccc(S(=O)(=O)[O-])c4F)c4nc(c(-c5cccc(S(=O)(=O)[O-])c5F)c5ccc2[nH]5)C=C4)C=C3)cc1
REMARK SMILES IDX 5 1 4 2 3 3 2 4 1 5 34 6 35 7 96 8 36 9 95 10 37 11 38 12
REMARK SMILES IDX 39 13 89 14 40 15 94 16 88 17 90 18 41 19 93 20 87 21 86 22
REMARK SMILES IDX 42 24 74 25 54 26 73 27 55 28 58 29 72 30 91 31 56 32 57 33
REMARK SMILES IDX 71 35 92 36 59 37 43 38 44 39 52 40 45 41 47 42 53 43 46 44
REMARK SMILES IDX 48 45 49 46 50 47 51 48 75 49 76 50 84 51 77 52 79 53 85 54
REMARK SMILES IDX 78 55 80 56 81 57 82 58 83 59 60 60 61 61 69 62 62 63 64 64
REMARK SMILES IDX 70 65 63 66 65 67 66 68 67 69 68 70 6 71 7 72 8 73 9 74
REMARK SMILES IDX 10 75 11 76 12 77 13 78 14 79 15 80 19 81 16 82 18 83 17 84
REMARK SMILES IDX 20 85 21 86 32 87 22 88 23 89 31 90 33 91 24 92 25 93 26 94
REMARK SMILES IDX 30 95 27 96 29 97 28 98
REMARK H PARENT 90 23 58 34
REMARK Flexibility Score: inf
ROOT
ATOM      1  C   UNL A   1      31.922  30.962  26.875  1.00  0.00     0.202 C 
ENDROOT
BRANCH   1   2
ATOM      2  C   UNL A   1      31.998  32.488  26.668  1.00  0.00     0.261 C 
BRANCH   2   3
ATOM      3  O   UNL A   1      32.528  33.172  27.818  1.00  0.00    -0.460 OA
BRANCH   3   4
ATOM      4  C   UNL A   1      33.760  33.708  27.992  1.00  0.00     0.338 C 
ATOM      5  O   UNL A   1      33.943  34.873  27.645  1.00  0.00    -0.246 OA
BRANCH   4   6
ATOM      6  C   UNL A   1      34.918  32.935  28.533  1.00  0.00     0.060 A 
ATOM      7  C   UNL A   1      34.820  31.653  29.073  1.00  0.00     0.016 A 
ATOM      8  C   UNL A   1      36.198  33.497  28.415  1.00  0.00     0.016 A 
ATOM      9  C   UNL A   1      35.912  30.910  29.425  1.00  0.00     0.010 A 
ATOM     10  C   UNL A   1      37.322  32.784  28.837  1.00  0.00     0.010 A 
ATOM     11  C   UNL A   1      37.159  31.491  29.338  1.00  0.00    -0.014 A 
BRANCH  11  12
ATOM     12  C   UNL A   1      38.197  30.751  30.037  1.00  0.00     0.031 A 
ATOM     13  C   UNL A   1      38.337  31.021  31.494  1.00  0.00     0.074 A 
ATOM     14  C   UNL A   1      38.791  29.727  29.410  1.00  0.00     0.049 A 
ATOM     15  N   UNL A   1      39.212  30.561  32.334  1.00  0.00    -0.248 NA
ATOM     16  C   UNL A   1      37.330  31.919  32.097  1.00  0.00     0.031 C 
ATOM     17  C   UNL A   1      38.496  29.294  28.040  1.00  0.00     0.029 A 
ATOM     18  N   UNL A   1      39.754  28.865  29.840  1.00  0.00    -0.354 N 
ATOM     19  C   UNL A   1      38.925  31.184  33.538  1.00  0.00     0.074 A 
ATOM     20  C   UNL A   1      37.753  32.002  33.346  1.00  0.00     0.031 C 
ATOM     21  C   UNL A   1      39.315  28.280  27.721  1.00  0.00     0.029 A 
ATOM     22  C   UNL A   1      40.229  28.063  28.834  1.00  0.00     0.049 A 
ATOM     23  H   UNL A   1      40.073  28.823  30.770  1.00  0.00     0.167 HD
ATOM     24  C   UNL A   1      39.631  31.099  34.685  1.00  0.00     0.034 A 
ATOM     25  C   UNL A   1      41.349  27.320  28.808  1.00  0.00     0.034 A 
ATOM     26  C   UNL A   1      40.802  30.279  34.787  1.00  0.00     0.049 A 
ATOM     27  C   UNL A   1      42.177  27.306  30.061  1.00  0.00     0.074 A 
ATOM     28  C   UNL A   1      41.663  30.122  35.852  1.00  0.00     0.029 A 
ATOM     29  N   UNL A   1      41.284  29.485  33.750  1.00  0.00    -0.354 N 
ATOM     30  N   UNL A   1      41.950  27.924  31.199  1.00  0.00    -0.248 NA
ATOM     31  C   UNL A   1      43.400  26.500  30.044  1.00  0.00     0.031 C 
ATOM     32  C   UNL A   1      42.693  29.270  35.438  1.00  0.00     0.029 A 
ATOM     33  C   UNL A   1      42.442  28.848  34.137  1.00  0.00     0.049 A 
ATOM     34  H   UNL A   1      40.858  29.393  32.866  1.00  0.00     0.167 HD
ATOM     35  C   UNL A   1      42.981  27.560  32.049  1.00  0.00     0.074 A 
ATOM     36  C   UNL A   1      43.834  26.661  31.288  1.00  0.00     0.031 C 
ATOM     37  C   UNL A   1      43.214  27.929  33.333  1.00  0.00     0.034 A 
BRANCH  24  38
ATOM     38  C   UNL A   1      39.211  32.003  35.809  1.00  0.00     0.023 A 
ATOM     39  C   UNL A   1      38.198  31.617  36.711  1.00  0.00     0.012 A 
ATOM     40  C   UNL A   1      39.768  33.292  35.911  1.00  0.00     0.148 A 
ATOM     41  C   UNL A   1      37.710  32.518  37.658  1.00  0.00     0.002 A 
ATOM     42  C   UNL A   1      39.314  34.166  36.890  1.00  0.00     0.091 A 
ATOM     43  F   UNL A   1      40.698  33.659  35.018  1.00  0.00    -0.205 F 
ATOM     44  C   UNL A   1      38.271  33.789  37.752  1.00  0.00     0.022 A 
BRANCH  42  45
ATOM     45  S   UNL A   1      40.018  35.800  37.125  1.00  0.00     0.127 S 
ATOM     46  O   UNL A   1      39.657  36.461  35.871  1.00  0.00    -0.237 OA
ATOM     47  O   UNL A   1      39.289  36.279  38.299  1.00  0.00    -0.237 OA
ATOM     48  O   UNL A   1      41.444  35.598  37.337  1.00  0.00    -0.744 OA
ENDBRANCH  42  45
ENDBRANCH  24  38
BRANCH  25  49
ATOM     49  C   UNL A   1      41.742  26.628  27.552  1.00  0.00     0.023 A 
ATOM     50  C   UNL A   1      42.368  27.343  26.518  1.00  0.00     0.012 A 
ATOM     51  C   UNL A   1      41.575  25.231  27.419  1.00  0.00     0.148 A 
ATOM     52  C   UNL A   1      42.812  26.684  25.368  1.00  0.00     0.002 A 
ATOM     53  C   UNL A   1      42.067  24.574  26.298  1.00  0.00     0.091 A 
ATOM     54  F   UNL A   1      40.970  24.567  28.414  1.00  0.00    -0.205 F 
ATOM     55  C   UNL A   1      42.674  25.301  25.264  1.00  0.00     0.022 A 
BRANCH  53  56
ATOM     56  S   UNL A   1      42.053  22.783  26.141  1.00  0.00     0.127 S 
ATOM     57  O   UNL A   1      40.620  22.498  26.128  1.00  0.00    -0.237 OA
ATOM     58  O   UNL A   1      42.731  22.589  24.860  1.00  0.00    -0.237 OA
ATOM     59  O   UNL A   1      42.785  22.277  27.294  1.00  0.00    -0.744 OA
ENDBRANCH  53  56
ENDBRANCH  25  49
BRANCH  37  60
ATOM     60  C   UNL A   1      44.398  27.311  34.015  1.00  0.00     0.023 A 
ATOM     61  C   UNL A   1      45.619  28.004  34.076  1.00  0.00     0.012 A 
ATOM     62  C   UNL A   1      44.232  26.107  34.724  1.00  0.00     0.148 A 
ATOM     63  C   UNL A   1      46.671  27.497  34.835  1.00  0.00     0.002 A 
ATOM     64  C   UNL A   1      45.262  25.640  35.524  1.00  0.00     0.091 A 
ATOM     65  F   UNL A   1      43.057  25.465  34.627  1.00  0.00    -0.205 F 
ATOM     66  C   UNL A   1      46.486  26.328  35.572  1.00  0.00     0.022 A 
BRANCH  64  67
ATOM     67  S   UNL A   1      45.064  24.220  36.602  1.00  0.00     0.127 S 
ATOM     68  O   UNL A   1      46.453  23.817  36.817  1.00  0.00    -0.237 OA
ATOM     69  O   UNL A   1      44.411  24.812  37.770  1.00  0.00    -0.237 OA
ATOM     70  O   UNL A   1      44.248  23.263  35.869  1.00  0.00    -0.744 OA
ENDBRANCH  64  67
ENDBRANCH  37  60
ENDBRANCH  11  12
ENDBRANCH   4   6
ENDBRANCH   3   4
ENDBRANCH   2   3
ENDBRANCH   1   2
BRANCH   1  71
ATOM     71  O   UNL A   1      32.636  30.115  25.974  1.00  0.00    -0.374 OA
BRANCH  71  72
ATOM     72  C   UNL A   1      33.702  29.319  26.516  1.00  0.00     0.202 C 
BRANCH  72  73
ATOM     73  C   UNL A   1      33.597  27.896  26.018  1.00  0.00     0.261 C 
BRANCH  73  74
ATOM     74  O   UNL A   1      32.316  27.829  25.388  1.00  0.00    -0.462 OA
BRANCH  74  75
ATOM     75  C   UNL A   1      31.373  27.104  26.022  1.00  0.00     0.329 C 
ATOM     76  O   UNL A   1      31.188  27.070  27.233  1.00  0.00    -0.250 OA
BRANCH  75  77
ATOM     77  C   UNL A   1      30.656  26.188  25.050  1.00  0.00     0.206 C 
BRANCH  77  78
ATOM     78  C   UNL A   1      30.212  26.625  23.630  1.00  0.00     0.073 C 
BRANCH  78  79
ATOM     79  C   UNL A   1      29.328  27.830  23.451  1.00  0.00    -0.045 A 
ATOM     80  C   UNL A   1      29.868  29.108  23.248  1.00  0.00     0.004 A 
ATOM     81  C   UNL A   1      27.938  27.707  23.494  1.00  0.00     0.004 A 
ATOM     82  C   UNL A   1      29.053  30.201  22.956  1.00  0.00     0.000 A 
ATOM     83  C   UNL A   1      27.117  28.792  23.182  1.00  0.00     0.000 A 
ATOM     84  C   UNL A   1      27.675  30.034  22.891  1.00  0.00     0.000 A 
ENDBRANCH  78  79
ENDBRANCH  77  78
BRANCH  77  85
ATOM     85  N   UNL A   1      31.258  24.858  25.142  1.00  0.00    -0.278 N 
ATOM     86  C   UNL A   1      32.264  24.556  24.232  1.00  0.00     0.267 C 
ATOM     87  C   UNL A   1      30.912  23.838  26.013  1.00  0.00     0.149 C 
ATOM     88  O   UNL A   1      32.726  25.275  23.369  1.00  0.00    -0.268 OA
ATOM     89  C   UNL A   1      32.701  23.166  24.462  1.00  0.00     0.081 C 
ATOM     90  S   UNL A   1      32.221  22.679  26.040  1.00  0.00    -0.054 SA
ATOM     91  S   UNL A   1      29.530  23.516  26.883  1.00  0.00    -0.052 S 
ATOM     92  C   UNL A   1      33.219  22.384  23.509  1.00  0.00     0.029 C 
BRANCH  92  93
ATOM     93  C   UNL A   1      33.444  20.972  23.812  1.00  0.00    -0.021 A 
ATOM     94  C   UNL A   1      32.445  20.036  23.532  1.00  0.00     0.028 A 
ATOM     95  C   UNL A   1      34.514  20.621  24.627  1.00  0.00     0.028 A 
ATOM     96  C   UNL A   1      32.544  18.790  24.123  1.00  0.00     0.111 A 
ATOM     97  C   UNL A   1      34.525  19.345  25.159  1.00  0.00     0.111 A 
ATOM     98  N   UNL A   1      33.566  18.422  24.926  1.00  0.00    -0.265 NA
ENDBRANCH  92  93
ENDBRANCH  77  85
ENDBRANCH  75  77
ENDBRANCH  74  75
ENDBRANCH  73  74
ENDBRANCH  72  73
ENDBRANCH  71  72
ENDBRANCH   1  71
TORSDOF 21
ENDMDL
