MODEL 1
REMARK VINA RESULT:      -9.6      0.000      0.000
REMARK SMILES CC(C)C[C@H](CNC(=O)NC[C@H]1CCC(=O)N1)C(=O)OCCOCCOC(=O)c1ccc(-c2c3nc(c(-c4cccc(S(=O)(=O)[O-])c4F)c4ccc([nH]4)c(-c4cccc(S(=O)(=O)[O-])c4F)c4nc(c(-c5cccc(S(=O)(=O)[O-])c5F)c5ccc2[nH]5)C=C4)C=C3)cc1
REMARK SMILES IDX 22 1 21 2 20 3 18 4 19 5 5 6 4 7 2 8 1 9 3 10 6 11 7 12 8 13
REMARK SMILES IDX 9 15 10 16 11 18 12 19 13 20 17 21 14 22 15 23 16 25 23 26
REMARK SMILES IDX 24 27 25 28 26 29 27 30 28 31 29 32 30 33 91 34 31 35 90 36
REMARK SMILES IDX 32 37 33 38 34 39 84 40 35 41 89 42 83 43 85 44 36 45 88 46
REMARK SMILES IDX 82 47 81 48 37 50 69 51 49 52 68 53 50 54 53 55 67 56 86 57
REMARK SMILES IDX 51 58 52 59 66 61 87 62 54 63 38 64 39 65 47 66 40 67 42 68
REMARK SMILES IDX 48 69 41 70 43 71 44 72 45 73 46 74 70 75 71 76 79 77 72 78
REMARK SMILES IDX 74 79 80 80 73 81 75 82 76 83 77 84 78 85 55 86 56 87 64 88
REMARK SMILES IDX 57 89 59 90 65 91 58 92 60 93 61 94 62 95 63 96
REMARK H PARENT 7 14 10 17 17 24 85 49 53 60
REMARK Flexibility Score: inf
ROOT
ATOM      1  C   UNL A   1      36.365  21.142  24.528  1.00  0.00     0.202 C 
ENDROOT
BRANCH   1   2
ATOM      2  C   UNL A   1      36.396  22.438  25.341  1.00  0.00     0.261 C 
BRANCH   2   3
ATOM      3  O   UNL A   1      36.297  23.602  24.506  1.00  0.00    -0.463 OA
BRANCH   3   4
ATOM      4  C   UNL A   1      35.110  23.787  23.877  1.00  0.00     0.310 C 
ATOM      5  O   UNL A   1      34.872  23.500  22.709  1.00  0.00    -0.252 OA
BRANCH   4   6
ATOM      6  C   UNL A   1      34.070  24.381  24.800  1.00  0.00     0.119 C 
BRANCH   6   7
ATOM      7  C   UNL A   1      32.993  23.369  25.248  1.00  0.00     0.020 C 
BRANCH   7   8
ATOM      8  C   UNL A   1      32.867  23.024  26.753  1.00  0.00    -0.017 C 
ATOM      9  C   UNL A   1      31.421  23.040  27.271  1.00  0.00     0.007 C 
ATOM     10  C   UNL A   1      33.435  21.621  26.996  1.00  0.00     0.007 C 
ENDBRANCH   7   8
ENDBRANCH   6   7
BRANCH   6  11
ATOM     11  C   UNL A   1      33.614  25.770  24.285  1.00  0.00     0.133 C 
BRANCH  11  12
ATOM     12  N   UNL A   1      33.739  26.878  25.204  1.00  0.00    -0.337 N 
ATOM     13  C   UNL A   1      33.752  28.209  25.093  1.00  0.00     0.314 C 
ATOM     14  H   UNL A   1      33.837  26.580  26.137  1.00  0.00     0.165 HD
ATOM     15  O   UNL A   1      33.772  28.874  26.129  1.00  0.00    -0.249 OA
ATOM     16  N   UNL A   1      33.759  28.882  23.942  1.00  0.00    -0.336 N 
ATOM     17  H   UNL A   1      33.790  29.856  24.082  1.00  0.00     0.165 HD
BRANCH  16  18
ATOM     18  C   UNL A   1      33.732  28.534  22.533  1.00  0.00     0.142 C 
BRANCH  18  19
ATOM     19  C   UNL A   1      32.313  28.576  21.918  1.00  0.00     0.101 C 
ATOM     20  C   UNL A   1      31.466  27.348  22.249  1.00  0.00     0.036 C 
ATOM     21  N   UNL A   1      31.491  29.668  22.367  1.00  0.00    -0.352 N 
ATOM     22  C   UNL A   1      30.532  27.798  23.371  1.00  0.00     0.102 C 
ATOM     23  C   UNL A   1      30.457  29.286  23.185  1.00  0.00     0.220 C 
ATOM     24  H   UNL A   1      31.656  30.605  22.112  1.00  0.00     0.163 HD
ATOM     25  O   UNL A   1      29.642  30.034  23.699  1.00  0.00    -0.275 OA
ENDBRANCH  18  19
ENDBRANCH  16  18
ENDBRANCH  11  12
ENDBRANCH   6  11
ENDBRANCH   4   6
ENDBRANCH   3   4
ENDBRANCH   2   3
ENDBRANCH   1   2
BRANCH   1  26
ATOM     26  O   UNL A   1      37.235  20.089  24.936  1.00  0.00    -0.374 OA
BRANCH  26  27
ATOM     27  C   UNL A   1      38.555  20.423  25.358  1.00  0.00     0.202 C 
BRANCH  27  28
ATOM     28  C   UNL A   1      39.488  19.282  25.781  1.00  0.00     0.261 C 
BRANCH  28  29
ATOM     29  O   UNL A   1      40.854  19.514  25.403  1.00  0.00    -0.460 OA
BRANCH  29  30
ATOM     30  C   UNL A   1      41.689  19.706  26.455  1.00  0.00     0.338 C 
ATOM     31  O   UNL A   1      42.462  18.891  26.932  1.00  0.00    -0.246 OA
BRANCH  30  32
ATOM     32  C   UNL A   1      41.716  21.126  26.848  1.00  0.00     0.060 A 
ATOM     33  C   UNL A   1      41.625  22.068  25.815  1.00  0.00     0.016 A 
ATOM     34  C   UNL A   1      41.937  21.533  28.165  1.00  0.00     0.016 A 
ATOM     35  C   UNL A   1      41.842  23.415  26.078  1.00  0.00     0.010 A 
ATOM     36  C   UNL A   1      42.158  22.890  28.426  1.00  0.00     0.010 A 
ATOM     37  C   UNL A   1      42.168  23.828  27.375  1.00  0.00    -0.014 A 
BRANCH  37  38
ATOM     38  C   UNL A   1      42.683  25.204  27.579  1.00  0.00     0.031 A 
ATOM     39  C   UNL A   1      41.801  26.222  28.253  1.00  0.00     0.074 A 
ATOM     40  C   UNL A   1      43.937  25.528  27.220  1.00  0.00     0.049 A 
ATOM     41  N   UNL A   1      42.052  27.473  28.541  1.00  0.00    -0.248 NA
ATOM     42  C   UNL A   1      40.458  25.772  28.656  1.00  0.00     0.031 C 
ATOM     43  C   UNL A   1      44.893  24.625  26.581  1.00  0.00     0.029 A 
ATOM     44  N   UNL A   1      44.617  26.716  27.329  1.00  0.00    -0.354 N 
ATOM     45  C   UNL A   1      40.892  27.968  29.127  1.00  0.00     0.074 A 
ATOM     46  C   UNL A   1      39.932  26.887  29.142  1.00  0.00     0.031 C 
ATOM     47  C   UNL A   1      46.029  25.296  26.333  1.00  0.00     0.029 A 
ATOM     48  C   UNL A   1      45.871  26.683  26.767  1.00  0.00     0.049 A 
ATOM     49  H   UNL A   1      44.242  27.513  27.767  1.00  0.00     0.167 HD
ATOM     50  C   UNL A   1      40.651  29.207  29.617  1.00  0.00     0.034 A 
ATOM     51  C   UNL A   1      46.776  27.667  26.599  1.00  0.00     0.034 A 
ATOM     52  C   UNL A   1      41.614  30.275  29.615  1.00  0.00     0.049 A 
ATOM     53  C   UNL A   1      46.470  29.045  27.123  1.00  0.00     0.074 A 
ATOM     54  C   UNL A   1      41.481  31.553  30.131  1.00  0.00     0.029 A 
ATOM     55  N   UNL A   1      42.881  30.199  29.058  1.00  0.00    -0.354 N 
ATOM     56  N   UNL A   1      45.410  29.468  27.768  1.00  0.00    -0.248 NA
ATOM     57  C   UNL A   1      47.503  30.074  26.928  1.00  0.00     0.031 C 
ATOM     58  C   UNL A   1      42.653  32.262  29.846  1.00  0.00     0.029 A 
ATOM     59  C   UNL A   1      43.535  31.412  29.200  1.00  0.00     0.049 A 
ATOM     60  H   UNL A   1      43.260  29.400  28.625  1.00  0.00     0.167 HD
ATOM     61  C   UNL A   1      45.663  30.798  28.090  1.00  0.00     0.074 A 
ATOM     62  C   UNL A   1      46.986  31.103  27.586  1.00  0.00     0.031 C 
ATOM     63  C   UNL A   1      44.870  31.689  28.736  1.00  0.00     0.034 A 
BRANCH  50  64
ATOM     64  C   UNL A   1      39.289  29.476  30.205  1.00  0.00     0.023 A 
ATOM     65  C   UNL A   1      38.981  29.027  31.506  1.00  0.00     0.012 A 
ATOM     66  C   UNL A   1      38.335  30.228  29.490  1.00  0.00     0.148 A 
ATOM     67  C   UNL A   1      37.733  29.290  32.071  1.00  0.00     0.002 A 
ATOM     68  C   UNL A   1      37.112  30.528  30.079  1.00  0.00     0.091 A 
ATOM     69  F   UNL A   1      38.638  30.630  28.248  1.00  0.00    -0.205 F 
ATOM     70  C   UNL A   1      36.804  30.049  31.363  1.00  0.00     0.022 A 
BRANCH  68  71
ATOM     71  S   UNL A   1      35.883  31.569  29.285  1.00  0.00     0.127 S 
ATOM     72  O   UNL A   1      35.419  30.704  28.201  1.00  0.00    -0.237 OA
ATOM     73  O   UNL A   1      34.913  31.774  30.361  1.00  0.00    -0.237 OA
ATOM     74  O   UNL A   1      36.585  32.773  28.863  1.00  0.00    -0.744 OA
ENDBRANCH  68  71
ENDBRANCH  50  64
BRANCH  51  75
ATOM     75  C   UNL A   1      48.070  27.380  25.918  1.00  0.00     0.023 A 
ATOM     76  C   UNL A   1      49.179  26.952  26.673  1.00  0.00     0.012 A 
ATOM     77  C   UNL A   1      48.203  27.522  24.522  1.00  0.00     0.148 A 
ATOM     78  C   UNL A   1      50.406  26.706  26.056  1.00  0.00     0.002 A 
ATOM     79  C   UNL A   1      49.410  27.219  23.907  1.00  0.00     0.091 A 
ATOM     80  F   UNL A   1      47.140  27.944  23.824  1.00  0.00    -0.205 F 
ATOM     81  C   UNL A   1      50.520  26.829  24.675  1.00  0.00     0.022 A 
BRANCH  79  82
ATOM     82  S   UNL A   1      49.614  27.225  22.124  1.00  0.00     0.127 S 
ATOM     83  O   UNL A   1      49.353  28.625  21.797  1.00  0.00    -0.237 OA
ATOM     84  O   UNL A   1      51.010  26.809  21.981  1.00  0.00    -0.237 OA
ATOM     85  O   UNL A   1      48.645  26.267  21.612  1.00  0.00    -0.744 OA
ENDBRANCH  79  82
ENDBRANCH  51  75
BRANCH  63  86
ATOM     86  C   UNL A   1      45.425  33.069  28.987  1.00  0.00     0.023 A 
ATOM     87  C   UNL A   1      46.220  33.317  30.124  1.00  0.00     0.012 A 
ATOM     88  C   UNL A   1      45.209  34.105  28.058  1.00  0.00     0.148 A 
ATOM     89  C   UNL A   1      46.755  34.585  30.352  1.00  0.00     0.002 A 
ATOM     90  C   UNL A   1      45.792  35.350  28.262  1.00  0.00     0.091 A 
ATOM     91  F   UNL A   1      44.437  33.855  26.989  1.00  0.00    -0.205 F 
ATOM     92  C   UNL A   1      46.551  35.596  29.417  1.00  0.00     0.022 A 
BRANCH  90  93
ATOM     93  S   UNL A   1      45.667  36.683  27.064  1.00  0.00     0.127 S 
ATOM     94  O   UNL A   1      44.218  36.802  26.902  1.00  0.00    -0.237 OA
ATOM     95  O   UNL A   1      46.295  37.797  27.773  1.00  0.00    -0.237 OA
ATOM     96  O   UNL A   1      46.390  36.233  25.883  1.00  0.00    -0.744 OA
ENDBRANCH  90  93
ENDBRANCH  63  86
ENDBRANCH  37  38
ENDBRANCH  30  32
ENDBRANCH  29  30
ENDBRANCH  28  29
ENDBRANCH  27  28
ENDBRANCH  26  27
ENDBRANCH   1  26
TORSDOF 23
ENDMDL
MODEL 2
REMARK VINA RESULT:      -9.5      1.502      2.010
REMARK SMILES CC(C)C[C@H](CNC(=O)NC[C@H]1CCC(=O)N1)C(=O)OCCOCCOC(=O)c1ccc(-c2c3nc(c(-c4cccc(S(=O)(=O)[O-])c4F)c4ccc([nH]4)c(-c4cccc(S(=O)(=O)[O-])c4F)c4nc(c(-c5cccc(S(=O)(=O)[O-])c5F)c5ccc2[nH]5)C=C4)C=C3)cc1
REMARK SMILES IDX 22 1 21 2 20 3 18 4 19 5 5 6 4 7 2 8 1 9 3 10 6 11 7 12 8 13
REMARK SMILES IDX 9 15 10 16 11 18 12 19 13 20 17 21 14 22 15 23 16 25 23 26
REMARK SMILES IDX 24 27 25 28 26 29 27 30 28 31 29 32 30 33 91 34 31 35 90 36
REMARK SMILES IDX 32 37 33 38 34 39 84 40 35 41 89 42 83 43 85 44 36 45 88 46
REMARK SMILES IDX 82 47 81 48 37 50 69 51 49 52 68 53 50 54 53 55 67 56 86 57
REMARK SMILES IDX 51 58 52 59 66 61 87 62 54 63 38 64 39 65 47 66 40 67 42 68
REMARK SMILES IDX 48 69 41 70 43 71 44 72 45 73 46 74 70 75 71 76 79 77 72 78
REMARK SMILES IDX 74 79 80 80 73 81 75 82 76 83 77 84 78 85 55 86 56 87 64 88
REMARK SMILES IDX 57 89 59 90 65 91 58 92 60 93 61 94 62 95 63 96
REMARK H PARENT 7 14 10 17 17 24 85 49 53 60
REMARK Flexibility Score: inf
ROOT
ATOM      1  C   UNL A   1      35.992  20.996  24.661  1.00  0.00     0.202 C 
ENDROOT
BRANCH   1   2
ATOM      2  C   UNL A   1      36.168  22.393  25.260  1.00  0.00     0.261 C 
BRANCH   2   3
ATOM      3  O   UNL A   1      35.814  23.428  24.330  1.00  0.00    -0.463 OA
BRANCH   3   4
ATOM      4  C   UNL A   1      34.491  23.716  24.232  1.00  0.00     0.310 C 
ATOM      5  O   UNL A   1      33.682  23.111  23.538  1.00  0.00    -0.252 OA
BRANCH   4   6
ATOM      6  C   UNL A   1      34.103  24.881  25.113  1.00  0.00     0.119 C 
BRANCH   6   7
ATOM      7  C   UNL A   1      33.006  24.537  26.144  1.00  0.00     0.020 C 
BRANCH   7   8
ATOM      8  C   UNL A   1      32.649  23.050  26.392  1.00  0.00    -0.017 C 
ATOM      9  C   UNL A   1      33.304  22.459  27.649  1.00  0.00     0.007 C 
ATOM     10  C   UNL A   1      31.129  22.919  26.552  1.00  0.00     0.007 C 
ENDBRANCH   7   8
ENDBRANCH   6   7
BRANCH   6  11
ATOM     11  C   UNL A   1      33.951  26.174  24.271  1.00  0.00     0.133 C 
BRANCH  11  12
ATOM     12  N   UNL A   1      33.868  26.012  22.838  1.00  0.00    -0.337 N 
ATOM     13  C   UNL A   1      32.991  26.353  21.891  1.00  0.00     0.314 C 
ATOM     14  H   UNL A   1      34.647  25.535  22.471  1.00  0.00     0.165 HD
ATOM     15  O   UNL A   1      33.296  26.142  20.718  1.00  0.00    -0.249 OA
ATOM     16  N   UNL A   1      31.794  26.898  22.116  1.00  0.00    -0.336 N 
ATOM     17  H   UNL A   1      31.295  27.054  21.281  1.00  0.00     0.165 HD
BRANCH  16  18
ATOM     18  C   UNL A   1      31.045  27.319  23.285  1.00  0.00     0.142 C 
BRANCH  18  19
ATOM     19  C   UNL A   1      30.852  28.851  23.372  1.00  0.00     0.101 C 
ATOM     20  C   UNL A   1      31.036  29.568  22.034  1.00  0.00     0.036 C 
ATOM     21  N   UNL A   1      29.541  29.272  23.788  1.00  0.00    -0.352 N 
ATOM     22  C   UNL A   1      29.620  29.844  21.532  1.00  0.00     0.102 C 
ATOM     23  C   UNL A   1      28.800  29.854  22.790  1.00  0.00     0.220 C 
ATOM     24  H   UNL A   1      29.204  29.154  24.706  1.00  0.00     0.163 HD
ATOM     25  O   UNL A   1      27.659  30.272  22.900  1.00  0.00    -0.275 OA
ENDBRANCH  18  19
ENDBRANCH  16  18
ENDBRANCH  11  12
ENDBRANCH   6  11
ENDBRANCH   4   6
ENDBRANCH   3   4
ENDBRANCH   2   3
ENDBRANCH   1   2
BRANCH   1  26
ATOM     26  O   UNL A   1      36.920  19.989  25.056  1.00  0.00    -0.374 OA
BRANCH  26  27
ATOM     27  C   UNL A   1      38.310  20.308  25.054  1.00  0.00     0.202 C 
BRANCH  27  28
ATOM     28  C   UNL A   1      39.273  19.349  25.765  1.00  0.00     0.261 C 
BRANCH  28  29
ATOM     29  O   UNL A   1      40.644  19.562  25.392  1.00  0.00    -0.460 OA
BRANCH  29  30
ATOM     30  C   UNL A   1      41.474  19.755  26.447  1.00  0.00     0.338 C 
ATOM     31  O   UNL A   1      42.244  18.939  26.929  1.00  0.00    -0.246 OA
BRANCH  30  32
ATOM     32  C   UNL A   1      41.502  21.176  26.836  1.00  0.00     0.060 A 
ATOM     33  C   UNL A   1      41.437  22.115  25.798  1.00  0.00     0.016 A 
ATOM     34  C   UNL A   1      41.701  21.586  28.156  1.00  0.00     0.016 A 
ATOM     35  C   UNL A   1      41.658  23.461  26.062  1.00  0.00     0.010 A 
ATOM     36  C   UNL A   1      41.925  22.942  28.418  1.00  0.00     0.010 A 
ATOM     37  C   UNL A   1      41.961  23.876  27.364  1.00  0.00    -0.014 A 
BRANCH  37  38
ATOM     38  C   UNL A   1      42.480  25.250  27.574  1.00  0.00     0.031 A 
ATOM     39  C   UNL A   1      41.594  26.274  28.233  1.00  0.00     0.074 A 
ATOM     40  C   UNL A   1      43.742  25.567  27.235  1.00  0.00     0.049 A 
ATOM     41  N   UNL A   1      41.847  27.523  28.524  1.00  0.00    -0.248 NA
ATOM     42  C   UNL A   1      40.242  25.832  28.615  1.00  0.00     0.031 C 
ATOM     43  C   UNL A   1      44.702  24.657  26.612  1.00  0.00     0.029 A 
ATOM     44  N   UNL A   1      44.426  26.750  27.352  1.00  0.00    -0.354 N 
ATOM     45  C   UNL A   1      40.681  28.026  29.090  1.00  0.00     0.074 A 
ATOM     46  C   UNL A   1      39.715  26.950  29.092  1.00  0.00     0.031 C 
ATOM     47  C   UNL A   1      45.846  25.321  26.381  1.00  0.00     0.029 A 
ATOM     48  C   UNL A   1      45.689  26.710  26.811  1.00  0.00     0.049 A 
ATOM     49  H   UNL A   1      44.049  27.551  27.784  1.00  0.00     0.167 HD
ATOM     50  C   UNL A   1      40.439  29.267  29.575  1.00  0.00     0.034 A 
ATOM     51  C   UNL A   1      46.602  27.688  26.655  1.00  0.00     0.034 A 
ATOM     52  C   UNL A   1      41.408  30.329  29.587  1.00  0.00     0.049 A 
ATOM     53  C   UNL A   1      46.296  29.069  27.173  1.00  0.00     0.074 A 
ATOM     54  C   UNL A   1      41.274  31.609  30.099  1.00  0.00     0.029 A 
ATOM     55  N   UNL A   1      42.683  30.246  29.050  1.00  0.00    -0.354 N 
ATOM     56  N   UNL A   1      45.228  29.499  27.801  1.00  0.00    -0.248 NA
ATOM     57  C   UNL A   1      47.337  30.092  26.993  1.00  0.00     0.031 C 
ATOM     58  C   UNL A   1      42.454  32.311  29.831  1.00  0.00     0.029 A 
ATOM     59  C   UNL A   1      43.341  31.455  29.200  1.00  0.00     0.049 A 
ATOM     60  H   UNL A   1      43.064  29.444  28.624  1.00  0.00     0.167 HD
ATOM     61  C   UNL A   1      45.483  30.828  28.125  1.00  0.00     0.074 A 
ATOM     62  C   UNL A   1      46.816  31.125  27.641  1.00  0.00     0.031 C 
ATOM     63  C   UNL A   1      44.685  31.724  28.757  1.00  0.00     0.034 A 
BRANCH  50  64
ATOM     64  C   UNL A   1      39.069  29.545  30.141  1.00  0.00     0.023 A 
ATOM     65  C   UNL A   1      38.756  29.148  31.457  1.00  0.00     0.012 A 
ATOM     66  C   UNL A   1      38.112  30.254  29.389  1.00  0.00     0.148 A 
ATOM     67  C   UNL A   1      37.501  29.419  32.002  1.00  0.00     0.002 A 
ATOM     68  C   UNL A   1      36.881  30.564  29.955  1.00  0.00     0.091 A 
ATOM     69  F   UNL A   1      38.420  30.607  28.133  1.00  0.00    -0.205 F 
ATOM     70  C   UNL A   1      36.569  30.137  31.256  1.00  0.00     0.022 A 
BRANCH  68  71
ATOM     71  S   UNL A   1      35.646  31.557  29.109  1.00  0.00     0.127 S 
ATOM     72  O   UNL A   1      34.801  31.987  30.221  1.00  0.00    -0.237 OA
ATOM     73  O   UNL A   1      36.461  32.618  28.515  1.00  0.00    -0.237 OA
ATOM     74  O   UNL A   1      35.006  30.671  28.147  1.00  0.00    -0.744 OA
ENDBRANCH  68  71
ENDBRANCH  50  64
BRANCH  51  75
ATOM     75  C   UNL A   1      47.905  27.393  25.995  1.00  0.00     0.023 A 
ATOM     76  C   UNL A   1      48.021  27.505  24.596  1.00  0.00     0.012 A 
ATOM     77  C   UNL A   1      49.030  27.011  26.750  1.00  0.00     0.148 A 
ATOM     78  C   UNL A   1      49.226  27.207  23.958  1.00  0.00     0.002 A 
ATOM     79  C   UNL A   1      50.242  26.771  26.114  1.00  0.00     0.091 A 
ATOM     80  F   UNL A   1      48.894  26.896  28.078  1.00  0.00    -0.205 F 
ATOM     81  C   UNL A   1      50.337  26.849  24.715  1.00  0.00     0.022 A 
BRANCH  79  82
ATOM     82  S   UNL A   1      51.756  26.431  27.017  1.00  0.00     0.127 S 
ATOM     83  O   UNL A   1      51.725  24.974  27.117  1.00  0.00    -0.237 OA
ATOM     84  O   UNL A   1      52.772  26.965  26.109  1.00  0.00    -0.237 OA
ATOM     85  O   UNL A   1      51.635  27.153  28.276  1.00  0.00    -0.744 OA
ENDBRANCH  79  82
ENDBRANCH  51  75
BRANCH  63  86
ATOM     86  C   UNL A   1      45.243  33.101  29.015  1.00  0.00     0.023 A 
ATOM     87  C   UNL A   1      45.902  33.383  30.229  1.00  0.00     0.012 A 
ATOM     88  C   UNL A   1      45.171  34.099  28.023  1.00  0.00     0.148 A 
ATOM     89  C   UNL A   1      46.440  34.648  30.466  1.00  0.00     0.002 A 
ATOM     90  C   UNL A   1      45.758  35.339  28.243  1.00  0.00     0.091 A 
ATOM     91  F   UNL A   1      44.527  33.817  26.880  1.00  0.00    -0.205 F 
ATOM     92  C   UNL A   1      46.380  35.620  29.471  1.00  0.00     0.022 A 
BRANCH  90  93
ATOM     93  S   UNL A   1      45.816  36.617  26.983  1.00  0.00     0.127 S 
ATOM     94  O   UNL A   1      46.828  37.523  27.525  1.00  0.00    -0.237 OA
ATOM     95  O   UNL A   1      46.240  35.867  25.801  1.00  0.00    -0.237 OA
ATOM     96  O   UNL A   1      44.469  37.165  26.901  1.00  0.00    -0.744 OA
ENDBRANCH  90  93
ENDBRANCH  63  86
ENDBRANCH  37  38
ENDBRANCH  30  32
ENDBRANCH  29  30
ENDBRANCH  28  29
ENDBRANCH  27  28
ENDBRANCH  26  27
ENDBRANCH   1  26
TORSDOF 23
ENDMDL
MODEL 3
REMARK VINA RESULT:      -9.4      5.414     10.191
REMARK SMILES CC(C)C[C@H](CNC(=O)NC[C@H]1CCC(=O)N1)C(=O)OCCOCCOC(=O)c1ccc(-c2c3nc(c(-c4cccc(S(=O)(=O)[O-])c4F)c4ccc([nH]4)c(-c4cccc(S(=O)(=O)[O-])c4F)c4nc(c(-c5cccc(S(=O)(=O)[O-])c5F)c5ccc2[nH]5)C=C4)C=C3)cc1
REMARK SMILES IDX 22 1 21 2 20 3 18 4 19 5 5 6 4 7 2 8 1 9 3 10 6 11 7 12 8 13
REMARK SMILES IDX 9 15 10 16 11 18 12 19 13 20 17 21 14 22 15 23 16 25 23 26
REMARK SMILES IDX 24 27 25 28 26 29 27 30 28 31 29 32 30 33 91 34 31 35 90 36
REMARK SMILES IDX 32 37 33 38 34 39 84 40 35 41 89 42 83 43 85 44 36 45 88 46
REMARK SMILES IDX 82 47 81 48 37 50 69 51 49 52 68 53 50 54 53 55 67 56 86 57
REMARK SMILES IDX 51 58 52 59 66 61 87 62 54 63 38 64 39 65 47 66 40 67 42 68
REMARK SMILES IDX 48 69 41 70 43 71 44 72 45 73 46 74 70 75 71 76 79 77 72 78
REMARK SMILES IDX 74 79 80 80 73 81 75 82 76 83 77 84 78 85 55 86 56 87 64 88
REMARK SMILES IDX 57 89 59 90 65 91 58 92 60 93 61 94 62 95 63 96
REMARK H PARENT 7 14 10 17 17 24 85 49 53 60
REMARK Flexibility Score: inf
ROOT
ATOM      1  C   UNL A   1      31.350  32.251  26.468  1.00  0.00     0.202 C 
ENDROOT
BRANCH   1   2
ATOM      2  C   UNL A   1      31.929  30.911  26.928  1.00  0.00     0.261 C 
BRANCH   2   3
ATOM      3  O   UNL A   1      32.737  30.295  25.913  1.00  0.00    -0.463 OA
BRANCH   3   4
ATOM      4  C   UNL A   1      33.458  29.213  26.300  1.00  0.00     0.310 C 
ATOM      5  O   UNL A   1      34.257  29.186  27.229  1.00  0.00    -0.252 OA
BRANCH   4   6
ATOM      6  C   UNL A   1      33.147  27.999  25.454  1.00  0.00     0.119 C 
BRANCH   6   7
ATOM      7  C   UNL A   1      33.905  26.729  25.895  1.00  0.00     0.020 C 
BRANCH   7   8
ATOM      8  C   UNL A   1      33.474  25.358  25.317  1.00  0.00    -0.017 C 
ATOM      9  C   UNL A   1      34.642  24.384  25.101  1.00  0.00     0.007 C 
ATOM     10  C   UNL A   1      32.485  24.694  26.283  1.00  0.00     0.007 C 
ENDBRANCH   7   8
ENDBRANCH   6   7
BRANCH   6  11
ATOM     11  C   UNL A   1      33.138  28.372  23.949  1.00  0.00     0.133 C 
BRANCH  11  12
ATOM     12  N   UNL A   1      32.615  27.382  23.036  1.00  0.00    -0.337 N 
ATOM     13  C   UNL A   1      31.562  27.303  22.220  1.00  0.00     0.314 C 
ATOM     14  H   UNL A   1      33.172  26.570  23.008  1.00  0.00     0.165 HD
ATOM     15  O   UNL A   1      31.474  26.320  21.483  1.00  0.00    -0.249 OA
ATOM     16  N   UNL A   1      30.580  28.203  22.146  1.00  0.00    -0.336 N 
ATOM     17  H   UNL A   1      29.888  27.944  21.496  1.00  0.00     0.165 HD
BRANCH  16  18
ATOM     18  C   UNL A   1      30.279  29.469  22.788  1.00  0.00     0.142 C 
BRANCH  18  19
ATOM     19  C   UNL A   1      29.128  30.245  22.105  1.00  0.00     0.101 C 
ATOM     20  C   UNL A   1      27.810  30.190  22.877  1.00  0.00     0.036 C 
ATOM     21  N   UNL A   1      29.358  31.657  21.955  1.00  0.00    -0.352 N 
ATOM     22  C   UNL A   1      27.716  31.531  23.603  1.00  0.00     0.102 C 
ATOM     23  C   UNL A   1      28.576  32.437  22.770  1.00  0.00     0.220 C 
ATOM     24  H   UNL A   1      30.016  32.031  21.324  1.00  0.00     0.163 HD
ATOM     25  O   UNL A   1      28.604  33.656  22.831  1.00  0.00    -0.275 OA
ENDBRANCH  18  19
ENDBRANCH  16  18
ENDBRANCH  11  12
ENDBRANCH   6  11
ENDBRANCH   4   6
ENDBRANCH   3   4
ENDBRANCH   2   3
ENDBRANCH   1   2
BRANCH   1  26
ATOM     26  O   UNL A   1      31.818  33.428  27.121  1.00  0.00    -0.374 OA
BRANCH  26  27
ATOM     27  C   UNL A   1      33.112  33.406  27.718  1.00  0.00     0.202 C 
BRANCH  27  28
ATOM     28  C   UNL A   1      33.455  34.495  28.741  1.00  0.00     0.261 C 
BRANCH  28  29
ATOM     29  O   UNL A   1      34.797  34.383  29.242  1.00  0.00    -0.460 OA
BRANCH  29  30
ATOM     30  C   UNL A   1      34.928  33.498  30.261  1.00  0.00     0.338 C 
ATOM     31  O   UNL A   1      34.069  33.178  31.066  1.00  0.00    -0.246 OA
BRANCH  30  32
ATOM     32  C   UNL A   1      36.210  32.777  30.164  1.00  0.00     0.060 A 
ATOM     33  C   UNL A   1      36.328  31.599  30.913  1.00  0.00     0.016 A 
ATOM     34  C   UNL A   1      37.304  33.287  29.462  1.00  0.00     0.016 A 
ATOM     35  C   UNL A   1      37.562  30.971  31.035  1.00  0.00     0.010 A 
ATOM     36  C   UNL A   1      38.545  32.654  29.588  1.00  0.00     0.010 A 
ATOM     37  C   UNL A   1      38.690  31.527  30.421  1.00  0.00    -0.014 A 
BRANCH  37  38
ATOM     38  C   UNL A   1      40.032  31.021  30.800  1.00  0.00     0.031 A 
ATOM     39  C   UNL A   1      40.681  29.960  29.950  1.00  0.00     0.074 A 
ATOM     40  C   UNL A   1      40.689  31.537  31.853  1.00  0.00     0.049 A 
ATOM     41  N   UNL A   1      41.848  29.386  30.090  1.00  0.00    -0.248 NA
ATOM     42  C   UNL A   1      39.912  29.481  28.789  1.00  0.00     0.031 C 
ATOM     43  C   UNL A   1      40.176  32.583  32.737  1.00  0.00     0.029 A 
ATOM     44  N   UNL A   1      41.926  31.239  32.366  1.00  0.00    -0.354 N 
ATOM     45  C   UNL A   1      41.941  28.458  29.059  1.00  0.00     0.074 A 
ATOM     46  C   UNL A   1      40.707  28.536  28.308  1.00  0.00     0.031 C 
ATOM     47  C   UNL A   1      41.082  32.824  33.699  1.00  0.00     0.029 A 
ATOM     48  C   UNL A   1      42.224  31.930  33.517  1.00  0.00     0.049 A 
ATOM     49  H   UNL A   1      42.541  30.592  31.950  1.00  0.00     0.167 HD
ATOM     50  C   UNL A   1      42.964  27.624  28.757  1.00  0.00     0.034 A 
ATOM     51  C   UNL A   1      43.284  31.831  34.342  1.00  0.00     0.034 A 
ATOM     52  C   UNL A   1      44.196  27.561  29.496  1.00  0.00     0.049 A 
ATOM     53  C   UNL A   1      44.394  30.871  34.003  1.00  0.00     0.074 A 
ATOM     54  C   UNL A   1      45.312  26.782  29.242  1.00  0.00     0.029 A 
ATOM     55  N   UNL A   1      44.471  28.290  30.642  1.00  0.00    -0.354 N 
ATOM     56  N   UNL A   1      44.513  30.077  32.966  1.00  0.00    -0.248 NA
ATOM     57  C   UNL A   1      45.535  30.820  34.930  1.00  0.00     0.031 C 
ATOM     58  C   UNL A   1      46.244  27.010  30.260  1.00  0.00     0.029 A 
ATOM     59  C   UNL A   1      45.730  27.968  31.119  1.00  0.00     0.049 A 
ATOM     60  H   UNL A   1      43.860  28.943  31.057  1.00  0.00     0.167 HD
ATOM     61  C   UNL A   1      45.755  29.463  33.094  1.00  0.00     0.074 A 
ATOM     62  C   UNL A   1      46.358  29.993  34.300  1.00  0.00     0.031 C 
ATOM     63  C   UNL A   1      46.340  28.537  32.293  1.00  0.00     0.034 A 
BRANCH  50  64
ATOM     64  C   UNL A   1      42.798  26.711  27.569  1.00  0.00     0.023 A 
ATOM     65  C   UNL A   1      43.109  27.175  26.274  1.00  0.00     0.012 A 
ATOM     66  C   UNL A   1      42.392  25.373  27.743  1.00  0.00     0.148 A 
ATOM     67  C   UNL A   1      42.983  26.333  25.168  1.00  0.00     0.002 A 
ATOM     68  C   UNL A   1      42.316  24.526  26.643  1.00  0.00     0.091 A 
ATOM     69  F   UNL A   1      42.083  24.955  28.978  1.00  0.00    -0.205 F 
ATOM     70  C   UNL A   1      42.599  25.008  25.354  1.00  0.00     0.022 A 
BRANCH  68  71
ATOM     71  S   UNL A   1      41.913  22.782  26.788  1.00  0.00     0.127 S 
ATOM     72  O   UNL A   1      42.873  22.341  27.799  1.00  0.00    -0.237 OA
ATOM     73  O   UNL A   1      40.523  22.825  27.242  1.00  0.00    -0.237 OA
ATOM     74  O   UNL A   1      42.102  22.212  25.461  1.00  0.00    -0.744 OA
ENDBRANCH  68  71
ENDBRANCH  50  64
BRANCH  51  75
ATOM     75  C   UNL A   1      43.358  32.680  35.565  1.00  0.00     0.023 A 
ATOM     76  C   UNL A   1      44.027  33.919  35.517  1.00  0.00     0.012 A 
ATOM     77  C   UNL A   1      42.761  32.268  36.772  1.00  0.00     0.148 A 
ATOM     78  C   UNL A   1      44.130  34.714  36.658  1.00  0.00     0.002 A 
ATOM     79  C   UNL A   1      42.816  33.092  37.889  1.00  0.00     0.091 A 
ATOM     80  F   UNL A   1      42.141  31.080  36.800  1.00  0.00    -0.205 F 
ATOM     81  C   UNL A   1      43.518  34.307  37.840  1.00  0.00     0.022 A 
BRANCH  79  82
ATOM     82  S   UNL A   1      41.950  32.710  39.414  1.00  0.00     0.127 S 
ATOM     83  O   UNL A   1      40.575  32.556  38.948  1.00  0.00    -0.237 OA
ATOM     84  O   UNL A   1      42.604  31.467  39.826  1.00  0.00    -0.237 OA
ATOM     85  O   UNL A   1      42.194  33.840  40.300  1.00  0.00    -0.744 OA
ENDBRANCH  79  82
ENDBRANCH  51  75
BRANCH  63  86
ATOM     86  C   UNL A   1      47.727  28.071  32.657  1.00  0.00     0.023 A 
ATOM     87  C   UNL A   1      48.853  28.825  32.268  1.00  0.00     0.012 A 
ATOM     88  C   UNL A   1      47.909  26.916  33.443  1.00  0.00     0.148 A 
ATOM     89  C   UNL A   1      50.138  28.411  32.620  1.00  0.00     0.002 A 
ATOM     90  C   UNL A   1      49.188  26.541  33.837  1.00  0.00     0.091 A 
ATOM     91  F   UNL A   1      46.827  26.203  33.792  1.00  0.00    -0.205 F 
ATOM     92  C   UNL A   1      50.305  27.279  33.413  1.00  0.00     0.022 A 
BRANCH  90  93
ATOM     93  S   UNL A   1      49.491  25.156  34.940  1.00  0.00     0.127 S 
ATOM     94  O   UNL A   1      48.953  24.038  34.167  1.00  0.00    -0.237 OA
ATOM     95  O   UNL A   1      50.949  25.169  35.059  1.00  0.00    -0.237 OA
ATOM     96  O   UNL A   1      48.780  25.459  36.174  1.00  0.00    -0.744 OA
ENDBRANCH  90  93
ENDBRANCH  63  86
ENDBRANCH  37  38
ENDBRANCH  30  32
ENDBRANCH  29  30
ENDBRANCH  28  29
ENDBRANCH  27  28
ENDBRANCH  26  27
ENDBRANCH   1  26
TORSDOF 23
ENDMDL
