MODEL 1
REMARK VINA RESULT:     -10.9      0.000      0.000
REMARK SMILES Cc1nn(C(C)C)cc1-c1cnccc1C(=O)OCCOCCOC(=O)c1ccc(-c2c3nc(c(-c4cccc(S(=O)(=O)[O-])c4F)c4ccc([nH]4)c(-c4cccc(S(=O)(=O)[O-])c4F)c4nc(c(-c5cccc(S(=O)(=O)[O-])c5F)c5ccc2[nH]5)C=C4)C=C3)cc1
REMARK SMILES IDX 22 1 21 2 20 3 19 4 18 5 16 6 17 7 15 8 10 9 11 10 12 11
REMARK SMILES IDX 14 12 13 13 9 14 1 15 2 16 3 17 4 18 8 19 5 20 6 21 7 22
REMARK SMILES IDX 23 23 24 24 25 25 26 26 27 27 28 28 89 29 29 30 88 31 30 32
REMARK SMILES IDX 31 33 32 34 82 35 33 36 87 37 81 38 83 39 34 40 86 41 80 42
REMARK SMILES IDX 79 43 35 45 67 46 47 47 66 48 48 49 51 50 65 51 84 52 49 53
REMARK SMILES IDX 50 54 64 56 85 57 52 58 36 59 37 60 45 61 38 62 40 63 46 64
REMARK SMILES IDX 39 65 41 66 42 67 43 68 44 69 68 70 69 71 77 72 70 73 72 74
REMARK SMILES IDX 78 75 71 76 73 77 74 78 75 79 76 80 53 81 54 82 62 83 55 84
REMARK SMILES IDX 57 85 63 86 56 87 58 88 59 89 60 90 61 91
REMARK H PARENT 83 44 51 55
REMARK Flexibility Score: inf
ROOT
ATOM      1  C   UNL A   1      37.433  20.979  24.966  1.00  0.00     0.202 C 
ENDROOT
BRANCH   1   2
ATOM      2  O   UNL A   1      36.303  21.493  25.665  1.00  0.00    -0.374 OA
BRANCH   2   3
ATOM      3  C   UNL A   1      36.327  22.839  26.142  1.00  0.00     0.202 C 
BRANCH   3   4
ATOM      4  C   UNL A   1      36.412  23.952  25.102  1.00  0.00     0.261 C 
BRANCH   4   5
ATOM      5  O   UNL A   1      35.109  24.396  24.695  1.00  0.00    -0.460 OA
BRANCH   5   6
ATOM      6  C   UNL A   1      34.664  23.906  23.516  1.00  0.00     0.338 C 
ATOM      7  O   UNL A   1      35.312  23.259  22.708  1.00  0.00    -0.246 OA
BRANCH   6   8
ATOM      8  C   UNL A   1      33.203  24.090  23.369  1.00  0.00     0.071 A 
ATOM      9  C   UNL A   1      32.230  23.168  23.776  1.00  0.00     0.018 A 
ATOM     10  C   UNL A   1      30.904  23.572  23.632  1.00  0.00     0.120 A 
ATOM     11  N   UNL A   1      30.507  24.752  23.091  1.00  0.00    -0.264 NA
ATOM     12  C   UNL A   1      32.817  25.306  22.786  1.00  0.00     0.036 A 
ATOM     13  C   UNL A   1      31.472  25.581  22.655  1.00  0.00     0.112 A 
BRANCH   9  14
ATOM     14  C   UNL A   1      32.512  21.831  24.259  1.00  0.00     0.025 A 
ATOM     15  C   UNL A   1      32.848  22.163  26.840  1.00  0.00     0.069 C 
ATOM     16  C   UNL A   1      32.753  21.370  25.584  1.00  0.00     0.067 A 
ATOM     17  N   UNL A   1      32.862  20.038  25.625  1.00  0.00    -0.177 NA
ATOM     18  N   UNL A   1      32.698  19.649  24.350  1.00  0.00    -0.269 N 
ATOM     19  C   UNL A   1      32.561  20.694  23.481  1.00  0.00     0.118 A 
BRANCH  18  20
ATOM     20  C   UNL A   1      32.664  18.230  24.011  1.00  0.00     0.101 C 
ATOM     21  C   UNL A   1      32.397  18.027  22.523  1.00  0.00     0.033 C 
ATOM     22  C   UNL A   1      33.934  17.504  24.461  1.00  0.00     0.033 C 
ENDBRANCH  18  20
ENDBRANCH   9  14
ENDBRANCH   6   8
ENDBRANCH   5   6
ENDBRANCH   4   5
ENDBRANCH   3   4
ENDBRANCH   2   3
ENDBRANCH   1   2
BRANCH   1  23
ATOM     23  C   UNL A   1      38.821  21.344  25.469  1.00  0.00     0.261 C 
BRANCH  23  24
ATOM     24  O   UNL A   1      39.352  20.362  26.342  1.00  0.00    -0.460 OA
BRANCH  24  25
ATOM     25  C   UNL A   1      40.622  20.000  26.059  1.00  0.00     0.338 C 
ATOM     26  O   UNL A   1      40.990  18.975  25.490  1.00  0.00    -0.246 OA
BRANCH  25  27
ATOM     27  C   UNL A   1      41.529  20.942  26.709  1.00  0.00     0.060 A 
ATOM     28  C   UNL A   1      41.511  20.962  28.104  1.00  0.00     0.016 A 
ATOM     29  C   UNL A   1      42.052  21.997  25.951  1.00  0.00     0.016 A 
ATOM     30  C   UNL A   1      41.773  22.157  28.727  1.00  0.00     0.010 A 
ATOM     31  C   UNL A   1      42.286  23.195  26.567  1.00  0.00     0.010 A 
ATOM     32  C   UNL A   1      42.047  23.276  27.932  1.00  0.00    -0.014 A 
BRANCH  32  33
ATOM     33  C   UNL A   1      42.209  24.548  28.587  1.00  0.00     0.031 A 
ATOM     34  C   UNL A   1      41.074  25.445  28.298  1.00  0.00     0.074 A 
ATOM     35  C   UNL A   1      43.232  24.795  29.424  1.00  0.00     0.049 A 
ATOM     36  N   UNL A   1      41.082  26.480  27.529  1.00  0.00    -0.248 NA
ATOM     37  C   UNL A   1      39.730  25.003  28.703  1.00  0.00     0.031 C 
ATOM     38  C   UNL A   1      44.215  23.848  29.959  1.00  0.00     0.029 A 
ATOM     39  N   UNL A   1      43.517  25.940  30.096  1.00  0.00    -0.354 N 
ATOM     40  C   UNL A   1      39.784  26.972  27.587  1.00  0.00     0.074 A 
ATOM     41  C   UNL A   1      38.966  25.897  28.075  1.00  0.00     0.031 C 
ATOM     42  C   UNL A   1      44.796  24.391  31.055  1.00  0.00     0.029 A 
ATOM     43  C   UNL A   1      44.311  25.751  31.220  1.00  0.00     0.049 A 
ATOM     44  H   UNL A   1      43.190  26.824  29.812  1.00  0.00     0.167 HD
ATOM     45  C   UNL A   1      39.554  28.311  27.553  1.00  0.00     0.034 A 
ATOM     46  C   UNL A   1      44.453  26.621  32.255  1.00  0.00     0.034 A 
ATOM     47  C   UNL A   1      40.709  29.022  27.058  1.00  0.00     0.049 A 
ATOM     48  C   UNL A   1      44.008  27.953  31.771  1.00  0.00     0.074 A 
ATOM     49  C   UNL A   1      41.459  28.969  25.899  1.00  0.00     0.029 A 
ATOM     50  N   UNL A   1      41.492  29.656  27.992  1.00  0.00    -0.354 N 
ATOM     51  N   UNL A   1      44.645  28.630  30.858  1.00  0.00    -0.248 NA
ATOM     52  C   UNL A   1      42.607  28.306  31.949  1.00  0.00     0.031 C 
ATOM     53  C   UNL A   1      42.807  29.148  26.326  1.00  0.00     0.029 A 
ATOM     54  C   UNL A   1      42.802  29.381  27.703  1.00  0.00     0.049 A 
ATOM     55  H   UNL A   1      41.169  30.211  28.739  1.00  0.00     0.167 HD
ATOM     56  C   UNL A   1      43.639  29.129  30.038  1.00  0.00     0.074 A 
ATOM     57  C   UNL A   1      42.408  28.989  30.817  1.00  0.00     0.031 C 
ATOM     58  C   UNL A   1      43.847  29.311  28.700  1.00  0.00     0.034 A 
BRANCH  45  59
ATOM     59  C   UNL A   1      38.480  29.007  28.356  1.00  0.00     0.023 A 
ATOM     60  C   UNL A   1      37.660  29.918  27.656  1.00  0.00     0.012 A 
ATOM     61  C   UNL A   1      38.412  29.041  29.769  1.00  0.00     0.148 A 
ATOM     62  C   UNL A   1      36.875  30.860  28.327  1.00  0.00     0.002 A 
ATOM     63  C   UNL A   1      37.571  29.925  30.431  1.00  0.00     0.091 A 
ATOM     64  F   UNL A   1      39.256  28.319  30.508  1.00  0.00    -0.205 F 
ATOM     65  C   UNL A   1      36.826  30.862  29.715  1.00  0.00     0.022 A 
BRANCH  63  66
ATOM     66  S   UNL A   1      37.443  29.941  32.225  1.00  0.00     0.127 S 
ATOM     67  O   UNL A   1      38.721  30.537  32.602  1.00  0.00    -0.237 OA
ATOM     68  O   UNL A   1      36.272  30.794  32.430  1.00  0.00    -0.237 OA
ATOM     69  O   UNL A   1      37.245  28.552  32.620  1.00  0.00    -0.744 OA
ENDBRANCH  63  66
ENDBRANCH  45  59
BRANCH  46  70
ATOM     70  C   UNL A   1      44.648  26.338  33.698  1.00  0.00     0.023 A 
ATOM     71  C   UNL A   1      45.939  26.405  34.259  1.00  0.00     0.012 A 
ATOM     72  C   UNL A   1      43.547  26.270  34.582  1.00  0.00     0.148 A 
ATOM     73  C   UNL A   1      46.126  26.429  35.648  1.00  0.00     0.002 A 
ATOM     74  C   UNL A   1      43.737  26.282  35.961  1.00  0.00     0.091 A 
ATOM     75  F   UNL A   1      42.309  26.293  34.075  1.00  0.00    -0.205 F 
ATOM     76  C   UNL A   1      45.025  26.373  36.499  1.00  0.00     0.022 A 
BRANCH  74  77
ATOM     77  S   UNL A   1      42.357  26.236  37.113  1.00  0.00     0.127 S 
ATOM     78  O   UNL A   1      43.034  26.369  38.403  1.00  0.00    -0.237 OA
ATOM     79  O   UNL A   1      41.582  27.404  36.705  1.00  0.00    -0.237 OA
ATOM     80  O   UNL A   1      41.710  24.946  36.909  1.00  0.00    -0.744 OA
ENDBRANCH  74  77
ENDBRANCH  46  70
BRANCH  58  81
ATOM     81  C   UNL A   1      45.257  29.193  28.176  1.00  0.00     0.023 A 
ATOM     82  C   UNL A   1      46.193  30.245  28.265  1.00  0.00     0.012 A 
ATOM     83  C   UNL A   1      45.696  27.929  27.754  1.00  0.00     0.148 A 
ATOM     84  C   UNL A   1      47.533  30.043  27.919  1.00  0.00     0.002 A 
ATOM     85  C   UNL A   1      47.037  27.719  27.458  1.00  0.00     0.091 A 
ATOM     86  F   UNL A   1      44.794  26.938  27.679  1.00  0.00    -0.205 F 
ATOM     87  C   UNL A   1      47.958  28.775  27.530  1.00  0.00     0.022 A 
BRANCH  85  88
ATOM     88  S   UNL A   1      47.662  26.081  27.080  1.00  0.00     0.127 S 
ATOM     89  O   UNL A   1      46.990  25.783  25.816  1.00  0.00    -0.237 OA
ATOM     90  O   UNL A   1      49.104  26.312  26.968  1.00  0.00    -0.237 OA
ATOM     91  O   UNL A   1      47.283  25.238  28.207  1.00  0.00    -0.744 OA
ENDBRANCH  85  88
ENDBRANCH  58  81
ENDBRANCH  32  33
ENDBRANCH  25  27
ENDBRANCH  24  25
ENDBRANCH  23  24
ENDBRANCH   1  23
TORSDOF 19
ENDMDL
MODEL 2
REMARK VINA RESULT:     -10.7      4.035      9.000
REMARK SMILES Cc1nn(C(C)C)cc1-c1cnccc1C(=O)OCCOCCOC(=O)c1ccc(-c2c3nc(c(-c4cccc(S(=O)(=O)[O-])c4F)c4ccc([nH]4)c(-c4cccc(S(=O)(=O)[O-])c4F)c4nc(c(-c5cccc(S(=O)(=O)[O-])c5F)c5ccc2[nH]5)C=C4)C=C3)cc1
REMARK SMILES IDX 22 1 21 2 20 3 19 4 18 5 16 6 17 7 15 8 10 9 11 10 12 11
REMARK SMILES IDX 14 12 13 13 9 14 1 15 2 16 3 17 4 18 8 19 5 20 6 21 7 22
REMARK SMILES IDX 23 23 24 24 25 25 26 26 27 27 28 28 89 29 29 30 88 31 30 32
REMARK SMILES IDX 31 33 32 34 82 35 33 36 87 37 81 38 83 39 34 40 86 41 80 42
REMARK SMILES IDX 79 43 35 45 67 46 47 47 66 48 48 49 51 50 65 51 84 52 49 53
REMARK SMILES IDX 50 54 64 56 85 57 52 58 36 59 37 60 45 61 38 62 40 63 46 64
REMARK SMILES IDX 39 65 41 66 42 67 43 68 44 69 68 70 69 71 77 72 70 73 72 74
REMARK SMILES IDX 78 75 71 76 73 77 74 78 75 79 76 80 53 81 54 82 62 83 55 84
REMARK SMILES IDX 57 85 63 86 56 87 58 88 59 89 60 90 61 91
REMARK H PARENT 83 44 51 55
REMARK Flexibility Score: inf
ROOT
ATOM      1  C   UNL A   1      31.845  30.301  26.198  1.00  0.00     0.202 C 
ENDROOT
BRANCH   1   2
ATOM      2  O   UNL A   1      32.778  29.982  25.169  1.00  0.00    -0.374 OA
BRANCH   2   3
ATOM      3  C   UNL A   1      33.631  28.847  25.324  1.00  0.00     0.202 C 
BRANCH   3   4
ATOM      4  C   UNL A   1      34.267  28.270  24.063  1.00  0.00     0.261 C 
BRANCH   4   5
ATOM      5  O   UNL A   1      33.363  28.310  22.949  1.00  0.00    -0.460 OA
BRANCH   5   6
ATOM      6  C   UNL A   1      33.044  27.112  22.409  1.00  0.00     0.338 C 
ATOM      7  O   UNL A   1      33.583  26.581  21.450  1.00  0.00    -0.246 OA
BRANCH   6   8
ATOM      8  C   UNL A   1      32.046  26.394  23.233  1.00  0.00     0.071 A 
ATOM      9  C   UNL A   1      32.280  25.195  23.918  1.00  0.00     0.018 A 
ATOM     10  C   UNL A   1      31.235  24.730  24.714  1.00  0.00     0.120 A 
ATOM     11  N   UNL A   1      30.021  25.326  24.826  1.00  0.00    -0.264 NA
ATOM     12  C   UNL A   1      30.792  27.016  23.315  1.00  0.00     0.036 A 
ATOM     13  C   UNL A   1      29.817  26.440  24.103  1.00  0.00     0.112 A 
BRANCH   9  14
ATOM     14  C   UNL A   1      33.483  24.396  23.795  1.00  0.00     0.025 A 
ATOM     15  C   UNL A   1      33.118  23.063  21.564  1.00  0.00     0.069 C 
ATOM     16  C   UNL A   1      33.879  23.491  22.769  1.00  0.00     0.067 A 
ATOM     17  N   UNL A   1      35.120  23.037  22.972  1.00  0.00    -0.177 NA
ATOM     18  N   UNL A   1      35.515  23.635  24.107  1.00  0.00    -0.269 N 
ATOM     19  C   UNL A   1      34.540  24.403  24.680  1.00  0.00     0.118 A 
BRANCH  18  20
ATOM     20  C   UNL A   1      36.874  23.449  24.604  1.00  0.00     0.101 C 
ATOM     21  C   UNL A   1      37.027  24.016  26.013  1.00  0.00     0.033 C 
ATOM     22  C   UNL A   1      37.311  21.984  24.536  1.00  0.00     0.033 C 
ENDBRANCH  18  20
ENDBRANCH   9  14
ENDBRANCH   6   8
ENDBRANCH   5   6
ENDBRANCH   4   5
ENDBRANCH   3   4
ENDBRANCH   2   3
ENDBRANCH   1   2
BRANCH   1  23
ATOM     23  C   UNL A   1      31.810  31.727  26.727  1.00  0.00     0.261 C 
BRANCH  23  24
ATOM     24  O   UNL A   1      32.822  31.969  27.688  1.00  0.00    -0.460 OA
BRANCH  24  25
ATOM     25  C   UNL A   1      32.946  33.264  28.046  1.00  0.00     0.338 C 
ATOM     26  O   UNL A   1      32.185  34.187  27.762  1.00  0.00    -0.246 OA
BRANCH  25  27
ATOM     27  C   UNL A   1      34.247  33.449  28.682  1.00  0.00     0.060 A 
ATOM     28  C   UNL A   1      35.278  33.913  27.866  1.00  0.00     0.016 A 
ATOM     29  C   UNL A   1      34.489  32.811  29.906  1.00  0.00     0.016 A 
ATOM     30  C   UNL A   1      36.555  33.498  28.154  1.00  0.00     0.010 A 
ATOM     31  C   UNL A   1      35.755  32.373  30.179  1.00  0.00     0.010 A 
ATOM     32  C   UNL A   1      36.746  32.643  29.245  1.00  0.00    -0.014 A 
BRANCH  32  33
ATOM     33  C   UNL A   1      38.069  32.122  29.474  1.00  0.00     0.031 A 
ATOM     34  C   UNL A   1      38.169  30.715  29.042  1.00  0.00     0.074 A 
ATOM     35  C   UNL A   1      39.072  32.893  29.930  1.00  0.00     0.049 A 
ATOM     36  N   UNL A   1      38.244  29.675  29.802  1.00  0.00    -0.248 NA
ATOM     37  C   UNL A   1      37.904  30.410  27.626  1.00  0.00     0.031 C 
ATOM     38  C   UNL A   1      39.091  34.349  30.098  1.00  0.00     0.029 A 
ATOM     39  N   UNL A   1      40.354  32.539  30.201  1.00  0.00    -0.354 N 
ATOM     40  C   UNL A   1      38.316  28.601  28.924  1.00  0.00     0.074 A 
ATOM     41  C   UNL A   1      37.829  29.080  27.660  1.00  0.00     0.031 C 
ATOM     42  C   UNL A   1      40.377  34.765  30.176  1.00  0.00     0.029 A 
ATOM     43  C   UNL A   1      41.249  33.602  30.179  1.00  0.00     0.049 A 
ATOM     44  H   UNL A   1      40.625  31.613  30.396  1.00  0.00     0.167 HD
ATOM     45  C   UNL A   1      39.079  27.518  29.223  1.00  0.00     0.034 A 
ATOM     46  C   UNL A   1      42.599  33.507  30.056  1.00  0.00     0.034 A 
ATOM     47  C   UNL A   1      39.404  27.486  30.629  1.00  0.00     0.049 A 
ATOM     48  C   UNL A   1      42.976  32.117  30.417  1.00  0.00     0.074 A 
ATOM     49  C   UNL A   1      38.666  27.476  31.797  1.00  0.00     0.029 A 
ATOM     50  N   UNL A   1      40.671  27.888  30.980  1.00  0.00    -0.354 N 
ATOM     51  N   UNL A   1      42.855  31.633  31.620  1.00  0.00    -0.248 NA
ATOM     52  C   UNL A   1      43.027  31.129  29.348  1.00  0.00     0.031 C 
ATOM     53  C   UNL A   1      39.390  28.312  32.695  1.00  0.00     0.029 A 
ATOM     54  C   UNL A   1      40.565  28.721  32.061  1.00  0.00     0.049 A 
ATOM     55  H   UNL A   1      41.508  27.624  30.533  1.00  0.00     0.167 HD
ATOM     56  C   UNL A   1      42.336  30.358  31.427  1.00  0.00     0.074 A 
ATOM     57  C   UNL A   1      42.565  30.064  30.012  1.00  0.00     0.031 C 
ATOM     58  C   UNL A   1      41.494  29.793  32.342  1.00  0.00     0.034 A 
BRANCH  45  59
ATOM     59  C   UNL A   1      39.884  26.742  28.206  1.00  0.00     0.023 A 
ATOM     60  C   UNL A   1      39.788  25.334  28.267  1.00  0.00     0.012 A 
ATOM     61  C   UNL A   1      40.921  27.278  27.406  1.00  0.00     0.148 A 
ATOM     62  C   UNL A   1      40.719  24.510  27.628  1.00  0.00     0.002 A 
ATOM     63  C   UNL A   1      41.796  26.455  26.710  1.00  0.00     0.091 A 
ATOM     64  F   UNL A   1      41.173  28.588  27.409  1.00  0.00    -0.205 F 
ATOM     65  C   UNL A   1      41.722  25.069  26.847  1.00  0.00     0.022 A 
BRANCH  63  66
ATOM     66  S   UNL A   1      43.085  27.129  25.654  1.00  0.00     0.127 S 
ATOM     67  O   UNL A   1      43.669  25.913  25.095  1.00  0.00    -0.237 OA
ATOM     68  O   UNL A   1      42.306  27.935  24.714  1.00  0.00    -0.237 OA
ATOM     69  O   UNL A   1      43.950  27.907  26.532  1.00  0.00    -0.744 OA
ENDBRANCH  63  66
ENDBRANCH  45  59
BRANCH  46  70
ATOM     70  C   UNL A   1      43.544  34.420  29.368  1.00  0.00     0.023 A 
ATOM     71  C   UNL A   1      44.229  35.409  30.103  1.00  0.00     0.012 A 
ATOM     72  C   UNL A   1      43.983  34.155  28.050  1.00  0.00     0.148 A 
ATOM     73  C   UNL A   1      45.325  36.090  29.557  1.00  0.00     0.002 A 
ATOM     74  C   UNL A   1      45.065  34.842  27.507  1.00  0.00     0.091 A 
ATOM     75  F   UNL A   1      43.405  33.162  27.364  1.00  0.00    -0.205 F 
ATOM     76  C   UNL A   1      45.748  35.803  28.261  1.00  0.00     0.022 A 
BRANCH  74  77
ATOM     77  S   UNL A   1      45.674  34.501  25.849  1.00  0.00     0.127 S 
ATOM     78  O   UNL A   1      44.454  34.612  25.050  1.00  0.00    -0.237 OA
ATOM     79  O   UNL A   1      46.636  35.582  25.652  1.00  0.00    -0.237 OA
ATOM     80  O   UNL A   1      46.236  33.157  25.899  1.00  0.00    -0.744 OA
ENDBRANCH  74  77
ENDBRANCH  46  70
BRANCH  58  81
ATOM     81  C   UNL A   1      41.333  30.477  33.678  1.00  0.00     0.023 A 
ATOM     82  C   UNL A   1      42.259  30.318  34.731  1.00  0.00     0.012 A 
ATOM     83  C   UNL A   1      40.324  31.444  33.803  1.00  0.00     0.148 A 
ATOM     84  C   UNL A   1      42.164  31.095  35.891  1.00  0.00     0.002 A 
ATOM     85  C   UNL A   1      40.262  32.247  34.934  1.00  0.00     0.091 A 
ATOM     86  F   UNL A   1      39.454  31.585  32.790  1.00  0.00    -0.205 F 
ATOM     87  C   UNL A   1      41.175  32.070  35.986  1.00  0.00     0.022 A 
BRANCH  85  88
ATOM     88  S   UNL A   1      39.094  33.602  35.053  1.00  0.00     0.127 S 
ATOM     89  O   UNL A   1      39.487  34.233  36.312  1.00  0.00    -0.237 OA
ATOM     90  O   UNL A   1      39.396  34.385  33.854  1.00  0.00    -0.237 OA
ATOM     91  O   UNL A   1      37.770  32.991  35.044  1.00  0.00    -0.744 OA
ENDBRANCH  85  88
ENDBRANCH  58  81
ENDBRANCH  32  33
ENDBRANCH  25  27
ENDBRANCH  24  25
ENDBRANCH  23  24
ENDBRANCH   1  23
TORSDOF 19
ENDMDL
MODEL 3
REMARK VINA RESULT:     -10.7      4.181      9.345
REMARK SMILES Cc1nn(C(C)C)cc1-c1cnccc1C(=O)OCCOCCOC(=O)c1ccc(-c2c3nc(c(-c4cccc(S(=O)(=O)[O-])c4F)c4ccc([nH]4)c(-c4cccc(S(=O)(=O)[O-])c4F)c4nc(c(-c5cccc(S(=O)(=O)[O-])c5F)c5ccc2[nH]5)C=C4)C=C3)cc1
REMARK SMILES IDX 22 1 21 2 20 3 19 4 18 5 16 6 17 7 15 8 10 9 11 10 12 11
REMARK SMILES IDX 14 12 13 13 9 14 1 15 2 16 3 17 4 18 8 19 5 20 6 21 7 22
REMARK SMILES IDX 23 23 24 24 25 25 26 26 27 27 28 28 89 29 29 30 88 31 30 32
REMARK SMILES IDX 31 33 32 34 82 35 33 36 87 37 81 38 83 39 34 40 86 41 80 42
REMARK SMILES IDX 79 43 35 45 67 46 47 47 66 48 48 49 51 50 65 51 84 52 49 53
REMARK SMILES IDX 50 54 64 56 85 57 52 58 36 59 37 60 45 61 38 62 40 63 46 64
REMARK SMILES IDX 39 65 41 66 42 67 43 68 44 69 68 70 69 71 77 72 70 73 72 74
REMARK SMILES IDX 78 75 71 76 73 77 74 78 75 79 76 80 53 81 54 82 62 83 55 84
REMARK SMILES IDX 57 85 63 86 56 87 58 88 59 89 60 90 61 91
REMARK H PARENT 83 44 51 55
REMARK Flexibility Score: inf
ROOT
ATOM      1  C   UNL A   1      31.538  30.598  26.412  1.00  0.00     0.202 C 
ENDROOT
BRANCH   1   2
ATOM      2  O   UNL A   1      32.412  29.638  26.998  1.00  0.00    -0.374 OA
BRANCH   2   3
ATOM      3  C   UNL A   1      33.696  29.411  26.414  1.00  0.00     0.202 C 
BRANCH   3   4
ATOM      4  C   UNL A   1      33.780  28.399  25.275  1.00  0.00     0.261 C 
BRANCH   4   5
ATOM      5  O   UNL A   1      34.114  27.089  25.756  1.00  0.00    -0.460 OA
BRANCH   5   6
ATOM      6  C   UNL A   1      33.727  26.059  24.969  1.00  0.00     0.338 C 
ATOM      7  O   UNL A   1      34.350  25.590  24.028  1.00  0.00    -0.246 OA
BRANCH   6   8
ATOM      8  C   UNL A   1      32.499  25.414  25.484  1.00  0.00     0.071 A 
ATOM      9  C   UNL A   1      31.204  25.647  25.004  1.00  0.00     0.018 A 
ATOM     10  C   UNL A   1      30.194  24.867  25.564  1.00  0.00     0.120 A 
ATOM     11  N   UNL A   1      30.375  23.955  26.553  1.00  0.00    -0.264 NA
ATOM     12  C   UNL A   1      32.708  24.493  26.522  1.00  0.00     0.036 A 
ATOM     13  C   UNL A   1      31.623  23.809  27.029  1.00  0.00     0.112 A 
BRANCH   9  14
ATOM     14  C   UNL A   1      30.855  26.669  24.038  1.00  0.00     0.025 A 
ATOM     15  C   UNL A   1      31.815  25.741  21.779  1.00  0.00     0.069 C 
ATOM     16  C   UNL A   1      31.083  26.715  22.633  1.00  0.00     0.067 A 
ATOM     17  N   UNL A   1      30.503  27.786  22.080  1.00  0.00    -0.177 NA
ATOM     18  N   UNL A   1      29.917  28.419  23.109  1.00  0.00    -0.269 N 
ATOM     19  C   UNL A   1      30.162  27.828  24.316  1.00  0.00     0.118 A 
BRANCH  18  20
ATOM     20  C   UNL A   1      29.098  29.603  22.875  1.00  0.00     0.101 C 
ATOM     21  C   UNL A   1      29.403  30.223  21.514  1.00  0.00     0.033 C 
ATOM     22  C   UNL A   1      27.605  29.308  23.038  1.00  0.00     0.033 C 
ENDBRANCH  18  20
ENDBRANCH   9  14
ENDBRANCH   6   8
ENDBRANCH   5   6
ENDBRANCH   4   5
ENDBRANCH   3   4
ENDBRANCH   2   3
ENDBRANCH   1   2
BRANCH   1  23
ATOM     23  C   UNL A   1      31.722  32.063  26.780  1.00  0.00     0.261 C 
BRANCH  23  24
ATOM     24  O   UNL A   1      32.935  32.295  27.474  1.00  0.00    -0.460 OA
BRANCH  24  25
ATOM     25  C   UNL A   1      33.006  33.502  28.075  1.00  0.00     0.338 C 
ATOM     26  O   UNL A   1      32.208  34.431  27.967  1.00  0.00    -0.246 OA
BRANCH  25  27
ATOM     27  C   UNL A   1      34.298  33.612  28.745  1.00  0.00     0.060 A 
ATOM     28  C   UNL A   1      35.352  34.119  27.985  1.00  0.00     0.016 A 
ATOM     29  C   UNL A   1      34.507  32.877  29.919  1.00  0.00     0.016 A 
ATOM     30  C   UNL A   1      36.616  33.659  28.261  1.00  0.00     0.010 A 
ATOM     31  C   UNL A   1      35.760  32.396  30.179  1.00  0.00     0.010 A 
ATOM     32  C   UNL A   1      36.772  32.719  29.286  1.00  0.00    -0.014 A 
BRANCH  32  33
ATOM     33  C   UNL A   1      38.081  32.157  29.495  1.00  0.00     0.031 A 
ATOM     34  C   UNL A   1      38.139  30.755  29.039  1.00  0.00     0.074 A 
ATOM     35  C   UNL A   1      39.110  32.892  29.955  1.00  0.00     0.049 A 
ATOM     36  N   UNL A   1      38.190  29.701  29.781  1.00  0.00    -0.248 NA
ATOM     37  C   UNL A   1      37.855  30.482  27.621  1.00  0.00     0.031 C 
ATOM     38  C   UNL A   1      39.171  34.344  30.147  1.00  0.00     0.029 A 
ATOM     39  N   UNL A   1      40.383  32.498  30.211  1.00  0.00    -0.354 N 
ATOM     40  C   UNL A   1      38.225  28.640  28.885  1.00  0.00     0.074 A 
ATOM     41  C   UNL A   1      37.743  29.153  27.633  1.00  0.00     0.031 C 
ATOM     42  C   UNL A   1      40.469  34.722  30.222  1.00  0.00     0.029 A 
ATOM     43  C   UNL A   1      41.307  33.535  30.199  1.00  0.00     0.049 A 
ATOM     44  H   UNL A   1      40.629  31.561  30.388  1.00  0.00     0.167 HD
ATOM     45  C   UNL A   1      38.960  27.531  29.160  1.00  0.00     0.034 A 
ATOM     46  C   UNL A   1      42.653  33.405  30.064  1.00  0.00     0.034 A 
ATOM     47  C   UNL A   1      39.295  27.467  30.563  1.00  0.00     0.049 A 
ATOM     48  C   UNL A   1      42.994  31.999  30.398  1.00  0.00     0.074 A 
ATOM     49  C   UNL A   1      38.566  27.458  31.736  1.00  0.00     0.029 A 
ATOM     50  N   UNL A   1      40.575  27.827  30.911  1.00  0.00    -0.354 N 
ATOM     51  N   UNL A   1      42.868  31.498  31.595  1.00  0.00    -0.248 NA
ATOM     52  C   UNL A   1      43.009  31.028  29.313  1.00  0.00     0.031 C 
ATOM     53  C   UNL A   1      39.319  28.259  32.643  1.00  0.00     0.029 A 
ATOM     54  C   UNL A   1      40.501  28.645  32.006  1.00  0.00     0.049 A 
ATOM     55  H   UNL A   1      41.400  27.548  30.452  1.00  0.00     0.167 HD
ATOM     56  C   UNL A   1      42.312  30.242  31.385  1.00  0.00     0.074 A 
ATOM     57  C   UNL A   1      42.522  29.966  29.963  1.00  0.00     0.031 C 
ATOM     58  C   UNL A   1      41.462  29.686  32.297  1.00  0.00     0.034 A 
BRANCH  45  59
ATOM     59  C   UNL A   1      39.735  26.750  28.124  1.00  0.00     0.023 A 
ATOM     60  C   UNL A   1      39.561  25.349  28.130  1.00  0.00     0.012 A 
ATOM     61  C   UNL A   1      40.812  27.257  27.358  1.00  0.00     0.148 A 
ATOM     62  C   UNL A   1      40.454  24.498  27.472  1.00  0.00     0.002 A 
ATOM     63  C   UNL A   1      41.649  26.413  26.642  1.00  0.00     0.091 A 
ATOM     64  F   UNL A   1      41.136  28.550  27.413  1.00  0.00    -0.205 F 
ATOM     65  C   UNL A   1      41.497  25.029  26.724  1.00  0.00     0.022 A 
BRANCH  63  66
ATOM     66  S   UNL A   1      42.989  27.053  25.628  1.00  0.00     0.127 S 
ATOM     67  O   UNL A   1      43.539  25.824  25.063  1.00  0.00    -0.237 OA
ATOM     68  O   UNL A   1      42.264  27.903  24.682  1.00  0.00    -0.237 OA
ATOM     69  O   UNL A   1      43.861  27.784  26.538  1.00  0.00    -0.744 OA
ENDBRANCH  63  66
ENDBRANCH  45  59
BRANCH  46  70
ATOM     70  C   UNL A   1      43.618  34.302  29.383  1.00  0.00     0.023 A 
ATOM     71  C   UNL A   1      44.304  35.288  30.122  1.00  0.00     0.012 A 
ATOM     72  C   UNL A   1      44.073  34.024  28.074  1.00  0.00     0.148 A 
ATOM     73  C   UNL A   1      45.416  35.953  29.586  1.00  0.00     0.002 A 
ATOM     74  C   UNL A   1      45.171  34.694  27.541  1.00  0.00     0.091 A 
ATOM     75  F   UNL A   1      43.493  33.033  27.385  1.00  0.00    -0.205 F 
ATOM     76  C   UNL A   1      45.853  35.653  28.299  1.00  0.00     0.022 A 
BRANCH  74  77
ATOM     77  S   UNL A   1      45.799  34.336  25.895  1.00  0.00     0.127 S 
ATOM     78  O   UNL A   1      46.974  35.204  25.823  1.00  0.00    -0.237 OA
ATOM     79  O   UNL A   1      46.096  32.910  25.987  1.00  0.00    -0.237 OA
ATOM     80  O   UNL A   1      44.731  34.700  24.972  1.00  0.00    -0.744 OA
ENDBRANCH  74  77
ENDBRANCH  46  70
BRANCH  58  81
ATOM     81  C   UNL A   1      41.330  30.352  33.645  1.00  0.00     0.023 A 
ATOM     82  C   UNL A   1      42.245  30.131  34.696  1.00  0.00     0.012 A 
ATOM     83  C   UNL A   1      40.366  31.362  33.787  1.00  0.00     0.148 A 
ATOM     84  C   UNL A   1      42.185  30.889  35.870  1.00  0.00     0.002 A 
ATOM     85  C   UNL A   1      40.340  32.145  34.933  1.00  0.00     0.091 A 
ATOM     86  F   UNL A   1      39.506  31.562  32.776  1.00  0.00    -0.205 F 
ATOM     87  C   UNL A   1      41.241  31.907  35.982  1.00  0.00     0.022 A 
BRANCH  85  88
ATOM     88  S   UNL A   1      39.235  33.550  35.076  1.00  0.00     0.127 S 
ATOM     89  O   UNL A   1      37.922  32.908  35.060  1.00  0.00    -0.237 OA
ATOM     90  O   UNL A   1      39.620  34.125  36.367  1.00  0.00    -0.237 OA
ATOM     91  O   UNL A   1      39.528  34.408  33.934  1.00  0.00    -0.744 OA
ENDBRANCH  85  88
ENDBRANCH  58  81
ENDBRANCH  32  33
ENDBRANCH  25  27
ENDBRANCH  24  25
ENDBRANCH  23  24
ENDBRANCH   1  23
TORSDOF 19
ENDMDL
