MODEL 1
REMARK VINA RESULT:     -11.7      0.000      0.000
REMARK SMILES Cc1cccc(S(=O)(=O)Nc2cc(C(=O)OCCOCCOC(=O)c3ccc(-c4c5nc(c(-c6cccc(S(=O)(=O)[O-])c6F)c6ccc([nH]6)c(-c6cccc(S(=O)(=O)[O-])c6F)c6nc(c(-c7cccc(S(=O)(=O)[O-])c7F)c7ccc4[nH]7)C=C6)C=C5)cc3)cnc2N2CCC[C@H](C)C2)c1
REMARK SMILES IDX 19 1 18 2 17 3 16 4 14 5 15 6 13 7 11 8 12 9 90 10 89 11
REMARK SMILES IDX 88 12 10 13 7 15 8 16 9 17 6 18 1 19 2 20 3 21 98 22 4 23
REMARK SMILES IDX 5 24 91 25 92 26 97 27 93 28 95 29 94 30 96 31 20 32 21 33
REMARK SMILES IDX 22 34 23 35 24 36 25 37 26 38 87 39 27 40 86 41 28 42 29 43
REMARK SMILES IDX 30 44 80 45 31 46 85 47 79 48 81 49 32 50 84 51 78 52 77 53
REMARK SMILES IDX 33 55 65 56 45 57 64 58 46 59 49 60 63 61 82 62 47 63 48 64
REMARK SMILES IDX 62 66 83 67 50 68 34 69 35 70 43 71 36 72 38 73 44 74 37 75
REMARK SMILES IDX 39 76 40 77 41 78 42 79 66 80 67 81 75 82 68 83 70 84 76 85
REMARK SMILES IDX 69 86 71 87 72 88 73 89 74 90 51 91 52 92 60 93 53 94 55 95
REMARK SMILES IDX 61 96 54 97 56 98 57 99 58 100 59 101
REMARK H PARENT 10 14 81 54 49 65
REMARK Flexibility Score: inf
ROOT
ATOM      1  O   UNL A   1      31.429  29.472  26.136  1.00  0.00    -0.374 OA
ENDROOT
BRANCH   1   2
ATOM      2  C   UNL A   1      31.950  29.565  24.830  1.00  0.00     0.202 C 
BRANCH   2   3
ATOM      3  C   UNL A   1      30.878  28.967  23.971  1.00  0.00     0.261 C 
BRANCH   3   4
ATOM      4  O   UNL A   1      30.991  27.548  24.014  1.00  0.00    -0.460 OA
BRANCH   4   5
ATOM      5  C   UNL A   1      31.549  26.785  23.060  1.00  0.00     0.339 C 
ATOM      6  O   UNL A   1      31.326  26.640  21.859  1.00  0.00    -0.246 OA
BRANCH   5   7
ATOM      7  C   UNL A   1      32.632  26.097  23.725  1.00  0.00     0.080 A 
ATOM      8  C   UNL A   1      33.361  24.918  25.626  1.00  0.00     0.092 A 
ATOM      9  C   UNL A   1      32.486  25.793  25.068  1.00  0.00     0.048 A 
ATOM     10  C   UNL A   1      34.508  24.529  24.912  1.00  0.00     0.153 A 
ATOM     11  N   UNL A   1      34.726  24.932  23.637  1.00  0.00    -0.236 NA
ATOM     12  C   UNL A   1      33.750  25.656  23.039  1.00  0.00     0.129 A 
BRANCH   8  13
ATOM     13  N   UNL A   1      33.001  24.341  26.858  1.00  0.00    -0.276 N 
ATOM     14  H   UNL A   1      33.414  24.683  27.683  1.00  0.00     0.180 HD
BRANCH  13  15
ATOM     15  S   UNL A   1      31.894  23.093  26.967  1.00  0.00     0.262 S 
ATOM     16  O   UNL A   1      30.580  23.706  27.027  1.00  0.00    -0.201 OA
ATOM     17  O   UNL A   1      32.377  22.301  28.082  1.00  0.00    -0.201 OA
BRANCH  15  18
ATOM     18  C   UNL A   1      31.875  21.994  25.557  1.00  0.00     0.088 A 
ATOM     19  C   UNL A   1      33.521  18.831  24.273  1.00  0.00     0.044 C 
ATOM     20  C   UNL A   1      32.623  20.043  24.310  1.00  0.00    -0.050 A 
ATOM     21  C   UNL A   1      32.270  20.686  23.120  1.00  0.00     0.003 A 
ATOM     22  C   UNL A   1      32.337  20.673  25.530  1.00  0.00     0.025 A 
ATOM     23  C   UNL A   1      31.734  21.972  23.136  1.00  0.00     0.002 A 
ATOM     24  C   UNL A   1      31.557  22.632  24.347  1.00  0.00     0.022 A 
ENDBRANCH  15  18
ENDBRANCH  13  15
ENDBRANCH   8  13
BRANCH  10  25
ATOM     25  N   UNL A   1      35.452  23.723  25.493  1.00  0.00    -0.355 N 
ATOM     26  C   UNL A   1      36.457  24.178  26.430  1.00  0.00     0.118 C 
ATOM     27  C   UNL A   1      35.416  22.330  25.117  1.00  0.00     0.121 C 
ATOM     28  C   UNL A   1      37.849  23.834  25.897  1.00  0.00     0.022 C 
ATOM     29  C   UNL A   1      36.742  22.005  24.419  1.00  0.00     0.005 C 
ATOM     30  C   UNL A   1      37.929  22.419  25.316  1.00  0.00     0.007 C 
ATOM     31  C   UNL A   1      36.805  22.612  23.008  1.00  0.00     0.009 C 
ENDBRANCH  10  25
ENDBRANCH   5   7
ENDBRANCH   4   5
ENDBRANCH   3   4
ENDBRANCH   2   3
ENDBRANCH   1   2
BRANCH   1  32
ATOM     32  C   UNL A   1      32.291  29.589  27.237  1.00  0.00     0.202 C 
BRANCH  32  33
ATOM     33  C   UNL A   1      33.497  30.394  26.797  1.00  0.00     0.261 C 
BRANCH  33  34
ATOM     34  O   UNL A   1      33.910  31.250  27.899  1.00  0.00    -0.460 OA
BRANCH  34  35
ATOM     35  C   UNL A   1      35.246  31.561  27.944  1.00  0.00     0.338 C 
ATOM     36  O   UNL A   1      35.685  32.662  27.645  1.00  0.00    -0.246 OA
BRANCH  35  37
ATOM     37  C   UNL A   1      36.104  30.337  28.151  1.00  0.00     0.060 A 
ATOM     38  C   UNL A   1      36.169  29.758  29.433  1.00  0.00     0.016 A 
ATOM     39  C   UNL A   1      37.120  30.062  27.238  1.00  0.00     0.016 A 
ATOM     40  C   UNL A   1      37.354  29.153  29.879  1.00  0.00     0.010 A 
ATOM     41  C   UNL A   1      38.321  29.564  27.726  1.00  0.00     0.010 A 
ATOM     42  C   UNL A   1      38.477  29.188  29.078  1.00  0.00    -0.014 A 
BRANCH  42  43
ATOM     43  C   UNL A   1      39.847  28.846  29.502  1.00  0.00     0.031 A 
ATOM     44  C   UNL A   1      40.316  27.505  29.120  1.00  0.00     0.074 A 
ATOM     45  C   UNL A   1      40.775  29.715  29.945  1.00  0.00     0.049 A 
ATOM     46  N   UNL A   1      41.508  27.111  28.850  1.00  0.00    -0.248 NA
ATOM     47  C   UNL A   1      39.306  26.455  29.046  1.00  0.00     0.031 C 
ATOM     48  C   UNL A   1      41.990  30.000  29.180  1.00  0.00     0.029 A 
ATOM     49  N   UNL A   1      40.735  30.773  30.813  1.00  0.00    -0.354 N 
ATOM     50  C   UNL A   1      41.412  25.774  28.501  1.00  0.00     0.074 A 
ATOM     51  C   UNL A   1      40.023  25.431  28.600  1.00  0.00     0.031 C 
ATOM     52  C   UNL A   1      42.608  31.053  29.727  1.00  0.00     0.029 A 
ATOM     53  C   UNL A   1      41.967  31.389  30.944  1.00  0.00     0.049 A 
ATOM     54  H   UNL A   1      39.924  31.063  31.288  1.00  0.00     0.167 HD
ATOM     55  C   UNL A   1      42.528  25.066  28.195  1.00  0.00     0.034 A 
ATOM     56  C   UNL A   1      42.631  31.563  32.114  1.00  0.00     0.034 A 
ATOM     57  C   UNL A   1      43.716  25.754  28.742  1.00  0.00     0.049 A 
ATOM     58  C   UNL A   1      43.557  30.380  32.445  1.00  0.00     0.074 A 
ATOM     59  C   UNL A   1      44.871  26.307  28.227  1.00  0.00     0.029 A 
ATOM     60  N   UNL A   1      43.712  26.101  30.103  1.00  0.00    -0.354 N 
ATOM     61  N   UNL A   1      43.864  29.362  31.662  1.00  0.00    -0.248 NA
ATOM     62  C   UNL A   1      44.244  30.298  33.730  1.00  0.00     0.031 C 
ATOM     63  C   UNL A   1      45.553  26.986  29.289  1.00  0.00     0.029 A 
ATOM     64  C   UNL A   1      44.800  26.886  30.452  1.00  0.00     0.049 A 
ATOM     65  H   UNL A   1      43.015  25.817  30.738  1.00  0.00     0.167 HD
ATOM     66  C   UNL A   1      44.641  28.438  32.355  1.00  0.00     0.074 A 
ATOM     67  C   UNL A   1      44.841  29.099  33.644  1.00  0.00     0.031 C 
ATOM     68  C   UNL A   1      45.052  27.204  31.866  1.00  0.00     0.034 A 
BRANCH  55  69
ATOM     69  C   UNL A   1      42.556  23.778  27.351  1.00  0.00     0.023 A 
ATOM     70  C   UNL A   1      41.517  22.852  27.590  1.00  0.00     0.012 A 
ATOM     71  C   UNL A   1      43.561  23.327  26.440  1.00  0.00     0.148 A 
ATOM     72  C   UNL A   1      41.487  21.571  27.017  1.00  0.00     0.002 A 
ATOM     73  C   UNL A   1      43.506  22.064  25.827  1.00  0.00     0.091 A 
ATOM     74  F   UNL A   1      44.634  24.074  26.183  1.00  0.00    -0.205 F 
ATOM     75  C   UNL A   1      42.478  21.176  26.134  1.00  0.00     0.022 A 
BRANCH  73  76
ATOM     76  S   UNL A   1      44.735  21.471  24.636  1.00  0.00     0.127 S 
ATOM     77  O   UNL A   1      44.272  20.108  24.369  1.00  0.00    -0.237 OA
ATOM     78  O   UNL A   1      44.560  22.395  23.515  1.00  0.00    -0.237 OA
ATOM     79  O   UNL A   1      46.032  21.556  25.295  1.00  0.00    -0.744 OA
ENDBRANCH  73  76
ENDBRANCH  55  69
BRANCH  56  80
ATOM     80  C   UNL A   1      41.753  32.428  32.985  1.00  0.00     0.023 A 
ATOM     81  C   UNL A   1      41.263  31.714  34.125  1.00  0.00     0.012 A 
ATOM     82  C   UNL A   1      42.169  33.757  33.162  1.00  0.00     0.148 A 
ATOM     83  C   UNL A   1      41.549  32.170  35.417  1.00  0.00     0.002 A 
ATOM     84  C   UNL A   1      42.476  34.191  34.456  1.00  0.00     0.091 A 
ATOM     85  F   UNL A   1      42.510  34.465  32.078  1.00  0.00    -0.205 F 
ATOM     86  C   UNL A   1      42.221  33.378  35.578  1.00  0.00     0.022 A 
BRANCH  84  87
ATOM     87  S   UNL A   1      43.576  35.605  34.660  1.00  0.00     0.127 S 
ATOM     88  O   UNL A   1      42.771  36.698  34.136  1.00  0.00    -0.237 OA
ATOM     89  O   UNL A   1      43.795  35.630  36.107  1.00  0.00    -0.237 OA
ATOM     90  O   UNL A   1      44.760  35.233  33.899  1.00  0.00    -0.744 OA
ENDBRANCH  84  87
ENDBRANCH  56  80
BRANCH  68  91
ATOM     91  C   UNL A   1      45.707  26.074  32.706  1.00  0.00     0.023 A 
ATOM     92  C   UNL A   1      47.088  25.820  32.711  1.00  0.00     0.012 A 
ATOM     93  C   UNL A   1      44.940  25.220  33.559  1.00  0.00     0.148 A 
ATOM     94  C   UNL A   1      47.701  24.956  33.629  1.00  0.00     0.002 A 
ATOM     95  C   UNL A   1      45.542  24.324  34.444  1.00  0.00     0.091 A 
ATOM     96  F   UNL A   1      43.605  25.229  33.498  1.00  0.00    -0.205 F 
ATOM     97  C   UNL A   1      46.930  24.227  34.517  1.00  0.00     0.022 A 
BRANCH  95  98
ATOM     98  S   UNL A   1      44.606  23.235  35.530  1.00  0.00     0.127 S 
ATOM     99  O   UNL A   1      43.847  24.203  36.324  1.00  0.00    -0.237 OA
ATOM    100  O   UNL A   1      43.803  22.473  34.572  1.00  0.00    -0.237 OA
ATOM    101  O   UNL A   1      45.582  22.453  36.272  1.00  0.00    -0.744 OA
ENDBRANCH  95  98
ENDBRANCH  68  91
ENDBRANCH  42  43
ENDBRANCH  35  37
ENDBRANCH  34  35
ENDBRANCH  33  34
ENDBRANCH  32  33
ENDBRANCH   1  32
TORSDOF 21
ENDMDL
MODEL 2
REMARK VINA RESULT:     -11.7      3.686      9.498
REMARK SMILES Cc1cccc(S(=O)(=O)Nc2cc(C(=O)OCCOCCOC(=O)c3ccc(-c4c5nc(c(-c6cccc(S(=O)(=O)[O-])c6F)c6ccc([nH]6)c(-c6cccc(S(=O)(=O)[O-])c6F)c6nc(c(-c7cccc(S(=O)(=O)[O-])c7F)c7ccc4[nH]7)C=C6)C=C5)cc3)cnc2N2CCC[C@H](C)C2)c1
REMARK SMILES IDX 19 1 18 2 17 3 16 4 14 5 15 6 13 7 11 8 12 9 90 10 89 11
REMARK SMILES IDX 88 12 10 13 7 15 8 16 9 17 6 18 1 19 2 20 3 21 98 22 4 23
REMARK SMILES IDX 5 24 91 25 92 26 97 27 93 28 95 29 94 30 96 31 20 32 21 33
REMARK SMILES IDX 22 34 23 35 24 36 25 37 26 38 87 39 27 40 86 41 28 42 29 43
REMARK SMILES IDX 30 44 80 45 31 46 85 47 79 48 81 49 32 50 84 51 78 52 77 53
REMARK SMILES IDX 33 55 65 56 45 57 64 58 46 59 49 60 63 61 82 62 47 63 48 64
REMARK SMILES IDX 62 66 83 67 50 68 34 69 35 70 43 71 36 72 38 73 44 74 37 75
REMARK SMILES IDX 39 76 40 77 41 78 42 79 66 80 67 81 75 82 68 83 70 84 76 85
REMARK SMILES IDX 69 86 71 87 72 88 73 89 74 90 51 91 52 92 60 93 53 94 55 95
REMARK SMILES IDX 61 96 54 97 56 98 57 99 58 100 59 101
REMARK H PARENT 10 14 81 54 49 65
REMARK Flexibility Score: inf
ROOT
ATOM      1  O   UNL A   1      36.380  21.449  25.445  1.00  0.00    -0.374 OA
ENDROOT
BRANCH   1   2
ATOM      2  C   UNL A   1      36.142  20.156  24.939  1.00  0.00     0.202 C 
BRANCH   2   3
ATOM      3  C   UNL A   1      34.659  19.986  25.067  1.00  0.00     0.261 C 
BRANCH   3   4
ATOM      4  O   UNL A   1      34.012  21.001  24.306  1.00  0.00    -0.460 OA
BRANCH   4   5
ATOM      5  C   UNL A   1      32.686  21.208  24.258  1.00  0.00     0.339 C 
ATOM      6  O   UNL A   1      31.715  20.543  24.619  1.00  0.00    -0.246 OA
BRANCH   5   7
ATOM      7  C   UNL A   1      32.539  22.527  23.687  1.00  0.00     0.080 A 
ATOM      8  C   UNL A   1      31.994  24.788  24.037  1.00  0.00     0.092 A 
ATOM      9  C   UNL A   1      31.896  23.496  24.439  1.00  0.00     0.048 A 
ATOM     10  C   UNL A   1      32.532  25.086  22.773  1.00  0.00     0.153 A 
ATOM     11  N   UNL A   1      33.044  24.123  21.971  1.00  0.00    -0.236 NA
ATOM     12  C   UNL A   1      33.101  22.865  22.468  1.00  0.00     0.129 A 
BRANCH   8  13
ATOM     13  N   UNL A   1      31.664  25.784  24.976  1.00  0.00    -0.276 N 
ATOM     14  H   UNL A   1      30.838  26.305  24.847  1.00  0.00     0.180 HD
BRANCH  13  15
ATOM     15  S   UNL A   1      32.626  26.111  26.303  1.00  0.00     0.262 S 
ATOM     16  O   UNL A   1      33.970  25.689  25.958  1.00  0.00    -0.201 OA
ATOM     17  O   UNL A   1      31.925  25.474  27.402  1.00  0.00    -0.201 OA
BRANCH  15  18
ATOM     18  C   UNL A   1      32.734  27.844  26.730  1.00  0.00     0.088 A 
ATOM     19  C   UNL A   1      31.105  31.173  25.941  1.00  0.00     0.044 C 
ATOM     20  C   UNL A   1      32.046  30.172  26.563  1.00  0.00    -0.050 A 
ATOM     21  C   UNL A   1      33.335  30.565  26.936  1.00  0.00     0.003 A 
ATOM     22  C   UNL A   1      31.732  28.805  26.551  1.00  0.00     0.025 A 
ATOM     23  C   UNL A   1      34.323  29.617  27.195  1.00  0.00     0.002 A 
ATOM     24  C   UNL A   1      34.029  28.263  27.072  1.00  0.00     0.022 A 
ENDBRANCH  15  18
ENDBRANCH  13  15
ENDBRANCH   8  13
BRANCH  10  25
ATOM     25  N   UNL A   1      32.552  26.376  22.309  1.00  0.00    -0.355 N 
ATOM     26  C   UNL A   1      33.615  27.325  22.563  1.00  0.00     0.118 C 
ATOM     27  C   UNL A   1      31.415  26.784  21.519  1.00  0.00     0.121 C 
ATOM     28  C   UNL A   1      33.041  28.571  23.239  1.00  0.00     0.022 C 
ATOM     29  C   UNL A   1      30.716  27.925  22.270  1.00  0.00     0.005 C 
ATOM     30  C   UNL A   1      31.730  29.042  22.600  1.00  0.00     0.007 C 
ATOM     31  C   UNL A   1      29.956  27.411  23.503  1.00  0.00     0.009 C 
ENDBRANCH  10  25
ENDBRANCH   5   7
ENDBRANCH   4   5
ENDBRANCH   3   4
ENDBRANCH   2   3
ENDBRANCH   1   2
BRANCH   1  32
ATOM     32  C   UNL A   1      37.548  22.135  25.078  1.00  0.00     0.202 C 
BRANCH  32  33
ATOM     33  C   UNL A   1      38.710  21.491  25.806  1.00  0.00     0.261 C 
BRANCH  33  34
ATOM     34  O   UNL A   1      39.841  22.407  25.778  1.00  0.00    -0.460 OA
BRANCH  34  35
ATOM     35  C   UNL A   1      40.205  22.942  26.988  1.00  0.00     0.338 C 
ATOM     36  O   UNL A   1      40.550  22.261  27.942  1.00  0.00    -0.246 OA
BRANCH  35  37
ATOM     37  C   UNL A   1      39.887  24.415  27.072  1.00  0.00     0.060 A 
ATOM     38  C   UNL A   1      40.562  25.309  26.218  1.00  0.00     0.016 A 
ATOM     39  C   UNL A   1      39.291  24.912  28.228  1.00  0.00     0.016 A 
ATOM     40  C   UNL A   1      40.872  26.607  26.652  1.00  0.00     0.010 A 
ATOM     41  C   UNL A   1      39.699  26.157  28.692  1.00  0.00     0.010 A 
ATOM     42  C   UNL A   1      40.569  26.980  27.946  1.00  0.00    -0.014 A 
BRANCH  42  43
ATOM     43  C   UNL A   1      41.063  28.190  28.629  1.00  0.00     0.031 A 
ATOM     44  C   UNL A   1      40.072  29.261  28.822  1.00  0.00     0.074 A 
ATOM     45  C   UNL A   1      42.216  28.292  29.317  1.00  0.00     0.049 A 
ATOM     46  N   UNL A   1      39.992  30.127  29.767  1.00  0.00    -0.248 NA
ATOM     47  C   UNL A   1      39.037  29.386  27.802  1.00  0.00     0.031 C 
ATOM     48  C   UNL A   1      42.231  28.493  30.766  1.00  0.00     0.029 A 
ATOM     49  N   UNL A   1      43.494  27.865  29.079  1.00  0.00    -0.354 N 
ATOM     50  C   UNL A   1      38.856  30.879  29.516  1.00  0.00     0.074 A 
ATOM     51  C   UNL A   1      38.282  30.352  28.311  1.00  0.00     0.031 C 
ATOM     52  C   UNL A   1      43.481  28.325  31.213  1.00  0.00     0.029 A 
ATOM     53  C   UNL A   1      44.358  28.198  30.108  1.00  0.00     0.049 A 
ATOM     54  H   UNL A   1      43.768  27.376  28.270  1.00  0.00     0.167 HD
ATOM     55  C   UNL A   1      38.524  31.909  30.334  1.00  0.00     0.034 A 
ATOM     56  C   UNL A   1      45.493  28.928  29.966  1.00  0.00     0.034 A 
ATOM     57  C   UNL A   1      39.712  32.332  31.104  1.00  0.00     0.049 A 
ATOM     58  C   UNL A   1      45.243  30.437  30.129  1.00  0.00     0.074 A 
ATOM     59  C   UNL A   1      40.058  32.408  32.438  1.00  0.00     0.029 A 
ATOM     60  N   UNL A   1      40.890  32.626  30.397  1.00  0.00    -0.354 N 
ATOM     61  N   UNL A   1      44.132  31.026  30.530  1.00  0.00    -0.248 NA
ATOM     62  C   UNL A   1      46.301  31.408  29.864  1.00  0.00     0.031 C 
ATOM     63  C   UNL A   1      41.448  32.747  32.520  1.00  0.00     0.029 A 
ATOM     64  C   UNL A   1      41.971  32.843  31.237  1.00  0.00     0.049 A 
ATOM     65  H   UNL A   1      40.940  32.674  29.415  1.00  0.00     0.167 HD
ATOM     66  C   UNL A   1      44.258  32.409  30.440  1.00  0.00     0.074 A 
ATOM     67  C   UNL A   1      45.649  32.571  30.019  1.00  0.00     0.031 C 
ATOM     68  C   UNL A   1      43.244  33.328  30.683  1.00  0.00     0.034 A 
BRANCH  55  69
ATOM     69  C   UNL A   1      37.110  32.501  30.483  1.00  0.00     0.023 A 
ATOM     70  C   UNL A   1      36.412  32.164  31.664  1.00  0.00     0.012 A 
ATOM     71  C   UNL A   1      36.350  33.251  29.533  1.00  0.00     0.148 A 
ATOM     72  C   UNL A   1      35.065  32.496  31.878  1.00  0.00     0.002 A 
ATOM     73  C   UNL A   1      35.017  33.628  29.768  1.00  0.00     0.091 A 
ATOM     74  F   UNL A   1      36.865  33.572  28.347  1.00  0.00    -0.205 F 
ATOM     75  C   UNL A   1      34.367  33.229  30.934  1.00  0.00     0.022 A 
BRANCH  73  76
ATOM     76  S   UNL A   1      34.031  34.613  28.610  1.00  0.00     0.127 S 
ATOM     77  O   UNL A   1      34.432  34.060  27.316  1.00  0.00    -0.237 OA
ATOM     78  O   UNL A   1      32.661  34.286  29.005  1.00  0.00    -0.237 OA
ATOM     79  O   UNL A   1      34.406  36.006  28.821  1.00  0.00    -0.744 OA
ENDBRANCH  73  76
ENDBRANCH  55  69
BRANCH  56  80
ATOM     80  C   UNL A   1      46.394  28.151  29.039  1.00  0.00     0.023 A 
ATOM     81  C   UNL A   1      46.689  26.847  29.550  1.00  0.00     0.012 A 
ATOM     82  C   UNL A   1      46.136  28.284  27.666  1.00  0.00     0.148 A 
ATOM     83  C   UNL A   1      46.352  25.708  28.809  1.00  0.00     0.002 A 
ATOM     84  C   UNL A   1      45.775  27.142  26.943  1.00  0.00     0.091 A 
ATOM     85  F   UNL A   1      45.984  29.516  27.164  1.00  0.00    -0.205 F 
ATOM     86  C   UNL A   1      45.827  25.862  27.529  1.00  0.00     0.022 A 
BRANCH  84  87
ATOM     87  S   UNL A   1      44.851  27.340  25.409  1.00  0.00     0.127 S 
ATOM     88  O   UNL A   1      43.796  28.262  25.803  1.00  0.00    -0.237 OA
ATOM     89  O   UNL A   1      45.856  27.894  24.501  1.00  0.00    -0.237 OA
ATOM     90  O   UNL A   1      44.448  25.982  25.072  1.00  0.00    -0.744 OA
ENDBRANCH  84  87
ENDBRANCH  56  80
BRANCH  68  91
ATOM     91  C   UNL A   1      43.305  34.844  30.355  1.00  0.00     0.023 A 
ATOM     92  C   UNL A   1      43.591  35.829  31.315  1.00  0.00     0.012 A 
ATOM     93  C   UNL A   1      43.091  35.345  29.033  1.00  0.00     0.148 A 
ATOM     94  C   UNL A   1      43.864  37.162  30.980  1.00  0.00     0.002 A 
ATOM     95  C   UNL A   1      43.316  36.682  28.702  1.00  0.00     0.091 A 
ATOM     96  F   UNL A   1      42.621  34.539  28.075  1.00  0.00    -0.205 F 
ATOM     97  C   UNL A   1      43.754  37.585  29.668  1.00  0.00     0.022 A 
BRANCH  95  98
ATOM     98  S   UNL A   1      43.056  37.343  27.047  1.00  0.00     0.127 S 
ATOM     99  O   UNL A   1      43.174  36.133  26.231  1.00  0.00    -0.237 OA
ATOM    100  O   UNL A   1      41.698  37.878  27.147  1.00  0.00    -0.237 OA
ATOM    101  O   UNL A   1      44.094  38.339  26.833  1.00  0.00    -0.744 OA
ENDBRANCH  95  98
ENDBRANCH  68  91
ENDBRANCH  42  43
ENDBRANCH  35  37
ENDBRANCH  34  35
ENDBRANCH  33  34
ENDBRANCH  32  33
ENDBRANCH   1  32
TORSDOF 21
ENDMDL
MODEL 3
REMARK VINA RESULT:     -11.4      2.057      3.365
REMARK SMILES Cc1cccc(S(=O)(=O)Nc2cc(C(=O)OCCOCCOC(=O)c3ccc(-c4c5nc(c(-c6cccc(S(=O)(=O)[O-])c6F)c6ccc([nH]6)c(-c6cccc(S(=O)(=O)[O-])c6F)c6nc(c(-c7cccc(S(=O)(=O)[O-])c7F)c7ccc4[nH]7)C=C6)C=C5)cc3)cnc2N2CCC[C@H](C)C2)c1
REMARK SMILES IDX 19 1 18 2 17 3 16 4 14 5 15 6 13 7 11 8 12 9 90 10 89 11
REMARK SMILES IDX 88 12 10 13 7 15 8 16 9 17 6 18 1 19 2 20 3 21 98 22 4 23
REMARK SMILES IDX 5 24 91 25 92 26 97 27 93 28 95 29 94 30 96 31 20 32 21 33
REMARK SMILES IDX 22 34 23 35 24 36 25 37 26 38 87 39 27 40 86 41 28 42 29 43
REMARK SMILES IDX 30 44 80 45 31 46 85 47 79 48 81 49 32 50 84 51 78 52 77 53
REMARK SMILES IDX 33 55 65 56 45 57 64 58 46 59 49 60 63 61 82 62 47 63 48 64
REMARK SMILES IDX 62 66 83 67 50 68 34 69 35 70 43 71 36 72 38 73 44 74 37 75
REMARK SMILES IDX 39 76 40 77 41 78 42 79 66 80 67 81 75 82 68 83 70 84 76 85
REMARK SMILES IDX 69 86 71 87 72 88 73 89 74 90 51 91 52 92 60 93 53 94 55 95
REMARK SMILES IDX 61 96 54 97 56 98 57 99 58 100 59 101
REMARK H PARENT 10 14 81 54 49 65
REMARK Flexibility Score: inf
ROOT
ATOM      1  O   UNL A   1      32.068  29.034  26.043  1.00  0.00    -0.374 OA
ENDROOT
BRANCH   1   2
ATOM      2  C   UNL A   1      32.451  27.681  26.128  1.00  0.00     0.202 C 
BRANCH   2   3
ATOM      3  C   UNL A   1      31.157  26.951  26.323  1.00  0.00     0.261 C 
BRANCH   3   4
ATOM      4  O   UNL A   1      31.399  25.787  27.107  1.00  0.00    -0.460 OA
BRANCH   4   5
ATOM      5  C   UNL A   1      30.935  24.557  26.833  1.00  0.00     0.339 C 
ATOM      6  O   UNL A   1      29.826  24.034  26.926  1.00  0.00    -0.246 OA
BRANCH   5   7
ATOM      7  C   UNL A   1      32.071  23.847  26.290  1.00  0.00     0.080 A 
ATOM      8  C   UNL A   1      33.418  23.402  24.414  1.00  0.00     0.092 A 
ATOM      9  C   UNL A   1      32.228  23.821  24.915  1.00  0.00     0.048 A 
ATOM     10  C   UNL A   1      34.359  22.797  25.266  1.00  0.00     0.153 A 
ATOM     11  N   UNL A   1      34.153  22.699  26.600  1.00  0.00    -0.236 NA
ATOM     12  C   UNL A   1      33.041  23.286  27.103  1.00  0.00     0.129 A 
BRANCH   8  13
ATOM     13  N   UNL A   1      33.701  23.716  23.071  1.00  0.00    -0.276 N 
ATOM     14  H   UNL A   1      34.547  23.403  22.676  1.00  0.00     0.180 HD
BRANCH  13  15
ATOM     15  S   UNL A   1      32.648  24.604  22.123  1.00  0.00     0.262 S 
ATOM     16  O   UNL A   1      31.324  24.054  22.345  1.00  0.00    -0.201 OA
ATOM     17  O   UNL A   1      33.245  24.549  20.802  1.00  0.00    -0.201 OA
BRANCH  15  18
ATOM     18  C   UNL A   1      32.553  26.338  22.546  1.00  0.00     0.088 A 
ATOM     19  C   UNL A   1      30.224  29.313  22.252  1.00  0.00     0.044 C 
ATOM     20  C   UNL A   1      31.449  28.506  22.603  1.00  0.00    -0.050 A 
ATOM     21  C   UNL A   1      32.702  29.126  22.655  1.00  0.00     0.003 A 
ATOM     22  C   UNL A   1      31.386  27.105  22.640  1.00  0.00     0.025 A 
ATOM     23  C   UNL A   1      33.872  28.370  22.643  1.00  0.00     0.002 A 
ATOM     24  C   UNL A   1      33.799  26.983  22.568  1.00  0.00     0.022 A 
ENDBRANCH  15  18
ENDBRANCH  13  15
ENDBRANCH   8  13
BRANCH  10  25
ATOM     25  N   UNL A   1      35.525  22.282  24.764  1.00  0.00    -0.355 N 
ATOM     26  C   UNL A   1      35.848  20.871  24.717  1.00  0.00     0.118 C 
ATOM     27  C   UNL A   1      36.479  23.241  24.260  1.00  0.00     0.121 C 
ATOM     28  C   UNL A   1      37.157  20.618  25.466  1.00  0.00     0.022 C 
ATOM     29  C   UNL A   1      37.747  23.126  25.116  1.00  0.00     0.005 C 
ATOM     30  C   UNL A   1      38.234  21.661  25.148  1.00  0.00     0.007 C 
ATOM     31  C   UNL A   1      37.545  23.730  26.514  1.00  0.00     0.009 C 
ENDBRANCH  10  25
ENDBRANCH   5   7
ENDBRANCH   4   5
ENDBRANCH   3   4
ENDBRANCH   2   3
ENDBRANCH   1   2
BRANCH   1  32
ATOM     32  C   UNL A   1      32.248  29.877  27.151  1.00  0.00     0.202 C 
BRANCH  32  33
ATOM     33  C   UNL A   1      33.737  29.999  27.402  1.00  0.00     0.261 C 
BRANCH  33  34
ATOM     34  O   UNL A   1      34.103  31.406  27.353  1.00  0.00    -0.460 OA
BRANCH  34  35
ATOM     35  C   UNL A   1      35.362  31.712  27.805  1.00  0.00     0.338 C 
ATOM     36  O   UNL A   1      35.838  32.836  27.745  1.00  0.00    -0.246 OA
BRANCH  35  37
ATOM     37  C   UNL A   1      36.158  30.473  28.138  1.00  0.00     0.060 A 
ATOM     38  C   UNL A   1      36.230  30.048  29.478  1.00  0.00     0.016 A 
ATOM     39  C   UNL A   1      37.128  30.034  27.241  1.00  0.00     0.016 A 
ATOM     40  C   UNL A   1      37.393  29.432  29.966  1.00  0.00     0.010 A 
ATOM     41  C   UNL A   1      38.315  29.528  27.756  1.00  0.00     0.010 A 
ATOM     42  C   UNL A   1      38.492  29.307  29.139  1.00  0.00    -0.014 A 
BRANCH  42  43
ATOM     43  C   UNL A   1      39.854  28.939  29.568  1.00  0.00     0.031 A 
ATOM     44  C   UNL A   1      40.306  27.596  29.171  1.00  0.00     0.074 A 
ATOM     45  C   UNL A   1      40.790  29.788  30.030  1.00  0.00     0.049 A 
ATOM     46  N   UNL A   1      41.494  27.189  28.905  1.00  0.00    -0.248 NA
ATOM     47  C   UNL A   1      39.281  26.562  29.075  1.00  0.00     0.031 C 
ATOM     48  C   UNL A   1      42.015  30.065  29.278  1.00  0.00     0.029 A 
ATOM     49  N   UNL A   1      40.760  30.835  30.912  1.00  0.00    -0.354 N 
ATOM     50  C   UNL A   1      41.381  25.858  28.537  1.00  0.00     0.074 A 
ATOM     51  C   UNL A   1      39.986  25.534  28.621  1.00  0.00     0.031 C 
ATOM     52  C   UNL A   1      42.645  31.102  29.843  1.00  0.00     0.029 A 
ATOM     53  C   UNL A   1      42.000  31.431  31.060  1.00  0.00     0.049 A 
ATOM     54  H   UNL A   1      39.949  31.130  31.385  1.00  0.00     0.167 HD
ATOM     55  C   UNL A   1      42.489  25.139  28.229  1.00  0.00     0.034 A 
ATOM     56  C   UNL A   1      42.657  31.579  32.238  1.00  0.00     0.034 A 
ATOM     57  C   UNL A   1      43.682  25.801  28.794  1.00  0.00     0.049 A 
ATOM     58  C   UNL A   1      43.563  30.378  32.558  1.00  0.00     0.074 A 
ATOM     59  C   UNL A   1      44.849  26.345  28.295  1.00  0.00     0.029 A 
ATOM     60  N   UNL A   1      43.673  26.130  30.160  1.00  0.00    -0.354 N 
ATOM     61  N   UNL A   1      43.862  29.367  31.765  1.00  0.00    -0.248 NA
ATOM     62  C   UNL A   1      44.240  30.269  33.847  1.00  0.00     0.031 C 
ATOM     63  C   UNL A   1      45.533  26.999  29.372  1.00  0.00     0.029 A 
ATOM     64  C   UNL A   1      44.771  26.894  30.527  1.00  0.00     0.049 A 
ATOM     65  H   UNL A   1      42.968  25.848  30.785  1.00  0.00     0.167 HD
ATOM     66  C   UNL A   1      44.620  28.422  32.450  1.00  0.00     0.074 A 
ATOM     67  C   UNL A   1      44.820  29.063  33.750  1.00  0.00     0.031 C 
ATOM     68  C   UNL A   1      45.016  27.189  31.948  1.00  0.00     0.034 A 
BRANCH  55  69
ATOM     69  C   UNL A   1      42.504  23.862  27.368  1.00  0.00     0.023 A 
ATOM     70  C   UNL A   1      41.460  22.938  27.599  1.00  0.00     0.012 A 
ATOM     71  C   UNL A   1      43.502  23.417  26.446  1.00  0.00     0.148 A 
ATOM     72  C   UNL A   1      41.419  21.665  27.010  1.00  0.00     0.002 A 
ATOM     73  C   UNL A   1      43.435  22.162  25.816  1.00  0.00     0.091 A 
ATOM     74  F   UNL A   1      44.578  24.160  26.193  1.00  0.00    -0.205 F 
ATOM     75  C   UNL A   1      42.403  21.276  26.117  1.00  0.00     0.022 A 
BRANCH  73  76
ATOM     76  S   UNL A   1      44.654  21.577  24.611  1.00  0.00     0.127 S 
ATOM     77  O   UNL A   1      45.901  21.651  25.373  1.00  0.00    -0.237 OA
ATOM     78  O   UNL A   1      44.197  20.215  24.336  1.00  0.00    -0.237 OA
ATOM     79  O   UNL A   1      44.583  22.481  23.469  1.00  0.00    -0.744 OA
ENDBRANCH  73  76
ENDBRANCH  55  69
BRANCH  56  80
ATOM     80  C   UNL A   1      41.786  32.445  33.114  1.00  0.00     0.023 A 
ATOM     81  C   UNL A   1      41.513  33.713  32.510  1.00  0.00     0.012 A 
ATOM     82  C   UNL A   1      40.742  31.793  33.790  1.00  0.00     0.148 A 
ATOM     83  C   UNL A   1      40.192  34.103  32.258  1.00  0.00     0.002 A 
ATOM     84  C   UNL A   1      39.426  32.175  33.510  1.00  0.00     0.091 A 
ATOM     85  F   UNL A   1      41.025  30.670  34.462  1.00  0.00    -0.205 F 
ATOM     86  C   UNL A   1      39.149  33.293  32.698  1.00  0.00     0.022 A 
BRANCH  84  87
ATOM     87  S   UNL A   1      38.093  31.007  33.835  1.00  0.00     0.127 S 
ATOM     88  O   UNL A   1      38.545  29.821  33.122  1.00  0.00    -0.237 OA
ATOM     89  O   UNL A   1      38.112  30.901  35.295  1.00  0.00    -0.237 OA
ATOM     90  O   UNL A   1      36.911  31.680  33.316  1.00  0.00    -0.744 OA
ENDBRANCH  84  87
ENDBRANCH  56  80
BRANCH  68  91
ATOM     91  C   UNL A   1      45.649  26.038  32.777  1.00  0.00     0.023 A 
ATOM     92  C   UNL A   1      47.031  25.797  32.830  1.00  0.00     0.012 A 
ATOM     93  C   UNL A   1      44.857  25.150  33.570  1.00  0.00     0.148 A 
ATOM     94  C   UNL A   1      47.615  24.909  33.743  1.00  0.00     0.002 A 
ATOM     95  C   UNL A   1      45.432  24.231  34.449  1.00  0.00     0.091 A 
ATOM     96  F   UNL A   1      43.526  25.149  33.454  1.00  0.00    -0.205 F 
ATOM     97  C   UNL A   1      46.816  24.145  34.575  1.00  0.00     0.022 A 
BRANCH  95  98
ATOM     98  S   UNL A   1      44.464  23.099  35.460  1.00  0.00     0.127 S 
ATOM     99  O   UNL A   1      44.137  22.052  34.490  1.00  0.00    -0.237 OA
ATOM    100  O   UNL A   1      45.436  22.700  36.479  1.00  0.00    -0.237 OA
ATOM    101  O   UNL A   1      43.328  23.859  35.959  1.00  0.00    -0.744 OA
ENDBRANCH  95  98
ENDBRANCH  68  91
ENDBRANCH  42  43
ENDBRANCH  35  37
ENDBRANCH  34  35
ENDBRANCH  33  34
ENDBRANCH  32  33
ENDBRANCH   1  32
TORSDOF 21
ENDMDL
