MODEL 1
REMARK VINA RESULT:     -11.2      0.000      0.000
REMARK SMILES Cc1nsc(NC(=O)c2ccc(N)cc2)c1C(=O)OCCOCCOC(=O)c1ccc(-c2c3nc(c(-c4cccc(S(=O)(=O)[O-])c4F)c4ccc([nH]4)c(-c4cccc(S(=O)(=O)[O-])c4F)c4nc(c(-c5cccc(S(=O)(=O)[O-])c5F)c5ccc2[nH]5)C=C4)C=C3)cc1
REMARK SMILES IDX 22 1 21 2 20 3 19 4 17 5 18 6 16 7 1 8 2 9 3 10 4 11 5 12
REMARK SMILES IDX 6 13 7 14 8 16 9 17 10 18 15 19 11 20 14 21 12 22 13 23
REMARK SMILES IDX 23 26 24 27 25 28 26 29 27 30 28 31 29 32 90 33 30 34 89 35
REMARK SMILES IDX 31 36 32 37 33 38 83 39 34 40 88 41 82 42 84 43 35 44 87 45
REMARK SMILES IDX 81 46 80 47 36 49 68 50 48 51 67 52 49 53 52 54 66 55 85 56
REMARK SMILES IDX 50 57 51 58 65 60 86 61 53 62 37 63 38 64 46 65 39 66 41 67
REMARK SMILES IDX 47 68 40 69 42 70 43 71 44 72 45 73 69 74 70 75 78 76 71 77
REMARK SMILES IDX 73 78 79 79 72 80 74 81 75 82 76 83 77 84 54 85 55 86 63 87
REMARK SMILES IDX 56 88 58 89 64 90 57 91 59 92 60 93 61 94 62 95
REMARK H PARENT 6 15 13 24 13 25 84 48 52 59
REMARK Flexibility Score: inf
ROOT
ATOM      1  O   UNL A   1      34.458  31.261  27.420  1.00  0.00    -0.374 OA
ENDROOT
BRANCH   1   2
ATOM      2  C   UNL A   1      33.440  30.332  27.045  1.00  0.00     0.202 C 
BRANCH   2   3
ATOM      3  C   UNL A   1      33.671  28.839  27.298  1.00  0.00     0.261 C 
BRANCH   3   4
ATOM      4  O   UNL A   1      33.020  28.022  26.312  1.00  0.00    -0.460 OA
BRANCH   4   5
ATOM      5  C   UNL A   1      31.772  27.584  26.651  1.00  0.00     0.343 C 
ATOM      6  O   UNL A   1      31.281  27.684  27.762  1.00  0.00    -0.246 OA
BRANCH   5   7
ATOM      7  C   UNL A   1      30.994  27.205  25.484  1.00  0.00     0.117 A 
ATOM      8  C   UNL A   1      31.439  29.231  23.866  1.00  0.00     0.069 C 
ATOM      9  C   UNL A   1      30.818  27.932  24.254  1.00  0.00     0.068 A 
ATOM     10  N   UNL A   1      29.997  27.372  23.366  1.00  0.00    -0.195 NA
ATOM     11  S   UNL A   1      29.309  26.034  24.035  1.00  0.00    -0.017 S 
ATOM     12  C   UNL A   1      30.215  26.052  25.474  1.00  0.00     0.131 A 
BRANCH  12  13
ATOM     13  N   UNL A   1      30.037  25.144  26.511  1.00  0.00    -0.312 N 
ATOM     14  C   UNL A   1      30.518  23.866  26.686  1.00  0.00     0.256 C 
ATOM     15  H   UNL A   1      29.469  25.471  27.246  1.00  0.00     0.171 HD
ATOM     16  O   UNL A   1      29.953  23.092  27.458  1.00  0.00    -0.269 OA
BRANCH  14  17
ATOM     17  C   UNL A   1      31.771  23.432  26.044  1.00  0.00     0.040 A 
ATOM     18  C   UNL A   1      33.001  23.833  26.572  1.00  0.00     0.016 A 
ATOM     19  C   UNL A   1      31.719  22.616  24.915  1.00  0.00     0.016 A 
ATOM     20  C   UNL A   1      34.173  23.541  25.878  1.00  0.00     0.026 A 
ATOM     21  C   UNL A   1      32.904  22.310  24.241  1.00  0.00     0.026 A 
ATOM     22  C   UNL A   1      34.126  22.837  24.672  1.00  0.00     0.031 A 
BRANCH  22  23
ATOM     23  N   UNL A   1      35.301  22.545  23.990  1.00  0.00    -0.399 N 
ATOM     24  H   UNL A   1      35.698  21.647  24.057  1.00  0.00     0.156 HD
ATOM     25  H   UNL A   1      35.735  23.236  23.440  1.00  0.00     0.156 HD
ENDBRANCH  22  23
ENDBRANCH  14  17
ENDBRANCH  12  13
ENDBRANCH   5   7
ENDBRANCH   4   5
ENDBRANCH   3   4
ENDBRANCH   2   3
ENDBRANCH   1   2
BRANCH   1  26
ATOM     26  C   UNL A   1      34.131  32.499  28.044  1.00  0.00     0.202 C 
BRANCH  26  27
ATOM     27  C   UNL A   1      34.526  32.752  29.492  1.00  0.00     0.261 C 
BRANCH  27  28
ATOM     28  O   UNL A   1      34.960  31.557  30.110  1.00  0.00    -0.460 OA
BRANCH  28  29
ATOM     29  C   UNL A   1      36.169  31.674  30.706  1.00  0.00     0.338 C 
ATOM     30  O   UNL A   1      36.397  32.016  31.850  1.00  0.00    -0.246 OA
BRANCH  29  31
ATOM     31  C   UNL A   1      37.204  31.397  29.704  1.00  0.00     0.060 A 
ATOM     32  C   UNL A   1      37.120  30.126  29.133  1.00  0.00     0.016 A 
ATOM     33  C   UNL A   1      38.398  32.122  29.778  1.00  0.00     0.016 A 
ATOM     34  C   UNL A   1      38.288  29.424  29.007  1.00  0.00     0.010 A 
ATOM     35  C   UNL A   1      39.559  31.413  29.679  1.00  0.00     0.010 A 
ATOM     36  C   UNL A   1      39.467  30.048  29.420  1.00  0.00    -0.014 A 
BRANCH  36  37
ATOM     37  C   UNL A   1      40.655  29.245  29.542  1.00  0.00     0.031 A 
ATOM     38  C   UNL A   1      40.937  28.942  30.959  1.00  0.00     0.074 A 
ATOM     39  C   UNL A   1      41.291  28.771  28.455  1.00  0.00     0.049 A 
ATOM     40  N   UNL A   1      41.816  29.509  31.718  1.00  0.00    -0.248 NA
ATOM     41  C   UNL A   1      39.930  28.153  31.689  1.00  0.00     0.031 C 
ATOM     42  C   UNL A   1      40.854  28.790  27.054  1.00  0.00     0.029 A 
ATOM     43  N   UNL A   1      42.416  28.022  28.403  1.00  0.00    -0.354 N 
ATOM     44  C   UNL A   1      41.616  28.926  32.966  1.00  0.00     0.074 A 
ATOM     45  C   UNL A   1      40.280  28.411  32.948  1.00  0.00     0.031 C 
ATOM     46  C   UNL A   1      41.544  27.844  26.370  1.00  0.00     0.029 A 
ATOM     47  C   UNL A   1      42.529  27.245  27.257  1.00  0.00     0.049 A 
ATOM     48  H   UNL A   1      43.096  28.025  29.115  1.00  0.00     0.167 HD
ATOM     49  C   UNL A   1      42.670  28.588  33.759  1.00  0.00     0.034 A 
ATOM     50  C   UNL A   1      43.278  26.118  27.135  1.00  0.00     0.034 A 
ATOM     51  C   UNL A   1      43.879  29.219  33.283  1.00  0.00     0.049 A 
ATOM     52  C   UNL A   1      44.245  26.113  28.267  1.00  0.00     0.074 A 
ATOM     53  C   UNL A   1      44.288  30.523  33.089  1.00  0.00     0.029 A 
ATOM     54  N   UNL A   1      44.719  28.434  32.527  1.00  0.00    -0.354 N 
ATOM     55  N   UNL A   1      45.192  27.001  28.402  1.00  0.00    -0.248 NA
ATOM     56  C   UNL A   1      43.834  25.446  29.496  1.00  0.00     0.031 C 
ATOM     57  C   UNL A   1      45.046  30.493  31.883  1.00  0.00     0.029 A 
ATOM     58  C   UNL A   1      45.130  29.167  31.449  1.00  0.00     0.049 A 
ATOM     59  H   UNL A   1      44.980  27.505  32.729  1.00  0.00     0.167 HD
ATOM     60  C   UNL A   1      45.167  27.332  29.753  1.00  0.00     0.074 A 
ATOM     61  C   UNL A   1      44.373  26.282  30.392  1.00  0.00     0.031 C 
ATOM     62  C   UNL A   1      45.504  28.586  30.178  1.00  0.00     0.034 A 
BRANCH  49  63
ATOM     63  C   UNL A   1      42.727  27.373  34.668  1.00  0.00     0.023 A 
ATOM     64  C   UNL A   1      42.490  27.616  36.039  1.00  0.00     0.012 A 
ATOM     65  C   UNL A   1      43.254  26.103  34.335  1.00  0.00     0.148 A 
ATOM     66  C   UNL A   1      42.856  26.696  37.026  1.00  0.00     0.002 A 
ATOM     67  C   UNL A   1      43.564  25.166  35.314  1.00  0.00     0.091 A 
ATOM     68  F   UNL A   1      43.576  25.799  33.080  1.00  0.00    -0.205 F 
ATOM     69  C   UNL A   1      43.400  25.471  36.664  1.00  0.00     0.022 A 
BRANCH  67  70
ATOM     70  S   UNL A   1      44.245  23.553  34.893  1.00  0.00     0.127 S 
ATOM     71  O   UNL A   1      43.156  22.973  34.115  1.00  0.00    -0.237 OA
ATOM     72  O   UNL A   1      45.432  23.926  34.124  1.00  0.00    -0.237 OA
ATOM     73  O   UNL A   1      44.539  22.898  36.161  1.00  0.00    -0.744 OA
ENDBRANCH  67  70
ENDBRANCH  49  63
BRANCH  50  74
ATOM     74  C   UNL A   1      42.967  24.885  26.364  1.00  0.00     0.023 A 
ATOM     75  C   UNL A   1      43.843  24.438  25.353  1.00  0.00     0.012 A 
ATOM     76  C   UNL A   1      41.953  24.000  26.794  1.00  0.00     0.148 A 
ATOM     77  C   UNL A   1      43.715  23.154  24.799  1.00  0.00     0.002 A 
ATOM     78  C   UNL A   1      41.820  22.733  26.232  1.00  0.00     0.091 A 
ATOM     79  F   UNL A   1      41.177  24.359  27.824  1.00  0.00    -0.205 F 
ATOM     80  C   UNL A   1      42.706  22.301  25.239  1.00  0.00     0.022 A 
BRANCH  78  81
ATOM     81  S   UNL A   1      40.549  21.580  26.774  1.00  0.00     0.127 S 
ATOM     82  O   UNL A   1      40.805  21.502  28.213  1.00  0.00    -0.237 OA
ATOM     83  O   UNL A   1      39.325  22.287  26.406  1.00  0.00    -0.237 OA
ATOM     84  O   UNL A   1      40.805  20.340  26.053  1.00  0.00    -0.744 OA
ENDBRANCH  78  81
ENDBRANCH  50  74
BRANCH  62  85
ATOM     85  C   UNL A   1      46.116  29.540  29.185  1.00  0.00     0.023 A 
ATOM     86  C   UNL A   1      47.447  29.419  28.728  1.00  0.00     0.012 A 
ATOM     87  C   UNL A   1      45.250  30.426  28.531  1.00  0.00     0.148 A 
ATOM     88  C   UNL A   1      47.898  30.172  27.639  1.00  0.00     0.002 A 
ATOM     89  C   UNL A   1      45.685  31.131  27.418  1.00  0.00     0.091 A 
ATOM     90  F   UNL A   1      43.990  30.524  28.982  1.00  0.00    -0.205 F 
ATOM     91  C   UNL A   1      47.011  31.015  26.973  1.00  0.00     0.022 A 
BRANCH  89  92
ATOM     92  S   UNL A   1      44.546  32.105  26.434  1.00  0.00     0.127 S 
ATOM     93  O   UNL A   1      45.414  32.602  25.369  1.00  0.00    -0.237 OA
ATOM     94  O   UNL A   1      43.565  31.104  26.010  1.00  0.00    -0.237 OA
ATOM     95  O   UNL A   1      44.008  33.122  27.330  1.00  0.00    -0.744 OA
ENDBRANCH  89  92
ENDBRANCH  62  85
ENDBRANCH  36  37
ENDBRANCH  29  31
ENDBRANCH  28  29
ENDBRANCH  27  28
ENDBRANCH  26  27
ENDBRANCH   1  26
TORSDOF 20
ENDMDL
MODEL 2
REMARK VINA RESULT:     -11.1      2.970      7.693
REMARK SMILES Cc1nsc(NC(=O)c2ccc(N)cc2)c1C(=O)OCCOCCOC(=O)c1ccc(-c2c3nc(c(-c4cccc(S(=O)(=O)[O-])c4F)c4ccc([nH]4)c(-c4cccc(S(=O)(=O)[O-])c4F)c4nc(c(-c5cccc(S(=O)(=O)[O-])c5F)c5ccc2[nH]5)C=C4)C=C3)cc1
REMARK SMILES IDX 22 1 21 2 20 3 19 4 17 5 18 6 16 7 1 8 2 9 3 10 4 11 5 12
REMARK SMILES IDX 6 13 7 14 8 16 9 17 10 18 15 19 11 20 14 21 12 22 13 23
REMARK SMILES IDX 23 26 24 27 25 28 26 29 27 30 28 31 29 32 90 33 30 34 89 35
REMARK SMILES IDX 31 36 32 37 33 38 83 39 34 40 88 41 82 42 84 43 35 44 87 45
REMARK SMILES IDX 81 46 80 47 36 49 68 50 48 51 67 52 49 53 52 54 66 55 85 56
REMARK SMILES IDX 50 57 51 58 65 60 86 61 53 62 37 63 38 64 46 65 39 66 41 67
REMARK SMILES IDX 47 68 40 69 42 70 43 71 44 72 45 73 69 74 70 75 78 76 71 77
REMARK SMILES IDX 73 78 79 79 72 80 74 81 75 82 76 83 77 84 54 85 55 86 63 87
REMARK SMILES IDX 56 88 58 89 64 90 57 91 59 92 60 93 61 94 62 95
REMARK H PARENT 6 15 13 24 13 25 84 48 52 59
REMARK Flexibility Score: inf
ROOT
ATOM      1  O   UNL A   1      35.715  22.772  25.218  1.00  0.00    -0.374 OA
ENDROOT
BRANCH   1   2
ATOM      2  C   UNL A   1      34.938  21.604  25.492  1.00  0.00     0.202 C 
BRANCH   2   3
ATOM      3  C   UNL A   1      33.822  21.212  24.520  1.00  0.00     0.261 C 
BRANCH   3   4
ATOM      4  O   UNL A   1      33.527  22.266  23.589  1.00  0.00    -0.460 OA
BRANCH   4   5
ATOM      5  C   UNL A   1      32.276  22.802  23.696  1.00  0.00     0.343 C 
ATOM      6  O   UNL A   1      31.296  22.398  23.095  1.00  0.00    -0.246 OA
BRANCH   5   7
ATOM      7  C   UNL A   1      32.185  23.755  24.789  1.00  0.00     0.117 A 
ATOM      8  C   UNL A   1      30.442  22.583  26.373  1.00  0.00     0.069 C 
ATOM      9  C   UNL A   1      31.362  23.684  25.968  1.00  0.00     0.068 A 
ATOM     10  N   UNL A   1      31.435  24.735  26.785  1.00  0.00    -0.195 NA
ATOM     11  S   UNL A   1      32.383  25.891  26.095  1.00  0.00    -0.017 S 
ATOM     12  C   UNL A   1      32.875  24.963  24.758  1.00  0.00     0.131 A 
BRANCH  12  13
ATOM     13  N   UNL A   1      33.689  25.445  23.740  1.00  0.00    -0.312 N 
ATOM     14  C   UNL A   1      33.423  26.310  22.703  1.00  0.00     0.256 C 
ATOM     15  H   UNL A   1      34.615  25.110  23.765  1.00  0.00     0.171 HD
ATOM     16  O   UNL A   1      34.138  26.315  21.702  1.00  0.00    -0.269 OA
BRANCH  14  17
ATOM     17  C   UNL A   1      32.352  27.316  22.811  1.00  0.00     0.040 A 
ATOM     18  C   UNL A   1      32.639  28.591  23.308  1.00  0.00     0.016 A 
ATOM     19  C   UNL A   1      31.058  26.991  22.406  1.00  0.00     0.016 A 
ATOM     20  C   UNL A   1      31.598  29.486  23.542  1.00  0.00     0.026 A 
ATOM     21  C   UNL A   1      30.026  27.907  22.625  1.00  0.00     0.026 A 
ATOM     22  C   UNL A   1      30.277  29.124  23.266  1.00  0.00     0.031 A 
BRANCH  22  23
ATOM     23  N   UNL A   1      29.245  30.026  23.497  1.00  0.00    -0.399 N 
ATOM     24  H   UNL A   1      29.120  30.795  22.896  1.00  0.00     0.156 HD
ATOM     25  H   UNL A   1      28.639  29.895  24.262  1.00  0.00     0.156 HD
ENDBRANCH  22  23
ENDBRANCH  14  17
ENDBRANCH  12  13
ENDBRANCH   5   7
ENDBRANCH   4   5
ENDBRANCH   3   4
ENDBRANCH   2   3
ENDBRANCH   1   2
BRANCH   1  26
ATOM     26  C   UNL A   1      37.075  22.672  24.808  1.00  0.00     0.202 C 
BRANCH  26  27
ATOM     27  C   UNL A   1      37.849  21.383  25.040  1.00  0.00     0.261 C 
BRANCH  27  28
ATOM     28  O   UNL A   1      38.906  21.589  25.955  1.00  0.00    -0.460 OA
BRANCH  28  29
ATOM     29  C   UNL A   1      39.837  20.608  25.925  1.00  0.00     0.338 C 
ATOM     30  O   UNL A   1      39.688  19.460  25.554  1.00  0.00    -0.246 OA
BRANCH  29  31
ATOM     31  C   UNL A   1      41.076  21.133  26.510  1.00  0.00     0.060 A 
ATOM     32  C   UNL A   1      41.131  21.050  27.903  1.00  0.00     0.016 A 
ATOM     33  C   UNL A   1      41.798  22.080  25.774  1.00  0.00     0.016 A 
ATOM     34  C   UNL A   1      41.580  22.155  28.573  1.00  0.00     0.010 A 
ATOM     35  C   UNL A   1      42.219  23.192  26.443  1.00  0.00     0.010 A 
ATOM     36  C   UNL A   1      41.983  23.255  27.813  1.00  0.00    -0.014 A 
BRANCH  36  37
ATOM     37  C   UNL A   1      42.206  24.504  28.491  1.00  0.00     0.031 A 
ATOM     38  C   UNL A   1      41.089  25.438  28.247  1.00  0.00     0.074 A 
ATOM     39  C   UNL A   1      43.254  24.672  29.318  1.00  0.00     0.049 A 
ATOM     40  N   UNL A   1      41.069  26.433  27.423  1.00  0.00    -0.248 NA
ATOM     41  C   UNL A   1      39.759  25.032  28.733  1.00  0.00     0.031 C 
ATOM     42  C   UNL A   1      44.196  23.666  29.824  1.00  0.00     0.029 A 
ATOM     43  N   UNL A   1      43.606  25.780  30.011  1.00  0.00    -0.354 N 
ATOM     44  C   UNL A   1      39.771  26.924  27.511  1.00  0.00     0.074 A 
ATOM     45  C   UNL A   1      38.978  25.846  28.024  1.00  0.00     0.031 C 
ATOM     46  C   UNL A   1      44.793  24.150  30.940  1.00  0.00     0.029 A 
ATOM     47  C   UNL A   1      44.356  25.521  31.151  1.00  0.00     0.049 A 
ATOM     48  H   UNL A   1      43.354  26.689  29.732  1.00  0.00     0.167 HD
ATOM     49  C   UNL A   1      39.525  28.263  27.513  1.00  0.00     0.034 A 
ATOM     50  C   UNL A   1      44.466  26.342  32.229  1.00  0.00     0.034 A 
ATOM     51  C   UNL A   1      40.695  28.988  27.076  1.00  0.00     0.049 A 
ATOM     52  C   UNL A   1      44.005  27.690  31.798  1.00  0.00     0.074 A 
ATOM     53  C   UNL A   1      41.458  29.008  25.927  1.00  0.00     0.029 A 
ATOM     54  N   UNL A   1      41.474  29.541  28.067  1.00  0.00    -0.354 N 
ATOM     55  N   UNL A   1      44.629  28.407  30.904  1.00  0.00    -0.248 NA
ATOM     56  C   UNL A   1      42.593  28.004  31.976  1.00  0.00     0.031 C 
ATOM     57  C   UNL A   1      42.802  29.143  26.382  1.00  0.00     0.029 A 
ATOM     58  C   UNL A   1      42.784  29.282  27.772  1.00  0.00     0.049 A 
ATOM     59  H   UNL A   1      41.145  30.039  28.852  1.00  0.00     0.167 HD
ATOM     60  C   UNL A   1      43.616  28.919  30.101  1.00  0.00     0.074 A 
ATOM     61  C   UNL A   1      42.382  28.711  30.859  1.00  0.00     0.031 C 
ATOM     62  C   UNL A   1      43.822  29.159  28.772  1.00  0.00     0.034 A 
BRANCH  49  63
ATOM     63  C   UNL A   1      38.430  28.951  28.308  1.00  0.00     0.023 A 
ATOM     64  C   UNL A   1      37.604  29.839  27.583  1.00  0.00     0.012 A 
ATOM     65  C   UNL A   1      38.329  29.008  29.719  1.00  0.00     0.148 A 
ATOM     66  C   UNL A   1      36.809  30.796  28.220  1.00  0.00     0.002 A 
ATOM     67  C   UNL A   1      37.494  29.922  30.351  1.00  0.00     0.091 A 
ATOM     68  F   UNL A   1      39.111  28.262  30.495  1.00  0.00    -0.205 F 
ATOM     69  C   UNL A   1      36.759  30.843  29.607  1.00  0.00     0.022 A 
BRANCH  67  70
ATOM     70  S   UNL A   1      37.373  30.004  32.146  1.00  0.00     0.127 S 
ATOM     71  O   UNL A   1      38.677  30.557  32.498  1.00  0.00    -0.237 OA
ATOM     72  O   UNL A   1      36.242  30.913  32.324  1.00  0.00    -0.237 OA
ATOM     73  O   UNL A   1      37.119  28.641  32.594  1.00  0.00    -0.744 OA
ENDBRANCH  67  70
ENDBRANCH  49  63
BRANCH  50  74
ATOM     74  C   UNL A   1      44.561  25.967  33.665  1.00  0.00     0.023 A 
ATOM     75  C   UNL A   1      45.822  25.830  34.283  1.00  0.00     0.012 A 
ATOM     76  C   UNL A   1      43.421  26.004  34.500  1.00  0.00     0.148 A 
ATOM     77  C   UNL A   1      45.939  25.740  35.679  1.00  0.00     0.002 A 
ATOM     78  C   UNL A   1      43.540  25.900  35.883  1.00  0.00     0.091 A 
ATOM     79  F   UNL A   1      42.225  26.240  33.947  1.00  0.00    -0.205 F 
ATOM     80  C   UNL A   1      44.799  25.777  36.479  1.00  0.00     0.022 A 
BRANCH  78  81
ATOM     81  S   UNL A   1      42.106  25.962  36.968  1.00  0.00     0.127 S 
ATOM     82  O   UNL A   1      41.415  27.160  36.489  1.00  0.00    -0.237 OA
ATOM     83  O   UNL A   1      41.437  24.702  36.655  1.00  0.00    -0.237 OA
ATOM     84  O   UNL A   1      42.637  26.079  38.320  1.00  0.00    -0.744 OA
ENDBRANCH  78  81
ENDBRANCH  50  74
BRANCH  62  85
ATOM     85  C   UNL A   1      45.228  29.070  28.237  1.00  0.00     0.023 A 
ATOM     86  C   UNL A   1      46.177  30.102  28.404  1.00  0.00     0.012 A 
ATOM     87  C   UNL A   1      45.657  27.821  27.766  1.00  0.00     0.148 A 
ATOM     88  C   UNL A   1      47.527  29.885  28.105  1.00  0.00     0.002 A 
ATOM     89  C   UNL A   1      47.003  27.593  27.522  1.00  0.00     0.091 A 
ATOM     90  F   UNL A   1      44.737  26.855  27.616  1.00  0.00    -0.205 F 
ATOM     91  C   UNL A   1      47.942  28.624  27.682  1.00  0.00     0.022 A 
BRANCH  89  92
ATOM     92  S   UNL A   1      47.609  25.953  27.128  1.00  0.00     0.127 S 
ATOM     93  O   UNL A   1      47.120  25.169  28.260  1.00  0.00    -0.237 OA
ATOM     94  O   UNL A   1      46.945  25.672  25.854  1.00  0.00    -0.237 OA
ATOM     95  O   UNL A   1      49.059  26.073  27.028  1.00  0.00    -0.744 OA
ENDBRANCH  89  92
ENDBRANCH  62  85
ENDBRANCH  36  37
ENDBRANCH  29  31
ENDBRANCH  28  29
ENDBRANCH  27  28
ENDBRANCH  26  27
ENDBRANCH   1  26
TORSDOF 20
ENDMDL
MODEL 3
REMARK VINA RESULT:     -11.1      1.977      2.862
REMARK SMILES Cc1nsc(NC(=O)c2ccc(N)cc2)c1C(=O)OCCOCCOC(=O)c1ccc(-c2c3nc(c(-c4cccc(S(=O)(=O)[O-])c4F)c4ccc([nH]4)c(-c4cccc(S(=O)(=O)[O-])c4F)c4nc(c(-c5cccc(S(=O)(=O)[O-])c5F)c5ccc2[nH]5)C=C4)C=C3)cc1
REMARK SMILES IDX 22 1 21 2 20 3 19 4 17 5 18 6 16 7 1 8 2 9 3 10 4 11 5 12
REMARK SMILES IDX 6 13 7 14 8 16 9 17 10 18 15 19 11 20 14 21 12 22 13 23
REMARK SMILES IDX 23 26 24 27 25 28 26 29 27 30 28 31 29 32 90 33 30 34 89 35
REMARK SMILES IDX 31 36 32 37 33 38 83 39 34 40 88 41 82 42 84 43 35 44 87 45
REMARK SMILES IDX 81 46 80 47 36 49 68 50 48 51 67 52 49 53 52 54 66 55 85 56
REMARK SMILES IDX 50 57 51 58 65 60 86 61 53 62 37 63 38 64 46 65 39 66 41 67
REMARK SMILES IDX 47 68 40 69 42 70 43 71 44 72 45 73 69 74 70 75 78 76 71 77
REMARK SMILES IDX 73 78 79 79 72 80 74 81 75 82 76 83 77 84 54 85 55 86 63 87
REMARK SMILES IDX 56 88 58 89 64 90 57 91 59 92 60 93 61 94 62 95
REMARK H PARENT 6 15 13 24 13 25 84 48 52 59
REMARK Flexibility Score: inf
ROOT
ATOM      1  O   UNL A   1      31.683  30.097  25.518  1.00  0.00    -0.374 OA
ENDROOT
BRANCH   1   2
ATOM      2  C   UNL A   1      31.159  29.004  24.761  1.00  0.00     0.202 C 
BRANCH   2   3
ATOM      3  C   UNL A   1      31.318  29.015  23.238  1.00  0.00     0.261 C 
BRANCH   3   4
ATOM      4  O   UNL A   1      31.621  27.709  22.722  1.00  0.00    -0.460 OA
BRANCH   4   5
ATOM      5  C   UNL A   1      32.924  27.513  22.365  1.00  0.00     0.343 C 
ATOM      6  O   UNL A   1      33.760  28.395  22.282  1.00  0.00    -0.246 OA
BRANCH   5   7
ATOM      7  C   UNL A   1      33.270  26.101  22.332  1.00  0.00     0.117 A 
ATOM      8  C   UNL A   1      32.301  25.371  19.998  1.00  0.00     0.069 C 
ATOM      9  C   UNL A   1      32.982  25.136  21.304  1.00  0.00     0.068 A 
ATOM     10  N   UNL A   1      33.370  23.887  21.561  1.00  0.00    -0.195 NA
ATOM     11  S   UNL A   1      33.963  23.811  23.095  1.00  0.00    -0.017 S 
ATOM     12  C   UNL A   1      33.888  25.480  23.413  1.00  0.00     0.131 A 
BRANCH  12  13
ATOM     13  N   UNL A   1      34.231  26.051  24.633  1.00  0.00    -0.312 N 
ATOM     14  C   UNL A   1      33.523  26.167  25.807  1.00  0.00     0.256 C 
ATOM     15  H   UNL A   1      35.136  26.439  24.661  1.00  0.00     0.171 HD
ATOM     16  O   UNL A   1      33.831  27.024  26.634  1.00  0.00    -0.269 OA
BRANCH  14  17
ATOM     17  C   UNL A   1      32.458  25.207  26.149  1.00  0.00     0.040 A 
ATOM     18  C   UNL A   1      32.787  23.971  26.711  1.00  0.00     0.016 A 
ATOM     19  C   UNL A   1      31.126  25.544  25.915  1.00  0.00     0.016 A 
ATOM     20  C   UNL A   1      31.791  23.015  26.897  1.00  0.00     0.026 A 
ATOM     21  C   UNL A   1      30.133  24.585  26.126  1.00  0.00     0.026 A 
ATOM     22  C   UNL A   1      30.469  23.292  26.541  1.00  0.00     0.031 A 
BRANCH  22  23
ATOM     23  N   UNL A   1      29.480  22.334  26.734  1.00  0.00    -0.399 N 
ATOM     24  H   UNL A   1      29.674  21.385  26.559  1.00  0.00     0.156 HD
ATOM     25  H   UNL A   1      28.587  22.604  27.047  1.00  0.00     0.156 HD
ENDBRANCH  22  23
ENDBRANCH  14  17
ENDBRANCH  12  13
ENDBRANCH   5   7
ENDBRANCH   4   5
ENDBRANCH   3   4
ENDBRANCH   2   3
ENDBRANCH   1   2
BRANCH   1  26
ATOM     26  C   UNL A   1      33.059  30.147  25.883  1.00  0.00     0.202 C 
BRANCH  26  27
ATOM     27  C   UNL A   1      33.460  30.564  27.290  1.00  0.00     0.261 C 
BRANCH  27  28
ATOM     28  O   UNL A   1      34.828  30.295  27.523  1.00  0.00    -0.460 OA
BRANCH  28  29
ATOM     29  C   UNL A   1      35.517  31.374  27.962  1.00  0.00     0.338 C 
ATOM     30  O   UNL A   1      35.498  32.499  27.501  1.00  0.00    -0.246 OA
BRANCH  29  31
ATOM     31  C   UNL A   1      36.386  30.946  29.064  1.00  0.00     0.060 A 
ATOM     32  C   UNL A   1      37.394  31.857  29.383  1.00  0.00     0.016 A 
ATOM     33  C   UNL A   1      36.488  29.574  29.322  1.00  0.00     0.016 A 
ATOM     34  C   UNL A   1      38.649  31.349  29.584  1.00  0.00     0.010 A 
ATOM     35  C   UNL A   1      37.744  29.070  29.495  1.00  0.00     0.010 A 
ATOM     36  C   UNL A   1      38.810  29.965  29.494  1.00  0.00    -0.014 A 
BRANCH  36  37
ATOM     37  C   UNL A   1      40.148  29.439  29.440  1.00  0.00     0.031 A 
ATOM     38  C   UNL A   1      40.722  29.331  30.796  1.00  0.00     0.074 A 
ATOM     39  C   UNL A   1      40.683  29.010  28.283  1.00  0.00     0.049 A 
ATOM     40  N   UNL A   1      41.569  30.134  31.351  1.00  0.00    -0.248 NA
ATOM     41  C   UNL A   1      40.048  28.421  31.737  1.00  0.00     0.031 C 
ATOM     42  C   UNL A   1      40.026  28.811  26.985  1.00  0.00     0.029 A 
ATOM     43  N   UNL A   1      41.921  28.508  28.066  1.00  0.00    -0.354 N 
ATOM     44  C   UNL A   1      41.712  29.638  32.643  1.00  0.00     0.074 A 
ATOM     45  C   UNL A   1      40.537  28.859  32.897  1.00  0.00     0.031 C 
ATOM     46  C   UNL A   1      40.782  27.971  26.238  1.00  0.00     0.029 A 
ATOM     47  C   UNL A   1      42.008  27.671  26.961  1.00  0.00     0.049 A 
ATOM     48  H   UNL A   1      42.692  28.717  28.641  1.00  0.00     0.167 HD
ATOM     49  C   UNL A   1      42.931  29.598  33.248  1.00  0.00     0.034 A 
ATOM     50  C   UNL A   1      42.956  26.717  26.764  1.00  0.00     0.034 A 
ATOM     51  C   UNL A   1      43.876  30.420  32.528  1.00  0.00     0.049 A 
ATOM     52  C   UNL A   1      44.074  27.015  27.701  1.00  0.00     0.074 A 
ATOM     53  C   UNL A   1      43.951  31.757  32.194  1.00  0.00     0.029 A 
ATOM     54  N   UNL A   1      44.730  29.759  31.674  1.00  0.00    -0.354 N 
ATOM     55  N   UNL A   1      44.812  28.087  27.614  1.00  0.00    -0.248 NA
ATOM     56  C   UNL A   1      44.030  26.391  29.017  1.00  0.00     0.031 C 
ATOM     57  C   UNL A   1      44.485  31.775  30.873  1.00  0.00     0.029 A 
ATOM     58  C   UNL A   1      44.785  30.461  30.502  1.00  0.00     0.049 A 
ATOM     59  H   UNL A   1      45.218  28.927  31.874  1.00  0.00     0.167 HD
ATOM     60  C   UNL A   1      44.941  28.527  28.926  1.00  0.00     0.074 A 
ATOM     61  C   UNL A   1      44.515  27.398  29.754  1.00  0.00     0.031 C 
ATOM     62  C   UNL A   1      45.061  29.857  29.217  1.00  0.00     0.034 A 
BRANCH  49  63
ATOM     63  C   UNL A   1      43.404  28.509  34.195  1.00  0.00     0.023 A 
ATOM     64  C   UNL A   1      43.917  28.948  35.435  1.00  0.00     0.012 A 
ATOM     65  C   UNL A   1      43.637  27.153  33.860  1.00  0.00     0.148 A 
ATOM     66  C   UNL A   1      44.704  28.122  36.243  1.00  0.00     0.002 A 
ATOM     67  C   UNL A   1      44.372  26.317  34.693  1.00  0.00     0.091 A 
ATOM     68  F   UNL A   1      43.254  26.659  32.687  1.00  0.00    -0.205 F 
ATOM     69  C   UNL A   1      44.939  26.806  35.868  1.00  0.00     0.022 A 
BRANCH  67  70
ATOM     70  S   UNL A   1      44.679  24.595  34.265  1.00  0.00     0.127 S 
ATOM     71  O   UNL A   1      45.420  24.736  33.015  1.00  0.00    -0.237 OA
ATOM     72  O   UNL A   1      45.468  24.142  35.410  1.00  0.00    -0.237 OA
ATOM     73  O   UNL A   1      43.369  23.967  34.158  1.00  0.00    -0.744 OA
ENDBRANCH  67  70
ENDBRANCH  49  63
BRANCH  50  74
ATOM     74  C   UNL A   1      42.799  25.381  26.129  1.00  0.00     0.023 A 
ATOM     75  C   UNL A   1      43.736  24.932  25.176  1.00  0.00     0.012 A 
ATOM     76  C   UNL A   1      41.884  24.437  26.647  1.00  0.00     0.148 A 
ATOM     77  C   UNL A   1      43.763  23.590  24.762  1.00  0.00     0.002 A 
ATOM     78  C   UNL A   1      41.904  23.111  26.223  1.00  0.00     0.091 A 
ATOM     79  F   UNL A   1      41.055  24.813  27.629  1.00  0.00    -0.205 F 
ATOM     80  C   UNL A   1      42.850  22.680  25.287  1.00  0.00     0.022 A 
BRANCH  78  81
ATOM     81  S   UNL A   1      40.762  21.885  26.880  1.00  0.00     0.127 S 
ATOM     82  O   UNL A   1      41.092  21.898  28.306  1.00  0.00    -0.237 OA
ATOM     83  O   UNL A   1      39.467  22.470  26.545  1.00  0.00    -0.237 OA
ATOM     84  O   UNL A   1      41.088  20.637  26.203  1.00  0.00    -0.744 OA
ENDBRANCH  78  81
ENDBRANCH  50  74
BRANCH  62  85
ATOM     85  C   UNL A   1      45.274  30.822  28.080  1.00  0.00     0.023 A 
ATOM     86  C   UNL A   1      44.208  31.418  27.372  1.00  0.00     0.012 A 
ATOM     87  C   UNL A   1      46.574  31.310  27.889  1.00  0.00     0.148 A 
ATOM     88  C   UNL A   1      44.442  32.480  26.491  1.00  0.00     0.002 A 
ATOM     89  C   UNL A   1      46.795  32.398  27.056  1.00  0.00     0.091 A 
ATOM     90  F   UNL A   1      47.572  30.729  28.573  1.00  0.00    -0.205 F 
ATOM     91  C   UNL A   1      45.734  32.982  26.348  1.00  0.00     0.022 A 
BRANCH  89  92
ATOM     92  S   UNL A   1      48.406  33.178  26.958  1.00  0.00     0.127 S 
ATOM     93  O   UNL A   1      48.708  33.429  28.365  1.00  0.00    -0.237 OA
ATOM     94  O   UNL A   1      49.221  32.134  26.332  1.00  0.00    -0.237 OA
ATOM     95  O   UNL A   1      48.228  34.366  26.133  1.00  0.00    -0.744 OA
ENDBRANCH  89  92
ENDBRANCH  62  85
ENDBRANCH  36  37
ENDBRANCH  29  31
ENDBRANCH  28  29
ENDBRANCH  27  28
ENDBRANCH  26  27
ENDBRANCH   1  26
TORSDOF 20
ENDMDL
