MODEL 1
REMARK VINA RESULT:     -12.6      0.000      0.000
REMARK SMILES C[C@@H](O)[C@@H](NC(=O)Nc1ccc(F)cc1F)C(=O)OCCOCCOC(=O)c1ccc(-c2c3nc(c(-c4cccc(S(=O)(=O)[O-])c4F)c4ccc([nH]4)c(-c4cccc(S(=O)(=O)[O-])c4F)c4nc(c(-c5cccc(S(=O)(=O)[O-])c5F)c5ccc2[nH]5)C=C4)C=C3)cc1
REMARK SMILES IDX 23 1 22 2 21 3 20 4 19 5 17 6 18 7 4 8 2 9 1 10 3 11 5 13
REMARK SMILES IDX 6 14 7 16 8 17 9 19 10 20 15 21 11 22 14 23 16 24 12 25
REMARK SMILES IDX 13 26 24 27 25 28 26 29 27 30 28 31 29 32 90 33 30 34 89 35
REMARK SMILES IDX 31 36 32 37 33 38 83 39 34 40 88 41 82 42 84 43 35 44 87 45
REMARK SMILES IDX 81 46 80 47 36 49 68 50 48 51 67 52 49 53 52 54 66 55 85 56
REMARK SMILES IDX 50 57 51 58 65 60 86 61 53 62 37 63 38 64 46 65 39 66 41 67
REMARK SMILES IDX 47 68 40 69 42 70 43 71 44 72 45 73 69 74 70 75 78 76 71 77
REMARK SMILES IDX 73 78 79 79 72 80 74 81 75 82 76 83 77 84 54 85 55 86 63 87
REMARK SMILES IDX 56 88 58 89 64 90 57 91 59 92 60 93 61 94 62 95
REMARK H PARENT 3 12 5 15 8 18 84 48 52 59
REMARK Flexibility Score: inf
ROOT
ATOM      1  C   UNL A   1      33.764  31.418  27.623  1.00  0.00     0.202 C 
ENDROOT
BRANCH   1   2
ATOM      2  O   UNL A   1      33.421  29.446  27.227  1.00  0.00    -0.374 OA
BRANCH   2   3
ATOM      3  C   UNL A   1      31.995  28.388  27.563  1.00  0.00     0.202 C 
BRANCH   3   4
ATOM      4  C   UNL A   1      31.559  26.826  26.658  1.00  0.00     0.261 C 
BRANCH   4   5
ATOM      5  O   UNL A   1      31.454  26.605  25.048  1.00  0.00    -0.462 OA
BRANCH   5   6
ATOM      6  C   UNL A   1      31.998  27.341  23.980  1.00  0.00     0.331 C 
ATOM      7  O   UNL A   1      32.935  28.112  24.170  1.00  0.00    -0.250 OA
BRANCH   6   8
ATOM      8  C   UNL A   1      31.275  27.272  22.457  1.00  0.00     0.222 C 
BRANCH   8   9
ATOM      9  C   UNL A   1      30.196  28.404  22.252  1.00  0.00     0.145 C 
ATOM     10  C   UNL A   1      29.652  29.080  23.505  1.00  0.00     0.041 C 
BRANCH   9  11
ATOM     11  O   UNL A   1      30.844  29.504  21.539  1.00  0.00    -0.391 OA
ATOM     12  H   UNL A   1      31.013  30.233  22.156  1.00  0.00     0.211 HD
ENDBRANCH   9  11
ENDBRANCH   8   9
BRANCH   8  13
ATOM     13  N   UNL A   1      31.998  26.743  21.265  1.00  0.00    -0.322 N 
ATOM     14  C   UNL A   1      32.559  25.549  20.903  1.00  0.00     0.320 C 
ATOM     15  H   UNL A   1      32.096  27.424  20.561  1.00  0.00     0.166 HD
ATOM     16  O   UNL A   1      33.114  25.517  19.796  1.00  0.00    -0.248 OA
ATOM     17  N   UNL A   1      32.532  24.372  21.618  1.00  0.00    -0.305 N 
ATOM     18  H   UNL A   1      32.685  23.563  21.077  1.00  0.00     0.171 HD
BRANCH  17  19
ATOM     19  C   UNL A   1      32.323  24.123  22.997  1.00  0.00     0.079 A 
ATOM     20  C   UNL A   1      30.884  23.535  23.757  1.00  0.00     0.032 A 
ATOM     21  C   UNL A   1      33.793  24.179  23.923  1.00  0.00     0.149 A 
ATOM     22  C   UNL A   1      30.864  23.019  25.459  1.00  0.00     0.041 A 
ATOM     23  C   UNL A   1      33.862  23.692  25.726  1.00  0.00     0.080 A 
ATOM     24  F   UNL A   1      34.601  23.700  22.958  1.00  0.00    -0.205 F 
ATOM     25  C   UNL A   1      32.325  23.093  26.458  1.00  0.00     0.126 A 
ATOM     26  F   UNL A   1      32.267  22.777  27.754  1.00  0.00    -0.207 F 
ENDBRANCH  17  19
ENDBRANCH   8  13
ENDBRANCH   6   8
ENDBRANCH   5   6
ENDBRANCH   4   5
ENDBRANCH   3   4
ENDBRANCH   2   3
ENDBRANCH   1   2
BRANCH   1  27
ATOM     27  C   UNL A   1      32.597  32.796  27.645  1.00  0.00     0.261 C 
BRANCH  27  28
ATOM     28  O   UNL A   1      33.058  34.199  27.843  1.00  0.00    -0.460 OA
BRANCH  28  29
ATOM     29  C   UNL A   1      33.330  34.641  29.127  1.00  0.00     0.338 C 
ATOM     30  O   UNL A   1      32.513  35.195  29.849  1.00  0.00    -0.246 OA
BRANCH  29  31
ATOM     31  C   UNL A   1      34.628  34.101  29.703  1.00  0.00     0.060 A 
ATOM     32  C   UNL A   1      34.589  33.276  30.849  1.00  0.00     0.016 A 
ATOM     33  C   UNL A   1      35.882  34.387  29.166  1.00  0.00     0.016 A 
ATOM     34  C   UNL A   1      35.754  32.662  31.372  1.00  0.00     0.010 A 
ATOM     35  C   UNL A   1      37.054  33.801  29.711  1.00  0.00     0.010 A 
ATOM     36  C   UNL A   1      37.009  32.914  30.804  1.00  0.00    -0.014 A 
BRANCH  36  37
ATOM     37  C   UNL A   1      38.282  32.373  31.401  1.00  0.00     0.031 A 
ATOM     38  C   UNL A   1      38.956  31.190  30.745  1.00  0.00     0.074 A 
ATOM     39  C   UNL A   1      38.827  32.861  32.538  1.00  0.00     0.049 A 
ATOM     40  N   UNL A   1      39.977  30.475  31.148  1.00  0.00    -0.248 NA
ATOM     41  C   UNL A   1      38.393  30.762  29.458  1.00  0.00     0.031 C 
ATOM     42  C   UNL A   1      38.341  34.020  33.282  1.00  0.00     0.029 A 
ATOM     43  N   UNL A   1      39.900  32.414  33.288  1.00  0.00    -0.354 N 
ATOM     44  C   UNL A   1      40.156  29.487  30.185  1.00  0.00     0.074 A 
ATOM     45  C   UNL A   1      39.136  29.701  29.179  1.00  0.00     0.031 C 
ATOM     46  C   UNL A   1      39.083  34.171  34.395  1.00  0.00     0.029 A 
ATOM     47  C   UNL A   1      40.075  33.097  34.474  1.00  0.00     0.049 A 
ATOM     48  H   UNL A   1      40.485  31.677  33.001  1.00  0.00     0.167 HD
ATOM     49  C   UNL A   1      41.076  28.490  30.132  1.00  0.00     0.034 A 
ATOM     50  C   UNL A   1      40.904  32.868  35.519  1.00  0.00     0.034 A 
ATOM     51  C   UNL A   1      42.085  28.251  31.131  1.00  0.00     0.049 A 
ATOM     52  C   UNL A   1      41.861  31.696  35.486  1.00  0.00     0.074 A 
ATOM     53  C   UNL A   1      43.070  27.277  31.143  1.00  0.00     0.029 A 
ATOM     54  N   UNL A   1      42.221  28.964  32.312  1.00  0.00    -0.354 N 
ATOM     55  N   UNL A   1      42.073  30.827  34.528  1.00  0.00    -0.248 NA
ATOM     56  C   UNL A   1      42.707  31.482  36.675  1.00  0.00     0.031 C 
ATOM     57  C   UNL A   1      43.763  27.366  32.354  1.00  0.00     0.029 A 
ATOM     58  C   UNL A   1      43.253  28.435  33.070  1.00  0.00     0.049 A 
ATOM     59  H   UNL A   1      41.666  29.734  32.572  1.00  0.00     0.167 HD
ATOM     60  C   UNL A   1      43.097  29.995  34.979  1.00  0.00     0.074 A 
ATOM     61  C   UNL A   1      43.475  30.470  36.292  1.00  0.00     0.031 C 
ATOM     62  C   UNL A   1      43.664  28.930  34.360  1.00  0.00     0.034 A 
BRANCH  49  63
ATOM     63  C   UNL A   1      41.021  27.557  28.944  1.00  0.00     0.023 A 
ATOM     64  C   UNL A   1      40.058  26.529  28.900  1.00  0.00     0.012 A 
ATOM     65  C   UNL A   1      41.907  27.718  27.860  1.00  0.00     0.148 A 
ATOM     66  C   UNL A   1      40.016  25.639  27.827  1.00  0.00     0.002 A 
ATOM     67  C   UNL A   1      41.826  26.859  26.769  1.00  0.00     0.091 A 
ATOM     68  F   UNL A   1      42.821  28.697  27.918  1.00  0.00    -0.205 F 
ATOM     69  C   UNL A   1      40.894  25.809  26.760  1.00  0.00     0.022 A 
BRANCH  67  70
ATOM     70  S   UNL A   1      42.856  27.042  25.310  1.00  0.00     0.127 S 
ATOM     71  O   UNL A   1      44.185  27.182  25.902  1.00  0.00    -0.237 OA
ATOM     72  O   UNL A   1      42.629  25.774  24.615  1.00  0.00    -0.237 OA
ATOM     73  O   UNL A   1      42.360  28.218  24.608  1.00  0.00    -0.744 OA
ENDBRANCH  67  70
ENDBRANCH  49  63
BRANCH  50  74
ATOM     74  C   UNL A   1      40.883  33.766  36.718  1.00  0.00     0.023 A 
ATOM     75  C   UNL A   1      41.558  35.005  36.674  1.00  0.00     0.012 A 
ATOM     76  C   UNL A   1      40.227  33.391  37.907  1.00  0.00     0.148 A 
ATOM     77  C   UNL A   1      41.600  35.836  37.795  1.00  0.00     0.002 A 
ATOM     78  C   UNL A   1      40.226  34.249  39.003  1.00  0.00     0.091 A 
ATOM     79  F   UNL A   1      39.614  32.200  37.943  1.00  0.00    -0.205 F 
ATOM     80  C   UNL A   1      40.926  35.464  38.955  1.00  0.00     0.022 A 
BRANCH  78  81
ATOM     81  S   UNL A   1      39.302  33.907  40.504  1.00  0.00     0.127 S 
ATOM     82  O   UNL A   1      39.640  32.507  40.753  1.00  0.00    -0.237 OA
ATOM     83  O   UNL A   1      39.893  34.861  41.441  1.00  0.00    -0.237 OA
ATOM     84  O   UNL A   1      37.905  34.164  40.179  1.00  0.00    -0.744 OA
ENDBRANCH  78  81
ENDBRANCH  50  74
BRANCH  62  85
ATOM     85  C   UNL A   1      44.799  28.213  35.054  1.00  0.00     0.023 A 
ATOM     86  C   UNL A   1      46.123  28.677  34.917  1.00  0.00     0.012 A 
ATOM     87  C   UNL A   1      44.536  27.136  35.926  1.00  0.00     0.148 A 
ATOM     88  C   UNL A   1      47.167  28.064  35.614  1.00  0.00     0.002 A 
ATOM     89  C   UNL A   1      45.572  26.565  36.657  1.00  0.00     0.091 A 
ATOM     90  F   UNL A   1      43.273  26.701  36.037  1.00  0.00    -0.205 F 
ATOM     91  C   UNL A   1      46.890  27.019  36.492  1.00  0.00     0.022 A 
BRANCH  89  92
ATOM     92  S   UNL A   1      45.301  25.279  37.883  1.00  0.00     0.127 S 
ATOM     93  O   UNL A   1      46.647  25.097  38.427  1.00  0.00    -0.237 OA
ATOM     94  O   UNL A   1      44.355  25.918  38.796  1.00  0.00    -0.237 OA
ATOM     95  O   UNL A   1      44.771  24.132  37.158  1.00  0.00    -0.744 OA
ENDBRANCH  89  92
ENDBRANCH  62  85
ENDBRANCH  36  37
ENDBRANCH  29  31
ENDBRANCH  28  29
ENDBRANCH  27  28
ENDBRANCH   1  27
TORSDOF 21
ENDMDL
MODEL 2
REMARK VINA RESULT:     -12.4      2.156      8.147
REMARK SMILES C[C@@H](O)[C@@H](NC(=O)Nc1ccc(F)cc1F)C(=O)OCCOCCOC(=O)c1ccc(-c2c3nc(c(-c4cccc(S(=O)(=O)[O-])c4F)c4ccc([nH]4)c(-c4cccc(S(=O)(=O)[O-])c4F)c4nc(c(-c5cccc(S(=O)(=O)[O-])c5F)c5ccc2[nH]5)C=C4)C=C3)cc1
REMARK SMILES IDX 23 1 22 2 21 3 20 4 19 5 17 6 18 7 4 8 2 9 1 10 3 11 5 13
REMARK SMILES IDX 6 14 7 16 8 17 9 19 10 20 15 21 11 22 14 23 16 24 12 25
REMARK SMILES IDX 13 26 24 27 25 28 26 29 27 30 28 31 29 32 90 33 30 34 89 35
REMARK SMILES IDX 31 36 32 37 33 38 83 39 34 40 88 41 82 42 84 43 35 44 87 45
REMARK SMILES IDX 81 46 80 47 36 49 68 50 48 51 67 52 49 53 52 54 66 55 85 56
REMARK SMILES IDX 50 57 51 58 65 60 86 61 53 62 37 63 38 64 46 65 39 66 41 67
REMARK SMILES IDX 47 68 40 69 42 70 43 71 44 72 45 73 69 74 70 75 78 76 71 77
REMARK SMILES IDX 73 78 79 79 72 80 74 81 75 82 76 83 77 84 54 85 55 86 63 87
REMARK SMILES IDX 56 88 58 89 64 90 57 91 59 92 60 93 61 94 62 95
REMARK H PARENT 3 12 5 15 8 18 84 48 52 59
REMARK Flexibility Score: inf
ROOT
ATOM      1  C   UNL A   1      33.093  31.215  27.285  1.00  0.00     0.202 C 
ENDROOT
BRANCH   1   2
ATOM      2  O   UNL A   1      32.717  29.409  26.412  1.00  0.00    -0.374 OA
BRANCH   2   3
ATOM      3  C   UNL A   1      33.300  27.745  26.806  1.00  0.00     0.202 C 
BRANCH   3   4
ATOM      4  C   UNL A   1      32.634  26.161  26.101  1.00  0.00     0.261 C 
BRANCH   4   5
ATOM      5  O   UNL A   1      31.987  24.905  26.912  1.00  0.00    -0.462 OA
BRANCH   5   6
ATOM      6  C   UNL A   1      32.258  23.528  26.844  1.00  0.00     0.331 C 
ATOM      7  O   UNL A   1      31.847  22.770  27.719  1.00  0.00    -0.250 OA
BRANCH   6   8
ATOM      8  C   UNL A   1      33.269  22.928  25.633  1.00  0.00     0.222 C 
BRANCH   8   9
ATOM      9  C   UNL A   1      34.792  22.977  26.042  1.00  0.00     0.145 C 
ATOM     10  C   UNL A   1      35.590  24.199  25.603  1.00  0.00     0.041 C 
BRANCH   9  11
ATOM     11  O   UNL A   1      34.852  23.052  27.501  1.00  0.00    -0.391 OA
ATOM     12  H   UNL A   1      34.026  22.706  27.877  1.00  0.00     0.211 HD
ENDBRANCH   9  11
ENDBRANCH   8   9
BRANCH   8  13
ATOM     13  N   UNL A   1      32.815  21.879  24.676  1.00  0.00    -0.322 N 
ATOM     14  C   UNL A   1      32.324  21.857  23.399  1.00  0.00     0.320 C 
ATOM     15  H   UNL A   1      32.886  20.975  25.058  1.00  0.00     0.166 HD
ATOM     16  O   UNL A   1      32.024  20.744  22.946  1.00  0.00    -0.248 OA
ATOM     17  N   UNL A   1      32.171  22.933  22.553  1.00  0.00    -0.305 N 
ATOM     18  H   UNL A   1      32.126  22.696  21.598  1.00  0.00     0.171 HD
BRANCH  17  19
ATOM     19  C   UNL A   1      32.069  24.321  22.818  1.00  0.00     0.079 A 
ATOM     20  C   UNL A   1      33.165  25.571  22.339  1.00  0.00     0.032 A 
ATOM     21  C   UNL A   1      30.518  24.771  23.460  1.00  0.00     0.149 A 
ATOM     22  C   UNL A   1      32.761  27.293  22.516  1.00  0.00     0.041 A 
ATOM     23  C   UNL A   1      30.017  26.554  23.716  1.00  0.00     0.080 A 
ATOM     24  F   UNL A   1      29.799  23.852  22.788  1.00  0.00    -0.205 F 
ATOM     25  C   UNL A   1      31.210  27.807  23.201  1.00  0.00     0.126 A 
ATOM     26  F   UNL A   1      30.961  29.104  23.399  1.00  0.00    -0.207 F 
ENDBRANCH  17  19
ENDBRANCH   8  13
ENDBRANCH   6   8
ENDBRANCH   5   6
ENDBRANCH   4   5
ENDBRANCH   3   4
ENDBRANCH   2   3
ENDBRANCH   1   2
BRANCH   1  27
ATOM     27  C   UNL A   1      32.394  32.835  26.902  1.00  0.00     0.261 C 
BRANCH  27  28
ATOM     28  O   UNL A   1      32.279  33.895  27.942  1.00  0.00    -0.460 OA
BRANCH  28  29
ATOM     29  C   UNL A   1      33.408  34.620  28.288  1.00  0.00     0.338 C 
ATOM     30  O   UNL A   1      33.444  35.841  28.357  1.00  0.00    -0.246 OA
BRANCH  29  31
ATOM     31  C   UNL A   1      34.520  33.780  28.893  1.00  0.00     0.060 A 
ATOM     32  C   UNL A   1      34.263  33.022  30.057  1.00  0.00     0.016 A 
ATOM     33  C   UNL A   1      35.808  33.720  28.366  1.00  0.00     0.016 A 
ATOM     34  C   UNL A   1      35.228  32.143  30.609  1.00  0.00     0.010 A 
ATOM     35  C   UNL A   1      36.787  32.867  28.939  1.00  0.00     0.010 A 
ATOM     36  C   UNL A   1      36.509  32.050  30.052  1.00  0.00    -0.014 A 
BRANCH  36  37
ATOM     37  C   UNL A   1      37.596  31.216  30.678  1.00  0.00     0.031 A 
ATOM     38  C   UNL A   1      38.015  31.503  32.101  1.00  0.00     0.074 A 
ATOM     39  C   UNL A   1      38.262  30.251  30.005  1.00  0.00     0.049 A 
ATOM     40  N   UNL A   1      39.006  31.011  32.801  1.00  0.00    -0.248 NA
ATOM     41  C   UNL A   1      37.195  32.483  32.827  1.00  0.00     0.031 C 
ATOM     42  C   UNL A   1      37.969  29.809  28.645  1.00  0.00     0.029 A 
ATOM     43  N   UNL A   1      39.355  29.487  30.372  1.00  0.00    -0.354 N 
ATOM     44  C   UNL A   1      38.956  31.648  34.037  1.00  0.00     0.074 A 
ATOM     45  C   UNL A   1      37.832  32.561  33.986  1.00  0.00     0.031 C 
ATOM     46  C   UNL A   1      38.877  28.884  28.277  1.00  0.00     0.029 A 
ATOM     47  C   UNL A   1      39.847  28.693  29.356  1.00  0.00     0.049 A 
ATOM     48  H   UNL A   1      39.747  29.508  31.275  1.00  0.00     0.167 HD
ATOM     49  C   UNL A   1      39.763  31.499  35.118  1.00  0.00     0.034 A 
ATOM     50  C   UNL A   1      40.964  27.931  29.283  1.00  0.00     0.034 A 
ATOM     51  C   UNL A   1      40.896  30.612  35.180  1.00  0.00     0.049 A 
ATOM     52  C   UNL A   1      41.905  27.847  30.466  1.00  0.00     0.074 A 
ATOM     53  C   UNL A   1      41.752  30.382  36.245  1.00  0.00     0.029 A 
ATOM     54  N   UNL A   1      41.355  29.832  34.131  1.00  0.00    -0.354 N 
ATOM     55  N   UNL A   1      41.792  28.390  31.654  1.00  0.00    -0.248 NA
ATOM     56  C   UNL A   1      43.122  27.031  30.303  1.00  0.00     0.031 C 
ATOM     57  C   UNL A   1      42.759  29.511  35.821  1.00  0.00     0.029 A 
ATOM     58  C   UNL A   1      42.496  29.145  34.512  1.00  0.00     0.049 A 
ATOM     59  H   UNL A   1      40.931  29.775  33.244  1.00  0.00     0.167 HD
ATOM     60  C   UNL A   1      42.893  27.951  32.387  1.00  0.00     0.074 A 
ATOM     61  C   UNL A   1      43.658  27.085  31.516  1.00  0.00     0.031 C 
ATOM     62  C   UNL A   1      43.239  28.247  33.664  1.00  0.00     0.034 A 
BRANCH  49  63
ATOM     63  C   UNL A   1      39.456  32.340  36.335  1.00  0.00     0.023 A 
ATOM     64  C   UNL A   1      40.138  33.557  36.541  1.00  0.00     0.012 A 
ATOM     65  C   UNL A   1      38.472  31.938  37.261  1.00  0.00     0.148 A 
ATOM     66  C   UNL A   1      39.891  34.328  37.676  1.00  0.00     0.002 A 
ATOM     67  C   UNL A   1      38.194  32.738  38.363  1.00  0.00     0.091 A 
ATOM     68  F   UNL A   1      37.836  30.776  37.055  1.00  0.00    -0.205 F 
ATOM     69  C   UNL A   1      38.915  33.923  38.582  1.00  0.00     0.022 A 
BRANCH  67  70
ATOM     70  S   UNL A   1      36.900  32.347  39.545  1.00  0.00     0.127 S 
ATOM     71  O   UNL A   1      37.296  31.010  39.984  1.00  0.00    -0.237 OA
ATOM     72  O   UNL A   1      37.078  33.395  40.551  1.00  0.00    -0.237 OA
ATOM     73  O   UNL A   1      35.645  32.414  38.810  1.00  0.00    -0.744 OA
ENDBRANCH  67  70
ENDBRANCH  49  63
BRANCH  50  74
ATOM     74  C   UNL A   1      41.283  27.166  28.035  1.00  0.00     0.023 A 
ATOM     75  C   UNL A   1      41.786  27.849  26.907  1.00  0.00     0.012 A 
ATOM     76  C   UNL A   1      41.064  25.777  27.948  1.00  0.00     0.148 A 
ATOM     77  C   UNL A   1      42.040  27.169  25.714  1.00  0.00     0.002 A 
ATOM     78  C   UNL A   1      41.372  25.096  26.773  1.00  0.00     0.091 A 
ATOM     79  F   UNL A   1      40.559  25.148  29.017  1.00  0.00    -0.205 F 
ATOM     80  C   UNL A   1      41.844  25.793  25.650  1.00  0.00     0.022 A 
BRANCH  78  81
ATOM     81  S   UNL A   1      41.251  23.310  26.626  1.00  0.00     0.127 S 
ATOM     82  O   UNL A   1      39.815  23.121  26.426  1.00  0.00    -0.237 OA
ATOM     83  O   UNL A   1      42.077  23.053  25.447  1.00  0.00    -0.237 OA
ATOM     84  O   UNL A   1      41.785  22.772  27.869  1.00  0.00    -0.744 OA
ENDBRANCH  78  81
ENDBRANCH  50  74
BRANCH  62  85
ATOM     85  C   UNL A   1      44.475  27.600  34.244  1.00  0.00     0.023 A 
ATOM     86  C   UNL A   1      45.723  28.250  34.166  1.00  0.00     0.012 A 
ATOM     87  C   UNL A   1      44.377  26.388  34.958  1.00  0.00     0.148 A 
ATOM     88  C   UNL A   1      46.855  27.692  34.764  1.00  0.00     0.002 A 
ATOM     89  C   UNL A   1      45.496  25.864  35.597  1.00  0.00     0.091 A 
ATOM     90  F   UNL A   1      43.185  25.776  35.015  1.00  0.00    -0.205 F 
ATOM     91  C   UNL A   1      46.739  26.508  35.489  1.00  0.00     0.022 A 
BRANCH  89  92
ATOM     92  S   UNL A   1      45.427  24.397  36.632  1.00  0.00     0.127 S 
ATOM     93  O   UNL A   1      44.799  24.918  37.846  1.00  0.00    -0.237 OA
ATOM     94  O   UNL A   1      44.580  23.504  35.843  1.00  0.00    -0.237 OA
ATOM     95  O   UNL A   1      46.803  23.948  36.795  1.00  0.00    -0.744 OA
ENDBRANCH  89  92
ENDBRANCH  62  85
ENDBRANCH  36  37
ENDBRANCH  29  31
ENDBRANCH  28  29
ENDBRANCH  27  28
ENDBRANCH   1  27
TORSDOF 21
ENDMDL
MODEL 3
REMARK VINA RESULT:     -12.4      2.126      8.105
REMARK SMILES C[C@@H](O)[C@@H](NC(=O)Nc1ccc(F)cc1F)C(=O)OCCOCCOC(=O)c1ccc(-c2c3nc(c(-c4cccc(S(=O)(=O)[O-])c4F)c4ccc([nH]4)c(-c4cccc(S(=O)(=O)[O-])c4F)c4nc(c(-c5cccc(S(=O)(=O)[O-])c5F)c5ccc2[nH]5)C=C4)C=C3)cc1
REMARK SMILES IDX 23 1 22 2 21 3 20 4 19 5 17 6 18 7 4 8 2 9 1 10 3 11 5 13
REMARK SMILES IDX 6 14 7 16 8 17 9 19 10 20 15 21 11 22 14 23 16 24 12 25
REMARK SMILES IDX 13 26 24 27 25 28 26 29 27 30 28 31 29 32 90 33 30 34 89 35
REMARK SMILES IDX 31 36 32 37 33 38 83 39 34 40 88 41 82 42 84 43 35 44 87 45
REMARK SMILES IDX 81 46 80 47 36 49 68 50 48 51 67 52 49 53 52 54 66 55 85 56
REMARK SMILES IDX 50 57 51 58 65 60 86 61 53 62 37 63 38 64 46 65 39 66 41 67
REMARK SMILES IDX 47 68 40 69 42 70 43 71 44 72 45 73 69 74 70 75 78 76 71 77
REMARK SMILES IDX 73 78 79 79 72 80 74 81 75 82 76 83 77 84 54 85 55 86 63 87
REMARK SMILES IDX 56 88 58 89 64 90 57 91 59 92 60 93 61 94 62 95
REMARK H PARENT 3 12 5 15 8 18 84 48 52 59
REMARK Flexibility Score: inf
ROOT
ATOM      1  C   UNL A   1      32.191  30.985  26.880  1.00  0.00     0.202 C 
ENDROOT
BRANCH   1   2
ATOM      2  O   UNL A   1      33.004  29.467  25.785  1.00  0.00    -0.374 OA
BRANCH   2   3
ATOM      3  C   UNL A   1      33.082  29.186  24.002  1.00  0.00     0.202 C 
BRANCH   3   4
ATOM      4  C   UNL A   1      33.665  27.633  23.167  1.00  0.00     0.261 C 
BRANCH   4   5
ATOM      5  O   UNL A   1      32.939  26.175  23.157  1.00  0.00    -0.462 OA
BRANCH   5   6
ATOM      6  C   UNL A   1      32.101  25.557  24.101  1.00  0.00     0.331 C 
ATOM      7  O   UNL A   1      31.850  26.113  25.167  1.00  0.00    -0.250 OA
BRANCH   6   8
ATOM      8  C   UNL A   1      31.548  23.985  23.834  1.00  0.00     0.222 C 
BRANCH   8   9
ATOM      9  C   UNL A   1      32.545  23.138  22.953  1.00  0.00     0.145 C 
ATOM     10  C   UNL A   1      32.091  21.744  22.535  1.00  0.00     0.041 C 
BRANCH   9  11
ATOM     11  O   UNL A   1      32.697  23.831  21.674  1.00  0.00    -0.391 OA
ATOM     12  H   UNL A   1      33.469  24.417  21.714  1.00  0.00     0.211 HD
ENDBRANCH   9  11
ENDBRANCH   8   9
BRANCH   8  13
ATOM     13  N   UNL A   1      30.678  23.279  24.817  1.00  0.00    -0.322 N 
ATOM     14  C   UNL A   1      30.873  22.518  25.937  1.00  0.00     0.320 C 
ATOM     15  H   UNL A   1      29.722  23.387  24.608  1.00  0.00     0.166 HD
ATOM     16  O   UNL A   1      29.854  22.071  26.480  1.00  0.00    -0.248 OA
ATOM     17  N   UNL A   1      32.076  22.238  26.547  1.00  0.00    -0.305 N 
ATOM     18  H   UNL A   1      32.000  21.971  27.492  1.00  0.00     0.171 HD
BRANCH  17  19
ATOM     19  C   UNL A   1      33.402  22.267  26.050  1.00  0.00     0.079 A 
ATOM     20  C   UNL A   1      34.548  23.557  26.174  1.00  0.00     0.032 A 
ATOM     21  C   UNL A   1      33.954  20.709  25.513  1.00  0.00     0.149 A 
ATOM     22  C   UNL A   1      36.258  23.341  25.738  1.00  0.00     0.041 A 
ATOM     23  C   UNL A   1      35.724  20.394  24.998  1.00  0.00     0.080 A 
ATOM     24  F   UNL A   1      33.267  19.981  26.413  1.00  0.00    -0.205 F 
ATOM     25  C   UNL A   1      36.864  21.785  25.147  1.00  0.00     0.126 A 
ATOM     26  F   UNL A   1      38.134  21.668  24.749  1.00  0.00    -0.207 F 
ENDBRANCH  17  19
ENDBRANCH   8  13
ENDBRANCH   6   8
ENDBRANCH   5   6
ENDBRANCH   4   5
ENDBRANCH   3   4
ENDBRANCH   2   3
ENDBRANCH   1   2
BRANCH   1  27
ATOM     27  C   UNL A   1      32.210  32.761  26.556  1.00  0.00     0.261 C 
BRANCH  27  28
ATOM     28  O   UNL A   1      32.154  33.752  27.667  1.00  0.00    -0.460 OA
BRANCH  28  29
ATOM     29  C   UNL A   1      33.303  34.449  28.002  1.00  0.00     0.338 C 
ATOM     30  O   UNL A   1      33.387  35.669  28.013  1.00  0.00    -0.246 OA
BRANCH  29  31
ATOM     31  C   UNL A   1      34.368  33.597  28.673  1.00  0.00     0.060 A 
ATOM     32  C   UNL A   1      35.718  33.738  28.284  1.00  0.00     0.016 A 
ATOM     33  C   UNL A   1      34.084  32.656  29.661  1.00  0.00     0.016 A 
ATOM     34  C   UNL A   1      36.765  33.046  28.941  1.00  0.00     0.010 A 
ATOM     35  C   UNL A   1      35.129  31.935  30.296  1.00  0.00     0.010 A 
ATOM     36  C   UNL A   1      36.484  32.133  29.965  1.00  0.00    -0.014 A 
BRANCH  36  37
ATOM     37  C   UNL A   1      37.558  31.293  30.607  1.00  0.00     0.031 A 
ATOM     38  C   UNL A   1      37.948  31.571  32.041  1.00  0.00     0.074 A 
ATOM     39  C   UNL A   1      38.237  30.332  29.942  1.00  0.00     0.049 A 
ATOM     40  N   UNL A   1      38.924  31.074  32.757  1.00  0.00    -0.248 NA
ATOM     41  C   UNL A   1      37.115  32.547  32.756  1.00  0.00     0.031 C 
ATOM     42  C   UNL A   1      37.970  29.899  28.573  1.00  0.00     0.029 A 
ATOM     43  N   UNL A   1      39.321  29.565  30.326  1.00  0.00    -0.354 N 
ATOM     44  C   UNL A   1      38.850  31.703  33.996  1.00  0.00     0.074 A 
ATOM     45  C   UNL A   1      37.728  32.617  33.928  1.00  0.00     0.031 C 
ATOM     46  C   UNL A   1      38.885  28.976  28.218  1.00  0.00     0.029 A 
ATOM     47  C   UNL A   1      39.833  28.776  29.316  1.00  0.00     0.049 A 
ATOM     48  H   UNL A   1      39.694  29.580  31.237  1.00  0.00     0.167 HD
ATOM     49  C   UNL A   1      39.635  31.547  35.092  1.00  0.00     0.034 A 
ATOM     50  C   UNL A   1      40.950  28.015  29.260  1.00  0.00     0.034 A 
ATOM     51  C   UNL A   1      40.765  30.658  35.172  1.00  0.00     0.049 A 
ATOM     52  C   UNL A   1      41.867  27.923  30.461  1.00  0.00     0.074 A 
ATOM     53  C   UNL A   1      41.599  30.421  36.252  1.00  0.00     0.029 A 
ATOM     54  N   UNL A   1      41.245  29.884  34.126  1.00  0.00    -0.354 N 
ATOM     55  N   UNL A   1      41.731  28.457  31.650  1.00  0.00    -0.248 NA
ATOM     56  C   UNL A   1      43.087  27.106  30.318  1.00  0.00     0.031 C 
ATOM     57  C   UNL A   1      42.615  29.552  35.843  1.00  0.00     0.029 A 
ATOM     58  C   UNL A   1      42.377  29.194  34.526  1.00  0.00     0.049 A 
ATOM     59  H   UNL A   1      40.839  29.833  33.231  1.00  0.00     0.167 HD
ATOM     60  C   UNL A   1      42.817  28.013  32.402  1.00  0.00     0.074 A 
ATOM     61  C   UNL A   1      43.598  27.152  31.541  1.00  0.00     0.031 C 
ATOM     62  C   UNL A   1      43.137  28.301  33.688  1.00  0.00     0.034 A 
BRANCH  49  63
ATOM     63  C   UNL A   1      39.304  32.381  36.308  1.00  0.00     0.023 A 
ATOM     64  C   UNL A   1      39.939  33.624  36.503  1.00  0.00     0.012 A 
ATOM     65  C   UNL A   1      38.344  31.944  37.242  1.00  0.00     0.148 A 
ATOM     66  C   UNL A   1      39.670  34.390  37.637  1.00  0.00     0.002 A 
ATOM     67  C   UNL A   1      38.042  32.737  38.343  1.00  0.00     0.091 A 
ATOM     68  F   UNL A   1      37.752  30.757  37.046  1.00  0.00    -0.205 F 
ATOM     69  C   UNL A   1      38.718  33.951  38.552  1.00  0.00     0.022 A 
BRANCH  67  70
ATOM     70  S   UNL A   1      36.774  32.301  39.537  1.00  0.00     0.127 S 
ATOM     71  O   UNL A   1      35.552  32.582  38.786  1.00  0.00    -0.237 OA
ATOM     72  O   UNL A   1      37.039  30.878  39.758  1.00  0.00    -0.237 OA
ATOM     73  O   UNL A   1      37.000  33.150  40.699  1.00  0.00    -0.744 OA
ENDBRANCH  67  70
ENDBRANCH  49  63
BRANCH  50  74
ATOM     74  C   UNL A   1      41.294  27.257  28.014  1.00  0.00     0.023 A 
ATOM     75  C   UNL A   1      41.730  27.958  26.869  1.00  0.00     0.012 A 
ATOM     76  C   UNL A   1      41.163  25.856  27.945  1.00  0.00     0.148 A 
ATOM     77  C   UNL A   1      42.004  27.281  25.678  1.00  0.00     0.002 A 
ATOM     78  C   UNL A   1      41.492  25.183  26.772  1.00  0.00     0.091 A 
ATOM     79  F   UNL A   1      40.721  25.208  29.031  1.00  0.00    -0.205 F 
ATOM     80  C   UNL A   1      41.896  25.895  25.633  1.00  0.00     0.022 A 
BRANCH  78  81
ATOM     81  S   UNL A   1      41.483  23.391  26.646  1.00  0.00     0.127 S 
ATOM     82  O   UNL A   1      42.214  23.001  27.850  1.00  0.00    -0.237 OA
ATOM     83  O   UNL A   1      40.050  23.098  26.673  1.00  0.00    -0.237 OA
ATOM     84  O   UNL A   1      42.142  23.078  25.385  1.00  0.00    -0.744 OA
ENDBRANCH  78  81
ENDBRANCH  50  74
BRANCH  62  85
ATOM     85  C   UNL A   1      44.361  27.649  34.289  1.00  0.00     0.023 A 
ATOM     86  C   UNL A   1      45.596  28.327  34.300  1.00  0.00     0.012 A 
ATOM     87  C   UNL A   1      44.258  26.399  34.935  1.00  0.00     0.148 A 
ATOM     88  C   UNL A   1      46.712  27.761  34.919  1.00  0.00     0.002 A 
ATOM     89  C   UNL A   1      45.360  25.865  35.595  1.00  0.00     0.091 A 
ATOM     90  F   UNL A   1      43.079  25.762  34.906  1.00  0.00    -0.205 F 
ATOM     91  C   UNL A   1      46.592  26.539  35.576  1.00  0.00     0.022 A 
BRANCH  89  92
ATOM     92  S   UNL A   1      45.278  24.345  36.549  1.00  0.00     0.127 S 
ATOM     93  O   UNL A   1      44.223  24.655  37.514  1.00  0.00    -0.237 OA
ATOM     94  O   UNL A   1      44.903  23.364  35.531  1.00  0.00    -0.237 OA
ATOM     95  O   UNL A   1      46.602  24.153  37.124  1.00  0.00    -0.744 OA
ENDBRANCH  89  92
ENDBRANCH  62  85
ENDBRANCH  36  37
ENDBRANCH  29  31
ENDBRANCH  28  29
ENDBRANCH  27  28
ENDBRANCH   1  27
TORSDOF 21
ENDMDL
