MODEL 1
REMARK VINA RESULT:      -8.9      0.000      0.000
REMARK SMILES NS(=O)(=O)c1ccc(-n2nc(NC(=O)NCCCCCCCCCCC(=O)OCCOCCOC(=O)c3ccc(-c4c5nc(c(-c6cccc(S(=O)(=O)[O-])c6F)c6ccc([nH]6)c(-c6cccc(S(=O)(=O)[O-])c6F)c6nc(c(-c7cccc(S(=O)(=O)[O-])c7F)c7ccc4[nH]7)C=C6)C=C5)cc3)cc2-c2ccccc2)cc1
REMARK SMILES IDX 24 1 23 2 22 3 21 4 20 5 19 6 18 7 17 8 16 9 15 10 12 11
REMARK SMILES IDX 13 12 14 14 11 16 9 17 10 18 101 19 100 20 8 21 5 22 6 23
REMARK SMILES IDX 109 24 7 25 108 26 2 27 3 28 4 29 1 30 102 33 103 34 107 35
REMARK SMILES IDX 104 36 106 37 105 38 25 39 26 40 27 41 28 42 29 43 30 44
REMARK SMILES IDX 31 45 32 46 33 47 34 48 35 49 36 50 37 51 38 52 99 53 39 54
REMARK SMILES IDX 98 55 40 56 41 57 42 58 92 59 43 60 97 61 91 62 93 63 44 64
REMARK SMILES IDX 96 65 90 66 89 67 45 69 77 70 57 71 76 72 58 73 61 74 75 75
REMARK SMILES IDX 94 76 59 77 60 78 74 80 95 81 62 82 46 83 47 84 55 85 48 86
REMARK SMILES IDX 50 87 56 88 49 89 51 90 52 91 53 92 54 93 78 94 79 95 87 96
REMARK SMILES IDX 80 97 82 98 88 99 81 100 83 101 84 102 85 103 86 104 63 105
REMARK SMILES IDX 64 106 72 107 65 108 67 109 73 110 66 111 68 112 69 113
REMARK SMILES IDX 70 114 71 115
REMARK H PARENT 12 13 15 15 1 31 1 32 93 68 61 79
REMARK Flexibility Score: inf
ROOT
ATOM      1  C   UNL A   1      32.806  26.192  23.008  1.00  0.00     0.012 C 
ENDROOT
BRANCH   1   2
ATOM      2  C   UNL A   1      31.773  25.168  22.529  1.00  0.00     0.001 C 
BRANCH   2   3
ATOM      3  C   UNL A   1      32.285  23.732  22.560  1.00  0.00     0.000 C 
BRANCH   3   4
ATOM      4  C   UNL A   1      32.969  23.330  21.255  1.00  0.00     0.000 C 
BRANCH   4   5
ATOM      5  C   UNL A   1      32.817  21.843  20.923  1.00  0.00     0.000 C 
BRANCH   5   6
ATOM      6  C   UNL A   1      31.709  21.128  21.708  1.00  0.00     0.000 C 
BRANCH   6   7
ATOM      7  C   UNL A   1      32.207  20.111  22.743  1.00  0.00     0.002 C 
BRANCH   7   8
ATOM      8  C   UNL A   1      32.238  18.665  22.260  1.00  0.00     0.021 C 
BRANCH   8   9
ATOM      9  C   UNL A   1      33.189  17.761  23.025  1.00  0.00     0.117 C 
BRANCH   9  10
ATOM     10  N   UNL A   1      32.559  16.692  23.762  1.00  0.00    -0.338 N 
ATOM     11  N   UNL A   1      33.246  17.204  25.985  1.00  0.00    -0.291 N 
ATOM     12  C   UNL A   1      32.627  16.410  25.082  1.00  0.00     0.320 C 
ATOM     13  H   UNL A   1      33.487  16.747  26.823  1.00  0.00     0.173 HD
ATOM     14  O   UNL A   1      32.224  15.307  25.463  1.00  0.00    -0.248 OA
ATOM     15  H   UNL A   1      32.001  16.082  23.227  1.00  0.00     0.165 HD
BRANCH  11  16
ATOM     16  C   UNL A   1      33.602  18.533  25.947  1.00  0.00     0.157 A 
ATOM     17  N   UNL A   1      33.401  20.641  25.892  1.00  0.00    -0.231 N 
ATOM     18  N   UNL A   1      32.918  19.538  26.490  1.00  0.00    -0.149 NA
ATOM     19  C   UNL A   1      34.643  20.399  25.315  1.00  0.00     0.076 A 
ATOM     20  C   UNL A   1      34.772  19.020  25.321  1.00  0.00     0.078 A 
BRANCH  17  21
ATOM     21  C   UNL A   1      32.616  21.825  25.831  1.00  0.00     0.065 A 
ATOM     22  C   UNL A   1      31.001  24.092  25.933  1.00  0.00     0.082 A 
ATOM     23  C   UNL A   1      32.338  24.182  26.328  1.00  0.00     0.024 A 
ATOM     24  C   UNL A   1      30.483  22.891  25.435  1.00  0.00     0.024 A 
ATOM     25  C   UNL A   1      33.147  23.046  26.278  1.00  0.00     0.030 A 
ATOM     26  C   UNL A   1      31.302  21.758  25.357  1.00  0.00     0.030 A 
BRANCH  22  27
ATOM     27  S   UNL A   1      29.989  25.527  26.129  1.00  0.00     0.238 S 
ATOM     28  O   UNL A   1      28.879  25.194  26.979  1.00  0.00    -0.207 OA
ATOM     29  O   UNL A   1      29.807  26.131  24.819  1.00  0.00    -0.207 OA
BRANCH  27  30
ATOM     30  N   UNL A   1      30.937  26.606  26.985  1.00  0.00    -0.225 NA
ATOM     31  H   UNL A   1      31.844  26.181  27.179  1.00  0.00     0.137 HD
ATOM     32  H   UNL A   1      30.476  26.839  27.865  1.00  0.00     0.137 HD
ENDBRANCH  27  30
ENDBRANCH  22  27
ENDBRANCH  17  21
BRANCH  19  33
ATOM     33  C   UNL A   1      35.547  21.453  24.862  1.00  0.00     0.000 A 
ATOM     34  C   UNL A   1      36.594  21.871  25.699  1.00  0.00     0.010 A 
ATOM     35  C   UNL A   1      35.350  22.105  23.642  1.00  0.00     0.010 A 
ATOM     36  C   UNL A   1      37.392  22.958  25.355  1.00  0.00     0.001 A 
ATOM     37  C   UNL A   1      36.163  23.185  23.289  1.00  0.00     0.001 A 
ATOM     38  C   UNL A   1      37.173  23.617  24.150  1.00  0.00     0.000 A 
ENDBRANCH  19  33
ENDBRANCH  11  16
ENDBRANCH   9  10
ENDBRANCH   8   9
ENDBRANCH   7   8
ENDBRANCH   6   7
ENDBRANCH   5   6
ENDBRANCH   4   5
ENDBRANCH   3   4
ENDBRANCH   2   3
ENDBRANCH   1   2
BRANCH   1  39
ATOM     39  C   UNL A   1      32.588  27.647  22.563  1.00  0.00     0.123 C 
BRANCH  39  40
ATOM     40  C   UNL A   1      33.485  28.727  23.140  1.00  0.00     0.305 C 
ATOM     41  O   UNL A   1      34.693  28.763  22.930  1.00  0.00    -0.252 OA
BRANCH  40  42
ATOM     42  O   UNL A   1      32.810  29.614  23.904  1.00  0.00    -0.463 OA
BRANCH  42  43
ATOM     43  C   UNL A   1      31.822  29.097  24.810  1.00  0.00     0.261 C 
BRANCH  43  44
ATOM     44  C   UNL A   1      31.620  30.059  25.980  1.00  0.00     0.202 C 
BRANCH  44  45
ATOM     45  O   UNL A   1      32.681  30.985  26.232  1.00  0.00    -0.374 OA
BRANCH  45  46
ATOM     46  C   UNL A   1      33.341  30.929  27.493  1.00  0.00     0.202 C 
BRANCH  46  47
ATOM     47  C   UNL A   1      34.829  31.246  27.522  1.00  0.00     0.261 C 
BRANCH  47  48
ATOM     48  O   UNL A   1      35.360  31.183  28.838  1.00  0.00    -0.460 OA
BRANCH  48  49
ATOM     49  C   UNL A   1      36.418  31.996  29.053  1.00  0.00     0.338 C 
ATOM     50  O   UNL A   1      36.550  33.148  28.672  1.00  0.00    -0.246 OA
BRANCH  49  51
ATOM     51  C   UNL A   1      37.484  31.213  29.682  1.00  0.00     0.060 A 
ATOM     52  C   UNL A   1      38.643  31.913  30.018  1.00  0.00     0.016 A 
ATOM     53  C   UNL A   1      37.444  29.810  29.646  1.00  0.00     0.016 A 
ATOM     54  C   UNL A   1      39.825  31.214  30.071  1.00  0.00     0.010 A 
ATOM     55  C   UNL A   1      38.626  29.114  29.691  1.00  0.00     0.010 A 
ATOM     56  C   UNL A   1      39.806  29.840  29.806  1.00  0.00    -0.014 A 
BRANCH  56  57
ATOM     57  C   UNL A   1      41.068  29.138  29.812  1.00  0.00     0.031 A 
ATOM     58  C   UNL A   1      41.500  28.856  31.198  1.00  0.00     0.074 A 
ATOM     59  C   UNL A   1      41.692  28.758  28.681  1.00  0.00     0.049 A 
ATOM     60  N   UNL A   1      42.424  29.469  31.860  1.00  0.00    -0.248 NA
ATOM     61  C   UNL A   1      40.635  28.002  32.029  1.00  0.00     0.031 C 
ATOM     62  C   UNL A   1      41.171  28.783  27.311  1.00  0.00     0.029 A 
ATOM     63  N   UNL A   1      42.893  28.140  28.532  1.00  0.00    -0.354 N 
ATOM     64  C   UNL A   1      42.439  28.845  33.102  1.00  0.00     0.074 A 
ATOM     65  C   UNL A   1      41.167  28.193  33.236  1.00  0.00     0.031 C 
ATOM     66  C   UNL A   1      41.926  27.968  26.536  1.00  0.00     0.029 A 
ATOM     67  C   UNL A   1      43.042  27.468  27.321  1.00  0.00     0.049 A 
ATOM     68  H   UNL A   1      43.596  28.163  29.220  1.00  0.00     0.167 HD
ATOM     69  C   UNL A   1      43.622  28.615  33.734  1.00  0.00     0.034 A 
ATOM     70  C   UNL A   1      43.959  26.503  27.041  1.00  0.00     0.034 A 
ATOM     71  C   UNL A   1      44.665  29.447  33.181  1.00  0.00     0.049 A 
ATOM     72  C   UNL A   1      45.038  26.617  28.051  1.00  0.00     0.074 A 
ATOM     73  C   UNL A   1      44.850  30.805  33.017  1.00  0.00     0.029 A 
ATOM     74  N   UNL A   1      45.535  28.832  32.313  1.00  0.00    -0.354 N 
ATOM     75  N   UNL A   1      45.845  27.637  28.123  1.00  0.00    -0.248 NA
ATOM     76  C   UNL A   1      44.907  25.831  29.268  1.00  0.00     0.031 C 
ATOM     77  C   UNL A   1      45.489  30.939  31.749  1.00  0.00     0.029 A 
ATOM     78  C   UNL A   1      45.742  29.661  31.247  1.00  0.00     0.049 A 
ATOM     79  H   UNL A   1      45.939  27.943  32.439  1.00  0.00     0.167 HD
ATOM     80  C   UNL A   1      45.923  27.907  29.482  1.00  0.00     0.074 A 
ATOM     81  C   UNL A   1      45.412  26.705  30.142  1.00  0.00     0.031 C 
ATOM     82  C   UNL A   1      46.095  29.186  29.929  1.00  0.00     0.034 A 
BRANCH  69  83
ATOM     83  C   UNL A   1      43.952  27.341  34.490  1.00  0.00     0.023 A 
ATOM     84  C   UNL A   1      44.538  27.503  35.765  1.00  0.00     0.012 A 
ATOM     85  C   UNL A   1      44.004  26.044  33.928  1.00  0.00     0.148 A 
ATOM     86  C   UNL A   1      45.217  26.458  36.401  1.00  0.00     0.002 A 
ATOM     87  C   UNL A   1      44.617  24.991  34.594  1.00  0.00     0.091 A 
ATOM     88  F   UNL A   1      43.578  25.822  32.686  1.00  0.00    -0.205 F 
ATOM     89  C   UNL A   1      45.258  25.200  35.815  1.00  0.00     0.022 A 
BRANCH  87  90
ATOM     90  S   UNL A   1      44.668  23.334  33.894  1.00  0.00     0.127 S 
ATOM     91  O   UNL A   1      43.410  22.776  34.383  1.00  0.00    -0.237 OA
ATOM     92  O   UNL A   1      44.707  23.626  32.461  1.00  0.00    -0.237 OA
ATOM     93  O   UNL A   1      45.884  22.721  34.415  1.00  0.00    -0.744 OA
ENDBRANCH  87  90
ENDBRANCH  69  83
BRANCH  70  94
ATOM     94  C   UNL A   1      43.836  25.287  26.194  1.00  0.00     0.023 A 
ATOM     95  C   UNL A   1      44.819  25.011  25.219  1.00  0.00     0.012 A 
ATOM     96  C   UNL A   1      42.944  24.249  26.542  1.00  0.00     0.148 A 
ATOM     97  C   UNL A   1      44.935  23.738  24.643  1.00  0.00     0.002 A 
ATOM     98  C   UNL A   1      43.058  22.987  25.964  1.00  0.00     0.091 A 
ATOM     99  F   UNL A   1      42.045  24.467  27.509  1.00  0.00    -0.205 F 
ATOM    100  C   UNL A   1      44.062  22.723  25.023  1.00  0.00     0.022 A 
BRANCH  98 101
ATOM    101  S   UNL A   1      41.985  21.623  26.433  1.00  0.00     0.127 S 
ATOM    102  O   UNL A   1      42.457  20.551  25.556  1.00  0.00    -0.237 OA
ATOM    103  O   UNL A   1      42.315  21.448  27.844  1.00  0.00    -0.237 OA
ATOM    104  O   UNL A   1      40.624  22.067  26.153  1.00  0.00    -0.744 OA
ENDBRANCH  98 101
ENDBRANCH  70  94
BRANCH  82 105
ATOM    105  C   UNL A   1      46.499  30.236  28.929  1.00  0.00     0.023 A 
ATOM    106  C   UNL A   1      47.831  30.444  28.513  1.00  0.00     0.012 A 
ATOM    107  C   UNL A   1      45.465  30.925  28.276  1.00  0.00     0.148 A 
ATOM    108  C   UNL A   1      48.121  31.340  27.479  1.00  0.00     0.002 A 
ATOM    109  C   UNL A   1      45.753  31.774  27.218  1.00  0.00     0.091 A 
ATOM    110  F   UNL A   1      44.207  30.715  28.689  1.00  0.00    -0.205 F 
ATOM    111  C   UNL A   1      47.080  31.993  26.821  1.00  0.00     0.022 A 
BRANCH 109 112
ATOM    112  S   UNL A   1      44.439  32.538  26.267  1.00  0.00     0.127 S 
ATOM    113  O   UNL A   1      45.143  32.952  25.055  1.00  0.00    -0.237 OA
ATOM    114  O   UNL A   1      43.499  31.430  26.085  1.00  0.00    -0.237 OA
ATOM    115  O   UNL A   1      43.924  33.622  27.096  1.00  0.00    -0.744 OA
ENDBRANCH 109 112
ENDBRANCH  82 105
ENDBRANCH  56  57
ENDBRANCH  49  51
ENDBRANCH  48  49
ENDBRANCH  47  48
ENDBRANCH  46  47
ENDBRANCH  45  46
ENDBRANCH  44  45
ENDBRANCH  43  44
ENDBRANCH  42  43
ENDBRANCH  40  42
ENDBRANCH  39  40
ENDBRANCH   1  39
TORSDOF 32
ENDMDL
MODEL 2
REMARK VINA RESULT:      -8.0      3.225      7.159
REMARK SMILES NS(=O)(=O)c1ccc(-n2nc(NC(=O)NCCCCCCCCCCC(=O)OCCOCCOC(=O)c3ccc(-c4c5nc(c(-c6cccc(S(=O)(=O)[O-])c6F)c6ccc([nH]6)c(-c6cccc(S(=O)(=O)[O-])c6F)c6nc(c(-c7cccc(S(=O)(=O)[O-])c7F)c7ccc4[nH]7)C=C6)C=C5)cc3)cc2-c2ccccc2)cc1
REMARK SMILES IDX 24 1 23 2 22 3 21 4 20 5 19 6 18 7 17 8 16 9 15 10 12 11
REMARK SMILES IDX 13 12 14 14 11 16 9 17 10 18 101 19 100 20 8 21 5 22 6 23
REMARK SMILES IDX 109 24 7 25 108 26 2 27 3 28 4 29 1 30 102 33 103 34 107 35
REMARK SMILES IDX 104 36 106 37 105 38 25 39 26 40 27 41 28 42 29 43 30 44
REMARK SMILES IDX 31 45 32 46 33 47 34 48 35 49 36 50 37 51 38 52 99 53 39 54
REMARK SMILES IDX 98 55 40 56 41 57 42 58 92 59 43 60 97 61 91 62 93 63 44 64
REMARK SMILES IDX 96 65 90 66 89 67 45 69 77 70 57 71 76 72 58 73 61 74 75 75
REMARK SMILES IDX 94 76 59 77 60 78 74 80 95 81 62 82 46 83 47 84 55 85 48 86
REMARK SMILES IDX 50 87 56 88 49 89 51 90 52 91 53 92 54 93 78 94 79 95 87 96
REMARK SMILES IDX 80 97 82 98 88 99 81 100 83 101 84 102 85 103 86 104 63 105
REMARK SMILES IDX 64 106 72 107 65 108 67 109 73 110 66 111 68 112 69 113
REMARK SMILES IDX 70 114 71 115
REMARK H PARENT 12 13 15 15 1 31 1 32 93 68 61 79
REMARK Flexibility Score: inf
ROOT
ATOM      1  C   UNL A   1      30.063  24.971  24.865  1.00  0.00     0.012 C 
ENDROOT
BRANCH   1   2
ATOM      2  C   UNL A   1      30.423  24.331  23.521  1.00  0.00     0.001 C 
BRANCH   2   3
ATOM      3  C   UNL A   1      31.620  23.390  23.601  1.00  0.00     0.000 C 
BRANCH   3   4
ATOM      4  C   UNL A   1      32.517  23.483  22.368  1.00  0.00     0.000 C 
BRANCH   4   5
ATOM      5  C   UNL A   1      32.636  22.162  21.602  1.00  0.00     0.000 C 
BRANCH   5   6
ATOM      6  C   UNL A   1      32.049  20.949  22.335  1.00  0.00     0.000 C 
BRANCH   6   7
ATOM      7  C   UNL A   1      31.910  19.684  21.477  1.00  0.00     0.002 C 
BRANCH   7   8
ATOM      8  C   UNL A   1      32.421  18.405  22.130  1.00  0.00     0.021 C 
BRANCH   8   9
ATOM      9  C   UNL A   1      32.364  18.401  23.648  1.00  0.00     0.117 C 
BRANCH   9  10
ATOM     10  N   UNL A   1      32.460  17.097  24.261  1.00  0.00    -0.338 N 
ATOM     11  N   UNL A   1      34.793  16.981  24.727  1.00  0.00    -0.291 N 
ATOM     12  C   UNL A   1      33.555  16.437  24.697  1.00  0.00     0.320 C 
ATOM     13  H   UNL A   1      35.521  16.320  24.766  1.00  0.00     0.173 HD
ATOM     14  O   UNL A   1      33.446  15.234  24.951  1.00  0.00    -0.248 OA
ATOM     15  H   UNL A   1      31.605  16.622  24.377  1.00  0.00     0.165 HD
BRANCH  11  16
ATOM     16  C   UNL A   1      35.221  18.289  24.713  1.00  0.00     0.157 A 
ATOM     17  N   UNL A   1      36.476  19.969  25.006  1.00  0.00    -0.231 N 
ATOM     18  N   UNL A   1      36.483  18.693  24.584  1.00  0.00    -0.149 NA
ATOM     19  C   UNL A   1      35.191  20.499  24.989  1.00  0.00     0.076 A 
ATOM     20  C   UNL A   1      34.359  19.404  24.826  1.00  0.00     0.078 A 
BRANCH  17  21
ATOM     21  C   UNL A   1      37.673  20.574  25.480  1.00  0.00     0.065 A 
ATOM     22  C   UNL A   1      40.069  21.811  26.179  1.00  0.00     0.082 A 
ATOM     23  C   UNL A   1      38.886  22.555  26.175  1.00  0.00     0.024 A 
ATOM     24  C   UNL A   1      40.052  20.442  25.889  1.00  0.00     0.024 A 
ATOM     25  C   UNL A   1      37.686  21.936  25.823  1.00  0.00     0.030 A 
ATOM     26  C   UNL A   1      38.844  19.813  25.566  1.00  0.00     0.030 A 
BRANCH  22  27
ATOM     27  S   UNL A   1      41.577  22.669  26.513  1.00  0.00     0.238 S 
ATOM     28  O   UNL A   1      42.328  21.917  27.481  1.00  0.00    -0.207 OA
ATOM     29  O   UNL A   1      41.262  24.075  26.701  1.00  0.00    -0.207 OA
BRANCH  27  30
ATOM     30  N   UNL A   1      42.438  22.596  25.082  1.00  0.00    -0.225 NA
ATOM     31  H   UNL A   1      43.437  22.664  25.282  1.00  0.00     0.137 HD
ATOM     32  H   UNL A   1      42.159  23.369  24.477  1.00  0.00     0.137 HD
ENDBRANCH  27  30
ENDBRANCH  22  27
ENDBRANCH  17  21
BRANCH  19  33
ATOM     33  C   UNL A   1      34.900  21.927  25.101  1.00  0.00     0.000 A 
ATOM     34  C   UNL A   1      35.391  22.808  24.125  1.00  0.00     0.010 A 
ATOM     35  C   UNL A   1      34.204  22.443  26.196  1.00  0.00     0.010 A 
ATOM     36  C   UNL A   1      35.243  24.185  24.268  1.00  0.00     0.001 A 
ATOM     37  C   UNL A   1      34.041  23.825  26.330  1.00  0.00     0.001 A 
ATOM     38  C   UNL A   1      34.570  24.693  25.375  1.00  0.00     0.000 A 
ENDBRANCH  19  33
ENDBRANCH  11  16
ENDBRANCH   9  10
ENDBRANCH   8   9
ENDBRANCH   7   8
ENDBRANCH   6   7
ENDBRANCH   5   6
ENDBRANCH   4   5
ENDBRANCH   3   4
ENDBRANCH   2   3
ENDBRANCH   1   2
BRANCH   1  39
ATOM     39  C   UNL A   1      30.412  26.458  25.033  1.00  0.00     0.123 C 
BRANCH  39  40
ATOM     40  C   UNL A   1      31.437  26.851  26.081  1.00  0.00     0.305 C 
ATOM     41  O   UNL A   1      31.431  26.388  27.216  1.00  0.00    -0.252 OA
BRANCH  40  42
ATOM     42  O   UNL A   1      32.326  27.762  25.625  1.00  0.00    -0.463 OA
BRANCH  42  43
ATOM     43  C   UNL A   1      31.824  28.837  24.816  1.00  0.00     0.261 C 
BRANCH  43  44
ATOM     44  C   UNL A   1      31.830  30.145  25.607  1.00  0.00     0.202 C 
BRANCH  44  45
ATOM     45  O   UNL A   1      33.096  30.572  26.118  1.00  0.00    -0.374 OA
BRANCH  45  46
ATOM     46  C   UNL A   1      33.259  30.663  27.530  1.00  0.00     0.202 C 
BRANCH  46  47
ATOM     47  C   UNL A   1      34.008  31.871  28.075  1.00  0.00     0.261 C 
BRANCH  47  48
ATOM     48  O   UNL A   1      34.898  31.514  29.122  1.00  0.00    -0.460 OA
BRANCH  48  49
ATOM     49  C   UNL A   1      34.978  32.422  30.121  1.00  0.00     0.338 C 
ATOM     50  O   UNL A   1      34.058  33.053  30.616  1.00  0.00    -0.246 OA
BRANCH  49  51
ATOM     51  C   UNL A   1      36.393  32.667  30.413  1.00  0.00     0.060 A 
ATOM     52  C   UNL A   1      37.136  33.256  29.391  1.00  0.00     0.016 A 
ATOM     53  C   UNL A   1      37.000  32.055  31.520  1.00  0.00     0.016 A 
ATOM     54  C   UNL A   1      38.488  33.010  29.354  1.00  0.00     0.010 A 
ATOM     55  C   UNL A   1      38.348  31.803  31.478  1.00  0.00     0.010 A 
ATOM     56  C   UNL A   1      39.051  32.201  30.348  1.00  0.00    -0.014 A 
BRANCH  56  57
ATOM     57  C   UNL A   1      40.463  31.910  30.255  1.00  0.00     0.031 A 
ATOM     58  C   UNL A   1      40.681  30.476  29.971  1.00  0.00     0.074 A 
ATOM     59  C   UNL A   1      41.408  32.865  30.357  1.00  0.00     0.049 A 
ATOM     60  N   UNL A   1      41.074  29.573  30.807  1.00  0.00    -0.248 NA
ATOM     61  C   UNL A   1      40.142  29.933  28.714  1.00  0.00     0.031 C 
ATOM     62  C   UNL A   1      41.224  34.319  30.371  1.00  0.00     0.029 A 
ATOM     63  N   UNL A   1      42.761  32.735  30.337  1.00  0.00    -0.354 N 
ATOM     64  C   UNL A   1      41.113  28.399  30.063  1.00  0.00     0.074 A 
ATOM     65  C   UNL A   1      40.272  28.622  28.922  1.00  0.00     0.031 C 
ATOM     66  C   UNL A   1      42.405  34.916  30.084  1.00  0.00     0.029 A 
ATOM     67  C   UNL A   1      43.440  33.900  29.988  1.00  0.00     0.049 A 
ATOM     68  H   UNL A   1      43.221  31.891  30.548  1.00  0.00     0.167 HD
ATOM     69  C   UNL A   1      42.116  27.501  30.262  1.00  0.00     0.034 A 
ATOM     70  C   UNL A   1      44.728  33.986  29.559  1.00  0.00     0.034 A 
ATOM     71  C   UNL A   1      42.763  27.732  31.531  1.00  0.00     0.049 A 
ATOM     72  C   UNL A   1      45.408  32.732  29.961  1.00  0.00     0.074 A 
ATOM     73  C   UNL A   1      42.348  27.778  32.848  1.00  0.00     0.029 A 
ATOM     74  N   UNL A   1      43.973  28.381  31.486  1.00  0.00    -0.354 N 
ATOM     75  N   UNL A   1      45.638  32.409  31.202  1.00  0.00    -0.248 NA
ATOM     76  C   UNL A   1      45.398  31.627  29.015  1.00  0.00     0.031 C 
ATOM     77  C   UNL A   1      43.104  28.835  33.435  1.00  0.00     0.029 A 
ATOM     78  C   UNL A   1      44.000  29.318  32.479  1.00  0.00     0.049 A 
ATOM     79  H   UNL A   1      44.699  28.200  30.844  1.00  0.00     0.167 HD
ATOM     80  C   UNL A   1      45.306  31.063  31.265  1.00  0.00     0.074 A 
ATOM     81  C   UNL A   1      45.266  30.612  29.873  1.00  0.00     0.031 C 
ATOM     82  C   UNL A   1      44.790  30.526  32.410  1.00  0.00     0.034 A 
BRANCH  69  83
ATOM     83  C   UNL A   1      42.819  26.748  29.147  1.00  0.00     0.023 A 
ATOM     84  C   UNL A   1      43.150  25.401  29.411  1.00  0.00     0.012 A 
ATOM     85  C   UNL A   1      43.428  27.340  28.015  1.00  0.00     0.148 A 
ATOM     86  C   UNL A   1      44.100  24.713  28.649  1.00  0.00     0.002 A 
ATOM     87  C   UNL A   1      44.317  26.631  27.218  1.00  0.00     0.091 A 
ATOM     88  F   UNL A   1      43.264  28.635  27.752  1.00  0.00    -0.205 F 
ATOM     89  C   UNL A   1      44.685  25.328  27.551  1.00  0.00     0.022 A 
BRANCH  87  90
ATOM     90  S   UNL A   1      45.078  27.371  25.765  1.00  0.00     0.127 S 
ATOM     91  O   UNL A   1      46.002  28.322  26.376  1.00  0.00    -0.237 OA
ATOM     92  O   UNL A   1      45.703  26.206  25.140  1.00  0.00    -0.237 OA
ATOM     93  O   UNL A   1      43.983  27.951  24.996  1.00  0.00    -0.744 OA
ENDBRANCH  87  90
ENDBRANCH  69  83
BRANCH  70  94
ATOM     94  C   UNL A   1      45.340  34.894  28.553  1.00  0.00     0.023 A 
ATOM     95  C   UNL A   1      44.775  34.988  27.262  1.00  0.00     0.012 A 
ATOM     96  C   UNL A   1      46.268  35.885  28.940  1.00  0.00     0.148 A 
ATOM     97  C   UNL A   1      45.092  36.053  26.406  1.00  0.00     0.002 A 
ATOM     98  C   UNL A   1      46.586  36.938  28.085  1.00  0.00     0.091 A 
ATOM     99  F   UNL A   1      46.768  35.852  30.181  1.00  0.00    -0.205 F 
ATOM    100  C   UNL A   1      45.988  37.033  26.822  1.00  0.00     0.022 A 
BRANCH  98 101
ATOM    101  S   UNL A   1      47.710  38.254  28.571  1.00  0.00     0.127 S 
ATOM    102  O   UNL A   1      48.063  38.842  27.278  1.00  0.00    -0.237 OA
ATOM    103  O   UNL A   1      46.854  39.089  29.409  1.00  0.00    -0.237 OA
ATOM    104  O   UNL A   1      48.821  37.602  29.253  1.00  0.00    -0.744 OA
ENDBRANCH  98 101
ENDBRANCH  70  94
BRANCH  82 105
ATOM    105  C   UNL A   1      44.875  31.340  33.673  1.00  0.00     0.023 A 
ATOM    106  C   UNL A   1      46.030  31.403  34.482  1.00  0.00     0.012 A 
ATOM    107  C   UNL A   1      43.796  32.190  33.957  1.00  0.00     0.148 A 
ATOM    108  C   UNL A   1      46.091  32.286  35.566  1.00  0.00     0.002 A 
ATOM    109  C   UNL A   1      43.881  33.099  35.001  1.00  0.00     0.091 A 
ATOM    110  F   UNL A   1      42.708  32.111  33.177  1.00  0.00    -0.205 F 
ATOM    111  C   UNL A   1      45.021  33.144  35.816  1.00  0.00     0.022 A 
BRANCH 109 112
ATOM    112  S   UNL A   1      42.582  34.304  35.281  1.00  0.00     0.127 S 
ATOM    113  O   UNL A   1      43.077  35.016  36.456  1.00  0.00    -0.237 OA
ATOM    114  O   UNL A   1      42.602  35.079  34.039  1.00  0.00    -0.237 OA
ATOM    115  O   UNL A   1      41.359  33.534  35.480  1.00  0.00    -0.744 OA
ENDBRANCH 109 112
ENDBRANCH  82 105
ENDBRANCH  56  57
ENDBRANCH  49  51
ENDBRANCH  48  49
ENDBRANCH  47  48
ENDBRANCH  46  47
ENDBRANCH  45  46
ENDBRANCH  44  45
ENDBRANCH  43  44
ENDBRANCH  42  43
ENDBRANCH  40  42
ENDBRANCH  39  40
ENDBRANCH   1  39
TORSDOF 32
ENDMDL
MODEL 3
REMARK VINA RESULT:      -7.8      2.501      4.245
REMARK SMILES NS(=O)(=O)c1ccc(-n2nc(NC(=O)NCCCCCCCCCCC(=O)OCCOCCOC(=O)c3ccc(-c4c5nc(c(-c6cccc(S(=O)(=O)[O-])c6F)c6ccc([nH]6)c(-c6cccc(S(=O)(=O)[O-])c6F)c6nc(c(-c7cccc(S(=O)(=O)[O-])c7F)c7ccc4[nH]7)C=C6)C=C5)cc3)cc2-c2ccccc2)cc1
REMARK SMILES IDX 24 1 23 2 22 3 21 4 20 5 19 6 18 7 17 8 16 9 15 10 12 11
REMARK SMILES IDX 13 12 14 14 11 16 9 17 10 18 101 19 100 20 8 21 5 22 6 23
REMARK SMILES IDX 109 24 7 25 108 26 2 27 3 28 4 29 1 30 102 33 103 34 107 35
REMARK SMILES IDX 104 36 106 37 105 38 25 39 26 40 27 41 28 42 29 43 30 44
REMARK SMILES IDX 31 45 32 46 33 47 34 48 35 49 36 50 37 51 38 52 99 53 39 54
REMARK SMILES IDX 98 55 40 56 41 57 42 58 92 59 43 60 97 61 91 62 93 63 44 64
REMARK SMILES IDX 96 65 90 66 89 67 45 69 77 70 57 71 76 72 58 73 61 74 75 75
REMARK SMILES IDX 94 76 59 77 60 78 74 80 95 81 62 82 46 83 47 84 55 85 48 86
REMARK SMILES IDX 50 87 56 88 49 89 51 90 52 91 53 92 54 93 78 94 79 95 87 96
REMARK SMILES IDX 80 97 82 98 88 99 81 100 83 101 84 102 85 103 86 104 63 105
REMARK SMILES IDX 64 106 72 107 65 108 67 109 73 110 66 111 68 112 69 113
REMARK SMILES IDX 70 114 71 115
REMARK H PARENT 12 13 15 15 1 31 1 32 93 68 61 79
REMARK Flexibility Score: inf
ROOT
ATOM      1  C   UNL A   1      29.651  25.605  24.242  1.00  0.00     0.012 C 
ENDROOT
BRANCH   1   2
ATOM      2  C   UNL A   1      30.365  24.911  23.079  1.00  0.00     0.001 C 
BRANCH   2   3
ATOM      3  C   UNL A   1      30.967  23.562  23.457  1.00  0.00     0.000 C 
BRANCH   3   4
ATOM      4  C   UNL A   1      32.191  23.214  22.612  1.00  0.00     0.000 C 
BRANCH   4   5
ATOM      5  C   UNL A   1      32.242  21.740  22.197  1.00  0.00     0.000 C 
BRANCH   5   6
ATOM      6  C   UNL A   1      32.267  20.751  23.369  1.00  0.00     0.000 C 
BRANCH   6   7
ATOM      7  C   UNL A   1      32.327  19.273  22.962  1.00  0.00     0.002 C 
BRANCH   7   8
ATOM      8  C   UNL A   1      32.293  18.284  24.122  1.00  0.00     0.021 C 
BRANCH   8   9
ATOM      9  C   UNL A   1      33.432  18.432  25.116  1.00  0.00     0.117 C 
BRANCH   9  10
ATOM     10  N   UNL A   1      34.082  17.200  25.490  1.00  0.00    -0.338 N 
ATOM     11  N   UNL A   1      36.354  17.712  24.990  1.00  0.00    -0.291 N 
ATOM     12  C   UNL A   1      35.385  16.856  25.385  1.00  0.00     0.320 C 
ATOM     13  H   UNL A   1      37.172  17.271  24.666  1.00  0.00     0.173 HD
ATOM     14  O   UNL A   1      35.686  15.666  25.523  1.00  0.00    -0.248 OA
ATOM     15  H   UNL A   1      33.493  16.512  25.877  1.00  0.00     0.165 HD
BRANCH  11  16
ATOM     16  C   UNL A   1      36.407  19.087  24.958  1.00  0.00     0.157 A 
ATOM     17  N   UNL A   1      37.148  21.052  25.235  1.00  0.00    -0.231 N 
ATOM     18  N   UNL A   1      37.511  19.821  24.835  1.00  0.00    -0.149 NA
ATOM     19  C   UNL A   1      35.767  21.207  25.197  1.00  0.00     0.076 A 
ATOM     20  C   UNL A   1      35.271  19.924  25.044  1.00  0.00     0.078 A 
BRANCH  17  21
ATOM     21  C   UNL A   1      38.126  21.968  25.710  1.00  0.00     0.065 A 
ATOM     22  C   UNL A   1      39.963  23.715  26.864  1.00  0.00     0.082 A 
ATOM     23  C   UNL A   1      40.334  22.391  26.619  1.00  0.00     0.024 A 
ATOM     24  C   UNL A   1      38.700  24.184  26.486  1.00  0.00     0.024 A 
ATOM     25  C   UNL A   1      39.414  21.515  26.042  1.00  0.00     0.030 A 
ATOM     26  C   UNL A   1      37.786  23.314  25.880  1.00  0.00     0.030 A 
BRANCH  22  27
ATOM     27  S   UNL A   1      41.123  24.750  27.705  1.00  0.00     0.238 S 
ATOM     28  O   UNL A   1      42.216  23.936  28.163  1.00  0.00    -0.207 OA
ATOM     29  O   UNL A   1      40.381  25.623  28.599  1.00  0.00    -0.207 OA
BRANCH  27  30
ATOM     30  N   UNL A   1      41.741  25.753  26.520  1.00  0.00    -0.225 NA
ATOM     31  H   UNL A   1      41.711  26.721  26.843  1.00  0.00     0.137 HD
ATOM     32  H   UNL A   1      41.182  25.661  25.671  1.00  0.00     0.137 HD
ENDBRANCH  27  30
ENDBRANCH  22  27
ENDBRANCH  17  21
BRANCH  19  33
ATOM     33  C   UNL A   1      35.094  22.501  25.282  1.00  0.00     0.000 A 
ATOM     34  C   UNL A   1      34.161  22.726  26.308  1.00  0.00     0.010 A 
ATOM     35  C   UNL A   1      35.305  23.496  24.324  1.00  0.00     0.010 A 
ATOM     36  C   UNL A   1      33.409  23.897  26.344  1.00  0.00     0.001 A 
ATOM     37  C   UNL A   1      34.562  24.678  24.371  1.00  0.00     0.001 A 
ATOM     38  C   UNL A   1      33.608  24.872  25.371  1.00  0.00     0.000 A 
ENDBRANCH  19  33
ENDBRANCH  11  16
ENDBRANCH   9  10
ENDBRANCH   8   9
ENDBRANCH   7   8
ENDBRANCH   6   7
ENDBRANCH   5   6
ENDBRANCH   4   5
ENDBRANCH   3   4
ENDBRANCH   2   3
ENDBRANCH   1   2
BRANCH   1  39
ATOM     39  C   UNL A   1      30.158  27.005  24.622  1.00  0.00     0.123 C 
BRANCH  39  40
ATOM     40  C   UNL A   1      31.024  27.156  25.861  1.00  0.00     0.305 C 
ATOM     41  O   UNL A   1      30.861  26.472  26.865  1.00  0.00    -0.252 OA
BRANCH  40  42
ATOM     42  O   UNL A   1      31.962  28.120  25.728  1.00  0.00    -0.463 OA
BRANCH  42  43
ATOM     43  C   UNL A   1      31.523  29.424  25.316  1.00  0.00     0.261 C 
BRANCH  43  44
ATOM     44  C   UNL A   1      32.375  30.504  25.984  1.00  0.00     0.202 C 
BRANCH  44  45
ATOM     45  O   UNL A   1      33.699  30.122  26.369  1.00  0.00    -0.374 OA
BRANCH  45  46
ATOM     46  C   UNL A   1      34.124  30.405  27.699  1.00  0.00     0.202 C 
BRANCH  46  47
ATOM     47  C   UNL A   1      35.279  31.379  27.875  1.00  0.00     0.261 C 
BRANCH  47  48
ATOM     48  O   UNL A   1      36.332  30.819  28.647  1.00  0.00    -0.460 OA
BRANCH  48  49
ATOM     49  C   UNL A   1      36.276  31.115  29.965  1.00  0.00     0.338 C 
ATOM     50  O   UNL A   1      35.529  31.912  30.509  1.00  0.00    -0.246 OA
BRANCH  49  51
ATOM     51  C   UNL A   1      37.390  30.443  30.639  1.00  0.00     0.060 A 
ATOM     52  C   UNL A   1      38.179  31.244  31.466  1.00  0.00     0.016 A 
ATOM     53  C   UNL A   1      37.804  29.170  30.219  1.00  0.00     0.016 A 
ATOM     54  C   UNL A   1      39.486  30.872  31.665  1.00  0.00     0.010 A 
ATOM     55  C   UNL A   1      39.112  28.803  30.411  1.00  0.00     0.010 A 
ATOM     56  C   UNL A   1      39.955  29.706  31.047  1.00  0.00    -0.014 A 
BRANCH  56  57
ATOM     57  C   UNL A   1      41.348  29.367  31.225  1.00  0.00     0.031 A 
ATOM     58  C   UNL A   1      41.591  28.867  32.595  1.00  0.00     0.074 A 
ATOM     59  C   UNL A   1      42.248  29.451  30.226  1.00  0.00     0.049 A 
ATOM     60  N   UNL A   1      42.155  29.508  33.563  1.00  0.00    -0.248 NA
ATOM     61  C   UNL A   1      40.889  27.643  33.017  1.00  0.00     0.031 C 
ATOM     62  C   UNL A   1      41.995  29.684  28.801  1.00  0.00     0.029 A 
ATOM     63  N   UNL A   1      43.585  29.212  30.258  1.00  0.00    -0.354 N 
ATOM     64  C   UNL A   1      42.136  28.620  34.632  1.00  0.00     0.074 A 
ATOM     65  C   UNL A   1      41.116  27.656  34.330  1.00  0.00     0.031 C 
ATOM     66  C   UNL A   1      43.085  29.305  28.092  1.00  0.00     0.029 A 
ATOM     67  C   UNL A   1      44.142  28.923  29.014  1.00  0.00     0.049 A 
ATOM     68  H   UNL A   1      44.115  29.240  31.087  1.00  0.00     0.167 HD
ATOM     69  C   UNL A   1      43.201  28.546  35.475  1.00  0.00     0.034 A 
ATOM     70  C   UNL A   1      45.341  28.322  28.786  1.00  0.00     0.034 A 
ATOM     71  C   UNL A   1      44.027  29.724  35.357  1.00  0.00     0.049 A 
ATOM     72  C   UNL A   1      46.138  28.449  30.030  1.00  0.00     0.074 A 
ATOM     73  C   UNL A   1      43.822  31.082  35.501  1.00  0.00     0.029 A 
ATOM     74  N   UNL A   1      45.181  29.585  34.624  1.00  0.00    -0.354 N 
ATOM     75  N   UNL A   1      46.575  29.589  30.484  1.00  0.00    -0.248 NA
ATOM     76  C   UNL A   1      46.035  27.378  31.008  1.00  0.00     0.031 C 
ATOM     77  C   UNL A   1      44.607  31.684  34.473  1.00  0.00     0.029 A 
ATOM     78  C   UNL A   1      45.316  30.678  33.816  1.00  0.00     0.049 A 
ATOM     79  H   UNL A   1      45.805  28.824  34.673  1.00  0.00     0.167 HD
ATOM     80  C   UNL A   1      46.326  29.523  31.848  1.00  0.00     0.074 A 
ATOM     81  C   UNL A   1      46.091  28.105  32.127  1.00  0.00     0.031 C 
ATOM     82  C   UNL A   1      46.024  30.651  32.555  1.00  0.00     0.034 A 
BRANCH  69  83
ATOM     83  C   UNL A   1      43.758  27.250  36.035  1.00  0.00     0.023 A 
ATOM     84  C   UNL A   1      44.056  27.239  37.416  1.00  0.00     0.012 A 
ATOM     85  C   UNL A   1      44.276  26.180  35.266  1.00  0.00     0.148 A 
ATOM     86  C   UNL A   1      44.896  26.273  37.980  1.00  0.00     0.002 A 
ATOM     87  C   UNL A   1      45.050  25.183  35.844  1.00  0.00     0.091 A 
ATOM     88  F   UNL A   1      44.141  26.165  33.941  1.00  0.00    -0.205 F 
ATOM     89  C   UNL A   1      45.395  25.244  37.194  1.00  0.00     0.022 A 
BRANCH  87  90
ATOM     90  S   UNL A   1      45.694  23.809  34.876  1.00  0.00     0.127 S 
ATOM     91  O   UNL A   1      46.406  24.514  33.814  1.00  0.00    -0.237 OA
ATOM     92  O   UNL A   1      46.544  23.136  35.857  1.00  0.00    -0.237 OA
ATOM     93  O   UNL A   1      44.529  23.037  34.460  1.00  0.00    -0.744 OA
ENDBRANCH  87  90
ENDBRANCH  69  83
BRANCH  70  94
ATOM     94  C   UNL A   1      45.740  27.364  27.721  1.00  0.00     0.023 A 
ATOM     95  C   UNL A   1      45.071  26.126  27.608  1.00  0.00     0.012 A 
ATOM     96  C   UNL A   1      46.548  27.778  26.639  1.00  0.00     0.148 A 
ATOM     97  C   UNL A   1      45.170  25.351  26.443  1.00  0.00     0.002 A 
ATOM     98  C   UNL A   1      46.648  27.003  25.487  1.00  0.00     0.091 A 
ATOM     99  F   UNL A   1      47.141  28.977  26.698  1.00  0.00    -0.205 F 
ATOM    100  C   UNL A   1      45.949  25.794  25.379  1.00  0.00     0.022 A 
BRANCH  98 101
ATOM    101  S   UNL A   1      47.611  27.532  24.063  1.00  0.00     0.127 S 
ATOM    102  O   UNL A   1      48.830  28.040  24.693  1.00  0.00    -0.237 OA
ATOM    103  O   UNL A   1      47.778  26.281  23.329  1.00  0.00    -0.237 OA
ATOM    104  O   UNL A   1      46.813  28.554  23.396  1.00  0.00    -0.744 OA
ENDBRANCH  98 101
ENDBRANCH  70  94
BRANCH  82 105
ATOM    105  C   UNL A   1      46.265  31.984  31.899  1.00  0.00     0.023 A 
ATOM    106  C   UNL A   1      47.513  32.642  31.909  1.00  0.00     0.012 A 
ATOM    107  C   UNL A   1      45.226  32.504  31.113  1.00  0.00     0.148 A 
ATOM    108  C   UNL A   1      47.707  33.809  31.162  1.00  0.00     0.002 A 
ATOM    109  C   UNL A   1      45.437  33.631  30.334  1.00  0.00     0.091 A 
ATOM    110  F   UNL A   1      44.047  31.863  31.120  1.00  0.00    -0.205 F 
ATOM    111  C   UNL A   1      46.672  34.295  30.363  1.00  0.00     0.022 A 
BRANCH 109 112
ATOM    112  S   UNL A   1      44.178  34.218  29.200  1.00  0.00     0.127 S 
ATOM    113  O   UNL A   1      43.042  34.431  30.092  1.00  0.00    -0.237 OA
ATOM    114  O   UNL A   1      44.781  35.442  28.670  1.00  0.00    -0.237 OA
ATOM    115  O   UNL A   1      44.011  33.162  28.208  1.00  0.00    -0.744 OA
ENDBRANCH 109 112
ENDBRANCH  82 105
ENDBRANCH  56  57
ENDBRANCH  49  51
ENDBRANCH  48  49
ENDBRANCH  47  48
ENDBRANCH  46  47
ENDBRANCH  45  46
ENDBRANCH  44  45
ENDBRANCH  43  44
ENDBRANCH  42  43
ENDBRANCH  40  42
ENDBRANCH  39  40
ENDBRANCH   1  39
TORSDOF 32
ENDMDL
