MODEL 1
REMARK VINA RESULT:     -11.9      0.000      0.000
REMARK SMILES Cc1cccc2c1N=CN1C2=[NH+]NC(=O)[C@@H]1CC(=O)OCCOCCOC(=O)c1ccc(-c2c3nc(c(-c4cccc(S(=O)(=O)[O-])c4F)c4ccc([nH]4)c(-c4cccc(S(=O)(=O)[O-])c4F)c4nc(c(-c5cccc(S(=O)(=O)[O-])c5F)c5ccc2[nH]5)C=C4)C=C3)cc1
REMARK SMILES IDX 24 1 23 2 22 3 21 4 20 5 18 6 19 7 17 8 16 9 1 10 2 11 3 12
REMARK SMILES IDX 7 13 4 14 6 15 8 16 5 17 11 18 9 19 10 20 12 21 13 22 14 24
REMARK SMILES IDX 15 26 25 27 26 28 27 29 28 30 29 31 30 32 91 33 31 34 90 35
REMARK SMILES IDX 32 36 33 37 34 38 84 39 35 40 89 41 83 42 85 43 36 44 88 45
REMARK SMILES IDX 82 46 81 47 37 49 69 50 49 51 68 52 50 53 53 54 67 55 86 56
REMARK SMILES IDX 51 57 52 58 66 60 87 61 54 62 38 63 39 64 47 65 40 66 42 67
REMARK SMILES IDX 48 68 41 69 43 70 44 71 45 72 46 73 70 74 71 75 79 76 72 77
REMARK SMILES IDX 74 78 80 79 73 80 75 81 76 82 77 83 78 84 55 85 56 86 64 87
REMARK SMILES IDX 57 88 59 89 65 90 58 91 60 92 61 93 62 94 63 95
REMARK H PARENT 12 23 13 25 85 48 53 59
REMARK Flexibility Score: inf
ROOT
ATOM      1  C   UNL A   1      31.360  31.888  26.606  1.00  0.00     0.202 C 
ENDROOT
BRANCH   1   2
ATOM      2  O   UNL A   1      32.150  30.722  26.351  1.00  0.00    -0.374 OA
BRANCH   2   3
ATOM      3  C   UNL A   1      31.531  29.662  25.620  1.00  0.00     0.202 C 
BRANCH   3   4
ATOM      4  C   UNL A   1      32.130  29.359  24.242  1.00  0.00     0.261 C 
BRANCH   4   5
ATOM      5  O   UNL A   1      32.940  28.169  24.245  1.00  0.00    -0.463 OA
BRANCH   5   6
ATOM      6  C   UNL A   1      33.682  27.989  23.126  1.00  0.00     0.310 C 
ATOM      7  O   UNL A   1      34.480  28.802  22.671  1.00  0.00    -0.252 OA
BRANCH   6   8
ATOM      8  C   UNL A   1      33.552  26.609  22.545  1.00  0.00     0.183 C 
BRANCH   8   9
ATOM      9  C   UNL A   1      32.722  25.578  23.306  1.00  0.00     0.286 C 
ATOM     10  C   UNL A   1      36.537  20.613  25.166  1.00  0.00     0.047 C 
ATOM     11  C   UNL A   1      35.099  20.686  24.730  1.00  0.00    -0.024 A 
ATOM     12  C   UNL A   1      34.346  19.497  24.750  1.00  0.00     0.006 A 
ATOM     13  C   UNL A   1      34.494  21.886  24.315  1.00  0.00     0.085 A 
ATOM     14  C   UNL A   1      32.996  19.496  24.406  1.00  0.00     0.001 A 
ATOM     15  C   UNL A   1      33.131  21.862  23.956  1.00  0.00     0.092 A 
ATOM     16  N   UNL A   1      35.250  23.081  24.310  1.00  0.00    -0.215 NA
ATOM     17  C   UNL A   1      32.381  20.683  24.027  1.00  0.00     0.019 A 
ATOM     18  C   UNL A   1      32.503  23.148  23.518  1.00  0.00     0.309 C 
ATOM     19  C   UNL A   1      34.641  24.159  23.951  1.00  0.00     0.317 C 
ATOM     20  N   UNL A   1      33.335  24.263  23.528  1.00  0.00    -0.202 N 
ATOM     21  N   UNL A   1      31.245  23.133  23.181  1.00  0.00    -0.169 N 
ATOM     22  N   UNL A   1      30.681  24.295  22.779  1.00  0.00    -0.193 N 
ATOM     23  H   UNL A   1      30.720  22.301  23.219  1.00  0.00     0.340 HD
ATOM     24  C   UNL A   1      31.313  25.505  22.725  1.00  0.00     0.300 C 
ATOM     25  H   UNL A   1      29.737  24.264  22.502  1.00  0.00     0.216 HD
ATOM     26  O   UNL A   1      30.712  26.497  22.305  1.00  0.00    -0.267 OA
ENDBRANCH   8   9
ENDBRANCH   6   8
ENDBRANCH   5   6
ENDBRANCH   4   5
ENDBRANCH   3   4
ENDBRANCH   2   3
ENDBRANCH   1   2
BRANCH   1  27
ATOM     27  C   UNL A   1      32.128  33.185  26.893  1.00  0.00     0.261 C 
BRANCH  27  28
ATOM     28  O   UNL A   1      32.957  33.087  28.068  1.00  0.00    -0.460 OA
BRANCH  28  29
ATOM     29  C   UNL A   1      34.126  33.771  27.986  1.00  0.00     0.338 C 
ATOM     30  O   UNL A   1      34.267  34.956  27.739  1.00  0.00    -0.246 OA
BRANCH  29  31
ATOM     31  C   UNL A   1      35.271  32.889  28.270  1.00  0.00     0.060 A 
ATOM     32  C   UNL A   1      35.069  31.546  28.611  1.00  0.00     0.016 A 
ATOM     33  C   UNL A   1      36.536  33.459  28.391  1.00  0.00     0.016 A 
ATOM     34  C   UNL A   1      36.136  30.776  29.095  1.00  0.00     0.010 A 
ATOM     35  C   UNL A   1      37.597  32.684  28.864  1.00  0.00     0.010 A 
ATOM     36  C   UNL A   1      37.410  31.344  29.249  1.00  0.00    -0.014 A 
BRANCH  36  37
ATOM     37  C   UNL A   1      38.521  30.615  29.926  1.00  0.00     0.031 A 
ATOM     38  C   UNL A   1      38.895  30.990  31.340  1.00  0.00     0.074 A 
ATOM     39  C   UNL A   1      39.230  29.656  29.297  1.00  0.00     0.049 A 
ATOM     40  N   UNL A   1      39.911  30.591  32.063  1.00  0.00    -0.248 NA
ATOM     41  C   UNL A   1      38.020  31.958  32.022  1.00  0.00     0.031 C 
ATOM     42  C   UNL A   1      39.006  29.187  27.932  1.00  0.00     0.029 A 
ATOM     43  N   UNL A   1      40.312  28.921  29.729  1.00  0.00    -0.354 N 
ATOM     44  C   UNL A   1      39.825  31.293  33.259  1.00  0.00     0.074 A 
ATOM     45  C   UNL A   1      38.672  32.161  33.158  1.00  0.00     0.031 C 
ATOM     46  C   UNL A   1      39.925  28.252  27.633  1.00  0.00     0.029 A 
ATOM     47  C   UNL A   1      40.824  28.077  28.771  1.00  0.00     0.049 A 
ATOM     48  H   UNL A   1      40.683  28.992  30.638  1.00  0.00     0.167 HD
ATOM     49  C   UNL A   1      40.602  31.200  34.363  1.00  0.00     0.034 A 
ATOM     50  C   UNL A   1      41.900  27.265  28.797  1.00  0.00     0.034 A 
ATOM     51  C   UNL A   1      41.686  30.274  34.524  1.00  0.00     0.049 A 
ATOM     52  C   UNL A   1      42.732  27.150  30.047  1.00  0.00     0.074 A 
ATOM     53  C   UNL A   1      42.477  30.066  35.641  1.00  0.00     0.029 A 
ATOM     54  N   UNL A   1      42.115  29.384  33.556  1.00  0.00    -0.354 N 
ATOM     55  N   UNL A   1      42.582  27.767  31.192  1.00  0.00    -0.248 NA
ATOM     56  C   UNL A   1      43.858  26.201  30.020  1.00  0.00     0.031 C 
ATOM     57  C   UNL A   1      43.377  29.036  35.353  1.00  0.00     0.029 A 
ATOM     58  C   UNL A   1      43.148  28.610  34.056  1.00  0.00     0.049 A 
ATOM     59  H   UNL A   1      41.742  29.312  32.648  1.00  0.00     0.167 HD
ATOM     60  C   UNL A   1      43.565  27.255  32.032  1.00  0.00     0.074 A 
ATOM     61  C   UNL A   1      44.306  26.275  31.268  1.00  0.00     0.031 C 
ATOM     62  C   UNL A   1      43.834  27.583  33.319  1.00  0.00     0.034 A 
BRANCH  49  63
ATOM     63  C   UNL A   1      40.248  32.071  35.536  1.00  0.00     0.023 A 
ATOM     64  C   UNL A   1      41.002  33.238  35.771  1.00  0.00     0.012 A 
ATOM     65  C   UNL A   1      39.139  31.780  36.353  1.00  0.00     0.148 A 
ATOM     66  C   UNL A   1      40.672  34.093  36.820  1.00  0.00     0.002 A 
ATOM     67  C   UNL A   1      38.797  32.655  37.377  1.00  0.00     0.091 A 
ATOM     68  F   UNL A   1      38.445  30.658  36.113  1.00  0.00    -0.205 F 
ATOM     69  C   UNL A   1      39.565  33.807  37.616  1.00  0.00     0.022 A 
BRANCH  67  70
ATOM     70  S   UNL A   1      37.361  32.411  38.428  1.00  0.00     0.127 S 
ATOM     71  O   UNL A   1      36.300  33.011  37.620  1.00  0.00    -0.237 OA
ATOM     72  O   UNL A   1      37.300  30.953  38.530  1.00  0.00    -0.237 OA
ATOM     73  O   UNL A   1      37.652  33.100  39.678  1.00  0.00    -0.744 OA
ENDBRANCH  67  70
ENDBRANCH  49  63
BRANCH  50  74
ATOM     74  C   UNL A   1      42.223  26.436  27.603  1.00  0.00     0.023 A 
ATOM     75  C   UNL A   1      42.900  27.031  26.520  1.00  0.00     0.012 A 
ATOM     76  C   UNL A   1      41.886  25.071  27.544  1.00  0.00     0.148 A 
ATOM     77  C   UNL A   1      43.221  26.282  25.389  1.00  0.00     0.002 A 
ATOM     78  C   UNL A   1      42.235  24.324  26.426  1.00  0.00     0.091 A 
ATOM     79  F   UNL A   1      41.243  24.532  28.591  1.00  0.00    -0.205 F 
ATOM     80  C   UNL A   1      42.895  24.929  25.343  1.00  0.00     0.022 A 
BRANCH  78  81
ATOM     81  S   UNL A   1      41.926  22.559  26.298  1.00  0.00     0.127 S 
ATOM     82  O   UNL A   1      40.466  22.513  26.269  1.00  0.00    -0.237 OA
ATOM     83  O   UNL A   1      42.580  22.235  25.031  1.00  0.00    -0.237 OA
ATOM     84  O   UNL A   1      42.544  21.964  27.475  1.00  0.00    -0.744 OA
ENDBRANCH  78  81
ENDBRANCH  50  74
BRANCH  62  85
ATOM     85  C   UNL A   1      44.947  26.864  34.028  1.00  0.00     0.023 A 
ATOM     86  C   UNL A   1      46.246  27.405  33.999  1.00  0.00     0.012 A 
ATOM     87  C   UNL A   1      44.678  25.742  34.838  1.00  0.00     0.148 A 
ATOM     88  C   UNL A   1      47.265  26.839  34.766  1.00  0.00     0.002 A 
ATOM     89  C   UNL A   1      45.689  25.203  35.624  1.00  0.00     0.091 A 
ATOM     90  F   UNL A   1      43.435  25.240  34.838  1.00  0.00    -0.205 F 
ATOM     91  C   UNL A   1      46.984  25.749  35.587  1.00  0.00     0.022 A 
BRANCH  89  92
ATOM     92  S   UNL A   1      45.408  23.850  36.773  1.00  0.00     0.127 S 
ATOM     93  O   UNL A   1      46.756  23.611  37.288  1.00  0.00    -0.237 OA
ATOM     94  O   UNL A   1      44.483  24.449  37.736  1.00  0.00    -0.237 OA
ATOM     95  O   UNL A   1      44.843  22.763  35.985  1.00  0.00    -0.744 OA
ENDBRANCH  89  92
ENDBRANCH  62  85
ENDBRANCH  36  37
ENDBRANCH  29  31
ENDBRANCH  28  29
ENDBRANCH  27  28
ENDBRANCH   1  27
TORSDOF 18
ENDMDL
MODEL 2
REMARK VINA RESULT:     -11.8      5.111      8.414
REMARK SMILES Cc1cccc2c1N=CN1C2=[NH+]NC(=O)[C@@H]1CC(=O)OCCOCCOC(=O)c1ccc(-c2c3nc(c(-c4cccc(S(=O)(=O)[O-])c4F)c4ccc([nH]4)c(-c4cccc(S(=O)(=O)[O-])c4F)c4nc(c(-c5cccc(S(=O)(=O)[O-])c5F)c5ccc2[nH]5)C=C4)C=C3)cc1
REMARK SMILES IDX 24 1 23 2 22 3 21 4 20 5 18 6 19 7 17 8 16 9 1 10 2 11 3 12
REMARK SMILES IDX 7 13 4 14 6 15 8 16 5 17 11 18 9 19 10 20 12 21 13 22 14 24
REMARK SMILES IDX 15 26 25 27 26 28 27 29 28 30 29 31 30 32 91 33 31 34 90 35
REMARK SMILES IDX 32 36 33 37 34 38 84 39 35 40 89 41 83 42 85 43 36 44 88 45
REMARK SMILES IDX 82 46 81 47 37 49 69 50 49 51 68 52 50 53 53 54 67 55 86 56
REMARK SMILES IDX 51 57 52 58 66 60 87 61 54 62 38 63 39 64 47 65 40 66 42 67
REMARK SMILES IDX 48 68 41 69 43 70 44 71 45 72 46 73 70 74 71 75 79 76 72 77
REMARK SMILES IDX 74 78 80 79 73 80 75 81 76 82 77 83 78 84 55 85 56 86 64 87
REMARK SMILES IDX 57 88 59 89 65 90 58 91 60 92 61 93 62 94 63 95
REMARK H PARENT 12 23 13 25 85 48 53 59
REMARK Flexibility Score: inf
ROOT
ATOM      1  C   UNL A   1      36.046  19.869  24.984  1.00  0.00     0.202 C 
ENDROOT
BRANCH   1   2
ATOM      2  O   UNL A   1      35.435  21.144  24.763  1.00  0.00    -0.374 OA
BRANCH   2   3
ATOM      3  C   UNL A   1      34.555  21.630  25.778  1.00  0.00     0.202 C 
BRANCH   3   4
ATOM      4  C   UNL A   1      34.709  23.110  26.147  1.00  0.00     0.261 C 
BRANCH   4   5
ATOM      5  O   UNL A   1      33.581  23.900  25.727  1.00  0.00    -0.463 OA
BRANCH   5   6
ATOM      6  C   UNL A   1      33.276  23.794  24.412  1.00  0.00     0.310 C 
ATOM      7  O   UNL A   1      32.272  23.253  23.963  1.00  0.00    -0.252 OA
BRANCH   6   8
ATOM      8  C   UNL A   1      34.228  24.542  23.521  1.00  0.00     0.183 C 
BRANCH   8   9
ATOM      9  C   UNL A   1      33.679  25.685  22.671  1.00  0.00     0.286 C 
ATOM     10  C   UNL A   1      31.900  30.645  26.532  1.00  0.00     0.047 C 
ATOM     11  C   UNL A   1      31.343  30.107  25.242  1.00  0.00    -0.024 A 
ATOM     12  C   UNL A   1      30.255  30.785  24.663  1.00  0.00     0.006 A 
ATOM     13  C   UNL A   1      31.872  28.969  24.606  1.00  0.00     0.085 A 
ATOM     14  C   UNL A   1      29.718  30.375  23.445  1.00  0.00     0.001 A 
ATOM     15  C   UNL A   1      31.305  28.559  23.382  1.00  0.00     0.092 A 
ATOM     16  N   UNL A   1      32.975  28.298  25.183  1.00  0.00    -0.215 NA
ATOM     17  C   UNL A   1      30.255  29.272  22.792  1.00  0.00     0.019 A 
ATOM     18  C   UNL A   1      31.881  27.348  22.718  1.00  0.00     0.309 C 
ATOM     19  C   UNL A   1      33.442  27.280  24.545  1.00  0.00     0.317 C 
ATOM     20  N   UNL A   1      32.950  26.747  23.375  1.00  0.00    -0.202 N 
ATOM     21  N   UNL A   1      31.360  26.961  21.589  1.00  0.00    -0.169 N 
ATOM     22  N   UNL A   1      31.877  25.861  20.994  1.00  0.00    -0.193 N 
ATOM     23  H   UNL A   1      30.613  27.454  21.180  1.00  0.00     0.340 HD
ATOM     24  C   UNL A   1      32.932  25.130  21.462  1.00  0.00     0.300 C 
ATOM     25  H   UNL A   1      31.457  25.565  20.155  1.00  0.00     0.216 HD
ATOM     26  O   UNL A   1      33.299  24.119  20.857  1.00  0.00    -0.267 OA
ENDBRANCH   8   9
ENDBRANCH   6   8
ENDBRANCH   5   6
ENDBRANCH   4   5
ENDBRANCH   3   4
ENDBRANCH   2   3
ENDBRANCH   1   2
BRANCH   1  27
ATOM     27  C   UNL A   1      37.578  19.823  24.918  1.00  0.00     0.261 C 
BRANCH  27  28
ATOM     28  O   UNL A   1      38.185  21.073  25.302  1.00  0.00    -0.460 OA
BRANCH  28  29
ATOM     29  C   UNL A   1      39.336  20.942  26.008  1.00  0.00     0.338 C 
ATOM     30  O   UNL A   1      40.015  19.937  26.123  1.00  0.00    -0.246 OA
BRANCH  29  31
ATOM     31  C   UNL A   1      39.717  22.221  26.632  1.00  0.00     0.060 A 
ATOM     32  C   UNL A   1      39.160  23.426  26.187  1.00  0.00     0.016 A 
ATOM     33  C   UNL A   1      40.783  22.231  27.528  1.00  0.00     0.016 A 
ATOM     34  C   UNL A   1      39.687  24.648  26.626  1.00  0.00     0.010 A 
ATOM     35  C   UNL A   1      41.297  23.453  27.970  1.00  0.00     0.010 A 
ATOM     36  C   UNL A   1      40.779  24.675  27.508  1.00  0.00    -0.014 A 
BRANCH  36  37
ATOM     37  C   UNL A   1      41.480  25.946  27.854  1.00  0.00     0.031 A 
ATOM     38  C   UNL A   1      40.728  27.022  28.602  1.00  0.00     0.074 A 
ATOM     39  C   UNL A   1      42.754  26.180  27.483  1.00  0.00     0.049 A 
ATOM     40  N   UNL A   1      41.091  28.248  28.877  1.00  0.00    -0.248 NA
ATOM     41  C   UNL A   1      39.381  26.675  29.085  1.00  0.00     0.031 C 
ATOM     42  C   UNL A   1      43.612  25.253  26.747  1.00  0.00     0.029 A 
ATOM     43  N   UNL A   1      43.542  27.296  27.657  1.00  0.00    -0.354 N 
ATOM     44  C   UNL A   1      40.005  28.832  29.518  1.00  0.00     0.074 A 
ATOM     45  C   UNL A   1      38.959  27.834  29.571  1.00  0.00     0.031 C 
ATOM     46  C   UNL A   1      44.800  25.839  26.524  1.00  0.00     0.029 A 
ATOM     47  C   UNL A   1      44.781  27.194  27.070  1.00  0.00     0.049 A 
ATOM     48  H   UNL A   1      43.245  28.091  28.155  1.00  0.00     0.167 HD
ATOM     49  C   UNL A   1      39.893  30.068  30.056  1.00  0.00     0.034 A 
ATOM     50  C   UNL A   1      45.785  28.090  26.969  1.00  0.00     0.034 A 
ATOM     51  C   UNL A   1      40.950  31.037  30.107  1.00  0.00     0.049 A 
ATOM     52  C   UNL A   1      45.652  29.448  27.604  1.00  0.00     0.074 A 
ATOM     53  C   UNL A   1      40.939  32.287  30.700  1.00  0.00     0.029 A 
ATOM     54  N   UNL A   1      42.213  30.858  29.570  1.00  0.00    -0.354 N 
ATOM     55  N   UNL A   1      44.644  29.947  28.273  1.00  0.00    -0.248 NA
ATOM     56  C   UNL A   1      46.810  30.353  27.503  1.00  0.00     0.031 C 
ATOM     57  C   UNL A   1      42.204  32.860  30.537  1.00  0.00     0.029 A 
ATOM     58  C   UNL A   1      42.997  31.967  29.837  1.00  0.00     0.049 A 
ATOM     59  H   UNL A   1      42.509  30.061  29.074  1.00  0.00     0.167 HD
ATOM     60  C   UNL A   1      45.056  31.204  28.704  1.00  0.00     0.074 A 
ATOM     61  C   UNL A   1      46.408  31.393  28.225  1.00  0.00     0.031 C 
ATOM     62  C   UNL A   1      44.366  32.121  29.423  1.00  0.00     0.034 A 
BRANCH  49  63
ATOM     63  C   UNL A   1      38.593  30.418  30.724  1.00  0.00     0.023 A 
ATOM     64  C   UNL A   1      38.384  30.025  32.061  1.00  0.00     0.012 A 
ATOM     65  C   UNL A   1      37.618  31.189  30.063  1.00  0.00     0.148 A 
ATOM     66  C   UNL A   1      37.211  30.374  32.726  1.00  0.00     0.002 A 
ATOM     67  C   UNL A   1      36.464  31.561  30.744  1.00  0.00     0.091 A 
ATOM     68  F   UNL A   1      37.837  31.541  28.788  1.00  0.00    -0.205 F 
ATOM     69  C   UNL A   1      36.257  31.149  32.071  1.00  0.00     0.022 A 
BRANCH  67  70
ATOM     70  S   UNL A   1      35.195  32.601  30.014  1.00  0.00     0.127 S 
ATOM     71  O   UNL A   1      35.984  33.734  29.534  1.00  0.00    -0.237 OA
ATOM     72  O   UNL A   1      34.660  31.739  28.960  1.00  0.00    -0.237 OA
ATOM     73  O   UNL A   1      34.258  32.909  31.086  1.00  0.00    -0.744 OA
ENDBRANCH  67  70
ENDBRANCH  49  63
BRANCH  50  74
ATOM     74  C   UNL A   1      47.046  27.704  26.280  1.00  0.00     0.023 A 
ATOM     75  C   UNL A   1      48.095  27.143  27.035  1.00  0.00     0.012 A 
ATOM     76  C   UNL A   1      47.203  27.866  24.891  1.00  0.00     0.148 A 
ATOM     77  C   UNL A   1      49.288  26.766  26.419  1.00  0.00     0.002 A 
ATOM     78  C   UNL A   1      48.383  27.462  24.279  1.00  0.00     0.091 A 
ATOM     79  F   UNL A   1      46.187  28.401  24.197  1.00  0.00    -0.205 F 
ATOM     80  C   UNL A   1      49.430  26.920  25.042  1.00  0.00     0.022 A 
BRANCH  78  81
ATOM     81  S   UNL A   1      48.640  27.549  22.503  1.00  0.00     0.127 S 
ATOM     82  O   UNL A   1      49.935  28.220  22.421  1.00  0.00    -0.237 OA
ATOM     83  O   UNL A   1      48.653  26.133  22.136  1.00  0.00    -0.237 OA
ATOM     84  O   UNL A   1      47.511  28.304  21.978  1.00  0.00    -0.744 OA
ENDBRANCH  78  81
ENDBRANCH  50  74
BRANCH  62  85
ATOM     85  C   UNL A   1      45.046  33.411  29.788  1.00  0.00     0.023 A 
ATOM     86  C   UNL A   1      45.822  33.474  30.961  1.00  0.00     0.012 A 
ATOM     87  C   UNL A   1      45.037  34.505  28.900  1.00  0.00     0.148 A 
ATOM     88  C   UNL A   1      46.579  34.610  31.246  1.00  0.00     0.002 A 
ATOM     89  C   UNL A   1      45.819  35.621  29.174  1.00  0.00     0.091 A 
ATOM     90  F   UNL A   1      44.281  34.423  27.795  1.00  0.00    -0.205 F 
ATOM     91  C   UNL A   1      46.589  35.675  30.348  1.00  0.00     0.022 A 
BRANCH  89  92
ATOM     92  S   UNL A   1      45.960  37.009  28.042  1.00  0.00     0.127 S 
ATOM     93  O   UNL A   1      44.571  37.460  27.950  1.00  0.00    -0.237 OA
ATOM     94  O   UNL A   1      46.848  37.915  28.770  1.00  0.00    -0.237 OA
ATOM     95  O   UNL A   1      46.521  36.470  26.810  1.00  0.00    -0.744 OA
ENDBRANCH  89  92
ENDBRANCH  62  85
ENDBRANCH  36  37
ENDBRANCH  29  31
ENDBRANCH  28  29
ENDBRANCH  27  28
ENDBRANCH   1  27
TORSDOF 18
ENDMDL
MODEL 3
REMARK VINA RESULT:     -11.8      5.103     10.151
REMARK SMILES Cc1cccc2c1N=CN1C2=[NH+]NC(=O)[C@@H]1CC(=O)OCCOCCOC(=O)c1ccc(-c2c3nc(c(-c4cccc(S(=O)(=O)[O-])c4F)c4ccc([nH]4)c(-c4cccc(S(=O)(=O)[O-])c4F)c4nc(c(-c5cccc(S(=O)(=O)[O-])c5F)c5ccc2[nH]5)C=C4)C=C3)cc1
REMARK SMILES IDX 24 1 23 2 22 3 21 4 20 5 18 6 19 7 17 8 16 9 1 10 2 11 3 12
REMARK SMILES IDX 7 13 4 14 6 15 8 16 5 17 11 18 9 19 10 20 12 21 13 22 14 24
REMARK SMILES IDX 15 26 25 27 26 28 27 29 28 30 29 31 30 32 91 33 31 34 90 35
REMARK SMILES IDX 32 36 33 37 34 38 84 39 35 40 89 41 83 42 85 43 36 44 88 45
REMARK SMILES IDX 82 46 81 47 37 49 69 50 49 51 68 52 50 53 53 54 67 55 86 56
REMARK SMILES IDX 51 57 52 58 66 60 87 61 54 62 38 63 39 64 47 65 40 66 42 67
REMARK SMILES IDX 48 68 41 69 43 70 44 71 45 72 46 73 70 74 71 75 79 76 72 77
REMARK SMILES IDX 74 78 80 79 73 80 75 81 76 82 77 83 78 84 55 85 56 86 64 87
REMARK SMILES IDX 57 88 59 89 65 90 58 91 60 92 61 93 62 94 63 95
REMARK H PARENT 12 23 13 25 85 48 53 59
REMARK Flexibility Score: inf
ROOT
ATOM      1  C   UNL A   1      36.064  20.794  25.170  1.00  0.00     0.202 C 
ENDROOT
BRANCH   1   2
ATOM      2  O   UNL A   1      35.677  21.666  24.103  1.00  0.00    -0.374 OA
BRANCH   2   3
ATOM      3  C   UNL A   1      36.158  23.010  24.152  1.00  0.00     0.202 C 
BRANCH   3   4
ATOM      4  C   UNL A   1      35.090  24.100  24.300  1.00  0.00     0.261 C 
BRANCH   4   5
ATOM      5  O   UNL A   1      34.618  24.226  25.654  1.00  0.00    -0.463 OA
BRANCH   5   6
ATOM      6  C   UNL A   1      33.735  25.234  25.852  1.00  0.00     0.310 C 
ATOM      7  O   UNL A   1      33.988  26.427  25.725  1.00  0.00    -0.252 OA
BRANCH   6   8
ATOM      8  C   UNL A   1      32.335  24.753  26.111  1.00  0.00     0.183 C 
BRANCH   8   9
ATOM      9  C   UNL A   1      31.610  24.001  24.997  1.00  0.00     0.286 C 
ATOM     10  C   UNL A   1      32.797  17.599  25.526  1.00  0.00     0.047 C 
ATOM     11  C   UNL A   1      32.593  18.504  24.340  1.00  0.00    -0.024 A 
ATOM     12  C   UNL A   1      32.592  17.919  23.061  1.00  0.00     0.006 A 
ATOM     13  C   UNL A   1      32.400  19.891  24.472  1.00  0.00     0.085 A 
ATOM     14  C   UNL A   1      32.360  18.685  21.921  1.00  0.00     0.001 A 
ATOM     15  C   UNL A   1      32.183  20.652  23.306  1.00  0.00     0.092 A 
ATOM     16  N   UNL A   1      32.388  20.473  25.761  1.00  0.00    -0.215 NA
ATOM     17  C   UNL A   1      32.135  20.051  22.043  1.00  0.00     0.019 A 
ATOM     18  C   UNL A   1      31.980  22.127  23.464  1.00  0.00     0.309 C 
ATOM     19  C   UNL A   1      32.177  21.743  25.829  1.00  0.00     0.317 C 
ATOM     20  N   UNL A   1      32.006  22.605  24.770  1.00  0.00    -0.202 N 
ATOM     21  N   UNL A   1      31.782  22.838  22.391  1.00  0.00    -0.169 N 
ATOM     22  N   UNL A   1      31.605  24.171  22.536  1.00  0.00    -0.193 N 
ATOM     23  H   UNL A   1      31.761  22.417  21.501  1.00  0.00     0.340 HD
ATOM     24  C   UNL A   1      31.583  24.843  23.725  1.00  0.00     0.300 C 
ATOM     25  H   UNL A   1      31.483  24.700  21.715  1.00  0.00     0.216 HD
ATOM     26  O   UNL A   1      31.452  26.069  23.739  1.00  0.00    -0.267 OA
ENDBRANCH   8   9
ENDBRANCH   6   8
ENDBRANCH   5   6
ENDBRANCH   4   5
ENDBRANCH   3   4
ENDBRANCH   2   3
ENDBRANCH   1   2
BRANCH   1  27
ATOM     27  C   UNL A   1      37.440  20.128  25.044  1.00  0.00     0.261 C 
BRANCH  27  28
ATOM     28  O   UNL A   1      38.517  21.086  25.016  1.00  0.00    -0.460 OA
BRANCH  28  29
ATOM     29  C   UNL A   1      39.388  20.978  26.050  1.00  0.00     0.338 C 
ATOM     30  O   UNL A   1      39.921  19.960  26.457  1.00  0.00    -0.246 OA
BRANCH  29  31
ATOM     31  C   UNL A   1      39.662  22.297  26.646  1.00  0.00     0.060 A 
ATOM     32  C   UNL A   1      38.978  23.436  26.202  1.00  0.00     0.016 A 
ATOM     33  C   UNL A   1      40.747  22.424  27.509  1.00  0.00     0.016 A 
ATOM     34  C   UNL A   1      39.398  24.710  26.609  1.00  0.00     0.010 A 
ATOM     35  C   UNL A   1      41.154  23.697  27.919  1.00  0.00     0.010 A 
ATOM     36  C   UNL A   1      40.507  24.856  27.456  1.00  0.00    -0.014 A 
BRANCH  36  37
ATOM     37  C   UNL A   1      41.091  26.194  27.765  1.00  0.00     0.031 A 
ATOM     38  C   UNL A   1      42.516  26.487  27.360  1.00  0.00     0.074 A 
ATOM     39  C   UNL A   1      40.396  27.136  28.433  1.00  0.00     0.049 A 
ATOM     40  N   UNL A   1      43.265  27.519  27.652  1.00  0.00    -0.248 NA
ATOM     41  C   UNL A   1      43.192  25.473  26.534  1.00  0.00     0.031 C 
ATOM     42  C   UNL A   1      39.019  27.007  28.904  1.00  0.00     0.029 A 
ATOM     43  N   UNL A   1      40.776  28.391  28.855  1.00  0.00    -0.354 N 
ATOM     44  C   UNL A   1      44.509  27.257  27.090  1.00  0.00     0.074 A 
ATOM     45  C   UNL A   1      44.423  25.958  26.460  1.00  0.00     0.031 C 
ATOM     46  C   UNL A   1      38.673  28.129  29.558  1.00  0.00     0.029 A 
ATOM     47  C   UNL A   1      39.810  29.046  29.582  1.00  0.00     0.049 A 
ATOM     48  H   UNL A   1      41.657  28.782  28.654  1.00  0.00     0.167 HD
ATOM     49  C   UNL A   1      45.614  28.037  27.058  1.00  0.00     0.034 A 
ATOM     50  C   UNL A   1      39.836  30.240  30.209  1.00  0.00     0.034 A 
ATOM     51  C   UNL A   1      45.690  29.370  27.585  1.00  0.00     0.049 A 
ATOM     52  C   UNL A   1      41.065  31.107  30.131  1.00  0.00     0.074 A 
ATOM     53  C   UNL A   1      46.753  30.255  27.528  1.00  0.00     0.029 A 
ATOM     54  N   UNL A   1      44.660  30.020  28.242  1.00  0.00    -0.354 N 
ATOM     55  N   UNL A   1      42.201  30.870  29.527  1.00  0.00    -0.248 NA
ATOM     56  C   UNL A   1      41.001  32.423  30.791  1.00  0.00     0.031 C 
ATOM     57  C   UNL A   1      46.359  31.450  28.137  1.00  0.00     0.029 A 
ATOM     58  C   UNL A   1      45.055  31.303  28.577  1.00  0.00     0.049 A 
ATOM     59  H   UNL A   1      43.779  29.628  28.440  1.00  0.00     0.167 HD
ATOM     60  C   UNL A   1      42.972  32.015  29.699  1.00  0.00     0.074 A 
ATOM     61  C   UNL A   1      42.174  32.950  30.462  1.00  0.00     0.031 C 
ATOM     62  C   UNL A   1      44.233  32.259  29.270  1.00  0.00     0.034 A 
BRANCH  49  63
ATOM     63  C   UNL A   1      46.821  27.500  26.342  1.00  0.00     0.023 A 
ATOM     64  C   UNL A   1      47.666  26.594  27.013  1.00  0.00     0.012 A 
ATOM     65  C   UNL A   1      47.079  27.830  24.998  1.00  0.00     0.148 A 
ATOM     66  C   UNL A   1      48.766  26.039  26.364  1.00  0.00     0.002 A 
ATOM     67  C   UNL A   1      48.161  27.247  24.347  1.00  0.00     0.091 A 
ATOM     68  F   UNL A   1      46.266  28.702  24.386  1.00  0.00    -0.205 F 
ATOM     69  C   UNL A   1      49.008  26.358  25.030  1.00  0.00     0.022 A 
BRANCH  67  70
ATOM     70  S   UNL A   1      48.532  27.546  22.616  1.00  0.00     0.127 S 
ATOM     71  O   UNL A   1      48.639  26.183  22.098  1.00  0.00    -0.237 OA
ATOM     72  O   UNL A   1      47.345  28.277  22.170  1.00  0.00    -0.237 OA
ATOM     73  O   UNL A   1      49.768  28.316  22.593  1.00  0.00    -0.744 OA
ENDBRANCH  67  70
ENDBRANCH  49  63
BRANCH  50  74
ATOM     74  C   UNL A   1      38.622  30.721  30.923  1.00  0.00     0.023 A 
ATOM     75  C   UNL A   1      38.516  30.507  32.311  1.00  0.00     0.012 A 
ATOM     76  C   UNL A   1      37.593  31.401  30.246  1.00  0.00     0.148 A 
ATOM     77  C   UNL A   1      37.394  30.949  33.011  1.00  0.00     0.002 A 
ATOM     78  C   UNL A   1      36.491  31.864  30.954  1.00  0.00     0.091 A 
ATOM     79  F   UNL A   1      37.723  31.591  28.924  1.00  0.00    -0.205 F 
ATOM     80  C   UNL A   1      36.385  31.631  32.335  1.00  0.00     0.022 A 
BRANCH  78  81
ATOM     81  S   UNL A   1      35.173  32.817  30.192  1.00  0.00     0.127 S 
ATOM     82  O   UNL A   1      34.678  31.886  29.181  1.00  0.00    -0.237 OA
ATOM     83  O   UNL A   1      34.273  33.035  31.324  1.00  0.00    -0.237 OA
ATOM     84  O   UNL A   1      35.806  34.021  29.674  1.00  0.00    -0.744 OA
ENDBRANCH  78  81
ENDBRANCH  50  74
BRANCH  62  85
ATOM     85  C   UNL A   1      44.848  33.598  29.566  1.00  0.00     0.023 A 
ATOM     86  C   UNL A   1      45.630  33.757  30.725  1.00  0.00     0.012 A 
ATOM     87  C   UNL A   1      44.772  34.647  28.628  1.00  0.00     0.148 A 
ATOM     88  C   UNL A   1      46.330  34.944  30.948  1.00  0.00     0.002 A 
ATOM     89  C   UNL A   1      45.497  35.814  28.840  1.00  0.00     0.091 A 
ATOM     90  F   UNL A   1      44.011  34.473  27.538  1.00  0.00    -0.205 F 
ATOM     91  C   UNL A   1      46.274  35.964  30.001  1.00  0.00     0.022 A 
BRANCH  89  92
ATOM     92  S   UNL A   1      45.553  37.153  27.642  1.00  0.00     0.127 S 
ATOM     93  O   UNL A   1      46.342  38.157  28.355  1.00  0.00    -0.237 OA
ATOM     94  O   UNL A   1      46.237  36.528  26.511  1.00  0.00    -0.237 OA
ATOM     95  O   UNL A   1      44.167  37.521  27.385  1.00  0.00    -0.744 OA
ENDBRANCH  89  92
ENDBRANCH  62  85
ENDBRANCH  36  37
ENDBRANCH  29  31
ENDBRANCH  28  29
ENDBRANCH  27  28
ENDBRANCH   1  27
TORSDOF 18
ENDMDL
