MODEL 1
REMARK VINA RESULT:     -11.3      0.000      0.000
REMARK SMILES CCc1cc(C(=O)c2[nH]c3cc(Cl)ccc3c2CC(=O)OCCOCCOC(=O)c2ccc(-c3c4nc(c(-c5cccc(S(=O)(=O)[O-])c5F)c5ccc([nH]5)c(-c5cccc(S(=O)(=O)[O-])c5F)c5nc(c(-c6cccc(S(=O)(=O)[O-])c6F)c6ccc3[nH]6)C=C5)C=C4)cc2)ncc1Cl
REMARK SMILES IDX 23 1 22 2 21 3 19 4 20 5 18 6 17 7 8 8 9 9 10 10 16 12 11 13
REMARK SMILES IDX 15 14 12 15 14 16 13 17 6 18 7 19 5 20 3 21 4 22 95 23 94 24
REMARK SMILES IDX 96 25 93 26 2 27 1 28 24 29 25 30 26 31 27 32 28 33 29 34
REMARK SMILES IDX 30 35 31 36 92 37 32 38 91 39 33 40 34 41 35 42 85 43 36 44
REMARK SMILES IDX 90 45 84 46 86 47 37 48 89 49 83 50 82 51 38 53 70 54 50 55
REMARK SMILES IDX 69 56 51 57 54 58 68 59 87 60 52 61 53 62 67 64 88 65 55 66
REMARK SMILES IDX 39 67 40 68 48 69 41 70 43 71 49 72 42 73 44 74 45 75 46 76
REMARK SMILES IDX 47 77 71 78 72 79 80 80 73 81 75 82 81 83 74 84 76 85 77 86
REMARK SMILES IDX 78 87 79 88 56 89 57 90 65 91 58 92 60 93 66 94 59 95 61 96
REMARK SMILES IDX 62 97 63 98 64 99
REMARK H PARENT 9 11 86 52 54 63
REMARK Flexibility Score: inf
ROOT
ATOM      1  C   UNL A   1      35.190  24.172  24.881  1.00  0.00     0.202 C 
ENDROOT
BRANCH   1   2
ATOM      2  C   UNL A   1      34.178  24.990  25.693  1.00  0.00     0.261 C 
BRANCH   2   3
ATOM      3  O   UNL A   1      33.497  24.195  26.691  1.00  0.00    -0.463 OA
BRANCH   3   4
ATOM      4  C   UNL A   1      32.139  24.192  26.611  1.00  0.00     0.310 C 
ATOM      5  O   UNL A   1      31.430  25.163  26.874  1.00  0.00    -0.252 OA
BRANCH   4   6
ATOM      6  C   UNL A   1      31.520  22.858  26.257  1.00  0.00     0.161 C 
BRANCH   6   7
ATOM      7  C   UNL A   1      31.914  22.190  24.966  1.00  0.00     0.000 A 
ATOM      8  C   UNL A   1      31.652  22.635  23.667  1.00  0.00     0.093 A 
ATOM      9  N   UNL A   1      32.228  21.719  22.813  1.00  0.00    -0.351 N 
ATOM     10  C   UNL A   1      32.531  20.562  23.490  1.00  0.00     0.048 A 
ATOM     11  H   UNL A   1      32.397  21.871  21.855  1.00  0.00     0.167 HD
ATOM     12  C   UNL A   1      32.393  20.842  24.847  1.00  0.00     0.004 A 
ATOM     13  C   UNL A   1      32.906  19.300  23.007  1.00  0.00     0.047 A 
ATOM     14  C   UNL A   1      32.655  19.811  25.775  1.00  0.00     0.012 A 
ATOM     15  C   UNL A   1      33.106  18.286  23.949  1.00  0.00     0.043 A 
ATOM     16  C   UNL A   1      32.992  18.532  25.314  1.00  0.00     0.021 A 
ATOM     17  Cl  UNL A   1      33.464  16.691  23.402  1.00  0.00    -0.084 Cl
BRANCH   8  18
ATOM     18  C   UNL A   1      30.915  23.830  23.267  1.00  0.00     0.227 C 
ATOM     19  O   UNL A   1      29.697  23.820  23.108  1.00  0.00    -0.285 OA
BRANCH  18  20
ATOM     20  C   UNL A   1      31.643  25.091  22.908  1.00  0.00     0.113 A 
ATOM     21  C   UNL A   1      32.058  27.447  23.286  1.00  0.00    -0.026 A 
ATOM     22  C   UNL A   1      31.225  26.322  23.408  1.00  0.00     0.037 A 
ATOM     23  C   UNL A   1      33.273  27.284  22.603  1.00  0.00     0.062 A 
ATOM     24  C   UNL A   1      33.593  26.025  22.103  1.00  0.00     0.132 A 
ATOM     25  Cl  UNL A   1      34.408  28.562  22.381  1.00  0.00    -0.082 Cl
ATOM     26  N   UNL A   1      32.811  24.930  22.238  1.00  0.00    -0.251 NA
BRANCH  21  27
ATOM     27  C   UNL A   1      31.632  28.777  23.874  1.00  0.00     0.034 C 
ATOM     28  C   UNL A   1      30.215  29.213  23.505  1.00  0.00     0.009 C 
ENDBRANCH  21  27
ENDBRANCH  18  20
ENDBRANCH   8  18
ENDBRANCH   6   7
ENDBRANCH   4   6
ENDBRANCH   3   4
ENDBRANCH   2   3
ENDBRANCH   1   2
BRANCH   1  29
ATOM     29  O   UNL A   1      35.332  22.790  25.224  1.00  0.00    -0.374 OA
BRANCH  29  30
ATOM     30  C   UNL A   1      35.899  21.947  24.224  1.00  0.00     0.202 C 
BRANCH  30  31
ATOM     31  C   UNL A   1      37.081  21.072  24.657  1.00  0.00     0.261 C 
BRANCH  31  32
ATOM     32  O   UNL A   1      37.545  21.385  25.979  1.00  0.00    -0.460 OA
BRANCH  32  33
ATOM     33  C   UNL A   1      38.886  21.301  26.127  1.00  0.00     0.338 C 
ATOM     34  O   UNL A   1      39.618  20.393  25.746  1.00  0.00    -0.246 OA
BRANCH  33  35
ATOM     35  C   UNL A   1      39.421  22.553  26.680  1.00  0.00     0.060 A 
ATOM     36  C   UNL A   1      38.812  23.743  26.263  1.00  0.00     0.016 A 
ATOM     37  C   UNL A   1      40.527  22.578  27.534  1.00  0.00     0.016 A 
ATOM     38  C   UNL A   1      39.347  24.968  26.645  1.00  0.00     0.010 A 
ATOM     39  C   UNL A   1      41.066  23.812  27.913  1.00  0.00     0.010 A 
ATOM     40  C   UNL A   1      40.503  25.008  27.434  1.00  0.00    -0.014 A 
BRANCH  40  41
ATOM     41  C   UNL A   1      41.189  26.305  27.630  1.00  0.00     0.031 A 
ATOM     42  C   UNL A   1      40.516  27.370  28.450  1.00  0.00     0.074 A 
ATOM     43  C   UNL A   1      42.412  26.512  27.111  1.00  0.00     0.049 A 
ATOM     44  N   UNL A   1      40.952  28.555  28.786  1.00  0.00    -0.248 NA
ATOM     45  C   UNL A   1      39.168  27.060  28.957  1.00  0.00     0.031 C 
ATOM     46  C   UNL A   1      43.151  25.552  26.293  1.00  0.00     0.029 A 
ATOM     47  N   UNL A   1      43.237  27.604  27.181  1.00  0.00    -0.354 N 
ATOM     48  C   UNL A   1      39.928  29.142  29.518  1.00  0.00     0.074 A 
ATOM     49  C   UNL A   1      38.841  28.190  29.567  1.00  0.00     0.031 C 
ATOM     50  C   UNL A   1      44.315  26.108  25.916  1.00  0.00     0.029 A 
ATOM     51  C   UNL A   1      44.394  27.465  26.451  1.00  0.00     0.049 A 
ATOM     52  H   UNL A   1      43.023  28.411  27.704  1.00  0.00     0.167 HD
ATOM     53  C   UNL A   1      39.902  30.360  30.110  1.00  0.00     0.034 A 
ATOM     54  C   UNL A   1      45.393  28.342  26.228  1.00  0.00     0.034 A 
ATOM     55  C   UNL A   1      40.996  31.292  30.072  1.00  0.00     0.049 A 
ATOM     56  C   UNL A   1      45.342  29.689  26.900  1.00  0.00     0.074 A 
ATOM     57  C   UNL A   1      41.099  32.525  30.689  1.00  0.00     0.029 A 
ATOM     58  N   UNL A   1      42.172  31.100  29.361  1.00  0.00    -0.354 N 
ATOM     59  N   UNL A   1      44.427  30.177  27.703  1.00  0.00    -0.248 NA
ATOM     60  C   UNL A   1      46.477  30.593  26.665  1.00  0.00     0.031 C 
ATOM     61  C   UNL A   1      42.324  33.094  30.324  1.00  0.00     0.029 A 
ATOM     62  C   UNL A   1      42.999  32.199  29.507  1.00  0.00     0.049 A 
ATOM     63  H   UNL A   1      42.386  30.299  28.831  1.00  0.00     0.167 HD
ATOM     64  C   UNL A   1      44.889  31.428  28.094  1.00  0.00     0.074 A 
ATOM     65  C   UNL A   1      46.176  31.614  27.455  1.00  0.00     0.031 C 
ATOM     66  C   UNL A   1      44.295  32.348  28.897  1.00  0.00     0.034 A 
BRANCH  53  67
ATOM     67  C   UNL A   1      38.654  30.746  30.861  1.00  0.00     0.023 A 
ATOM     68  C   UNL A   1      38.564  30.500  32.247  1.00  0.00     0.012 A 
ATOM     69  C   UNL A   1      37.590  31.394  30.205  1.00  0.00     0.148 A 
ATOM     70  C   UNL A   1      37.420  30.860  32.959  1.00  0.00     0.002 A 
ATOM     71  C   UNL A   1      36.471  31.789  30.930  1.00  0.00     0.091 A 
ATOM     72  F   UNL A   1      37.683  31.597  28.883  1.00  0.00    -0.205 F 
ATOM     73  C   UNL A   1      36.379  31.512  32.304  1.00  0.00     0.022 A 
BRANCH  71  74
ATOM     74  S   UNL A   1      35.111  32.699  30.190  1.00  0.00     0.127 S 
ATOM     75  O   UNL A   1      34.140  32.722  31.284  1.00  0.00    -0.237 OA
ATOM     76  O   UNL A   1      35.729  33.993  29.898  1.00  0.00    -0.237 OA
ATOM     77  O   UNL A   1      34.711  31.938  29.015  1.00  0.00    -0.744 OA
ENDBRANCH  71  74
ENDBRANCH  53  67
BRANCH  54  78
ATOM     78  C   UNL A   1      46.538  27.951  25.360  1.00  0.00     0.023 A 
ATOM     79  C   UNL A   1      46.476  28.175  23.972  1.00  0.00     0.012 A 
ATOM     80  C   UNL A   1      47.709  27.394  25.913  1.00  0.00     0.148 A 
ATOM     81  C   UNL A   1      47.548  27.831  23.147  1.00  0.00     0.002 A 
ATOM     82  C   UNL A   1      48.794  27.106  25.094  1.00  0.00     0.091 A 
ATOM     83  F   UNL A   1      47.742  27.172  27.235  1.00  0.00    -0.205 F 
ATOM     84  C   UNL A   1      48.710  27.309  23.708  1.00  0.00     0.022 A 
BRANCH  82  85
ATOM     85  S   UNL A   1      50.374  26.559  25.750  1.00  0.00     0.127 S 
ATOM     86  O   UNL A   1      50.020  25.281  26.361  1.00  0.00    -0.237 OA
ATOM     87  O   UNL A   1      51.185  26.458  24.536  1.00  0.00    -0.237 OA
ATOM     88  O   UNL A   1      50.802  27.604  26.671  1.00  0.00    -0.744 OA
ENDBRANCH  82  85
ENDBRANCH  54  78
BRANCH  66  89
ATOM     89  C   UNL A   1      45.041  33.631  29.154  1.00  0.00     0.023 A 
ATOM     90  C   UNL A   1      45.940  33.716  30.235  1.00  0.00     0.012 A 
ATOM     91  C   UNL A   1      44.908  34.727  28.277  1.00  0.00     0.148 A 
ATOM     92  C   UNL A   1      46.669  34.882  30.460  1.00  0.00     0.002 A 
ATOM     93  C   UNL A   1      45.676  35.867  28.478  1.00  0.00     0.091 A 
ATOM     94  F   UNL A   1      44.035  34.633  27.264  1.00  0.00    -0.205 F 
ATOM     95  C   UNL A   1      46.547  35.952  29.576  1.00  0.00     0.022 A 
BRANCH  93  96
ATOM     96  S   UNL A   1      45.658  37.253  27.335  1.00  0.00     0.127 S 
ATOM     97  O   UNL A   1      46.306  38.299  28.125  1.00  0.00    -0.237 OA
ATOM     98  O   UNL A   1      46.457  36.746  26.219  1.00  0.00    -0.237 OA
ATOM     99  O   UNL A   1      44.256  37.489  27.014  1.00  0.00    -0.744 OA
ENDBRANCH  93  96
ENDBRANCH  66  89
ENDBRANCH  40  41
ENDBRANCH  33  35
ENDBRANCH  32  33
ENDBRANCH  31  32
ENDBRANCH  30  31
ENDBRANCH  29  30
ENDBRANCH   1  29
TORSDOF 21
ENDMDL
MODEL 2
REMARK VINA RESULT:     -11.2      1.553      4.042
REMARK SMILES CCc1cc(C(=O)c2[nH]c3cc(Cl)ccc3c2CC(=O)OCCOCCOC(=O)c2ccc(-c3c4nc(c(-c5cccc(S(=O)(=O)[O-])c5F)c5ccc([nH]5)c(-c5cccc(S(=O)(=O)[O-])c5F)c5nc(c(-c6cccc(S(=O)(=O)[O-])c6F)c6ccc3[nH]6)C=C5)C=C4)cc2)ncc1Cl
REMARK SMILES IDX 23 1 22 2 21 3 19 4 20 5 18 6 17 7 8 8 9 9 10 10 16 12 11 13
REMARK SMILES IDX 15 14 12 15 14 16 13 17 6 18 7 19 5 20 3 21 4 22 95 23 94 24
REMARK SMILES IDX 96 25 93 26 2 27 1 28 24 29 25 30 26 31 27 32 28 33 29 34
REMARK SMILES IDX 30 35 31 36 92 37 32 38 91 39 33 40 34 41 35 42 85 43 36 44
REMARK SMILES IDX 90 45 84 46 86 47 37 48 89 49 83 50 82 51 38 53 70 54 50 55
REMARK SMILES IDX 69 56 51 57 54 58 68 59 87 60 52 61 53 62 67 64 88 65 55 66
REMARK SMILES IDX 39 67 40 68 48 69 41 70 43 71 49 72 42 73 44 74 45 75 46 76
REMARK SMILES IDX 47 77 71 78 72 79 80 80 73 81 75 82 81 83 74 84 76 85 77 86
REMARK SMILES IDX 78 87 79 88 56 89 57 90 65 91 58 92 60 93 66 94 59 95 61 96
REMARK SMILES IDX 62 97 63 98 64 99
REMARK H PARENT 9 11 86 52 54 63
REMARK Flexibility Score: inf
ROOT
ATOM      1  C   UNL A   1      35.986  21.815  24.847  1.00  0.00     0.202 C 
ENDROOT
BRANCH   1   2
ATOM      2  C   UNL A   1      36.145  22.935  25.882  1.00  0.00     0.261 C 
BRANCH   2   3
ATOM      3  O   UNL A   1      35.949  24.249  25.311  1.00  0.00    -0.463 OA
BRANCH   3   4
ATOM      4  C   UNL A   1      34.693  24.759  25.432  1.00  0.00     0.310 C 
ATOM      5  O   UNL A   1      33.937  24.516  26.371  1.00  0.00    -0.252 OA
BRANCH   4   6
ATOM      6  C   UNL A   1      34.226  25.597  24.262  1.00  0.00     0.161 C 
BRANCH   6   7
ATOM      7  C   UNL A   1      32.770  25.565  23.876  1.00  0.00     0.000 A 
ATOM      8  C   UNL A   1      32.097  24.548  23.194  1.00  0.00     0.093 A 
ATOM      9  N   UNL A   1      30.780  24.945  23.095  1.00  0.00    -0.351 N 
ATOM     10  C   UNL A   1      30.666  26.287  23.367  1.00  0.00     0.048 A 
ATOM     11  H   UNL A   1      30.029  24.352  22.862  1.00  0.00     0.167 HD
ATOM     12  C   UNL A   1      31.883  26.693  23.907  1.00  0.00     0.004 A 
ATOM     13  C   UNL A   1      29.589  27.164  23.170  1.00  0.00     0.047 A 
ATOM     14  C   UNL A   1      32.033  28.046  24.283  1.00  0.00     0.012 A 
ATOM     15  C   UNL A   1      29.787  28.508  23.503  1.00  0.00     0.043 A 
ATOM     16  C   UNL A   1      30.984  28.948  24.059  1.00  0.00     0.021 A 
ATOM     17  Cl  UNL A   1      28.533  29.645  23.183  1.00  0.00    -0.084 Cl
BRANCH   8  18
ATOM     18  C   UNL A   1      32.654  23.302  22.676  1.00  0.00     0.227 C 
ATOM     19  O   UNL A   1      33.241  23.251  21.598  1.00  0.00    -0.285 OA
BRANCH  18  20
ATOM     20  C   UNL A   1      32.415  22.005  23.389  1.00  0.00     0.113 A 
ATOM     21  C   UNL A   1      32.397  19.582  23.374  1.00  0.00    -0.026 A 
ATOM     22  C   UNL A   1      32.353  20.805  22.683  1.00  0.00     0.037 A 
ATOM     23  C   UNL A   1      32.447  19.631  24.776  1.00  0.00     0.062 A 
ATOM     24  C   UNL A   1      32.467  20.874  25.400  1.00  0.00     0.132 A 
ATOM     25  Cl  UNL A   1      32.516  18.221  25.765  1.00  0.00    -0.082 Cl
ATOM     26  N   UNL A   1      32.452  22.057  24.744  1.00  0.00    -0.251 NA
BRANCH  21  27
ATOM     27  C   UNL A   1      32.382  18.275  22.610  1.00  0.00     0.034 C 
ATOM     28  C   UNL A   1      33.530  17.325  22.947  1.00  0.00     0.009 C 
ENDBRANCH  21  27
ENDBRANCH  18  20
ENDBRANCH   8  18
ENDBRANCH   6   7
ENDBRANCH   4   6
ENDBRANCH   3   4
ENDBRANCH   2   3
ENDBRANCH   1   2
BRANCH   1  29
ATOM     29  O   UNL A   1      36.122  20.471  25.319  1.00  0.00    -0.374 OA
BRANCH  29  30
ATOM     30  C   UNL A   1      37.078  19.659  24.642  1.00  0.00     0.202 C 
BRANCH  30  31
ATOM     31  C   UNL A   1      38.458  19.538  25.300  1.00  0.00     0.261 C 
BRANCH  31  32
ATOM     32  O   UNL A   1      38.961  20.800  25.765  1.00  0.00    -0.460 OA
BRANCH  32  33
ATOM     33  C   UNL A   1      40.050  20.700  26.562  1.00  0.00     0.338 C 
ATOM     34  O   UNL A   1      40.748  19.707  26.739  1.00  0.00    -0.246 OA
BRANCH  33  35
ATOM     35  C   UNL A   1      40.419  22.019  27.094  1.00  0.00     0.060 A 
ATOM     36  C   UNL A   1      39.779  23.131  26.534  1.00  0.00     0.016 A 
ATOM     37  C   UNL A   1      41.407  22.179  28.069  1.00  0.00     0.016 A 
ATOM     38  C   UNL A   1      40.171  24.414  26.899  1.00  0.00     0.010 A 
ATOM     39  C   UNL A   1      41.803  23.470  28.430  1.00  0.00     0.010 A 
ATOM     40  C   UNL A   1      41.217  24.590  27.814  1.00  0.00    -0.014 A 
BRANCH  40  41
ATOM     41  C   UNL A   1      41.777  25.947  28.008  1.00  0.00     0.031 A 
ATOM     42  C   UNL A   1      40.934  26.993  28.682  1.00  0.00     0.074 A 
ATOM     43  C   UNL A   1      43.033  26.225  27.618  1.00  0.00     0.049 A 
ATOM     44  N   UNL A   1      41.238  28.225  28.992  1.00  0.00    -0.248 NA
ATOM     45  C   UNL A   1      39.563  26.601  29.051  1.00  0.00     0.031 C 
ATOM     46  C   UNL A   1      43.932  25.287  26.949  1.00  0.00     0.029 A 
ATOM     47  N   UNL A   1      43.760  27.383  27.715  1.00  0.00    -0.354 N 
ATOM     48  C   UNL A   1      40.094  28.765  29.568  1.00  0.00     0.074 A 
ATOM     49  C   UNL A   1      39.083  27.731  29.551  1.00  0.00     0.031 C 
ATOM     50  C   UNL A   1      45.088  25.916  26.672  1.00  0.00     0.029 A 
ATOM     51  C   UNL A   1      45.001  27.301  27.130  1.00  0.00     0.049 A 
ATOM     52  H   UNL A   1      43.426  28.195  28.161  1.00  0.00     0.167 HD
ATOM     53  C   UNL A   1      39.908  30.005  30.079  1.00  0.00     0.034 A 
ATOM     54  C   UNL A   1      45.951  28.243  26.969  1.00  0.00     0.034 A 
ATOM     55  C   UNL A   1      40.926  31.019  30.108  1.00  0.00     0.049 A 
ATOM     56  C   UNL A   1      45.721  29.614  27.548  1.00  0.00     0.074 A 
ATOM     57  C   UNL A   1      40.864  32.286  30.658  1.00  0.00     0.029 A 
ATOM     58  N   UNL A   1      42.188  30.887  29.547  1.00  0.00    -0.354 N 
ATOM     59  N   UNL A   1      44.685  30.067  28.212  1.00  0.00    -0.248 NA
ATOM     60  C   UNL A   1      46.806  30.594  27.388  1.00  0.00     0.031 C 
ATOM     61  C   UNL A   1      42.077  32.933  30.400  1.00  0.00     0.029 A 
ATOM     62  C   UNL A   1      42.908  32.057  29.719  1.00  0.00     0.049 A 
ATOM     63  H   UNL A   1      42.522  30.080  29.093  1.00  0.00     0.167 HD
ATOM     64  C   UNL A   1      45.002  31.370  28.576  1.00  0.00     0.074 A 
ATOM     65  C   UNL A   1      46.338  31.627  28.077  1.00  0.00     0.031 C 
ATOM     66  C   UNL A   1      44.252  32.278  29.251  1.00  0.00     0.034 A 
BRANCH  53  67
ATOM     67  C   UNL A   1      38.556  30.326  30.660  1.00  0.00     0.023 A 
ATOM     68  C   UNL A   1      38.218  29.867  31.949  1.00  0.00     0.012 A 
ATOM     69  C   UNL A   1      37.636  31.121  29.948  1.00  0.00     0.148 A 
ATOM     70  C   UNL A   1      36.974  30.164  32.507  1.00  0.00     0.002 A 
ATOM     71  C   UNL A   1      36.415  31.449  30.527  1.00  0.00     0.091 A 
ATOM     72  F   UNL A   1      37.964  31.528  28.714  1.00  0.00    -0.205 F 
ATOM     73  C   UNL A   1      36.078  30.961  31.800  1.00  0.00     0.022 A 
BRANCH  71  74
ATOM     74  S   UNL A   1      35.225  32.530  29.728  1.00  0.00     0.127 S 
ATOM     75  O   UNL A   1      34.692  31.660  28.680  1.00  0.00    -0.237 OA
ATOM     76  O   UNL A   1      34.289  32.816  30.815  1.00  0.00    -0.237 OA
ATOM     77  O   UNL A   1      35.981  33.683  29.258  1.00  0.00    -0.744 OA
ENDBRANCH  71  74
ENDBRANCH  53  67
BRANCH  54  78
ATOM     78  C   UNL A   1      47.216  27.903  26.260  1.00  0.00     0.023 A 
ATOM     79  C   UNL A   1      48.325  27.434  26.988  1.00  0.00     0.012 A 
ATOM     80  C   UNL A   1      47.308  28.003  24.857  1.00  0.00     0.148 A 
ATOM     81  C   UNL A   1      49.511  27.093  26.336  1.00  0.00     0.002 A 
ATOM     82  C   UNL A   1      48.473  27.610  24.209  1.00  0.00     0.091 A 
ATOM     83  F   UNL A   1      46.247  28.469  24.183  1.00  0.00    -0.205 F 
ATOM     84  C   UNL A   1      49.582  27.169  24.947  1.00  0.00     0.022 A 
BRANCH  82  85
ATOM     85  S   UNL A   1      48.602  27.547  22.418  1.00  0.00     0.127 S 
ATOM     86  O   UNL A   1      49.894  28.188  22.188  1.00  0.00    -0.237 OA
ATOM     87  O   UNL A   1      48.575  26.106  22.164  1.00  0.00    -0.237 OA
ATOM     88  O   UNL A   1      47.440  28.265  21.913  1.00  0.00    -0.744 OA
ENDBRANCH  82  85
ENDBRANCH  54  78
BRANCH  66  89
ATOM     89  C   UNL A   1      44.864  33.629  29.512  1.00  0.00     0.023 A 
ATOM     90  C   UNL A   1      45.619  33.843  30.682  1.00  0.00     0.012 A 
ATOM     91  C   UNL A   1      44.756  34.663  28.560  1.00  0.00     0.148 A 
ATOM     92  C   UNL A   1      46.228  35.075  30.918  1.00  0.00     0.002 A 
ATOM     93  C   UNL A   1      45.408  35.870  28.778  1.00  0.00     0.091 A 
ATOM     94  F   UNL A   1      44.020  34.446  27.461  1.00  0.00    -0.205 F 
ATOM     95  C   UNL A   1      46.134  36.084  29.962  1.00  0.00     0.022 A 
BRANCH  93  96
ATOM     96  S   UNL A   1      45.425  37.189  27.557  1.00  0.00     0.127 S 
ATOM     97  O   UNL A   1      43.996  37.383  27.309  1.00  0.00    -0.237 OA
ATOM     98  O   UNL A   1      46.072  38.279  28.286  1.00  0.00    -0.237 OA
ATOM     99  O   UNL A   1      46.191  36.679  26.427  1.00  0.00    -0.744 OA
ENDBRANCH  93  96
ENDBRANCH  66  89
ENDBRANCH  40  41
ENDBRANCH  33  35
ENDBRANCH  32  33
ENDBRANCH  31  32
ENDBRANCH  30  31
ENDBRANCH  29  30
ENDBRANCH   1  29
TORSDOF 21
ENDMDL
MODEL 3
REMARK VINA RESULT:     -11.0      5.004      7.702
REMARK SMILES CCc1cc(C(=O)c2[nH]c3cc(Cl)ccc3c2CC(=O)OCCOCCOC(=O)c2ccc(-c3c4nc(c(-c5cccc(S(=O)(=O)[O-])c5F)c5ccc([nH]5)c(-c5cccc(S(=O)(=O)[O-])c5F)c5nc(c(-c6cccc(S(=O)(=O)[O-])c6F)c6ccc3[nH]6)C=C5)C=C4)cc2)ncc1Cl
REMARK SMILES IDX 23 1 22 2 21 3 19 4 20 5 18 6 17 7 8 8 9 9 10 10 16 12 11 13
REMARK SMILES IDX 15 14 12 15 14 16 13 17 6 18 7 19 5 20 3 21 4 22 95 23 94 24
REMARK SMILES IDX 96 25 93 26 2 27 1 28 24 29 25 30 26 31 27 32 28 33 29 34
REMARK SMILES IDX 30 35 31 36 92 37 32 38 91 39 33 40 34 41 35 42 85 43 36 44
REMARK SMILES IDX 90 45 84 46 86 47 37 48 89 49 83 50 82 51 38 53 70 54 50 55
REMARK SMILES IDX 69 56 51 57 54 58 68 59 87 60 52 61 53 62 67 64 88 65 55 66
REMARK SMILES IDX 39 67 40 68 48 69 41 70 43 71 49 72 42 73 44 74 45 75 46 76
REMARK SMILES IDX 47 77 71 78 72 79 80 80 73 81 75 82 81 83 74 84 76 85 77 86
REMARK SMILES IDX 78 87 79 88 56 89 57 90 65 91 58 92 60 93 66 94 59 95 61 96
REMARK SMILES IDX 62 97 63 98 64 99
REMARK H PARENT 9 11 86 52 54 63
REMARK Flexibility Score: inf
ROOT
ATOM      1  C   UNL A   1      32.619  29.870  26.118  1.00  0.00     0.202 C 
ENDROOT
BRANCH   1   2
ATOM      2  C   UNL A   1      32.560  28.364  26.401  1.00  0.00     0.261 C 
BRANCH   2   3
ATOM      3  O   UNL A   1      33.839  27.715  26.216  1.00  0.00    -0.463 OA
BRANCH   3   4
ATOM      4  C   UNL A   1      33.821  26.591  25.448  1.00  0.00     0.310 C 
ATOM      5  O   UNL A   1      34.165  26.557  24.268  1.00  0.00    -0.252 OA
BRANCH   4   6
ATOM      6  C   UNL A   1      33.248  25.364  26.121  1.00  0.00     0.161 C 
BRANCH   6   7
ATOM      7  C   UNL A   1      32.585  24.309  25.274  1.00  0.00     0.000 A 
ATOM      8  C   UNL A   1      31.280  24.322  24.773  1.00  0.00     0.093 A 
ATOM      9  N   UNL A   1      31.132  23.167  24.033  1.00  0.00    -0.351 N 
ATOM     10  C   UNL A   1      32.141  22.281  24.325  1.00  0.00     0.048 A 
ATOM     11  H   UNL A   1      30.406  23.002  23.389  1.00  0.00     0.167 HD
ATOM     12  C   UNL A   1      33.093  22.984  25.060  1.00  0.00     0.004 A 
ATOM     13  C   UNL A   1      32.277  20.923  24.003  1.00  0.00     0.047 A 
ATOM     14  C   UNL A   1      34.251  22.298  25.487  1.00  0.00     0.012 A 
ATOM     15  C   UNL A   1      33.409  20.259  24.487  1.00  0.00     0.043 A 
ATOM     16  C   UNL A   1      34.389  20.931  25.211  1.00  0.00     0.021 A 
ATOM     17  Cl  UNL A   1      33.571  18.566  24.210  1.00  0.00    -0.084 Cl
BRANCH   8  18
ATOM     18  C   UNL A   1      30.257  25.341  24.979  1.00  0.00     0.227 C 
ATOM     19  O   UNL A   1      29.485  25.304  25.934  1.00  0.00    -0.285 OA
BRANCH  18  20
ATOM     20  C   UNL A   1      30.027  26.410  23.953  1.00  0.00     0.113 A 
ATOM     21  C   UNL A   1      28.683  28.236  23.099  1.00  0.00    -0.026 A 
ATOM     22  C   UNL A   1      28.802  27.069  23.873  1.00  0.00     0.037 A 
ATOM     23  C   UNL A   1      29.816  28.659  22.386  1.00  0.00     0.062 A 
ATOM     24  C   UNL A   1      30.988  27.918  22.495  1.00  0.00     0.132 A 
ATOM     25  Cl  UNL A   1      29.834  30.075  21.403  1.00  0.00    -0.082 Cl
ATOM     26  N   UNL A   1      31.121  26.809  23.257  1.00  0.00    -0.251 NA
BRANCH  21  27
ATOM     27  C   UNL A   1      27.368  28.986  23.049  1.00  0.00     0.034 C 
ATOM     28  C   UNL A   1      27.455  30.456  23.456  1.00  0.00     0.009 C 
ENDBRANCH  21  27
ENDBRANCH  18  20
ENDBRANCH   8  18
ENDBRANCH   6   7
ENDBRANCH   4   6
ENDBRANCH   3   4
ENDBRANCH   2   3
ENDBRANCH   1   2
BRANCH   1  29
ATOM     29  O   UNL A   1      32.015  30.736  27.084  1.00  0.00    -0.374 OA
BRANCH  29  30
ATOM     30  C   UNL A   1      31.354  31.890  26.570  1.00  0.00     0.202 C 
BRANCH  30  31
ATOM     31  C   UNL A   1      31.848  33.247  27.086  1.00  0.00     0.261 C 
BRANCH  31  32
ATOM     32  O   UNL A   1      33.280  33.327  27.146  1.00  0.00    -0.460 OA
BRANCH  32  33
ATOM     33  C   UNL A   1      33.764  33.642  28.369  1.00  0.00     0.338 C 
ATOM     34  O   UNL A   1      33.221  34.332  29.225  1.00  0.00    -0.246 OA
BRANCH  33  35
ATOM     35  C   UNL A   1      35.003  32.897  28.638  1.00  0.00     0.060 A 
ATOM     36  C   UNL A   1      34.869  31.638  29.236  1.00  0.00     0.016 A 
ATOM     37  C   UNL A   1      36.266  33.432  28.374  1.00  0.00     0.016 A 
ATOM     38  C   UNL A   1      36.001  30.935  29.635  1.00  0.00     0.010 A 
ATOM     39  C   UNL A   1      37.402  32.726  28.779  1.00  0.00     0.010 A 
ATOM     40  C   UNL A   1      37.271  31.496  29.450  1.00  0.00    -0.014 A 
BRANCH  40  41
ATOM     41  C   UNL A   1      38.438  30.848  30.090  1.00  0.00     0.031 A 
ATOM     42  C   UNL A   1      38.823  31.254  31.485  1.00  0.00     0.074 A 
ATOM     43  C   UNL A   1      39.120  29.887  29.444  1.00  0.00     0.049 A 
ATOM     44  N   UNL A   1      39.775  30.788  32.249  1.00  0.00    -0.248 NA
ATOM     45  C   UNL A   1      38.031  32.332  32.102  1.00  0.00     0.031 C 
ATOM     46  C   UNL A   1      38.837  29.424  28.086  1.00  0.00     0.029 A 
ATOM     47  N   UNL A   1      40.200  29.141  29.839  1.00  0.00    -0.354 N 
ATOM     48  C   UNL A   1      39.716  31.529  33.423  1.00  0.00     0.074 A 
ATOM     49  C   UNL A   1      38.644  32.487  33.267  1.00  0.00     0.031 C 
ATOM     50  C   UNL A   1      39.739  28.486  27.751  1.00  0.00     0.029 A 
ATOM     51  C   UNL A   1      40.670  28.296  28.861  1.00  0.00     0.049 A 
ATOM     52  H   UNL A   1      40.601  29.204  30.736  1.00  0.00     0.167 HD
ATOM     53  C   UNL A   1      40.478  31.411  34.536  1.00  0.00     0.034 A 
ATOM     54  C   UNL A   1      41.740  27.476  28.860  1.00  0.00     0.034 A 
ATOM     55  C   UNL A   1      41.529  30.443  34.689  1.00  0.00     0.049 A 
ATOM     56  C   UNL A   1      42.569  27.362  30.112  1.00  0.00     0.074 A 
ATOM     57  C   UNL A   1      42.319  30.196  35.796  1.00  0.00     0.029 A 
ATOM     58  N   UNL A   1      41.949  29.571  33.695  1.00  0.00    -0.354 N 
ATOM     59  N   UNL A   1      42.415  27.971  31.263  1.00  0.00    -0.248 NA
ATOM     60  C   UNL A   1      43.697  26.419  30.078  1.00  0.00     0.031 C 
ATOM     61  C   UNL A   1      43.239  29.197  35.461  1.00  0.00     0.029 A 
ATOM     62  C   UNL A   1      43.000  28.798  34.155  1.00  0.00     0.049 A 
ATOM     63  H   UNL A   1      41.556  29.511  32.794  1.00  0.00     0.167 HD
ATOM     64  C   UNL A   1      43.405  27.466  32.099  1.00  0.00     0.074 A 
ATOM     65  C   UNL A   1      44.139  26.483  31.327  1.00  0.00     0.031 C 
ATOM     66  C   UNL A   1      43.690  27.795  33.384  1.00  0.00     0.034 A 
BRANCH  53  67
ATOM     67  C   UNL A   1      40.190  32.347  35.682  1.00  0.00     0.023 A 
ATOM     68  C   UNL A   1      40.905  33.557  35.797  1.00  0.00     0.012 A 
ATOM     69  C   UNL A   1      39.183  32.050  36.620  1.00  0.00     0.148 A 
ATOM     70  C   UNL A   1      40.646  34.439  36.846  1.00  0.00     0.002 A 
ATOM     71  C   UNL A   1      38.899  32.954  37.638  1.00  0.00     0.091 A 
ATOM     72  F   UNL A   1      38.531  30.883  36.509  1.00  0.00    -0.205 F 
ATOM     73  C   UNL A   1      39.638  34.142  37.759  1.00  0.00     0.022 A 
BRANCH  71  74
ATOM     74  S   UNL A   1      37.572  32.696  38.819  1.00  0.00     0.127 S 
ATOM     75  O   UNL A   1      37.773  31.295  39.189  1.00  0.00    -0.237 OA
ATOM     76  O   UNL A   1      37.904  33.657  39.871  1.00  0.00    -0.237 OA
ATOM     77  O   UNL A   1      36.336  32.982  38.103  1.00  0.00    -0.744 OA
ENDBRANCH  71  74
ENDBRANCH  53  67
BRANCH  54  78
ATOM     78  C   UNL A   1      42.056  26.677  27.644  1.00  0.00     0.023 A 
ATOM     79  C   UNL A   1      42.695  27.288  26.549  1.00  0.00     0.012 A 
ATOM     80  C   UNL A   1      41.762  25.300  27.587  1.00  0.00     0.148 A 
ATOM     81  C   UNL A   1      43.014  26.548  25.409  1.00  0.00     0.002 A 
ATOM     82  C   UNL A   1      42.133  24.558  26.472  1.00  0.00     0.091 A 
ATOM     83  F   UNL A   1      41.137  24.741  28.632  1.00  0.00    -0.205 F 
ATOM     84  C   UNL A   1      42.745  25.182  25.375  1.00  0.00     0.022 A 
BRANCH  82  85
ATOM     85  S   UNL A   1      41.948  22.772  26.401  1.00  0.00     0.127 S 
ATOM     86  O   UNL A   1      40.497  22.618  26.481  1.00  0.00    -0.237 OA
ATOM     87  O   UNL A   1      42.530  22.460  25.095  1.00  0.00    -0.237 OA
ATOM     88  O   UNL A   1      42.703  22.252  27.533  1.00  0.00    -0.744 OA
ENDBRANCH  82  85
ENDBRANCH  54  78
BRANCH  66  89
ATOM     89  C   UNL A   1      44.830  27.070  34.052  1.00  0.00     0.023 A 
ATOM     90  C   UNL A   1      46.113  27.650  34.074  1.00  0.00     0.012 A 
ATOM     91  C   UNL A   1      44.609  25.850  34.723  1.00  0.00     0.148 A 
ATOM     92  C   UNL A   1      47.168  27.011  34.725  1.00  0.00     0.002 A 
ATOM     93  C   UNL A   1      45.652  25.246  35.413  1.00  0.00     0.091 A 
ATOM     94  F   UNL A   1      43.385  25.306  34.676  1.00  0.00    -0.205 F 
ATOM     95  C   UNL A   1      46.936  25.817  35.404  1.00  0.00     0.022 A 
BRANCH  93  96
ATOM     96  S   UNL A   1      45.422  23.760  36.398  1.00  0.00     0.127 S 
ATOM     97  O   UNL A   1      44.995  22.795  35.385  1.00  0.00    -0.237 OA
ATOM     98  O   UNL A   1      46.764  23.531  36.932  1.00  0.00    -0.237 OA
ATOM     99  O   UNL A   1      44.421  24.097  37.402  1.00  0.00    -0.744 OA
ENDBRANCH  93  96
ENDBRANCH  66  89
ENDBRANCH  40  41
ENDBRANCH  33  35
ENDBRANCH  32  33
ENDBRANCH  31  32
ENDBRANCH  30  31
ENDBRANCH  29  30
ENDBRANCH   1  29
TORSDOF 21
ENDMDL
