MODEL 1
REMARK VINA RESULT:     -10.9      0.000      0.000
REMARK SMILES C[C@@H]1CCCN(C(=O)c2ccc(=O)n([C@H](C)C(=O)OCCOCCOC(=O)c3ccc(-c4c5nc(c(-c6cccc(S(=O)(=O)[O-])c6F)c6ccc([nH]6)c(-c6cccc(S(=O)(=O)[O-])c6F)c6nc(c(-c7cccc(S(=O)(=O)[O-])c7F)c7ccc4[nH]7)C=C6)C=C5)cc3)n2)C1
REMARK SMILES IDX 22 1 21 2 20 3 19 4 17 5 18 6 15 7 16 8 14 9 9 10 10 11
REMARK SMILES IDX 91 12 11 13 12 14 13 15 7 16 8 17 6 18 1 19 2 20 3 21 92 22
REMARK SMILES IDX 4 23 5 24 23 25 24 26 25 27 26 28 27 29 28 30 29 31 90 32
REMARK SMILES IDX 30 33 89 34 31 35 32 36 33 37 83 38 34 39 88 40 82 41 84 42
REMARK SMILES IDX 35 43 87 44 81 45 80 46 36 48 68 49 48 50 67 51 49 52 52 53
REMARK SMILES IDX 66 54 85 55 50 56 51 57 65 59 86 60 53 61 37 62 38 63 46 64
REMARK SMILES IDX 39 65 41 66 47 67 40 68 42 69 43 70 44 71 45 72 69 73 70 74
REMARK SMILES IDX 78 75 71 76 73 77 79 78 72 79 74 80 75 81 76 82 77 83 54 84
REMARK SMILES IDX 55 85 63 86 56 87 58 88 64 89 57 90 59 91 60 92 61 93 62 94
REMARK H PARENT 84 47 52 58
REMARK Flexibility Score: inf
ROOT
ATOM      1  O   UNL A   1      31.999  29.784  27.226  1.00  0.00    -0.374 OA
ENDROOT
BRANCH   1   2
ATOM      2  C   UNL A   1      32.241  28.477  26.715  1.00  0.00     0.202 C 
BRANCH   2   3
ATOM      3  C   UNL A   1      31.280  27.355  27.120  1.00  0.00     0.261 C 
BRANCH   3   4
ATOM      4  O   UNL A   1      31.795  26.058  26.789  1.00  0.00    -0.462 OA
BRANCH   4   5
ATOM      5  C   UNL A   1      30.947  25.261  26.078  1.00  0.00     0.330 C 
ATOM      6  O   UNL A   1      29.889  24.826  26.520  1.00  0.00    -0.250 OA
BRANCH   5   7
ATOM      7  C   UNL A   1      31.482  24.915  24.681  1.00  0.00     0.218 C 
ATOM      8  C   UNL A   1      30.768  23.768  23.958  1.00  0.00     0.046 C 
BRANCH   7   9
ATOM      9  N   UNL A   1      31.504  26.174  23.938  1.00  0.00    -0.215 N 
ATOM     10  C   UNL A   1      30.332  27.992  23.207  1.00  0.00     0.149 A 
ATOM     11  C   UNL A   1      31.543  28.657  22.697  1.00  0.00     0.042 A 
ATOM     12  N   UNL A   1      30.305  26.844  23.807  1.00  0.00    -0.164 NA
ATOM     13  C   UNL A   1      32.685  27.976  22.807  1.00  0.00     0.076 A 
ATOM     14  C   UNL A   1      32.708  26.624  23.403  1.00  0.00     0.267 A 
ATOM     15  O   UNL A   1      33.760  25.993  23.395  1.00  0.00    -0.268 OA
BRANCH  10  16
ATOM     16  C   UNL A   1      29.029  28.722  22.964  1.00  0.00     0.274 C 
ATOM     17  O   UNL A   1      28.012  28.035  22.980  1.00  0.00    -0.267 OA
BRANCH  16  18
ATOM     18  N   UNL A   1      29.073  30.087  22.718  1.00  0.00    -0.337 N 
ATOM     19  C   UNL A   1      28.019  32.128  19.680  1.00  0.00     0.009 C 
ATOM     20  C   UNL A   1      27.958  31.587  21.105  1.00  0.00     0.005 C 
ATOM     21  C   UNL A   1      28.055  32.723  22.134  1.00  0.00     0.007 C 
ATOM     22  C   UNL A   1      29.072  30.557  21.336  1.00  0.00     0.123 C 
ATOM     23  C   UNL A   1      28.057  32.163  23.559  1.00  0.00     0.022 C 
ATOM     24  C   UNL A   1      29.166  31.131  23.738  1.00  0.00     0.120 C 
ENDBRANCH  16  18
ENDBRANCH  10  16
ENDBRANCH   7   9
ENDBRANCH   5   7
ENDBRANCH   4   5
ENDBRANCH   3   4
ENDBRANCH   2   3
ENDBRANCH   1   2
BRANCH   1  25
ATOM     25  C   UNL A   1      31.540  30.795  26.332  1.00  0.00     0.202 C 
BRANCH  25  26
ATOM     26  C   UNL A   1      31.552  32.258  26.796  1.00  0.00     0.261 C 
BRANCH  26  27
ATOM     27  O   UNL A   1      32.842  32.881  26.672  1.00  0.00    -0.460 OA
BRANCH  27  28
ATOM     28  C   UNL A   1      33.283  33.500  27.797  1.00  0.00     0.338 C 
ATOM     29  O   UNL A   1      32.682  34.333  28.459  1.00  0.00    -0.246 OA
BRANCH  28  30
ATOM     30  C   UNL A   1      34.535  32.865  28.251  1.00  0.00     0.060 A 
ATOM     31  C   UNL A   1      35.758  33.531  28.181  1.00  0.00     0.016 A 
ATOM     32  C   UNL A   1      34.456  31.579  28.805  1.00  0.00     0.016 A 
ATOM     33  C   UNL A   1      36.901  32.915  28.698  1.00  0.00     0.010 A 
ATOM     34  C   UNL A   1      35.598  30.967  29.318  1.00  0.00     0.010 A 
ATOM     35  C   UNL A   1      36.827  31.639  29.288  1.00  0.00    -0.014 A 
BRANCH  35  36
ATOM     36  C   UNL A   1      38.000  31.077  30.004  1.00  0.00     0.031 A 
ATOM     37  C   UNL A   1      38.343  31.485  31.405  1.00  0.00     0.074 A 
ATOM     38  C   UNL A   1      38.791  30.207  29.347  1.00  0.00     0.049 A 
ATOM     39  N   UNL A   1      39.270  31.003  32.191  1.00  0.00    -0.248 NA
ATOM     40  C   UNL A   1      37.551  32.568  32.006  1.00  0.00     0.031 C 
ATOM     41  C   UNL A   1      38.608  29.793  27.954  1.00  0.00     0.029 A 
ATOM     42  N   UNL A   1      39.907  29.520  29.755  1.00  0.00    -0.354 N 
ATOM     43  C   UNL A   1      39.174  31.715  33.378  1.00  0.00     0.074 A 
ATOM     44  C   UNL A   1      38.107  32.677  33.208  1.00  0.00     0.031 C 
ATOM     45  C   UNL A   1      39.565  28.910  27.629  1.00  0.00     0.029 A 
ATOM     46  C   UNL A   1      40.438  28.709  28.782  1.00  0.00     0.049 A 
ATOM     47  H   UNL A   1      40.289  29.601  30.658  1.00  0.00     0.167 HD
ATOM     48  C   UNL A   1      39.899  31.564  34.512  1.00  0.00     0.034 A 
ATOM     49  C   UNL A   1      41.506  27.888  28.808  1.00  0.00     0.034 A 
ATOM     50  C   UNL A   1      40.973  30.620  34.673  1.00  0.00     0.049 A 
ATOM     51  C   UNL A   1      42.296  27.744  30.077  1.00  0.00     0.074 A 
ATOM     52  C   UNL A   1      41.722  30.364  35.808  1.00  0.00     0.029 A 
ATOM     53  N   UNL A   1      41.470  29.802  33.672  1.00  0.00    -0.354 N 
ATOM     54  N   UNL A   1      42.090  28.312  31.239  1.00  0.00    -0.248 NA
ATOM     55  C   UNL A   1      43.447  26.829  30.049  1.00  0.00     0.031 C 
ATOM     56  C   UNL A   1      42.690  29.409  35.487  1.00  0.00     0.029 A 
ATOM     57  C   UNL A   1      42.525  29.051  34.159  1.00  0.00     0.049 A 
ATOM     58  H   UNL A   1      41.125  29.761  32.751  1.00  0.00     0.167 HD
ATOM     59  C   UNL A   1      43.069  27.810  32.087  1.00  0.00     0.074 A 
ATOM     60  C   UNL A   1      43.863  26.881  31.308  1.00  0.00     0.031 C 
ATOM     61  C   UNL A   1      43.290  28.103  33.391  1.00  0.00     0.034 A 
BRANCH  48  62
ATOM     62  C   UNL A   1      39.532  32.400  35.705  1.00  0.00     0.023 A 
ATOM     63  C   UNL A   1      38.637  31.871  36.657  1.00  0.00     0.012 A 
ATOM     64  C   UNL A   1      40.163  33.634  35.953  1.00  0.00     0.148 A 
ATOM     65  C   UNL A   1      38.372  32.562  37.838  1.00  0.00     0.002 A 
ATOM     66  C   UNL A   1      39.913  34.304  37.144  1.00  0.00     0.091 A 
ATOM     67  F   UNL A   1      41.004  34.116  35.027  1.00  0.00    -0.205 F 
ATOM     68  C   UNL A   1      39.018  33.770  38.087  1.00  0.00     0.022 A 
BRANCH  66  69
ATOM     69  S   UNL A   1      40.724  35.845  37.585  1.00  0.00     0.127 S 
ATOM     70  O   UNL A   1      40.190  36.755  36.572  1.00  0.00    -0.237 OA
ATOM     71  O   UNL A   1      40.224  36.077  38.939  1.00  0.00    -0.237 OA
ATOM     72  O   UNL A   1      42.155  35.589  37.492  1.00  0.00    -0.744 OA
ENDBRANCH  66  69
ENDBRANCH  48  62
BRANCH  49  73
ATOM     73  C   UNL A   1      41.834  27.089  27.599  1.00  0.00     0.023 A 
ATOM     74  C   UNL A   1      42.427  27.726  26.493  1.00  0.00     0.012 A 
ATOM     75  C   UNL A   1      41.636  25.695  27.573  1.00  0.00     0.148 A 
ATOM     76  C   UNL A   1      42.815  26.986  25.375  1.00  0.00     0.002 A 
ATOM     77  C   UNL A   1      42.057  24.960  26.473  1.00  0.00     0.091 A 
ATOM     78  F   UNL A   1      41.073  25.118  28.644  1.00  0.00    -0.205 F 
ATOM     79  C   UNL A   1      42.640  25.605  25.370  1.00  0.00     0.022 A 
BRANCH  77  80
ATOM     80  S   UNL A   1      41.959  23.169  26.408  1.00  0.00     0.127 S 
ATOM     81  O   UNL A   1      40.536  22.940  26.651  1.00  0.00    -0.237 OA
ATOM     82  O   UNL A   1      42.403  22.896  25.040  1.00  0.00    -0.237 OA
ATOM     83  O   UNL A   1      42.855  22.683  27.447  1.00  0.00    -0.744 OA
ENDBRANCH  77  80
ENDBRANCH  49  73
BRANCH  61  84
ATOM     84  C   UNL A   1      44.430  27.416  34.092  1.00  0.00     0.023 A 
ATOM     85  C   UNL A   1      45.708  28.006  34.082  1.00  0.00     0.012 A 
ATOM     86  C   UNL A   1      44.200  26.266  34.874  1.00  0.00     0.148 A 
ATOM     87  C   UNL A   1      46.743  27.459  34.839  1.00  0.00     0.002 A 
ATOM     88  C   UNL A   1      45.226  25.747  35.652  1.00  0.00     0.091 A 
ATOM     89  F   UNL A   1      42.973  25.723  34.861  1.00  0.00    -0.205 F 
ATOM     90  C   UNL A   1      46.500  26.340  35.633  1.00  0.00     0.022 A 
BRANCH  88  91
ATOM     91  S   UNL A   1      44.994  24.353  36.761  1.00  0.00     0.127 S 
ATOM     92  O   UNL A   1      46.340  24.180  37.306  1.00  0.00    -0.237 OA
ATOM     93  O   UNL A   1      44.013  24.877  37.710  1.00  0.00    -0.237 OA
ATOM     94  O   UNL A   1      44.518  23.252  35.935  1.00  0.00    -0.744 OA
ENDBRANCH  88  91
ENDBRANCH  61  84
ENDBRANCH  35  36
ENDBRANCH  28  30
ENDBRANCH  27  28
ENDBRANCH  26  27
ENDBRANCH  25  26
ENDBRANCH   1  25
TORSDOF 20
ENDMDL
MODEL 2
REMARK VINA RESULT:     -10.8      2.448      8.438
REMARK SMILES C[C@@H]1CCCN(C(=O)c2ccc(=O)n([C@H](C)C(=O)OCCOCCOC(=O)c3ccc(-c4c5nc(c(-c6cccc(S(=O)(=O)[O-])c6F)c6ccc([nH]6)c(-c6cccc(S(=O)(=O)[O-])c6F)c6nc(c(-c7cccc(S(=O)(=O)[O-])c7F)c7ccc4[nH]7)C=C6)C=C5)cc3)n2)C1
REMARK SMILES IDX 22 1 21 2 20 3 19 4 17 5 18 6 15 7 16 8 14 9 9 10 10 11
REMARK SMILES IDX 91 12 11 13 12 14 13 15 7 16 8 17 6 18 1 19 2 20 3 21 92 22
REMARK SMILES IDX 4 23 5 24 23 25 24 26 25 27 26 28 27 29 28 30 29 31 90 32
REMARK SMILES IDX 30 33 89 34 31 35 32 36 33 37 83 38 34 39 88 40 82 41 84 42
REMARK SMILES IDX 35 43 87 44 81 45 80 46 36 48 68 49 48 50 67 51 49 52 52 53
REMARK SMILES IDX 66 54 85 55 50 56 51 57 65 59 86 60 53 61 37 62 38 63 46 64
REMARK SMILES IDX 39 65 41 66 47 67 40 68 42 69 43 70 44 71 45 72 69 73 70 74
REMARK SMILES IDX 78 75 71 76 73 77 79 78 72 79 74 80 75 81 76 82 77 83 54 84
REMARK SMILES IDX 55 85 63 86 56 87 58 88 64 89 57 90 59 91 60 92 61 93 62 94
REMARK H PARENT 84 47 52 58
REMARK Flexibility Score: inf
ROOT
ATOM      1  O   UNL A   1      34.756  31.378  27.621  1.00  0.00    -0.374 OA
ENDROOT
BRANCH   1   2
ATOM      2  C   UNL A   1      35.024  29.980  27.576  1.00  0.00     0.202 C 
BRANCH   2   3
ATOM      3  C   UNL A   1      34.046  29.082  26.813  1.00  0.00     0.261 C 
BRANCH   3   4
ATOM      4  O   UNL A   1      33.897  29.487  25.445  1.00  0.00    -0.462 OA
BRANCH   4   5
ATOM      5  C   UNL A   1      32.609  29.596  25.010  1.00  0.00     0.330 C 
ATOM      6  O   UNL A   1      31.701  30.077  25.680  1.00  0.00    -0.250 OA
BRANCH   5   7
ATOM      7  C   UNL A   1      32.399  28.998  23.612  1.00  0.00     0.218 C 
ATOM      8  C   UNL A   1      33.656  28.455  22.922  1.00  0.00     0.046 C 
BRANCH   7   9
ATOM      9  N   UNL A   1      31.321  28.022  23.752  1.00  0.00    -0.215 N 
ATOM     10  C   UNL A   1      30.621  26.052  24.671  1.00  0.00     0.149 A 
ATOM     11  C   UNL A   1      29.240  26.238  24.196  1.00  0.00     0.042 A 
ATOM     12  N   UNL A   1      31.595  26.888  24.488  1.00  0.00    -0.164 NA
ATOM     13  C   UNL A   1      29.007  27.325  23.460  1.00  0.00     0.076 A 
ATOM     14  C   UNL A   1      30.094  28.275  23.142  1.00  0.00     0.267 A 
ATOM     15  O   UNL A   1      29.860  29.208  22.381  1.00  0.00    -0.268 OA
BRANCH  10  16
ATOM     16  C   UNL A   1      30.899  24.754  25.397  1.00  0.00     0.274 C 
ATOM     17  O   UNL A   1      30.308  24.590  26.461  1.00  0.00    -0.267 OA
BRANCH  16  18
ATOM     18  N   UNL A   1      31.804  23.864  24.836  1.00  0.00    -0.337 N 
ATOM     19  C   UNL A   1      33.531  20.792  26.280  1.00  0.00     0.009 C 
ATOM     20  C   UNL A   1      32.564  21.586  25.407  1.00  0.00     0.005 C 
ATOM     21  C   UNL A   1      32.823  21.327  23.915  1.00  0.00     0.007 C 
ATOM     22  C   UNL A   1      32.668  23.085  25.718  1.00  0.00     0.123 C 
ATOM     23  C   UNL A   1      31.891  22.177  23.049  1.00  0.00     0.022 C 
ATOM     24  C   UNL A   1      32.013  23.655  23.404  1.00  0.00     0.120 C 
ENDBRANCH  16  18
ENDBRANCH  10  16
ENDBRANCH   7   9
ENDBRANCH   5   7
ENDBRANCH   4   5
ENDBRANCH   3   4
ENDBRANCH   2   3
ENDBRANCH   1   2
BRANCH   1  25
ATOM     25  C   UNL A   1      33.443  31.813  27.969  1.00  0.00     0.202 C 
BRANCH  25  26
ATOM     26  C   UNL A   1      32.968  33.194  27.493  1.00  0.00     0.261 C 
BRANCH  26  27
ATOM     27  O   UNL A   1      32.485  34.025  28.562  1.00  0.00    -0.460 OA
BRANCH  27  28
ATOM     28  C   UNL A   1      33.312  35.046  28.904  1.00  0.00     0.338 C 
ATOM     29  O   UNL A   1      33.117  36.240  28.724  1.00  0.00    -0.246 OA
BRANCH  28  30
ATOM     30  C   UNL A   1      34.413  34.530  29.739  1.00  0.00     0.060 A 
ATOM     31  C   UNL A   1      34.176  33.977  30.997  1.00  0.00     0.016 A 
ATOM     32  C   UNL A   1      35.711  34.564  29.211  1.00  0.00     0.016 A 
ATOM     33  C   UNL A   1      35.243  33.429  31.714  1.00  0.00     0.010 A 
ATOM     34  C   UNL A   1      36.773  34.018  29.929  1.00  0.00     0.010 A 
ATOM     35  C   UNL A   1      36.545  33.426  31.178  1.00  0.00    -0.014 A 
BRANCH  35  36
ATOM     36  C   UNL A   1      37.631  32.675  31.855  1.00  0.00     0.031 A 
ATOM     37  C   UNL A   1      38.280  31.479  31.225  1.00  0.00     0.074 A 
ATOM     38  C   UNL A   1      38.006  33.068  33.089  1.00  0.00     0.049 A 
ATOM     39  N   UNL A   1      39.307  30.790  31.649  1.00  0.00    -0.248 NA
ATOM     40  C   UNL A   1      37.709  30.989  29.962  1.00  0.00     0.031 C 
ATOM     41  C   UNL A   1      37.396  34.167  33.840  1.00  0.00     0.029 A 
ATOM     42  N   UNL A   1      38.980  32.590  33.928  1.00  0.00    -0.354 N 
ATOM     43  C   UNL A   1      39.513  29.792  30.708  1.00  0.00     0.074 A 
ATOM     44  C   UNL A   1      38.493  29.950  29.694  1.00  0.00     0.031 C 
ATOM     45  C   UNL A   1      38.021  34.291  35.021  1.00  0.00     0.029 A 
ATOM     46  C   UNL A   1      39.063  33.272  35.118  1.00  0.00     0.049 A 
ATOM     47  H   UNL A   1      39.563  31.830  33.700  1.00  0.00     0.167 HD
ATOM     48  C   UNL A   1      40.478  28.841  30.686  1.00  0.00     0.034 A 
ATOM     49  C   UNL A   1      39.886  33.105  36.172  1.00  0.00     0.034 A 
ATOM     50  C   UNL A   1      41.479  28.673  31.704  1.00  0.00     0.049 A 
ATOM     51  C   UNL A   1      40.943  32.041  36.122  1.00  0.00     0.074 A 
ATOM     52  C   UNL A   1      42.528  27.770  31.730  1.00  0.00     0.029 A 
ATOM     53  N   UNL A   1      41.543  29.394  32.884  1.00  0.00    -0.354 N 
ATOM     54  N   UNL A   1      41.221  31.207  35.151  1.00  0.00    -0.248 NA
ATOM     55  C   UNL A   1      41.816  31.909  37.298  1.00  0.00     0.031 C 
ATOM     56  C   UNL A   1      43.212  27.928  32.938  1.00  0.00     0.029 A 
ATOM     57  C   UNL A   1      42.605  28.949  33.652  1.00  0.00     0.049 A 
ATOM     58  H   UNL A   1      40.925  30.117  33.140  1.00  0.00     0.167 HD
ATOM     59  C   UNL A   1      42.312  30.466  35.587  1.00  0.00     0.074 A 
ATOM     60  C   UNL A   1      42.653  30.956  36.906  1.00  0.00     0.031 C 
ATOM     61  C   UNL A   1      42.962  29.463  34.949  1.00  0.00     0.034 A 
BRANCH  48  62
ATOM     62  C   UNL A   1      40.545  27.928  29.494  1.00  0.00     0.023 A 
ATOM     63  C   UNL A   1      39.642  26.850  29.411  1.00  0.00     0.012 A 
ATOM     64  C   UNL A   1      41.397  28.209  28.409  1.00  0.00     0.148 A 
ATOM     65  C   UNL A   1      39.588  26.060  28.264  1.00  0.00     0.002 A 
ATOM     66  C   UNL A   1      41.319  27.433  27.259  1.00  0.00     0.091 A 
ATOM     67  F   UNL A   1      42.250  29.237  28.518  1.00  0.00    -0.205 F 
ATOM     68  C   UNL A   1      40.417  26.357  27.186  1.00  0.00     0.022 A 
BRANCH  66  69
ATOM     69  S   UNL A   1      42.309  27.755  25.795  1.00  0.00     0.127 S 
ATOM     70  O   UNL A   1      43.666  27.646  26.331  1.00  0.00    -0.237 OA
ATOM     71  O   UNL A   1      41.912  26.660  24.911  1.00  0.00    -0.237 OA
ATOM     72  O   UNL A   1      41.931  29.085  25.338  1.00  0.00    -0.744 OA
ENDBRANCH  66  69
ENDBRANCH  48  62
BRANCH  49  73
ATOM     73  C   UNL A   1      39.772  34.028  37.331  1.00  0.00     0.023 A 
ATOM     74  C   UNL A   1      40.236  35.351  37.207  1.00  0.00     0.012 A 
ATOM     75  C   UNL A   1      39.135  33.625  38.520  1.00  0.00     0.148 A 
ATOM     76  C   UNL A   1      40.072  36.259  38.253  1.00  0.00     0.002 A 
ATOM     77  C   UNL A   1      38.942  34.544  39.544  1.00  0.00     0.091 A 
ATOM     78  F   UNL A   1      38.700  32.360  38.606  1.00  0.00    -0.205 F 
ATOM     79  C   UNL A   1      39.416  35.860  39.414  1.00  0.00     0.022 A 
BRANCH  77  80
ATOM     80  S   UNL A   1      38.031  34.153  41.040  1.00  0.00     0.127 S 
ATOM     81  O   UNL A   1      37.758  35.484  41.579  1.00  0.00    -0.237 OA
ATOM     82  O   UNL A   1      36.863  33.453  40.503  1.00  0.00    -0.237 OA
ATOM     83  O   UNL A   1      38.921  33.326  41.842  1.00  0.00    -0.744 OA
ENDBRANCH  77  80
ENDBRANCH  49  73
BRANCH  61  84
ATOM     84  C   UNL A   1      44.127  28.814  35.644  1.00  0.00     0.023 A 
ATOM     85  C   UNL A   1      45.417  29.357  35.493  1.00  0.00     0.012 A 
ATOM     86  C   UNL A   1      43.919  27.757  36.554  1.00  0.00     0.148 A 
ATOM     87  C   UNL A   1      46.485  28.857  36.236  1.00  0.00     0.002 A 
ATOM     88  C   UNL A   1      44.980  27.286  37.316  1.00  0.00     0.091 A 
ATOM     89  F   UNL A   1      42.680  27.256  36.674  1.00  0.00    -0.205 F 
ATOM     90  C   UNL A   1      46.265  27.832  37.155  1.00  0.00     0.022 A 
BRANCH  88  91
ATOM     91  S   UNL A   1      44.784  26.021  38.574  1.00  0.00     0.127 S 
ATOM     92  O   UNL A   1      43.867  26.671  39.510  1.00  0.00    -0.237 OA
ATOM     93  O   UNL A   1      44.200  24.918  37.813  1.00  0.00    -0.237 OA
ATOM     94  O   UNL A   1      46.117  25.761  39.101  1.00  0.00    -0.744 OA
ENDBRANCH  88  91
ENDBRANCH  61  84
ENDBRANCH  35  36
ENDBRANCH  28  30
ENDBRANCH  27  28
ENDBRANCH  26  27
ENDBRANCH  25  26
ENDBRANCH   1  25
TORSDOF 20
ENDMDL
MODEL 3
REMARK VINA RESULT:     -10.7      1.835      2.136
REMARK SMILES C[C@@H]1CCCN(C(=O)c2ccc(=O)n([C@H](C)C(=O)OCCOCCOC(=O)c3ccc(-c4c5nc(c(-c6cccc(S(=O)(=O)[O-])c6F)c6ccc([nH]6)c(-c6cccc(S(=O)(=O)[O-])c6F)c6nc(c(-c7cccc(S(=O)(=O)[O-])c7F)c7ccc4[nH]7)C=C6)C=C5)cc3)n2)C1
REMARK SMILES IDX 22 1 21 2 20 3 19 4 17 5 18 6 15 7 16 8 14 9 9 10 10 11
REMARK SMILES IDX 91 12 11 13 12 14 13 15 7 16 8 17 6 18 1 19 2 20 3 21 92 22
REMARK SMILES IDX 4 23 5 24 23 25 24 26 25 27 26 28 27 29 28 30 29 31 90 32
REMARK SMILES IDX 30 33 89 34 31 35 32 36 33 37 83 38 34 39 88 40 82 41 84 42
REMARK SMILES IDX 35 43 87 44 81 45 80 46 36 48 68 49 48 50 67 51 49 52 52 53
REMARK SMILES IDX 66 54 85 55 50 56 51 57 65 59 86 60 53 61 37 62 38 63 46 64
REMARK SMILES IDX 39 65 41 66 47 67 40 68 42 69 43 70 44 71 45 72 69 73 70 74
REMARK SMILES IDX 78 75 71 76 73 77 79 78 72 79 74 80 75 81 76 82 77 83 54 84
REMARK SMILES IDX 55 85 63 86 56 87 58 88 64 89 57 90 59 91 60 92 61 93 62 94
REMARK H PARENT 84 47 52 58
REMARK Flexibility Score: inf
ROOT
ATOM      1  O   UNL A   1      32.328  29.864  27.181  1.00  0.00    -0.374 OA
ENDROOT
BRANCH   1   2
ATOM      2  C   UNL A   1      32.424  28.524  26.708  1.00  0.00     0.202 C 
BRANCH   2   3
ATOM      3  C   UNL A   1      31.386  27.510  27.195  1.00  0.00     0.261 C 
BRANCH   3   4
ATOM      4  O   UNL A   1      31.812  26.157  26.979  1.00  0.00    -0.462 OA
BRANCH   4   5
ATOM      5  C   UNL A   1      30.964  25.397  26.228  1.00  0.00     0.330 C 
ATOM      6  O   UNL A   1      29.849  25.047  26.602  1.00  0.00    -0.250 OA
BRANCH   5   7
ATOM      7  C   UNL A   1      31.574  24.972  24.885  1.00  0.00     0.218 C 
ATOM      8  C   UNL A   1      30.934  23.750  24.217  1.00  0.00     0.046 C 
BRANCH   7   9
ATOM      9  N   UNL A   1      31.587  26.175  24.054  1.00  0.00    -0.215 N 
ATOM     10  C   UNL A   1      30.411  27.946  23.220  1.00  0.00     0.149 A 
ATOM     11  C   UNL A   1      31.614  28.563  22.638  1.00  0.00     0.042 A 
ATOM     12  N   UNL A   1      30.390  26.843  23.901  1.00  0.00    -0.164 NA
ATOM     13  C   UNL A   1      32.754  27.883  22.771  1.00  0.00     0.076 A 
ATOM     14  C   UNL A   1      32.782  26.577  23.462  1.00  0.00     0.267 A 
ATOM     15  O   UNL A   1      33.830  25.938  23.476  1.00  0.00    -0.268 OA
BRANCH  10  16
ATOM     16  C   UNL A   1      29.107  28.666  22.954  1.00  0.00     0.274 C 
ATOM     17  O   UNL A   1      28.097  27.969  22.930  1.00  0.00    -0.267 OA
BRANCH  16  18
ATOM     18  N   UNL A   1      29.143  30.036  22.734  1.00  0.00    -0.337 N 
ATOM     19  C   UNL A   1      27.997  32.135  19.771  1.00  0.00     0.009 C 
ATOM     20  C   UNL A   1      27.979  31.566  21.186  1.00  0.00     0.005 C 
ATOM     21  C   UNL A   1      28.106  32.682  22.234  1.00  0.00     0.007 C 
ATOM     22  C   UNL A   1      29.100  30.533  21.362  1.00  0.00     0.123 C 
ATOM     23  C   UNL A   1      28.152  32.094  23.646  1.00  0.00     0.022 C 
ATOM     24  C   UNL A   1      29.266  31.060  23.771  1.00  0.00     0.120 C 
ENDBRANCH  16  18
ENDBRANCH  10  16
ENDBRANCH   7   9
ENDBRANCH   5   7
ENDBRANCH   4   5
ENDBRANCH   3   4
ENDBRANCH   2   3
ENDBRANCH   1   2
BRANCH   1  25
ATOM     25  C   UNL A   1      31.668  30.832  26.368  1.00  0.00     0.202 C 
BRANCH  25  26
ATOM     26  C   UNL A   1      31.621  32.292  26.843  1.00  0.00     0.261 C 
BRANCH  26  27
ATOM     27  O   UNL A   1      32.869  32.984  26.668  1.00  0.00    -0.460 OA
BRANCH  27  28
ATOM     28  C   UNL A   1      33.337  33.600  27.784  1.00  0.00     0.338 C 
ATOM     29  O   UNL A   1      32.771  34.464  28.437  1.00  0.00    -0.246 OA
BRANCH  28  30
ATOM     30  C   UNL A   1      34.563  32.920  28.244  1.00  0.00     0.060 A 
ATOM     31  C   UNL A   1      35.810  33.539  28.172  1.00  0.00     0.016 A 
ATOM     32  C   UNL A   1      34.435  31.642  28.807  1.00  0.00     0.016 A 
ATOM     33  C   UNL A   1      36.929  32.884  28.695  1.00  0.00     0.010 A 
ATOM     34  C   UNL A   1      35.552  30.990  29.325  1.00  0.00     0.010 A 
ATOM     35  C   UNL A   1      36.806  31.615  29.293  1.00  0.00    -0.014 A 
BRANCH  35  36
ATOM     36  C   UNL A   1      37.956  31.014  30.014  1.00  0.00     0.031 A 
ATOM     37  C   UNL A   1      38.257  31.347  31.444  1.00  0.00     0.074 A 
ATOM     38  C   UNL A   1      38.766  30.176  29.337  1.00  0.00     0.049 A 
ATOM     39  N   UNL A   1      39.158  30.823  32.232  1.00  0.00    -0.248 NA
ATOM     40  C   UNL A   1      37.448  32.400  32.076  1.00  0.00     0.031 C 
ATOM     41  C   UNL A   1      38.625  29.836  27.919  1.00  0.00     0.029 A 
ATOM     42  N   UNL A   1      39.868  29.467  29.742  1.00  0.00    -0.354 N 
ATOM     43  C   UNL A   1      39.027  31.472  33.451  1.00  0.00     0.074 A 
ATOM     44  C   UNL A   1      37.967  32.445  33.298  1.00  0.00     0.031 C 
ATOM     45  C   UNL A   1      39.590  28.969  27.578  1.00  0.00     0.029 A 
ATOM     46  C   UNL A   1      40.428  28.706  28.745  1.00  0.00     0.049 A 
ATOM     47  H   UNL A   1      40.222  29.500  30.660  1.00  0.00     0.167 HD
ATOM     48  C   UNL A   1      39.717  31.261  34.597  1.00  0.00     0.034 A 
ATOM     49  C   UNL A   1      41.494  27.881  28.761  1.00  0.00     0.034 A 
ATOM     50  C   UNL A   1      40.784  30.307  34.741  1.00  0.00     0.049 A 
ATOM     51  C   UNL A   1      42.244  27.670  30.044  1.00  0.00     0.074 A 
ATOM     52  C   UNL A   1      41.498  29.991  35.884  1.00  0.00     0.029 A 
ATOM     53  N   UNL A   1      41.311  29.541  33.715  1.00  0.00    -0.354 N 
ATOM     54  N   UNL A   1      42.003  28.177  31.228  1.00  0.00    -0.248 NA
ATOM     55  C   UNL A   1      43.394  26.755  30.004  1.00  0.00     0.031 C 
ATOM     56  C   UNL A   1      42.474  29.051  35.543  1.00  0.00     0.029 A 
ATOM     57  C   UNL A   1      42.350  28.762  34.193  1.00  0.00     0.049 A 
ATOM     58  H   UNL A   1      40.994  29.549  32.783  1.00  0.00     0.167 HD
ATOM     59  C   UNL A   1      42.955  27.629  32.077  1.00  0.00     0.074 A 
ATOM     60  C   UNL A   1      43.772  26.740  31.276  1.00  0.00     0.031 C 
ATOM     61  C   UNL A   1      43.137  27.854  33.401  1.00  0.00     0.034 A 
BRANCH  48  62
ATOM     62  C   UNL A   1      39.314  32.035  35.820  1.00  0.00     0.023 A 
ATOM     63  C   UNL A   1      39.673  33.394  35.914  1.00  0.00     0.012 A 
ATOM     64  C   UNL A   1      38.478  31.466  36.800  1.00  0.00     0.148 A 
ATOM     65  C   UNL A   1      39.208  34.177  36.969  1.00  0.00     0.002 A 
ATOM     66  C   UNL A   1      37.999  32.259  37.834  1.00  0.00     0.091 A 
ATOM     67  F   UNL A   1      38.158  30.169  36.688  1.00  0.00    -0.205 F 
ATOM     68  C   UNL A   1      38.363  33.614  37.921  1.00  0.00     0.022 A 
BRANCH  66  69
ATOM     69  S   UNL A   1      36.869  31.647  39.090  1.00  0.00     0.127 S 
ATOM     70  O   UNL A   1      37.755  31.539  40.250  1.00  0.00    -0.237 OA
ATOM     71  O   UNL A   1      35.886  32.727  39.170  1.00  0.00    -0.237 OA
ATOM     72  O   UNL A   1      36.354  30.381  38.587  1.00  0.00    -0.744 OA
ENDBRANCH  66  69
ENDBRANCH  48  62
BRANCH  49  73
ATOM     73  C   UNL A   1      41.858  27.146  27.522  1.00  0.00     0.023 A 
ATOM     74  C   UNL A   1      42.438  27.848  26.450  1.00  0.00     0.012 A 
ATOM     75  C   UNL A   1      41.707  25.749  27.437  1.00  0.00     0.148 A 
ATOM     76  C   UNL A   1      42.859  27.170  25.306  1.00  0.00     0.002 A 
ATOM     77  C   UNL A   1      42.161  25.075  26.310  1.00  0.00     0.091 A 
ATOM     78  F   UNL A   1      41.155  25.108  28.476  1.00  0.00    -0.205 F 
ATOM     79  C   UNL A   1      42.731  25.785  25.241  1.00  0.00     0.022 A 
BRANCH  77  80
ATOM     80  S   UNL A   1      42.123  23.286  26.169  1.00  0.00     0.127 S 
ATOM     81  O   UNL A   1      42.887  22.878  27.347  1.00  0.00    -0.237 OA
ATOM     82  O   UNL A   1      40.687  23.012  26.240  1.00  0.00    -0.237 OA
ATOM     83  O   UNL A   1      42.740  22.975  24.888  1.00  0.00    -0.744 OA
ENDBRANCH  77  80
ENDBRANCH  49  73
BRANCH  61  84
ATOM     84  C   UNL A   1      44.254  27.129  34.100  1.00  0.00     0.023 A 
ATOM     85  C   UNL A   1      44.022  25.848  34.636  1.00  0.00     0.012 A 
ATOM     86  C   UNL A   1      45.561  27.657  34.099  1.00  0.00     0.148 A 
ATOM     87  C   UNL A   1      45.075  25.102  35.164  1.00  0.00     0.002 A 
ATOM     88  C   UNL A   1      46.611  26.895  34.595  1.00  0.00     0.091 A 
ATOM     89  F   UNL A   1      45.751  28.881  33.586  1.00  0.00    -0.205 F 
ATOM     90  C   UNL A   1      46.369  25.619  35.132  1.00  0.00     0.022 A 
BRANCH  88  91
ATOM     91  S   UNL A   1      48.320  27.442  34.534  1.00  0.00     0.127 S 
ATOM     92  O   UNL A   1      48.547  27.548  33.093  1.00  0.00    -0.237 OA
ATOM     93  O   UNL A   1      48.258  28.723  35.237  1.00  0.00    -0.237 OA
ATOM     94  O   UNL A   1      49.101  26.413  35.206  1.00  0.00    -0.744 OA
ENDBRANCH  88  91
ENDBRANCH  61  84
ENDBRANCH  35  36
ENDBRANCH  28  30
ENDBRANCH  27  28
ENDBRANCH  26  27
ENDBRANCH  25  26
ENDBRANCH   1  25
TORSDOF 20
ENDMDL
