MODEL 1
REMARK VINA RESULT:     -12.2      0.000      0.000
REMARK SMILES O=C(OCCOCCOC(=O)c1ccc2c(c1)[C@@H]1C=CC[C@@H]1[C@H](c1ccncc1)N2)c1ccc(-c2c3nc(c(-c4cccc(S(=O)(=O)[O-])c4F)c4ccc([nH]4)c(-c4cccc(S(=O)(=O)[O-])c4F)c4nc(c(-c5cccc(S(=O)(=O)[O-])c5F)c5ccc2[nH]5)C=C4)C=C3)cc1
REMARK SMILES IDX 5 1 4 2 3 3 2 4 1 5 31 6 32 7 93 8 33 9 92 10 34 11 35 12
REMARK SMILES IDX 36 13 86 14 37 15 91 16 85 17 87 18 38 19 90 20 84 21 83 22
REMARK SMILES IDX 39 24 71 25 51 26 70 27 52 28 55 29 69 30 88 31 53 32 54 33
REMARK SMILES IDX 68 35 89 36 56 37 40 38 41 39 49 40 42 41 44 42 50 43 43 44
REMARK SMILES IDX 45 45 46 46 47 47 48 48 72 49 73 50 81 51 74 52 76 53 82 54
REMARK SMILES IDX 75 55 77 56 78 57 79 58 80 59 57 60 58 61 66 62 59 63 61 64
REMARK SMILES IDX 67 65 60 66 62 67 63 68 64 69 65 70 6 71 7 72 8 73 9 74
REMARK SMILES IDX 10 75 11 76 12 77 13 78 17 79 14 80 16 81 15 82 18 83 30 84
REMARK SMILES IDX 19 85 22 86 23 87 20 89 21 90 24 91 25 92 29 93 26 94 28 95
REMARK SMILES IDX 27 96
REMARK H PARENT 87 23 55 34 30 88
REMARK Flexibility Score: inf
ROOT
ATOM      1  C   UNL A   1      37.857  20.657  24.984  1.00  0.00     0.202 C 
ENDROOT
BRANCH   1   2
ATOM      2  C   UNL A   1      38.641  19.460  25.523  1.00  0.00     0.261 C 
BRANCH   2   3
ATOM      3  O   UNL A   1      40.013  19.826  25.741  1.00  0.00    -0.460 OA
BRANCH   3   4
ATOM      4  C   UNL A   1      40.587  20.255  26.890  1.00  0.00     0.338 C 
ATOM      5  O   UNL A   1      40.776  19.438  27.789  1.00  0.00    -0.246 OA
BRANCH   4   6
ATOM      6  C   UNL A   1      40.997  21.673  27.125  1.00  0.00     0.060 A 
ATOM      7  C   UNL A   1      41.919  22.083  28.091  1.00  0.00     0.016 A 
ATOM      8  C   UNL A   1      40.502  22.640  26.238  1.00  0.00     0.016 A 
ATOM      9  C   UNL A   1      42.312  23.403  28.215  1.00  0.00     0.010 A 
ATOM     10  C   UNL A   1      40.921  23.971  26.326  1.00  0.00     0.010 A 
ATOM     11  C   UNL A   1      41.828  24.349  27.322  1.00  0.00    -0.014 A 
BRANCH  11  12
ATOM     12  C   UNL A   1      42.260  25.741  27.504  1.00  0.00     0.031 A 
ATOM     13  C   UNL A   1      43.565  26.162  26.916  1.00  0.00     0.074 A 
ATOM     14  C   UNL A   1      41.431  26.608  28.112  1.00  0.00     0.049 A 
ATOM     15  N   UNL A   1      44.173  27.310  27.004  1.00  0.00    -0.248 NA
ATOM     16  C   UNL A   1      44.279  25.158  26.107  1.00  0.00     0.031 C 
ATOM     17  C   UNL A   1      40.093  26.282  28.618  1.00  0.00     0.029 A 
ATOM     18  N   UNL A   1      41.584  27.935  28.408  1.00  0.00    -0.354 N 
ATOM     19  C   UNL A   1      45.370  27.148  26.323  1.00  0.00     0.074 A 
ATOM     20  C   UNL A   1      45.390  25.805  25.792  1.00  0.00     0.031 C 
ATOM     21  C   UNL A   1      39.555  27.377  29.178  1.00  0.00     0.029 A 
ATOM     22  C   UNL A   1      40.535  28.455  29.131  1.00  0.00     0.049 A 
ATOM     23  H   UNL A   1      42.366  28.465  28.132  1.00  0.00     0.167 HD
ATOM     24  C   UNL A   1      46.368  28.048  26.178  1.00  0.00     0.034 A 
ATOM     25  C   UNL A   1      40.416  29.654  29.731  1.00  0.00     0.034 A 
ATOM     26  C   UNL A   1      46.302  29.379  26.713  1.00  0.00     0.049 A 
ATOM     27  C   UNL A   1      41.564  30.616  29.595  1.00  0.00     0.074 A 
ATOM     28  C   UNL A   1      47.245  30.385  26.639  1.00  0.00     0.029 A 
ATOM     29  N   UNL A   1      45.229  29.880  27.438  1.00  0.00    -0.354 N 
ATOM     30  N   UNL A   1      42.679  30.476  28.913  1.00  0.00    -0.248 NA
ATOM     31  C   UNL A   1      41.447  31.898  30.298  1.00  0.00     0.031 C 
ATOM     32  C   UNL A   1      46.757  31.481  27.357  1.00  0.00     0.029 A 
ATOM     33  C   UNL A   1      45.494  31.173  27.842  1.00  0.00     0.049 A 
ATOM     34  H   UNL A   1      44.400  29.385  27.635  1.00  0.00     0.167 HD
ATOM     35  C   UNL A   1      43.387  31.656  29.089  1.00  0.00     0.074 A 
ATOM     36  C   UNL A   1      42.560  32.512  29.920  1.00  0.00     0.031 C 
ATOM     37  C   UNL A   1      44.614  32.001  28.630  1.00  0.00     0.034 A 
BRANCH  24  38
ATOM     38  C   UNL A   1      47.614  27.593  25.474  1.00  0.00     0.023 A 
ATOM     39  C   UNL A   1      48.635  26.930  26.182  1.00  0.00     0.012 A 
ATOM     40  C   UNL A   1      47.770  27.831  24.094  1.00  0.00     0.148 A 
ATOM     41  C   UNL A   1      49.807  26.539  25.533  1.00  0.00     0.002 A 
ATOM     42  C   UNL A   1      48.920  27.403  23.447  1.00  0.00     0.091 A 
ATOM     43  F   UNL A   1      46.798  28.491  23.448  1.00  0.00    -0.205 F 
ATOM     44  C   UNL A   1      49.946  26.768  24.166  1.00  0.00     0.022 A 
BRANCH  42  45
ATOM     45  S   UNL A   1      49.168  27.600  21.680  1.00  0.00     0.127 S 
ATOM     46  O   UNL A   1      49.314  29.051  21.562  1.00  0.00    -0.237 OA
ATOM     47  O   UNL A   1      50.400  26.843  21.459  1.00  0.00    -0.237 OA
ATOM     48  O   UNL A   1      47.985  27.042  21.039  1.00  0.00    -0.744 OA
ENDBRANCH  42  45
ENDBRANCH  24  38
BRANCH  25  49
ATOM     49  C   UNL A   1      39.202  29.984  30.534  1.00  0.00     0.023 A 
ATOM     50  C   UNL A   1      39.103  29.549  31.869  1.00  0.00     0.012 A 
ATOM     51  C   UNL A   1      38.146  30.740  29.983  1.00  0.00     0.148 A 
ATOM     52  C   UNL A   1      37.965  29.832  32.628  1.00  0.00     0.002 A 
ATOM     53  C   UNL A   1      37.043  31.068  30.762  1.00  0.00     0.091 A 
ATOM     54  F   UNL A   1      38.242  31.128  28.703  1.00  0.00    -0.205 F 
ATOM     55  C   UNL A   1      36.941  30.600  32.080  1.00  0.00     0.022 A 
BRANCH  53  56
ATOM     56  S   UNL A   1      35.742  32.158  30.171  1.00  0.00     0.127 S 
ATOM     57  O   UNL A   1      35.201  31.399  29.047  1.00  0.00    -0.237 OA
ATOM     58  O   UNL A   1      34.861  32.244  31.337  1.00  0.00    -0.237 OA
ATOM     59  O   UNL A   1      36.406  33.410  29.832  1.00  0.00    -0.744 OA
ENDBRANCH  53  56
ENDBRANCH  25  49
BRANCH  37  60
ATOM     60  C   UNL A   1      45.124  33.367  28.992  1.00  0.00     0.023 A 
ATOM     61  C   UNL A   1      45.858  33.547  30.180  1.00  0.00     0.012 A 
ATOM     62  C   UNL A   1      44.969  34.441  28.096  1.00  0.00     0.148 A 
ATOM     63  C   UNL A   1      46.414  34.787  30.482  1.00  0.00     0.002 A 
ATOM     64  C   UNL A   1      45.575  35.657  28.376  1.00  0.00     0.091 A 
ATOM     65  F   UNL A   1      44.251  34.245  26.981  1.00  0.00    -0.205 F 
ATOM     66  C   UNL A   1      46.286  35.836  29.574  1.00  0.00     0.022 A 
BRANCH  64  67
ATOM     67  S   UNL A   1      45.559  37.026  27.215  1.00  0.00     0.127 S 
ATOM     68  O   UNL A   1      46.294  38.052  27.955  1.00  0.00    -0.237 OA
ATOM     69  O   UNL A   1      46.277  36.467  26.071  1.00  0.00    -0.237 OA
ATOM     70  O   UNL A   1      44.157  37.326  26.962  1.00  0.00    -0.744 OA
ENDBRANCH  64  67
ENDBRANCH  37  60
ENDBRANCH  11  12
ENDBRANCH   4   6
ENDBRANCH   3   4
ENDBRANCH   2   3
ENDBRANCH   1   2
BRANCH   1  71
ATOM     71  O   UNL A   1      36.457  20.615  25.246  1.00  0.00    -0.374 OA
BRANCH  71  72
ATOM     72  C   UNL A   1      35.924  21.654  26.075  1.00  0.00     0.202 C 
BRANCH  72  73
ATOM     73  C   UNL A   1      34.576  22.097  25.496  1.00  0.00     0.261 C 
BRANCH  73  74
ATOM     74  O   UNL A   1      34.617  21.892  24.075  1.00  0.00    -0.460 OA
BRANCH  74  75
ATOM     75  C   UNL A   1      35.041  22.971  23.362  1.00  0.00     0.338 C 
ATOM     76  O   UNL A   1      36.082  23.103  22.753  1.00  0.00    -0.246 OA
BRANCH  75  77
ATOM     77  C   UNL A   1      33.899  23.910  23.272  1.00  0.00     0.060 A 
ATOM     78  C   UNL A   1      32.627  23.414  22.979  1.00  0.00     0.018 A 
ATOM     79  C   UNL A   1      34.071  25.264  23.549  1.00  0.00     0.022 A 
ATOM     80  C   UNL A   1      31.533  24.281  22.949  1.00  0.00     0.027 A 
ATOM     81  C   UNL A   1      32.980  26.140  23.507  1.00  0.00    -0.017 A 
ATOM     82  C   UNL A   1      31.707  25.656  23.155  1.00  0.00     0.038 A 
ATOM     83  C   UNL A   1      33.222  27.602  23.784  1.00  0.00     0.049 C 
ATOM     84  N   UNL A   1      30.621  26.524  23.021  1.00  0.00    -0.378 N 
ATOM     85  C   UNL A   1      33.654  27.884  25.198  1.00  0.00    -0.023 C 
ATOM     86  C   UNL A   1      31.971  28.483  23.659  1.00  0.00     0.031 C 
ATOM     87  C   UNL A   1      30.955  27.900  22.674  1.00  0.00     0.114 C 
ATOM     88  H   UNL A   1      29.692  26.227  23.154  1.00  0.00     0.161 HD
ATOM     89  C   UNL A   1      32.700  28.498  25.907  1.00  0.00    -0.030 C 
ATOM     90  C   UNL A   1      31.463  28.699  25.094  1.00  0.00     0.034 C 
BRANCH  87  91
ATOM     91  C   UNL A   1      29.742  28.801  22.538  1.00  0.00    -0.022 A 
ATOM     92  C   UNL A   1      29.911  30.060  21.943  1.00  0.00     0.026 A 
ATOM     93  C   UNL A   1      28.473  28.475  23.024  1.00  0.00     0.026 A 
ATOM     94  C   UNL A   1      28.832  30.923  21.866  1.00  0.00     0.111 A 
ATOM     95  C   UNL A   1      27.450  29.402  22.888  1.00  0.00     0.111 A 
ATOM     96  N   UNL A   1      27.601  30.620  22.323  1.00  0.00    -0.265 NA
ENDBRANCH  87  91
ENDBRANCH  75  77
ENDBRANCH  74  75
ENDBRANCH  73  74
ENDBRANCH  72  73
ENDBRANCH  71  72
ENDBRANCH   1  71
TORSDOF 18
ENDMDL
MODEL 2
REMARK VINA RESULT:     -12.0      5.736      9.630
REMARK SMILES O=C(OCCOCCOC(=O)c1ccc2c(c1)[C@@H]1C=CC[C@@H]1[C@H](c1ccncc1)N2)c1ccc(-c2c3nc(c(-c4cccc(S(=O)(=O)[O-])c4F)c4ccc([nH]4)c(-c4cccc(S(=O)(=O)[O-])c4F)c4nc(c(-c5cccc(S(=O)(=O)[O-])c5F)c5ccc2[nH]5)C=C4)C=C3)cc1
REMARK SMILES IDX 5 1 4 2 3 3 2 4 1 5 31 6 32 7 93 8 33 9 92 10 34 11 35 12
REMARK SMILES IDX 36 13 86 14 37 15 91 16 85 17 87 18 38 19 90 20 84 21 83 22
REMARK SMILES IDX 39 24 71 25 51 26 70 27 52 28 55 29 69 30 88 31 53 32 54 33
REMARK SMILES IDX 68 35 89 36 56 37 40 38 41 39 49 40 42 41 44 42 50 43 43 44
REMARK SMILES IDX 45 45 46 46 47 47 48 48 72 49 73 50 81 51 74 52 76 53 82 54
REMARK SMILES IDX 75 55 77 56 78 57 79 58 80 59 57 60 58 61 66 62 59 63 61 64
REMARK SMILES IDX 67 65 60 66 62 67 63 68 64 69 65 70 6 71 7 72 8 73 9 74
REMARK SMILES IDX 10 75 11 76 12 77 13 78 17 79 14 80 16 81 15 82 18 83 30 84
REMARK SMILES IDX 19 85 22 86 23 87 20 89 21 90 24 91 25 92 29 93 26 94 28 95
REMARK SMILES IDX 27 96
REMARK H PARENT 87 23 55 34 30 88
REMARK Flexibility Score: inf
ROOT
ATOM      1  C   UNL A   1      31.334  32.077  26.610  1.00  0.00     0.202 C 
ENDROOT
BRANCH   1   2
ATOM      2  C   UNL A   1      32.636  32.448  27.319  1.00  0.00     0.261 C 
BRANCH   2   3
ATOM      3  O   UNL A   1      32.630  33.842  27.669  1.00  0.00    -0.460 OA
BRANCH   3   4
ATOM      4  C   UNL A   1      33.157  34.425  28.771  1.00  0.00     0.338 C 
ATOM      5  O   UNL A   1      32.627  35.449  29.200  1.00  0.00    -0.246 OA
BRANCH   4   6
ATOM      6  C   UNL A   1      34.354  33.895  29.491  1.00  0.00     0.060 A 
ATOM      7  C   UNL A   1      34.307  32.973  30.539  1.00  0.00     0.016 A 
ATOM      8  C   UNL A   1      35.615  34.271  29.002  1.00  0.00     0.016 A 
ATOM      9  C   UNL A   1      35.455  32.466  31.120  1.00  0.00     0.010 A 
ATOM     10  C   UNL A   1      36.782  33.735  29.554  1.00  0.00     0.010 A 
ATOM     11  C   UNL A   1      36.697  32.831  30.618  1.00  0.00    -0.014 A 
BRANCH  11  12
ATOM     12  C   UNL A   1      37.888  32.281  31.280  1.00  0.00     0.031 A 
ATOM     13  C   UNL A   1      38.630  31.178  30.601  1.00  0.00     0.074 A 
ATOM     14  C   UNL A   1      38.319  32.844  32.422  1.00  0.00     0.049 A 
ATOM     15  N   UNL A   1      39.660  30.501  31.022  1.00  0.00    -0.248 NA
ATOM     16  C   UNL A   1      38.157  30.792  29.259  1.00  0.00     0.031 C 
ATOM     17  C   UNL A   1      37.695  33.994  33.083  1.00  0.00     0.029 A 
ATOM     18  N   UNL A   1      39.379  32.531  33.229  1.00  0.00    -0.354 N 
ATOM     19  C   UNL A   1      39.917  29.565  30.032  1.00  0.00     0.074 A 
ATOM     20  C   UNL A   1      38.963  29.782  28.969  1.00  0.00     0.031 C 
ATOM     21  C   UNL A   1      38.375  34.279  34.205  1.00  0.00     0.029 A 
ATOM     22  C   UNL A   1      39.433  33.291  34.374  1.00  0.00     0.049 A 
ATOM     23  H   UNL A   1      40.036  31.830  33.013  1.00  0.00     0.167 HD
ATOM     24  C   UNL A   1      40.862  28.599  30.033  1.00  0.00     0.034 A 
ATOM     25  C   UNL A   1      40.219  33.158  35.458  1.00  0.00     0.034 A 
ATOM     26  C   UNL A   1      41.800  28.425  31.105  1.00  0.00     0.049 A 
ATOM     27  C   UNL A   1      41.228  32.041  35.451  1.00  0.00     0.074 A 
ATOM     28  C   UNL A   1      42.802  27.484  31.230  1.00  0.00     0.029 A 
ATOM     29  N   UNL A   1      41.834  29.210  32.251  1.00  0.00    -0.354 N 
ATOM     30  N   UNL A   1      41.498  31.182  34.494  1.00  0.00    -0.248 NA
ATOM     31  C   UNL A   1      42.042  31.871  36.660  1.00  0.00     0.031 C 
ATOM     32  C   UNL A   1      43.416  27.676  32.472  1.00  0.00     0.029 A 
ATOM     33  C   UNL A   1      42.823  28.761  33.103  1.00  0.00     0.049 A 
ATOM     34  H   UNL A   1      41.239  29.975  32.429  1.00  0.00     0.167 HD
ATOM     35  C   UNL A   1      42.524  30.383  34.975  1.00  0.00     0.074 A 
ATOM     36  C   UNL A   1      42.847  30.880  36.301  1.00  0.00     0.031 C 
ATOM     37  C   UNL A   1      43.136  29.322  34.394  1.00  0.00     0.034 A 
BRANCH  24  38
ATOM     38  C   UNL A   1      40.873  27.640  28.876  1.00  0.00     0.023 A 
ATOM     39  C   UNL A   1      39.958  26.571  28.825  1.00  0.00     0.012 A 
ATOM     40  C   UNL A   1      41.805  27.806  27.834  1.00  0.00     0.148 A 
ATOM     41  C   UNL A   1      39.993  25.660  27.767  1.00  0.00     0.002 A 
ATOM     42  C   UNL A   1      41.807  26.922  26.764  1.00  0.00     0.091 A 
ATOM     43  F   UNL A   1      42.686  28.814  27.920  1.00  0.00    -0.205 F 
ATOM     44  C   UNL A   1      40.911  25.841  26.734  1.00  0.00     0.022 A 
BRANCH  42  45
ATOM     45  S   UNL A   1      42.910  27.102  25.359  1.00  0.00     0.127 S 
ATOM     46  O   UNL A   1      42.735  25.818  24.679  1.00  0.00    -0.237 OA
ATOM     47  O   UNL A   1      42.328  28.247  24.660  1.00  0.00    -0.237 OA
ATOM     48  O   UNL A   1      44.237  27.334  25.913  1.00  0.00    -0.744 OA
ENDBRANCH  42  45
ENDBRANCH  24  38
BRANCH  25  49
ATOM     49  C   UNL A   1      40.056  34.064  36.632  1.00  0.00     0.023 A 
ATOM     50  C   UNL A   1      40.497  35.398  36.556  1.00  0.00     0.012 A 
ATOM     51  C   UNL A   1      39.453  33.612  37.825  1.00  0.00     0.148 A 
ATOM     52  C   UNL A   1      40.371  36.254  37.653  1.00  0.00     0.002 A 
ATOM     53  C   UNL A   1      39.277  34.484  38.892  1.00  0.00     0.091 A 
ATOM     54  F   UNL A   1      39.058  32.332  37.893  1.00  0.00    -0.205 F 
ATOM     55  C   UNL A   1      39.751  35.802  38.816  1.00  0.00     0.022 A 
BRANCH  53  56
ATOM     56  S   UNL A   1      38.376  34.016  40.375  1.00  0.00     0.127 S 
ATOM     57  O   UNL A   1      37.183  33.388  39.816  1.00  0.00    -0.237 OA
ATOM     58  O   UNL A   1      39.311  33.095  41.023  1.00  0.00    -0.237 OA
ATOM     59  O   UNL A   1      38.158  35.257  41.107  1.00  0.00    -0.744 OA
ENDBRANCH  53  56
ENDBRANCH  25  49
BRANCH  37  60
ATOM     60  C   UNL A   1      44.229  28.647  35.173  1.00  0.00     0.023 A 
ATOM     61  C   UNL A   1      45.549  29.126  35.083  1.00  0.00     0.012 A 
ATOM     62  C   UNL A   1      43.919  27.612  36.074  1.00  0.00     0.148 A 
ATOM     63  C   UNL A   1      46.555  28.569  35.869  1.00  0.00     0.002 A 
ATOM     64  C   UNL A   1      44.914  27.100  36.895  1.00  0.00     0.091 A 
ATOM     65  F   UNL A   1      42.657  27.164  36.125  1.00  0.00    -0.205 F 
ATOM     66  C   UNL A   1      46.234  27.568  36.785  1.00  0.00     0.022 A 
BRANCH  64  67
ATOM     67  S   UNL A   1      44.572  25.894  38.179  1.00  0.00     0.127 S 
ATOM     68  O   UNL A   1      43.755  26.673  39.109  1.00  0.00    -0.237 OA
ATOM     69  O   UNL A   1      43.845  24.861  37.445  1.00  0.00    -0.237 OA
ATOM     70  O   UNL A   1      45.868  25.473  38.693  1.00  0.00    -0.744 OA
ENDBRANCH  64  67
ENDBRANCH  37  60
ENDBRANCH  11  12
ENDBRANCH   4   6
ENDBRANCH   3   4
ENDBRANCH   2   3
ENDBRANCH   1   2
BRANCH   1  71
ATOM     71  O   UNL A   1      31.366  30.828  25.926  1.00  0.00    -0.374 OA
BRANCH  71  72
ATOM     72  C   UNL A   1      32.596  30.097  25.973  1.00  0.00     0.202 C 
BRANCH  72  73
ATOM     73  C   UNL A   1      32.420  28.794  25.186  1.00  0.00     0.261 C 
BRANCH  73  74
ATOM     74  O   UNL A   1      32.879  27.713  26.013  1.00  0.00    -0.460 OA
BRANCH  74  75
ATOM     75  C   UNL A   1      31.885  26.980  26.585  1.00  0.00     0.338 C 
ATOM     76  O   UNL A   1      30.972  27.372  27.280  1.00  0.00    -0.246 OA
BRANCH  75  77
ATOM     77  C   UNL A   1      31.981  25.610  26.031  1.00  0.00     0.060 A 
ATOM     78  C   UNL A   1      31.181  25.253  24.943  1.00  0.00     0.018 A 
ATOM     79  C   UNL A   1      32.911  24.705  26.537  1.00  0.00     0.022 A 
ATOM     80  C   UNL A   1      31.305  23.983  24.375  1.00  0.00     0.027 A 
ATOM     81  C   UNL A   1      33.029  23.425  25.981  1.00  0.00    -0.017 A 
ATOM     82  C   UNL A   1      32.186  23.041  24.923  1.00  0.00     0.038 A 
ATOM     83  C   UNL A   1      34.028  22.470  26.583  1.00  0.00     0.049 C 
ATOM     84  N   UNL A   1      32.224  21.743  24.409  1.00  0.00    -0.378 N 
ATOM     85  C   UNL A   1      35.458  22.903  26.405  1.00  0.00    -0.023 C 
ATOM     86  C   UNL A   1      34.040  21.079  25.936  1.00  0.00     0.031 C 
ATOM     87  C   UNL A   1      32.681  20.714  25.336  1.00  0.00     0.114 C 
ATOM     88  H   UNL A   1      31.963  21.537  23.483  1.00  0.00     0.161 HD
ATOM     89  C   UNL A   1      36.115  22.134  25.529  1.00  0.00    -0.030 C 
ATOM     90  C   UNL A   1      35.225  21.081  24.955  1.00  0.00     0.034 C 
BRANCH  87  91
ATOM     91  C   UNL A   1      32.703  19.322  24.731  1.00  0.00    -0.022 A 
ATOM     92  C   UNL A   1      32.911  18.228  25.585  1.00  0.00     0.026 A 
ATOM     93  C   UNL A   1      32.584  19.068  23.361  1.00  0.00     0.026 A 
ATOM     94  C   UNL A   1      32.998  16.957  25.046  1.00  0.00     0.111 A 
ATOM     95  C   UNL A   1      32.671  17.755  22.920  1.00  0.00     0.111 A 
ATOM     96  N   UNL A   1      32.878  16.695  23.730  1.00  0.00    -0.265 NA
ENDBRANCH  87  91
ENDBRANCH  75  77
ENDBRANCH  74  75
ENDBRANCH  73  74
ENDBRANCH  72  73
ENDBRANCH  71  72
ENDBRANCH   1  71
TORSDOF 18
ENDMDL
MODEL 3
REMARK VINA RESULT:     -11.9      1.164      1.652
REMARK SMILES O=C(OCCOCCOC(=O)c1ccc2c(c1)[C@@H]1C=CC[C@@H]1[C@H](c1ccncc1)N2)c1ccc(-c2c3nc(c(-c4cccc(S(=O)(=O)[O-])c4F)c4ccc([nH]4)c(-c4cccc(S(=O)(=O)[O-])c4F)c4nc(c(-c5cccc(S(=O)(=O)[O-])c5F)c5ccc2[nH]5)C=C4)C=C3)cc1
REMARK SMILES IDX 5 1 4 2 3 3 2 4 1 5 31 6 32 7 93 8 33 9 92 10 34 11 35 12
REMARK SMILES IDX 36 13 86 14 37 15 91 16 85 17 87 18 38 19 90 20 84 21 83 22
REMARK SMILES IDX 39 24 71 25 51 26 70 27 52 28 55 29 69 30 88 31 53 32 54 33
REMARK SMILES IDX 68 35 89 36 56 37 40 38 41 39 49 40 42 41 44 42 50 43 43 44
REMARK SMILES IDX 45 45 46 46 47 47 48 48 72 49 73 50 81 51 74 52 76 53 82 54
REMARK SMILES IDX 75 55 77 56 78 57 79 58 80 59 57 60 58 61 66 62 59 63 61 64
REMARK SMILES IDX 67 65 60 66 62 67 63 68 64 69 65 70 6 71 7 72 8 73 9 74
REMARK SMILES IDX 10 75 11 76 12 77 13 78 17 79 14 80 16 81 15 82 18 83 30 84
REMARK SMILES IDX 19 85 22 86 23 87 20 89 21 90 24 91 25 92 29 93 26 94 28 95
REMARK SMILES IDX 27 96
REMARK H PARENT 87 23 55 34 30 88
REMARK Flexibility Score: inf
ROOT
ATOM      1  C   UNL A   1      38.140  19.623  24.966  1.00  0.00     0.202 C 
ENDROOT
BRANCH   1   2
ATOM      2  C   UNL A   1      39.120  19.824  26.123  1.00  0.00     0.261 C 
BRANCH   2   3
ATOM      3  O   UNL A   1      40.371  19.181  25.830  1.00  0.00    -0.460 OA
BRANCH   3   4
ATOM      4  C   UNL A   1      41.615  19.580  26.183  1.00  0.00     0.338 C 
ATOM      5  O   UNL A   1      42.477  18.721  26.356  1.00  0.00    -0.246 OA
BRANCH   4   6
ATOM      6  C   UNL A   1      41.995  21.012  26.381  1.00  0.00     0.060 A 
ATOM      7  C   UNL A   1      42.031  21.972  25.367  1.00  0.00     0.016 A 
ATOM      8  C   UNL A   1      42.225  21.439  27.698  1.00  0.00     0.016 A 
ATOM      9  C   UNL A   1      42.323  23.299  25.625  1.00  0.00     0.010 A 
ATOM     10  C   UNL A   1      42.482  22.784  27.977  1.00  0.00     0.010 A 
ATOM     11  C   UNL A   1      42.532  23.714  26.933  1.00  0.00    -0.014 A 
BRANCH  11  12
ATOM     12  C   UNL A   1      42.858  25.129  27.155  1.00  0.00     0.031 A 
ATOM     13  C   UNL A   1      44.151  25.651  26.625  1.00  0.00     0.074 A 
ATOM     14  C   UNL A   1      41.947  25.923  27.745  1.00  0.00     0.049 A 
ATOM     15  N   UNL A   1      44.673  26.837  26.756  1.00  0.00    -0.248 NA
ATOM     16  C   UNL A   1      44.964  24.715  25.828  1.00  0.00     0.031 C 
ATOM     17  C   UNL A   1      40.618  25.494  28.193  1.00  0.00     0.029 A 
ATOM     18  N   UNL A   1      41.995  27.252  28.068  1.00  0.00    -0.354 N 
ATOM     19  C   UNL A   1      45.903  26.772  26.119  1.00  0.00     0.074 A 
ATOM     20  C   UNL A   1      46.038  25.444  25.567  1.00  0.00     0.031 C 
ATOM     21  C   UNL A   1      39.983  26.539  28.749  1.00  0.00     0.029 A 
ATOM     22  C   UNL A   1      40.885  27.683  28.758  1.00  0.00     0.049 A 
ATOM     23  H   UNL A   1      42.748  27.840  27.831  1.00  0.00     0.167 HD
ATOM     24  C   UNL A   1      46.839  27.743  26.028  1.00  0.00     0.034 A 
ATOM     25  C   UNL A   1      40.659  28.859  29.373  1.00  0.00     0.034 A 
ATOM     26  C   UNL A   1      46.660  29.055  26.581  1.00  0.00     0.049 A 
ATOM     27  C   UNL A   1      41.741  29.901  29.297  1.00  0.00     0.074 A 
ATOM     28  C   UNL A   1      47.531  30.125  26.562  1.00  0.00     0.029 A 
ATOM     29  N   UNL A   1      45.527  29.465  27.272  1.00  0.00    -0.354 N 
ATOM     30  N   UNL A   1      42.888  29.853  28.658  1.00  0.00    -0.248 NA
ATOM     31  C   UNL A   1      41.507  31.158  30.017  1.00  0.00     0.031 C 
ATOM     32  C   UNL A   1      46.940  31.171  27.278  1.00  0.00     0.029 A 
ATOM     33  C   UNL A   1      45.685  30.766  27.708  1.00  0.00     0.049 A 
ATOM     34  H   UNL A   1      44.728  28.910  27.429  1.00  0.00     0.167 HD
ATOM     35  C   UNL A   1      43.503  31.076  28.881  1.00  0.00     0.074 A 
ATOM     36  C   UNL A   1      42.588  31.856  29.692  1.00  0.00     0.031 C 
ATOM     37  C   UNL A   1      44.720  31.515  28.475  1.00  0.00     0.034 A 
BRANCH  24  38
ATOM     38  C   UNL A   1      48.140  27.389  25.365  1.00  0.00     0.023 A 
ATOM     39  C   UNL A   1      49.215  26.883  26.122  1.00  0.00     0.012 A 
ATOM     40  C   UNL A   1      48.293  27.566  23.976  1.00  0.00     0.148 A 
ATOM     41  C   UNL A   1      50.434  26.589  25.510  1.00  0.00     0.002 A 
ATOM     42  C   UNL A   1      49.495  27.232  23.367  1.00  0.00     0.091 A 
ATOM     43  F   UNL A   1      47.266  28.078  23.282  1.00  0.00    -0.205 F 
ATOM     44  C   UNL A   1      50.571  26.756  24.133  1.00  0.00     0.022 A 
BRANCH  42  45
ATOM     45  S   UNL A   1      49.750  27.356  21.595  1.00  0.00     0.127 S 
ATOM     46  O   UNL A   1      51.102  26.813  21.452  1.00  0.00    -0.237 OA
ATOM     47  O   UNL A   1      48.689  26.496  21.073  1.00  0.00    -0.237 OA
ATOM     48  O   UNL A   1      49.612  28.768  21.263  1.00  0.00    -0.744 OA
ENDBRANCH  42  45
ENDBRANCH  24  38
BRANCH  25  49
ATOM     49  C   UNL A   1      39.396  29.088  30.134  1.00  0.00     0.023 A 
ATOM     50  C   UNL A   1      39.191  28.441  31.367  1.00  0.00     0.012 A 
ATOM     51  C   UNL A   1      38.397  29.956  29.645  1.00  0.00     0.148 A 
ATOM     52  C   UNL A   1      38.006  28.628  32.081  1.00  0.00     0.002 A 
ATOM     53  C   UNL A   1      37.246  30.183  30.389  1.00  0.00     0.091 A 
ATOM     54  F   UNL A   1      38.594  30.548  28.458  1.00  0.00    -0.205 F 
ATOM     55  C   UNL A   1      37.039  29.507  31.600  1.00  0.00     0.022 A 
BRANCH  53  56
ATOM     56  S   UNL A   1      36.012  31.396  29.900  1.00  0.00     0.127 S 
ATOM     57  O   UNL A   1      36.843  32.535  29.524  1.00  0.00    -0.237 OA
ATOM     58  O   UNL A   1      35.348  30.722  28.783  1.00  0.00    -0.237 OA
ATOM     59  O   UNL A   1      35.165  31.584  31.071  1.00  0.00    -0.744 OA
ENDBRANCH  53  56
ENDBRANCH  25  49
BRANCH  37  60
ATOM     60  C   UNL A   1      45.118  32.906  28.879  1.00  0.00     0.023 A 
ATOM     61  C   UNL A   1      45.818  33.110  30.084  1.00  0.00     0.012 A 
ATOM     62  C   UNL A   1      44.895  33.988  28.007  1.00  0.00     0.148 A 
ATOM     63  C   UNL A   1      46.273  34.381  30.426  1.00  0.00     0.002 A 
ATOM     64  C   UNL A   1      45.401  35.239  28.328  1.00  0.00     0.091 A 
ATOM     65  F   UNL A   1      44.211  33.766  26.875  1.00  0.00    -0.205 F 
ATOM     66  C   UNL A   1      46.078  35.441  29.541  1.00  0.00     0.022 A 
BRANCH  64  67
ATOM     67  S   UNL A   1      45.298  36.632  27.200  1.00  0.00     0.127 S 
ATOM     68  O   UNL A   1      46.032  36.130  26.039  1.00  0.00    -0.237 OA
ATOM     69  O   UNL A   1      43.856  36.762  27.002  1.00  0.00    -0.237 OA
ATOM     70  O   UNL A   1      45.918  37.756  27.889  1.00  0.00    -0.744 OA
ENDBRANCH  64  67
ENDBRANCH  37  60
ENDBRANCH  11  12
ENDBRANCH   4   6
ENDBRANCH   3   4
ENDBRANCH   2   3
ENDBRANCH   1   2
BRANCH   1  71
ATOM     71  O   UNL A   1      37.406  20.788  24.602  1.00  0.00    -0.374 OA
BRANCH  71  72
ATOM     72  C   UNL A   1      37.058  21.689  25.658  1.00  0.00     0.202 C 
BRANCH  72  73
ATOM     73  C   UNL A   1      35.548  21.594  25.903  1.00  0.00     0.261 C 
BRANCH  73  74
ATOM     74  O   UNL A   1      35.045  22.928  26.079  1.00  0.00    -0.460 OA
BRANCH  74  75
ATOM     75  C   UNL A   1      33.968  23.019  26.907  1.00  0.00     0.338 C 
ATOM     76  O   UNL A   1      33.833  22.541  28.013  1.00  0.00    -0.246 OA
BRANCH  75  77
ATOM     77  C   UNL A   1      33.040  24.004  26.306  1.00  0.00     0.060 A 
ATOM     78  C   UNL A   1      31.673  23.720  26.263  1.00  0.00     0.018 A 
ATOM     79  C   UNL A   1      33.509  25.235  25.853  1.00  0.00     0.022 A 
ATOM     80  C   UNL A   1      30.782  24.666  25.751  1.00  0.00     0.027 A 
ATOM     81  C   UNL A   1      32.621  26.180  25.325  1.00  0.00    -0.017 A 
ATOM     82  C   UNL A   1      31.251  25.877  25.227  1.00  0.00     0.038 A 
ATOM     83  C   UNL A   1      33.180  27.486  24.819  1.00  0.00     0.049 C 
ATOM     84  N   UNL A   1      30.359  26.768  24.626  1.00  0.00    -0.378 N 
ATOM     85  C   UNL A   1      33.775  28.347  25.901  1.00  0.00    -0.023 C 
ATOM     86  C   UNL A   1      32.132  28.429  24.214  1.00  0.00     0.031 C 
ATOM     87  C   UNL A   1      30.940  27.664  23.632  1.00  0.00     0.114 C 
ATOM     88  H   UNL A   1      29.403  26.791  24.858  1.00  0.00     0.161 HD
ATOM     89  C   UNL A   1      33.030  29.427  26.158  1.00  0.00    -0.030 C 
ATOM     90  C   UNL A   1      31.798  29.451  25.313  1.00  0.00     0.034 C 
BRANCH  87  91
ATOM     91  C   UNL A   1      29.931  28.610  23.008  1.00  0.00    -0.022 A 
ATOM     92  C   UNL A   1      28.567  28.361  23.218  1.00  0.00     0.026 A 
ATOM     93  C   UNL A   1      30.279  29.685  22.186  1.00  0.00     0.026 A 
ATOM     94  C   UNL A   1      27.629  29.173  22.606  1.00  0.00     0.111 A 
ATOM     95  C   UNL A   1      29.265  30.451  21.628  1.00  0.00     0.111 A 
ATOM     96  N   UNL A   1      27.948  30.218  21.817  1.00  0.00    -0.265 NA
ENDBRANCH  87  91
ENDBRANCH  75  77
ENDBRANCH  74  75
ENDBRANCH  73  74
ENDBRANCH  72  73
ENDBRANCH  71  72
ENDBRANCH   1  71
TORSDOF 18
ENDMDL
