MODEL 1
REMARK VINA RESULT:     -10.2      0.000      0.000
REMARK SMILES C[C@H](CN(C)C(=O)CCc1nc2ccccc2o1)C(=O)OCCOCCOC(=O)c1ccc(-c2c3nc(c(-c4cccc(S(=O)(=O)[O-])c4F)c4ccc([nH]4)c(-c4cccc(S(=O)(=O)[O-])c4F)c4nc(c(-c5cccc(S(=O)(=O)[O-])c5F)c5ccc2[nH]5)C=C4)C=C3)cc1
REMARK SMILES IDX 22 1 21 2 19 3 20 4 2 5 1 6 3 7 4 8 5 9 6 10 7 11 8 12 9 13
REMARK SMILES IDX 10 14 11 15 18 16 12 17 17 18 13 19 16 20 14 21 15 22 23 23
REMARK SMILES IDX 24 24 25 25 26 26 27 27 28 28 29 29 30 30 31 31 92 32 32 33
REMARK SMILES IDX 91 34 33 35 34 36 35 37 85 38 36 39 90 40 84 41 86 42 37 43
REMARK SMILES IDX 89 44 83 45 82 46 38 48 70 49 50 50 69 51 51 52 54 53 68 54
REMARK SMILES IDX 87 55 52 56 53 57 67 59 88 60 55 61 39 62 40 63 48 64 41 65
REMARK SMILES IDX 43 66 49 67 42 68 44 69 45 70 46 71 47 72 71 73 72 74 80 75
REMARK SMILES IDX 73 76 75 77 81 78 74 79 76 80 77 81 78 82 79 83 56 84 57 85
REMARK SMILES IDX 65 86 58 87 60 88 66 89 59 90 61 91 62 92 63 93 64 94
REMARK H PARENT 86 47 54 58
REMARK Flexibility Score: inf
ROOT
ATOM      1  C   UNL A   1      33.909  23.889  22.502  1.00  0.00     0.261 C 
ENDROOT
BRANCH   1   2
ATOM      2  O   UNL A   1      32.966  24.671  23.252  1.00  0.00    -0.463 OA
BRANCH   2   3
ATOM      3  C   UNL A   1      33.338  25.909  23.642  1.00  0.00     0.310 C 
ATOM      4  O   UNL A   1      33.890  26.174  24.705  1.00  0.00    -0.252 OA
BRANCH   3   5
ATOM      5  C   UNL A   1      33.063  26.964  22.582  1.00  0.00     0.115 C 
ATOM      6  C   UNL A   1      33.691  28.283  23.001  1.00  0.00     0.022 C 
BRANCH   5   7
ATOM      7  C   UNL A   1      31.598  26.987  22.078  1.00  0.00     0.134 C 
BRANCH   7   8
ATOM      8  N   UNL A   1      30.613  27.747  22.841  1.00  0.00    -0.345 N 
ATOM      9  C   UNL A   1      30.630  29.187  22.627  1.00  0.00     0.146 C 
BRANCH   8  10
ATOM     10  C   UNL A   1      29.600  27.039  23.474  1.00  0.00     0.222 C 
ATOM     11  O   UNL A   1      28.474  27.527  23.603  1.00  0.00    -0.275 OA
BRANCH  10  12
ATOM     12  C   UNL A   1      29.840  25.615  23.945  1.00  0.00     0.110 C 
BRANCH  12  13
ATOM     13  C   UNL A   1      30.003  25.548  25.466  1.00  0.00     0.107 C 
BRANCH  13  14
ATOM     14  C   UNL A   1      30.768  24.346  25.893  1.00  0.00     0.195 A 
ATOM     15  N   UNL A   1      30.657  23.100  25.473  1.00  0.00    -0.214 NA
ATOM     16  O   UNL A   1      31.833  24.574  26.730  1.00  0.00    -0.441 OA
ATOM     17  C   UNL A   1      31.789  22.494  25.953  1.00  0.00     0.109 A 
ATOM     18  C   UNL A   1      32.511  23.391  26.720  1.00  0.00     0.154 A 
ATOM     19  C   UNL A   1      32.318  21.217  25.724  1.00  0.00     0.032 A 
ATOM     20  C   UNL A   1      33.756  23.135  27.281  1.00  0.00     0.049 A 
ATOM     21  C   UNL A   1      33.588  20.927  26.249  1.00  0.00     0.003 A 
ATOM     22  C   UNL A   1      34.293  21.873  27.006  1.00  0.00     0.004 A 
ENDBRANCH  13  14
ENDBRANCH  12  13
ENDBRANCH  10  12
ENDBRANCH   8  10
ENDBRANCH   7   8
ENDBRANCH   5   7
ENDBRANCH   3   5
ENDBRANCH   2   3
ENDBRANCH   1   2
BRANCH   1  23
ATOM     23  C   UNL A   1      34.558  22.862  23.433  1.00  0.00     0.202 C 
BRANCH  23  24
ATOM     24  O   UNL A   1      35.813  23.252  24.001  1.00  0.00    -0.374 OA
BRANCH  24  25
ATOM     25  C   UNL A   1      36.955  22.479  23.640  1.00  0.00     0.202 C 
BRANCH  25  26
ATOM     26  C   UNL A   1      37.263  21.263  24.526  1.00  0.00     0.261 C 
BRANCH  26  27
ATOM     27  O   UNL A   1      37.640  21.629  25.865  1.00  0.00    -0.460 OA
BRANCH  27  28
ATOM     28  C   UNL A   1      38.962  21.512  26.131  1.00  0.00     0.338 C 
ATOM     29  O   UNL A   1      39.695  20.579  25.811  1.00  0.00    -0.246 OA
BRANCH  28  30
ATOM     30  C   UNL A   1      39.489  22.749  26.733  1.00  0.00     0.060 A 
ATOM     31  C   UNL A   1      38.845  23.949  26.404  1.00  0.00     0.016 A 
ATOM     32  C   UNL A   1      40.636  22.757  27.530  1.00  0.00     0.016 A 
ATOM     33  C   UNL A   1      39.375  25.166  26.825  1.00  0.00     0.010 A 
ATOM     34  C   UNL A   1      41.171  23.983  27.947  1.00  0.00     0.010 A 
ATOM     35  C   UNL A   1      40.565  25.194  27.563  1.00  0.00    -0.014 A 
BRANCH  35  36
ATOM     36  C   UNL A   1      41.238  26.494  27.811  1.00  0.00     0.031 A 
ATOM     37  C   UNL A   1      42.647  26.696  27.322  1.00  0.00     0.074 A 
ATOM     38  C   UNL A   1      40.598  27.491  28.448  1.00  0.00     0.049 A 
ATOM     39  N   UNL A   1      43.420  27.745  27.434  1.00  0.00    -0.248 NA
ATOM     40  C   UNL A   1      43.269  25.564  26.615  1.00  0.00     0.031 C 
ATOM     41  C   UNL A   1      39.235  27.423  28.968  1.00  0.00     0.029 A 
ATOM     42  N   UNL A   1      41.026  28.752  28.784  1.00  0.00    -0.354 N 
ATOM     43  C   UNL A   1      44.626  27.393  26.840  1.00  0.00     0.074 A 
ATOM     44  C   UNL A   1      44.488  26.028  26.378  1.00  0.00     0.031 C 
ATOM     45  C   UNL A   1      38.946  28.582  29.585  1.00  0.00     0.029 A 
ATOM     46  C   UNL A   1      40.110  29.464  29.520  1.00  0.00     0.049 A 
ATOM     47  H   UNL A   1      41.905  29.111  28.523  1.00  0.00     0.167 HD
ATOM     48  C   UNL A   1      45.743  28.141  26.676  1.00  0.00     0.034 A 
ATOM     49  C   UNL A   1      40.205  30.680  30.095  1.00  0.00     0.034 A 
ATOM     50  C   UNL A   1      45.873  29.506  27.110  1.00  0.00     0.049 A 
ATOM     51  C   UNL A   1      41.465  31.488  29.913  1.00  0.00     0.074 A 
ATOM     52  C   UNL A   1      46.946  30.364  26.938  1.00  0.00     0.029 A 
ATOM     53  N   UNL A   1      44.908  30.210  27.813  1.00  0.00    -0.354 N 
ATOM     54  N   UNL A   1      42.548  31.189  29.236  1.00  0.00    -0.248 NA
ATOM     55  C   UNL A   1      41.503  32.815  30.545  1.00  0.00     0.031 C 
ATOM     56  C   UNL A   1      46.639  31.579  27.560  1.00  0.00     0.029 A 
ATOM     57  C   UNL A   1      45.364  31.486  28.096  1.00  0.00     0.049 A 
ATOM     58  H   UNL A   1      44.027  29.854  28.071  1.00  0.00     0.167 HD
ATOM     59  C   UNL A   1      43.379  32.301  29.333  1.00  0.00     0.074 A 
ATOM     60  C   UNL A   1      42.667  33.288  30.116  1.00  0.00     0.031 C 
ATOM     61  C   UNL A   1      44.626  32.482  28.830  1.00  0.00     0.034 A 
BRANCH  48  62
ATOM     62  C   UNL A   1      46.913  27.506  25.972  1.00  0.00     0.023 A 
ATOM     63  C   UNL A   1      47.003  27.579  24.567  1.00  0.00     0.012 A 
ATOM     64  C   UNL A   1      47.948  26.892  26.702  1.00  0.00     0.148 A 
ATOM     65  C   UNL A   1      48.093  27.022  23.897  1.00  0.00     0.002 A 
ATOM     66  C   UNL A   1      49.050  26.376  26.030  1.00  0.00     0.091 A 
ATOM     67  F   UNL A   1      47.832  26.811  28.035  1.00  0.00    -0.205 F 
ATOM     68  C   UNL A   1      49.120  26.430  24.628  1.00  0.00     0.022 A 
BRANCH  66  69
ATOM     69  S   UNL A   1      50.458  25.661  26.888  1.00  0.00     0.127 S 
ATOM     70  O   UNL A   1      49.870  24.451  27.460  1.00  0.00    -0.237 OA
ATOM     71  O   UNL A   1      51.399  25.422  25.793  1.00  0.00    -0.237 OA
ATOM     72  O   UNL A   1      50.891  26.663  27.851  1.00  0.00    -0.744 OA
ENDBRANCH  66  69
ENDBRANCH  48  62
BRANCH  49  73
ATOM     73  C   UNL A   1      39.059  31.224  30.876  1.00  0.00     0.023 A 
ATOM     74  C   UNL A   1      39.071  31.141  32.282  1.00  0.00     0.012 A 
ATOM     75  C   UNL A   1      37.966  31.839  30.233  1.00  0.00     0.148 A 
ATOM     76  C   UNL A   1      38.004  31.635  33.032  1.00  0.00     0.002 A 
ATOM     77  C   UNL A   1      36.932  32.378  30.989  1.00  0.00     0.091 A 
ATOM     78  F   UNL A   1      37.963  31.887  28.894  1.00  0.00    -0.205 F 
ATOM     79  C   UNL A   1      36.940  32.264  32.387  1.00  0.00     0.022 A 
BRANCH  77  80
ATOM     80  S   UNL A   1      35.588  33.310  30.248  1.00  0.00     0.127 S 
ATOM     81  O   UNL A   1      34.768  32.248  29.671  1.00  0.00    -0.237 OA
ATOM     82  O   UNL A   1      35.002  33.976  31.413  1.00  0.00    -0.237 OA
ATOM     83  O   UNL A   1      36.214  34.215  29.293  1.00  0.00    -0.744 OA
ENDBRANCH  77  80
ENDBRANCH  49  73
BRANCH  61  84
ATOM     84  C   UNL A   1      45.300  33.808  29.078  1.00  0.00     0.023 A 
ATOM     85  C   UNL A   1      45.979  34.032  30.291  1.00  0.00     0.012 A 
ATOM     86  C   UNL A   1      45.332  34.798  28.075  1.00  0.00     0.148 A 
ATOM     87  C   UNL A   1      46.655  35.231  30.516  1.00  0.00     0.002 A 
ATOM     88  C   UNL A   1      46.047  35.971  28.286  1.00  0.00     0.091 A 
ATOM     89  F   UNL A   1      44.666  34.574  26.933  1.00  0.00    -0.205 F 
ATOM     90  C   UNL A   1      46.699  36.194  29.511  1.00  0.00     0.022 A 
BRANCH  88  91
ATOM     91  S   UNL A   1      46.240  37.225  27.015  1.00  0.00     0.127 S 
ATOM     92  O   UNL A   1      44.873  37.726  26.880  1.00  0.00    -0.237 OA
ATOM     93  O   UNL A   1      47.174  38.163  27.640  1.00  0.00    -0.237 OA
ATOM     94  O   UNL A   1      46.771  36.534  25.848  1.00  0.00    -0.744 OA
ENDBRANCH  88  91
ENDBRANCH  61  84
ENDBRANCH  35  36
ENDBRANCH  28  30
ENDBRANCH  27  28
ENDBRANCH  26  27
ENDBRANCH  25  26
ENDBRANCH  24  25
ENDBRANCH  23  24
ENDBRANCH   1  23
TORSDOF 23
ENDMDL
MODEL 2
REMARK VINA RESULT:     -10.1      1.827      7.619
REMARK SMILES C[C@H](CN(C)C(=O)CCc1nc2ccccc2o1)C(=O)OCCOCCOC(=O)c1ccc(-c2c3nc(c(-c4cccc(S(=O)(=O)[O-])c4F)c4ccc([nH]4)c(-c4cccc(S(=O)(=O)[O-])c4F)c4nc(c(-c5cccc(S(=O)(=O)[O-])c5F)c5ccc2[nH]5)C=C4)C=C3)cc1
REMARK SMILES IDX 22 1 21 2 19 3 20 4 2 5 1 6 3 7 4 8 5 9 6 10 7 11 8 12 9 13
REMARK SMILES IDX 10 14 11 15 18 16 12 17 17 18 13 19 16 20 14 21 15 22 23 23
REMARK SMILES IDX 24 24 25 25 26 26 27 27 28 28 29 29 30 30 31 31 92 32 32 33
REMARK SMILES IDX 91 34 33 35 34 36 35 37 85 38 36 39 90 40 84 41 86 42 37 43
REMARK SMILES IDX 89 44 83 45 82 46 38 48 70 49 50 50 69 51 51 52 54 53 68 54
REMARK SMILES IDX 87 55 52 56 53 57 67 59 88 60 55 61 39 62 40 63 48 64 41 65
REMARK SMILES IDX 43 66 49 67 42 68 44 69 45 70 46 71 47 72 71 73 72 74 80 75
REMARK SMILES IDX 73 76 75 77 81 78 74 79 76 80 77 81 78 82 79 83 56 84 57 85
REMARK SMILES IDX 65 86 58 87 60 88 66 89 59 90 61 91 62 92 63 93 64 94
REMARK H PARENT 86 47 54 58
REMARK Flexibility Score: inf
ROOT
ATOM      1  C   UNL A   1      34.929  23.294  23.129  1.00  0.00     0.261 C 
ENDROOT
BRANCH   1   2
ATOM      2  O   UNL A   1      34.636  24.677  22.881  1.00  0.00    -0.463 OA
BRANCH   2   3
ATOM      3  C   UNL A   1      33.353  25.084  23.001  1.00  0.00     0.310 C 
ATOM      4  O   UNL A   1      32.401  24.345  23.232  1.00  0.00    -0.252 OA
BRANCH   3   5
ATOM      5  C   UNL A   1      33.205  26.593  22.889  1.00  0.00     0.115 C 
ATOM      6  C   UNL A   1      33.817  27.258  24.110  1.00  0.00     0.022 C 
BRANCH   5   7
ATOM      7  C   UNL A   1      31.796  27.058  22.440  1.00  0.00     0.134 C 
BRANCH   7   8
ATOM      8  N   UNL A   1      30.877  27.566  23.454  1.00  0.00    -0.345 N 
ATOM      9  C   UNL A   1      30.567  28.985  23.363  1.00  0.00     0.146 C 
BRANCH   8  10
ATOM     10  C   UNL A   1      30.188  26.638  24.222  1.00  0.00     0.222 C 
ATOM     11  O   UNL A   1      29.277  25.964  23.731  1.00  0.00    -0.275 OA
BRANCH  10  12
ATOM     12  C   UNL A   1      30.598  26.378  25.661  1.00  0.00     0.110 C 
BRANCH  12  13
ATOM     13  C   UNL A   1      29.828  25.197  26.259  1.00  0.00     0.107 C 
BRANCH  13  14
ATOM     14  C   UNL A   1      30.673  23.978  26.370  1.00  0.00     0.195 A 
ATOM     15  N   UNL A   1      30.649  22.882  25.635  1.00  0.00    -0.214 NA
ATOM     16  O   UNL A   1      31.720  24.048  27.257  1.00  0.00    -0.441 OA
ATOM     17  C   UNL A   1      31.819  22.247  25.961  1.00  0.00     0.109 A 
ATOM     18  C   UNL A   1      32.478  22.957  26.950  1.00  0.00     0.154 A 
ATOM     19  C   UNL A   1      32.435  21.114  25.415  1.00  0.00     0.032 A 
ATOM     20  C   UNL A   1      33.737  22.646  27.447  1.00  0.00     0.049 A 
ATOM     21  C   UNL A   1      33.721  20.781  25.869  1.00  0.00     0.003 A 
ATOM     22  C   UNL A   1      34.359  21.538  26.861  1.00  0.00     0.004 A 
ENDBRANCH  13  14
ENDBRANCH  12  13
ENDBRANCH  10  12
ENDBRANCH   8  10
ENDBRANCH   7   8
ENDBRANCH   5   7
ENDBRANCH   3   5
ENDBRANCH   2   3
ENDBRANCH   1   2
BRANCH   1  23
ATOM     23  C   UNL A   1      36.378  23.169  23.606  1.00  0.00     0.202 C 
BRANCH  23  24
ATOM     24  O   UNL A   1      36.813  21.839  23.913  1.00  0.00    -0.374 OA
BRANCH  24  25
ATOM     25  C   UNL A   1      37.647  21.680  25.058  1.00  0.00     0.202 C 
BRANCH  25  26
ATOM     26  C   UNL A   1      38.344  20.319  25.211  1.00  0.00     0.261 C 
BRANCH  26  27
ATOM     27  O   UNL A   1      39.081  20.205  26.441  1.00  0.00    -0.460 OA
BRANCH  27  28
ATOM     28  C   UNL A   1      40.400  19.948  26.286  1.00  0.00     0.338 C 
ATOM     29  O   UNL A   1      40.901  18.911  25.857  1.00  0.00    -0.246 OA
BRANCH  28  30
ATOM     30  C   UNL A   1      41.205  21.154  26.547  1.00  0.00     0.060 A 
ATOM     31  C   UNL A   1      41.193  21.665  27.851  1.00  0.00     0.016 A 
ATOM     32  C   UNL A   1      41.889  21.826  25.531  1.00  0.00     0.016 A 
ATOM     33  C   UNL A   1      41.817  22.878  28.135  1.00  0.00     0.010 A 
ATOM     34  C   UNL A   1      42.510  23.048  25.817  1.00  0.00     0.010 A 
ATOM     35  C   UNL A   1      42.444  23.599  27.111  1.00  0.00    -0.014 A 
BRANCH  35  36
ATOM     36  C   UNL A   1      42.905  24.985  27.373  1.00  0.00     0.031 A 
ATOM     37  C   UNL A   1      41.956  25.967  28.005  1.00  0.00     0.074 A 
ATOM     38  C   UNL A   1      44.160  25.363  27.068  1.00  0.00     0.049 A 
ATOM     39  N   UNL A   1      42.150  27.223  28.317  1.00  0.00    -0.248 NA
ATOM     40  C   UNL A   1      40.608  25.470  28.328  1.00  0.00     0.031 C 
ATOM     41  C   UNL A   1      45.173  24.508  26.455  1.00  0.00     0.029 A 
ATOM     42  N   UNL A   1      44.784  26.577  27.216  1.00  0.00    -0.354 N 
ATOM     43  C   UNL A   1      40.946  27.674  28.844  1.00  0.00     0.074 A 
ATOM     44  C   UNL A   1      40.022  26.560  28.800  1.00  0.00     0.031 C 
ATOM     45  C   UNL A   1      46.287  25.232  26.252  1.00  0.00     0.029 A 
ATOM     46  C   UNL A   1      46.058  26.605  26.701  1.00  0.00     0.049 A 
ATOM     47  H   UNL A   1      44.361  27.353  27.649  1.00  0.00     0.167 HD
ATOM     48  C   UNL A   1      40.639  28.897  29.336  1.00  0.00     0.034 A 
ATOM     49  C   UNL A   1      46.932  27.625  26.585  1.00  0.00     0.034 A 
ATOM     50  C   UNL A   1      41.563  29.997  29.405  1.00  0.00     0.049 A 
ATOM     51  C   UNL A   1      46.562  28.982  27.126  1.00  0.00     0.074 A 
ATOM     52  C   UNL A   1      41.361  31.258  29.940  1.00  0.00     0.029 A 
ATOM     53  N   UNL A   1      42.859  29.975  28.915  1.00  0.00    -0.354 N 
ATOM     54  N   UNL A   1      45.464  29.356  27.738  1.00  0.00    -0.248 NA
ATOM     55  C   UNL A   1      47.564  30.050  26.989  1.00  0.00     0.031 C 
ATOM     56  C   UNL A   1      42.527  32.007  29.749  1.00  0.00     0.029 A 
ATOM     57  C   UNL A   1      43.464  31.203  29.120  1.00  0.00     0.049 A 
ATOM     58  H   UNL A   1      43.286  29.199  28.485  1.00  0.00     0.167 HD
ATOM     59  C   UNL A   1      45.657  30.689  28.090  1.00  0.00     0.074 A 
ATOM     60  C   UNL A   1      46.984  31.051  27.639  1.00  0.00     0.031 C 
ATOM     61  C   UNL A   1      44.806  31.539  28.717  1.00  0.00     0.034 A 
BRANCH  48  62
ATOM     62  C   UNL A   1      39.245  29.108  29.867  1.00  0.00     0.023 A 
ATOM     63  C   UNL A   1      38.931  28.700  31.179  1.00  0.00     0.012 A 
ATOM     64  C   UNL A   1      38.268  29.760  29.091  1.00  0.00     0.148 A 
ATOM     65  C   UNL A   1      37.654  28.911  31.701  1.00  0.00     0.002 A 
ATOM     66  C   UNL A   1      37.011  30.003  29.632  1.00  0.00     0.091 A 
ATOM     67  F   UNL A   1      38.579  30.118  27.838  1.00  0.00    -0.205 F 
ATOM     68  C   UNL A   1      36.698  29.571  30.932  1.00  0.00     0.022 A 
BRANCH  66  69
ATOM     69  S   UNL A   1      35.738  30.912  28.748  1.00  0.00     0.127 S 
ATOM     70  O   UNL A   1      34.968  31.489  29.848  1.00  0.00    -0.237 OA
ATOM     71  O   UNL A   1      36.525  31.879  27.981  1.00  0.00    -0.237 OA
ATOM     72  O   UNL A   1      35.033  29.928  27.938  1.00  0.00    -0.744 OA
ENDBRANCH  66  69
ENDBRANCH  48  62
BRANCH  49  73
ATOM     73  C   UNL A   1      48.261  27.394  25.952  1.00  0.00     0.023 A 
ATOM     74  C   UNL A   1      49.353  26.993  26.747  1.00  0.00     0.012 A 
ATOM     75  C   UNL A   1      48.444  27.552  24.564  1.00  0.00     0.148 A 
ATOM     76  C   UNL A   1      50.607  26.780  26.176  1.00  0.00     0.002 A 
ATOM     77  C   UNL A   1      49.683  27.286  23.994  1.00  0.00     0.091 A 
ATOM     78  F   UNL A   1      47.399  27.956  23.828  1.00  0.00    -0.205 F 
ATOM     79  C   UNL A   1      50.770  26.915  24.799  1.00  0.00     0.022 A 
BRANCH  77  80
ATOM     80  S   UNL A   1      49.948  27.315  22.218  1.00  0.00     0.127 S 
ATOM     81  O   UNL A   1      48.893  26.424  21.742  1.00  0.00    -0.237 OA
ATOM     82  O   UNL A   1      49.746  28.731  21.904  1.00  0.00    -0.237 OA
ATOM     83  O   UNL A   1      51.312  26.845  22.014  1.00  0.00    -0.744 OA
ENDBRANCH  77  80
ENDBRANCH  49  73
BRANCH  61  84
ATOM     84  C   UNL A   1      45.285  32.943  28.988  1.00  0.00     0.023 A 
ATOM     85  C   UNL A   1      46.047  33.212  30.141  1.00  0.00     0.012 A 
ATOM     86  C   UNL A   1      45.050  33.976  28.058  1.00  0.00     0.148 A 
ATOM     87  C   UNL A   1      46.545  34.493  30.380  1.00  0.00     0.002 A 
ATOM     88  C   UNL A   1      45.589  35.238  28.278  1.00  0.00     0.091 A 
ATOM     89  F   UNL A   1      44.308  33.705  26.974  1.00  0.00    -0.205 F 
ATOM     90  C   UNL A   1      46.326  35.502  29.445  1.00  0.00     0.022 A 
BRANCH  88  91
ATOM     91  S   UNL A   1      45.440  36.571  27.084  1.00  0.00     0.127 S 
ATOM     92  O   UNL A   1      46.099  37.673  27.783  1.00  0.00    -0.237 OA
ATOM     93  O   UNL A   1      46.182  36.047  25.936  1.00  0.00    -0.237 OA
ATOM     94  O   UNL A   1      44.013  36.743  26.850  1.00  0.00    -0.744 OA
ENDBRANCH  88  91
ENDBRANCH  61  84
ENDBRANCH  35  36
ENDBRANCH  28  30
ENDBRANCH  27  28
ENDBRANCH  26  27
ENDBRANCH  25  26
ENDBRANCH  24  25
ENDBRANCH  23  24
ENDBRANCH   1  23
TORSDOF 23
ENDMDL
MODEL 3
REMARK VINA RESULT:      -9.9      5.468      8.753
REMARK SMILES C[C@H](CN(C)C(=O)CCc1nc2ccccc2o1)C(=O)OCCOCCOC(=O)c1ccc(-c2c3nc(c(-c4cccc(S(=O)(=O)[O-])c4F)c4ccc([nH]4)c(-c4cccc(S(=O)(=O)[O-])c4F)c4nc(c(-c5cccc(S(=O)(=O)[O-])c5F)c5ccc2[nH]5)C=C4)C=C3)cc1
REMARK SMILES IDX 22 1 21 2 19 3 20 4 2 5 1 6 3 7 4 8 5 9 6 10 7 11 8 12 9 13
REMARK SMILES IDX 10 14 11 15 18 16 12 17 17 18 13 19 16 20 14 21 15 22 23 23
REMARK SMILES IDX 24 24 25 25 26 26 27 27 28 28 29 29 30 30 31 31 92 32 32 33
REMARK SMILES IDX 91 34 33 35 34 36 35 37 85 38 36 39 90 40 84 41 86 42 37 43
REMARK SMILES IDX 89 44 83 45 82 46 38 48 70 49 50 50 69 51 51 52 54 53 68 54
REMARK SMILES IDX 87 55 52 56 53 57 67 59 88 60 55 61 39 62 40 63 48 64 41 65
REMARK SMILES IDX 43 66 49 67 42 68 44 69 45 70 46 71 47 72 71 73 72 74 80 75
REMARK SMILES IDX 73 76 75 77 81 78 74 79 76 80 77 81 78 82 79 83 56 84 57 85
REMARK SMILES IDX 65 86 58 87 60 88 66 89 59 90 61 91 62 92 63 93 64 94
REMARK H PARENT 86 47 54 58
REMARK Flexibility Score: inf
ROOT
ATOM      1  C   UNL A   1      33.968  28.425  25.925  1.00  0.00     0.261 C 
ENDROOT
BRANCH   1   2
ATOM      2  O   UNL A   1      33.042  27.335  25.797  1.00  0.00    -0.463 OA
BRANCH   2   3
ATOM      3  C   UNL A   1      32.825  26.830  24.564  1.00  0.00     0.310 C 
ATOM      4  O   UNL A   1      33.702  26.449  23.796  1.00  0.00    -0.252 OA
BRANCH   3   5
ATOM      5  C   UNL A   1      31.345  26.710  24.233  1.00  0.00     0.115 C 
ATOM      6  C   UNL A   1      30.699  28.085  24.283  1.00  0.00     0.022 C 
BRANCH   5   7
ATOM      7  C   UNL A   1      30.628  25.545  24.959  1.00  0.00     0.134 C 
BRANCH   7   8
ATOM      8  N   UNL A   1      31.345  24.284  25.124  1.00  0.00    -0.345 N 
ATOM      9  C   UNL A   1      31.759  23.972  26.484  1.00  0.00     0.146 C 
BRANCH   8  10
ATOM     10  C   UNL A   1      31.331  23.391  24.062  1.00  0.00     0.222 C 
ATOM     11  O   UNL A   1      30.470  23.470  23.181  1.00  0.00    -0.275 OA
BRANCH  10  12
ATOM     12  C   UNL A   1      32.428  22.349  23.923  1.00  0.00     0.110 C 
BRANCH  12  13
ATOM     13  C   UNL A   1      33.727  22.968  23.404  1.00  0.00     0.107 C 
BRANCH  13  14
ATOM     14  C   UNL A   1      34.889  22.638  24.272  1.00  0.00     0.195 A 
ATOM     15  N   UNL A   1      35.588  21.520  24.333  1.00  0.00    -0.214 NA
ATOM     16  O   UNL A   1      35.406  23.675  25.009  1.00  0.00    -0.441 OA
ATOM     17  C   UNL A   1      36.704  21.873  25.047  1.00  0.00     0.109 A 
ATOM     18  C   UNL A   1      36.598  23.190  25.461  1.00  0.00     0.154 A 
ATOM     19  C   UNL A   1      37.882  21.169  25.322  1.00  0.00     0.032 A 
ATOM     20  C   UNL A   1      37.591  23.896  26.126  1.00  0.00     0.049 A 
ATOM     21  C   UNL A   1      38.924  21.855  25.967  1.00  0.00     0.003 A 
ATOM     22  C   UNL A   1      38.780  23.194  26.355  1.00  0.00     0.004 A 
ENDBRANCH  13  14
ENDBRANCH  12  13
ENDBRANCH  10  12
ENDBRANCH   8  10
ENDBRANCH   7   8
ENDBRANCH   5   7
ENDBRANCH   3   5
ENDBRANCH   2   3
ENDBRANCH   1   2
BRANCH   1  23
ATOM     23  C   UNL A   1      33.183  29.725  26.119  1.00  0.00     0.202 C 
BRANCH  23  24
ATOM     24  O   UNL A   1      33.162  30.238  27.456  1.00  0.00    -0.374 OA
BRANCH  24  25
ATOM     25  C   UNL A   1      33.746  31.522  27.666  1.00  0.00     0.202 C 
BRANCH  25  26
ATOM     26  C   UNL A   1      32.786  32.720  27.641  1.00  0.00     0.261 C 
BRANCH  26  27
ATOM     27  O   UNL A   1      33.471  33.981  27.545  1.00  0.00    -0.460 OA
BRANCH  27  28
ATOM     28  C   UNL A   1      33.430  34.733  28.670  1.00  0.00     0.338 C 
ATOM     29  O   UNL A   1      32.547  35.522  28.994  1.00  0.00    -0.246 OA
BRANCH  28  30
ATOM     30  C   UNL A   1      34.528  34.370  29.584  1.00  0.00     0.060 A 
ATOM     31  C   UNL A   1      35.837  34.508  29.104  1.00  0.00     0.016 A 
ATOM     32  C   UNL A   1      34.293  33.827  30.849  1.00  0.00     0.016 A 
ATOM     33  C   UNL A   1      36.913  34.053  29.862  1.00  0.00     0.010 A 
ATOM     34  C   UNL A   1      35.376  33.364  31.607  1.00  0.00     0.010 A 
ATOM     35  C   UNL A   1      36.687  33.440  31.100  1.00  0.00    -0.014 A 
BRANCH  35  36
ATOM     36  C   UNL A   1      37.811  32.760  31.792  1.00  0.00     0.031 A 
ATOM     37  C   UNL A   1      38.491  31.597  31.121  1.00  0.00     0.074 A 
ATOM     38  C   UNL A   1      38.234  33.182  32.997  1.00  0.00     0.049 A 
ATOM     39  N   UNL A   1      39.484  30.861  31.546  1.00  0.00    -0.248 NA
ATOM     40  C   UNL A   1      37.981  31.210  29.795  1.00  0.00     0.031 C 
ATOM     41  C   UNL A   1      37.662  34.296  33.750  1.00  0.00     0.029 A 
ATOM     42  N   UNL A   1      39.235  32.704  33.807  1.00  0.00    -0.354 N 
ATOM     43  C   UNL A   1      39.702  29.908  30.558  1.00  0.00     0.074 A 
ATOM     44  C   UNL A   1      38.728  30.152  29.515  1.00  0.00     0.031 C 
ATOM     45  C   UNL A   1      38.303  34.398  34.928  1.00  0.00     0.029 A 
ATOM     46  C   UNL A   1      39.314  33.347  35.019  1.00  0.00     0.049 A 
ATOM     47  H   UNL A   1      39.838  31.971  33.544  1.00  0.00     0.167 HD
ATOM     48  C   UNL A   1      40.637  28.930  30.512  1.00  0.00     0.034 A 
ATOM     49  C   UNL A   1      40.098  33.102  36.089  1.00  0.00     0.034 A 
ATOM     50  C   UNL A   1      41.622  28.703  31.536  1.00  0.00     0.049 A 
ATOM     51  C   UNL A   1      41.121  31.997  36.020  1.00  0.00     0.074 A 
ATOM     52  C   UNL A   1      42.647  27.772  31.551  1.00  0.00     0.029 A 
ATOM     53  N   UNL A   1      41.700  29.403  32.729  1.00  0.00    -0.354 N 
ATOM     54  N   UNL A   1      41.398  31.189  35.025  1.00  0.00    -0.248 NA
ATOM     55  C   UNL A   1      41.960  31.791  37.210  1.00  0.00     0.031 C 
ATOM     56  C   UNL A   1      43.328  27.892  32.766  1.00  0.00     0.029 A 
ATOM     57  C   UNL A   1      42.745  28.916  33.496  1.00  0.00     0.049 A 
ATOM     58  H   UNL A   1      41.102  30.138  32.992  1.00  0.00     0.167 HD
ATOM     59  C   UNL A   1      42.465  30.405  35.455  1.00  0.00     0.074 A 
ATOM     60  C   UNL A   1      42.795  30.848  36.793  1.00  0.00     0.031 C 
ATOM     61  C   UNL A   1      43.102  29.400  34.805  1.00  0.00     0.034 A 
BRANCH  48  62
ATOM     62  C   UNL A   1      40.658  28.040  29.298  1.00  0.00     0.023 A 
ATOM     63  C   UNL A   1      39.767  26.951  29.217  1.00  0.00     0.012 A 
ATOM     64  C   UNL A   1      41.515  28.315  28.215  1.00  0.00     0.148 A 
ATOM     65  C   UNL A   1      39.749  26.130  28.088  1.00  0.00     0.002 A 
ATOM     66  C   UNL A   1      41.463  27.518  27.077  1.00  0.00     0.091 A 
ATOM     67  F   UNL A   1      42.372  29.341  28.321  1.00  0.00    -0.205 F 
ATOM     68  C   UNL A   1      40.590  26.420  27.016  1.00  0.00     0.022 A 
BRANCH  66  69
ATOM     69  S   UNL A   1      42.452  27.855  25.616  1.00  0.00     0.127 S 
ATOM     70  O   UNL A   1      42.159  26.689  24.785  1.00  0.00    -0.237 OA
ATOM     71  O   UNL A   1      41.872  29.109  25.132  1.00  0.00    -0.237 OA
ATOM     72  O   UNL A   1      43.828  27.964  26.080  1.00  0.00    -0.744 OA
ENDBRANCH  66  69
ENDBRANCH  48  62
BRANCH  49  73
ATOM     73  C   UNL A   1      39.966  33.942  37.312  1.00  0.00     0.023 A 
ATOM     74  C   UNL A   1      40.559  35.219  37.349  1.00  0.00     0.012 A 
ATOM     75  C   UNL A   1      39.240  33.489  38.432  1.00  0.00     0.148 A 
ATOM     76  C   UNL A   1      40.455  36.018  38.488  1.00  0.00     0.002 A 
ATOM     77  C   UNL A   1      39.094  34.312  39.542  1.00  0.00     0.091 A 
ATOM     78  F   UNL A   1      38.703  32.262  38.385  1.00  0.00    -0.205 F 
ATOM     79  C   UNL A   1      39.714  35.570  39.580  1.00  0.00     0.022 A 
BRANCH  77  80
ATOM     80  S   UNL A   1      38.057  33.864  40.938  1.00  0.00     0.127 S 
ATOM     81  O   UNL A   1      36.820  33.460  40.275  1.00  0.00    -0.237 OA
ATOM     82  O   UNL A   1      38.817  32.770  41.543  1.00  0.00    -0.237 OA
ATOM     83  O   UNL A   1      37.969  35.061  41.764  1.00  0.00    -0.744 OA
ENDBRANCH  77  80
ENDBRANCH  49  73
BRANCH  61  84
ATOM     84  C   UNL A   1      44.249  28.720  35.511  1.00  0.00     0.023 A 
ATOM     85  C   UNL A   1      45.562  29.197  35.333  1.00  0.00     0.012 A 
ATOM     86  C   UNL A   1      44.014  27.663  36.413  1.00  0.00     0.148 A 
ATOM     87  C   UNL A   1      46.628  28.616  36.021  1.00  0.00     0.002 A 
ATOM     88  C   UNL A   1      45.073  27.119  37.130  1.00  0.00     0.091 A 
ATOM     89  F   UNL A   1      42.760  27.210  36.557  1.00  0.00    -0.205 F 
ATOM     90  C   UNL A   1      46.383  27.586  36.926  1.00  0.00     0.022 A 
BRANCH  88  91
ATOM     91  S   UNL A   1      44.840  25.858  38.387  1.00  0.00     0.127 S 
ATOM     92  O   UNL A   1      43.947  26.533  39.326  1.00  0.00    -0.237 OA
ATOM     93  O   UNL A   1      44.218  24.772  37.628  1.00  0.00    -0.237 OA
ATOM     94  O   UNL A   1      46.169  25.551  38.899  1.00  0.00    -0.744 OA
ENDBRANCH  88  91
ENDBRANCH  61  84
ENDBRANCH  35  36
ENDBRANCH  28  30
ENDBRANCH  27  28
ENDBRANCH  26  27
ENDBRANCH  25  26
ENDBRANCH  24  25
ENDBRANCH  23  24
ENDBRANCH   1  23
TORSDOF 23
ENDMDL
