MODEL 1
REMARK VINA RESULT:     -12.0      0.000      0.000
REMARK SMILES O=C(OCCOCCOC(=O)[C@@H]1CC2(CC[NH2+]CC2)C[N@@H+]1Cc1cccc2nonc12)c1ccc(-c2c3nc(c(-c4cccc(S(=O)(=O)[O-])c4F)c4ccc([nH]4)c(-c4cccc(S(=O)(=O)[O-])c4F)c4nc(c(-c5cccc(S(=O)(=O)[O-])c5F)c5ccc2[nH]5)C=C4)C=C3)cc1
REMARK SMILES IDX 5 1 4 2 3 3 2 4 1 5 32 6 33 7 94 8 34 9 93 10 35 11 36 12
REMARK SMILES IDX 37 13 87 14 38 15 92 16 86 17 88 18 39 19 91 20 85 21 84 22
REMARK SMILES IDX 40 24 72 25 52 26 71 27 53 28 56 29 70 30 89 31 54 32 55 33
REMARK SMILES IDX 69 35 90 36 57 37 41 38 42 39 50 40 43 41 45 42 51 43 44 44
REMARK SMILES IDX 46 45 47 46 48 47 49 48 73 49 74 50 82 51 75 52 77 53 83 54
REMARK SMILES IDX 76 55 78 56 79 57 80 58 81 59 58 60 59 61 67 62 60 63 62 64
REMARK SMILES IDX 68 65 61 66 63 67 64 68 65 69 66 70 6 71 7 72 8 73 9 74
REMARK SMILES IDX 10 75 11 76 12 77 13 78 21 79 14 80 20 81 15 83 19 84 16 85
REMARK SMILES IDX 18 86 17 87 22 90 23 91 24 92 31 93 25 94 27 95 30 96 26 97
REMARK SMILES IDX 28 98 29 99
REMARK H PARENT 88 23 56 34 21 82 17 88 17 89
REMARK Flexibility Score: inf
ROOT
ATOM      1  C   UNL A   1      34.318  22.499  24.062  1.00  0.00     0.202 C 
ENDROOT
BRANCH   1   2
ATOM      2  C   UNL A   1      35.557  23.313  24.419  1.00  0.00     0.261 C 
BRANCH   2   3
ATOM      3  O   UNL A   1      35.984  22.939  25.743  1.00  0.00    -0.460 OA
BRANCH   3   4
ATOM      4  C   UNL A   1      37.076  22.129  25.758  1.00  0.00     0.338 C 
ATOM      5  O   UNL A   1      37.060  20.919  25.578  1.00  0.00    -0.246 OA
BRANCH   4   6
ATOM      6  C   UNL A   1      38.292  22.899  26.131  1.00  0.00     0.060 A 
ATOM      7  C   UNL A   1      39.540  22.266  26.176  1.00  0.00     0.016 A 
ATOM      8  C   UNL A   1      38.176  24.213  26.586  1.00  0.00     0.016 A 
ATOM      9  C   UNL A   1      40.664  22.967  26.634  1.00  0.00     0.010 A 
ATOM     10  C   UNL A   1      39.271  24.875  27.112  1.00  0.00     0.010 A 
ATOM     11  C   UNL A   1      40.540  24.289  27.094  1.00  0.00    -0.014 A 
BRANCH  11  12
ATOM     12  C   UNL A   1      41.738  25.130  27.364  1.00  0.00     0.031 A 
ATOM     13  C   UNL A   1      41.401  26.561  27.755  1.00  0.00     0.074 A 
ATOM     14  C   UNL A   1      42.867  24.539  27.807  1.00  0.00     0.049 A 
ATOM     15  N   UNL A   1      41.263  27.058  28.953  1.00  0.00    -0.248 NA
ATOM     16  C   UNL A   1      40.874  27.442  26.701  1.00  0.00     0.031 C 
ATOM     17  C   UNL A   1      42.996  23.900  29.117  1.00  0.00     0.029 A 
ATOM     18  N   UNL A   1      44.171  24.738  27.385  1.00  0.00    -0.354 N 
ATOM     19  C   UNL A   1      40.592  28.278  28.825  1.00  0.00     0.074 A 
ATOM     20  C   UNL A   1      40.358  28.455  27.408  1.00  0.00     0.031 C 
ATOM     21  C   UNL A   1      44.299  23.879  29.461  1.00  0.00     0.029 A 
ATOM     22  C   UNL A   1      45.100  24.483  28.394  1.00  0.00     0.049 A 
ATOM     23  H   UNL A   1      44.414  25.027  26.475  1.00  0.00     0.167 HD
ATOM     24  C   UNL A   1      40.253  29.103  29.861  1.00  0.00     0.034 A 
ATOM     25  C   UNL A   1      46.263  25.186  28.550  1.00  0.00     0.034 A 
ATOM     26  C   UNL A   1      40.728  28.721  31.159  1.00  0.00     0.049 A 
ATOM     27  C   UNL A   1      45.801  26.277  29.491  1.00  0.00     0.074 A 
ATOM     28  C   UNL A   1      40.250  28.431  32.419  1.00  0.00     0.029 A 
ATOM     29  N   UNL A   1      42.083  28.729  31.359  1.00  0.00    -0.354 N 
ATOM     30  N   UNL A   1      45.540  26.163  30.768  1.00  0.00    -0.248 NA
ATOM     31  C   UNL A   1      45.189  27.435  28.841  1.00  0.00     0.031 C 
ATOM     32  C   UNL A   1      41.297  27.673  33.048  1.00  0.00     0.029 A 
ATOM     33  C   UNL A   1      42.402  27.702  32.203  1.00  0.00     0.049 A 
ATOM     34  H   UNL A   1      42.720  29.368  30.962  1.00  0.00     0.167 HD
ATOM     35  C   UNL A   1      44.462  27.024  30.994  1.00  0.00     0.074 A 
ATOM     36  C   UNL A   1      44.314  27.788  29.770  1.00  0.00     0.031 C 
ATOM     37  C   UNL A   1      43.640  26.963  32.086  1.00  0.00     0.034 A 
BRANCH  24  38
ATOM     38  C   UNL A   1      39.665  30.461  29.688  1.00  0.00     0.023 A 
ATOM     39  C   UNL A   1      40.469  31.532  30.128  1.00  0.00     0.012 A 
ATOM     40  C   UNL A   1      38.328  30.709  29.324  1.00  0.00     0.148 A 
ATOM     41  C   UNL A   1      39.953  32.818  30.250  1.00  0.00     0.002 A 
ATOM     42  C   UNL A   1      37.816  32.004  29.445  1.00  0.00     0.091 A 
ATOM     43  F   UNL A   1      37.570  29.682  28.916  1.00  0.00    -0.205 F 
ATOM     44  C   UNL A   1      38.625  33.053  29.918  1.00  0.00     0.022 A 
BRANCH  42  45
ATOM     45  S   UNL A   1      36.109  32.443  29.079  1.00  0.00     0.127 S 
ATOM     46  O   UNL A   1      35.385  31.781  30.163  1.00  0.00    -0.237 OA
ATOM     47  O   UNL A   1      36.145  33.903  29.173  1.00  0.00    -0.237 OA
ATOM     48  O   UNL A   1      35.840  31.926  27.744  1.00  0.00    -0.744 OA
ENDBRANCH  42  45
ENDBRANCH  24  38
BRANCH  25  49
ATOM     49  C   UNL A   1      47.069  25.448  27.303  1.00  0.00     0.023 A 
ATOM     50  C   UNL A   1      46.712  24.699  26.155  1.00  0.00     0.012 A 
ATOM     51  C   UNL A   1      48.113  26.384  27.164  1.00  0.00     0.148 A 
ATOM     52  C   UNL A   1      47.256  24.968  24.899  1.00  0.00     0.002 A 
ATOM     53  C   UNL A   1      48.626  26.683  25.898  1.00  0.00     0.091 A 
ATOM     54  F   UNL A   1      48.589  27.000  28.252  1.00  0.00    -0.205 F 
ATOM     55  C   UNL A   1      48.188  25.986  24.765  1.00  0.00     0.022 A 
BRANCH  53  56
ATOM     56  S   UNL A   1      49.812  28.007  25.615  1.00  0.00     0.127 S 
ATOM     57  O   UNL A   1      49.976  27.968  24.163  1.00  0.00    -0.237 OA
ATOM     58  O   UNL A   1      49.076  29.165  26.121  1.00  0.00    -0.237 OA
ATOM     59  O   UNL A   1      51.000  27.642  26.373  1.00  0.00    -0.744 OA
ENDBRANCH  53  56
ENDBRANCH  25  49
BRANCH  37  60
ATOM     60  C   UNL A   1      44.027  26.004  33.171  1.00  0.00     0.023 A 
ATOM     61  C   UNL A   1      43.908  24.632  32.889  1.00  0.00     0.012 A 
ATOM     62  C   UNL A   1      44.564  26.402  34.414  1.00  0.00     0.148 A 
ATOM     63  C   UNL A   1      44.326  23.674  33.807  1.00  0.00     0.002 A 
ATOM     64  C   UNL A   1      44.984  25.436  35.331  1.00  0.00     0.091 A 
ATOM     65  F   UNL A   1      44.691  27.709  34.672  1.00  0.00    -0.205 F 
ATOM     66  C   UNL A   1      44.868  24.074  35.024  1.00  0.00     0.022 A 
BRANCH  64  67
ATOM     67  S   UNL A   1      45.676  25.845  36.941  1.00  0.00     0.127 S 
ATOM     68  O   UNL A   1      44.589  26.593  37.582  1.00  0.00    -0.237 OA
ATOM     69  O   UNL A   1      45.915  24.524  37.519  1.00  0.00    -0.237 OA
ATOM     70  O   UNL A   1      46.851  26.657  36.666  1.00  0.00    -0.744 OA
ENDBRANCH  64  67
ENDBRANCH  37  60
ENDBRANCH  11  12
ENDBRANCH   4   6
ENDBRANCH   3   4
ENDBRANCH   2   3
ENDBRANCH   1   2
BRANCH   1  71
ATOM     71  O   UNL A   1      33.670  22.067  25.250  1.00  0.00    -0.374 OA
BRANCH  71  72
ATOM     72  C   UNL A   1      32.254  22.021  25.241  1.00  0.00     0.202 C 
BRANCH  72  73
ATOM     73  C   UNL A   1      31.739  23.066  24.263  1.00  0.00     0.261 C 
BRANCH  73  74
ATOM     74  O   UNL A   1      30.712  23.892  24.848  1.00  0.00    -0.459 OA
BRANCH  74  75
ATOM     75  C   UNL A   1      31.162  25.048  25.427  1.00  0.00     0.365 C 
ATOM     76  O   UNL A   1      30.744  25.517  26.466  1.00  0.00    -0.245 OA
BRANCH  75  77
ATOM     77  C   UNL A   1      32.326  25.626  24.630  1.00  0.00     0.296 C 
ATOM     78  C   UNL A   1      33.245  26.403  25.580  1.00  0.00     0.091 C 
ATOM     79  N   UNL A   1      31.972  26.596  23.590  1.00  0.00    -0.319 N 
ATOM     80  C   UNL A   1      32.920  27.901  25.379  1.00  0.00     0.036 C 
ATOM     81  C   UNL A   1      32.397  27.942  23.930  1.00  0.00     0.270 C 
ATOM     82  H   UNL A   1      32.553  26.313  22.801  1.00  0.00     0.349 HD
ATOM     83  C   UNL A   1      34.181  28.775  25.531  1.00  0.00     0.074 C 
ATOM     84  C   UNL A   1      31.870  28.455  26.378  1.00  0.00     0.074 C 
ATOM     85  C   UNL A   1      34.656  28.858  26.982  1.00  0.00     0.261 C 
ATOM     86  C   UNL A   1      32.402  28.575  27.808  1.00  0.00     0.261 C 
ATOM     87  N   UNL A   1      33.626  29.380  27.875  1.00  0.00    -0.346 N 
ATOM     88  H   UNL A   1      33.407  30.338  27.604  1.00  0.00     0.346 HD
ATOM     89  H   UNL A   1      33.981  29.346  28.831  1.00  0.00     0.346 HD
BRANCH  79  90
ATOM     90  C   UNL A   1      30.808  26.394  22.723  1.00  0.00     0.302 C 
BRANCH  90  91
ATOM     91  C   UNL A   1      29.601  27.227  23.052  1.00  0.00     0.038 A 
ATOM     92  C   UNL A   1      28.536  26.740  23.848  1.00  0.00     0.012 A 
ATOM     93  C   UNL A   1      29.319  28.490  22.469  1.00  0.00     0.144 A 
ATOM     94  C   UNL A   1      27.264  27.354  23.923  1.00  0.00     0.003 A 
ATOM     95  C   UNL A   1      28.016  29.137  22.585  1.00  0.00     0.135 A 
ATOM     96  N   UNL A   1      30.087  29.239  21.665  1.00  0.00    -0.049 NA
ATOM     97  C   UNL A   1      26.959  28.580  23.314  1.00  0.00     0.034 A 
ATOM     98  N   UNL A   1      28.024  30.238  21.826  1.00  0.00    -0.050 NA
ATOM     99  O   UNL A   1      29.325  30.362  21.367  1.00  0.00    -0.243 OA
ENDBRANCH  90  91
ENDBRANCH  79  90
ENDBRANCH  75  77
ENDBRANCH  74  75
ENDBRANCH  73  74
ENDBRANCH  72  73
ENDBRANCH  71  72
ENDBRANCH   1  71
TORSDOF 19
ENDMDL
MODEL 2
REMARK VINA RESULT:     -11.8      3.418      5.279
REMARK SMILES O=C(OCCOCCOC(=O)[C@@H]1CC2(CC[NH2+]CC2)C[N@@H+]1Cc1cccc2nonc12)c1ccc(-c2c3nc(c(-c4cccc(S(=O)(=O)[O-])c4F)c4ccc([nH]4)c(-c4cccc(S(=O)(=O)[O-])c4F)c4nc(c(-c5cccc(S(=O)(=O)[O-])c5F)c5ccc2[nH]5)C=C4)C=C3)cc1
REMARK SMILES IDX 5 1 4 2 3 3 2 4 1 5 32 6 33 7 94 8 34 9 93 10 35 11 36 12
REMARK SMILES IDX 37 13 87 14 38 15 92 16 86 17 88 18 39 19 91 20 85 21 84 22
REMARK SMILES IDX 40 24 72 25 52 26 71 27 53 28 56 29 70 30 89 31 54 32 55 33
REMARK SMILES IDX 69 35 90 36 57 37 41 38 42 39 50 40 43 41 45 42 51 43 44 44
REMARK SMILES IDX 46 45 47 46 48 47 49 48 73 49 74 50 82 51 75 52 77 53 83 54
REMARK SMILES IDX 76 55 78 56 79 57 80 58 81 59 58 60 59 61 67 62 60 63 62 64
REMARK SMILES IDX 68 65 61 66 63 67 64 68 65 69 66 70 6 71 7 72 8 73 9 74
REMARK SMILES IDX 10 75 11 76 12 77 13 78 21 79 14 80 20 81 15 83 19 84 16 85
REMARK SMILES IDX 18 86 17 87 22 90 23 91 24 92 31 93 25 94 27 95 30 96 26 97
REMARK SMILES IDX 28 98 29 99
REMARK H PARENT 88 23 56 34 21 82 17 88 17 89
REMARK Flexibility Score: inf
ROOT
ATOM      1  C   UNL A   1      38.133  21.873  25.161  1.00  0.00     0.202 C 
ENDROOT
BRANCH   1   2
ATOM      2  C   UNL A   1      39.351  21.281  25.861  1.00  0.00     0.261 C 
BRANCH   2   3
ATOM      3  O   UNL A   1      39.699  22.132  26.969  1.00  0.00    -0.460 OA
BRANCH   3   4
ATOM      4  C   UNL A   1      41.009  22.499  26.986  1.00  0.00     0.338 C 
ATOM      5  O   UNL A   1      41.957  21.740  26.846  1.00  0.00    -0.246 OA
BRANCH   4   6
ATOM      6  C   UNL A   1      41.141  23.945  27.308  1.00  0.00     0.060 A 
ATOM      7  C   UNL A   1      40.103  24.619  27.961  1.00  0.00     0.016 A 
ATOM      8  C   UNL A   1      42.230  24.673  26.825  1.00  0.00     0.016 A 
ATOM      9  C   UNL A   1      40.185  26.003  28.164  1.00  0.00     0.010 A 
ATOM     10  C   UNL A   1      42.270  26.050  26.957  1.00  0.00     0.010 A 
ATOM     11  C   UNL A   1      41.282  26.731  27.673  1.00  0.00    -0.014 A 
BRANCH  11  12
ATOM     12  C   UNL A   1      41.511  28.147  28.070  1.00  0.00     0.031 A 
ATOM     13  C   UNL A   1      40.232  28.963  28.176  1.00  0.00     0.074 A 
ATOM     14  C   UNL A   1      42.591  28.451  28.821  1.00  0.00     0.049 A 
ATOM     15  N   UNL A   1      39.506  29.190  29.236  1.00  0.00    -0.248 NA
ATOM     16  C   UNL A   1      39.542  29.303  26.922  1.00  0.00     0.031 C 
ATOM     17  C   UNL A   1      42.775  28.013  30.204  1.00  0.00     0.029 A 
ATOM     18  N   UNL A   1      43.491  29.491  28.660  1.00  0.00    -0.354 N 
ATOM     19  C   UNL A   1      38.259  29.647  28.799  1.00  0.00     0.074 A 
ATOM     20  C   UNL A   1      38.332  29.677  27.354  1.00  0.00     0.031 C 
ATOM     21  C   UNL A   1      43.627  28.859  30.815  1.00  0.00     0.029 A 
ATOM     22  C   UNL A   1      44.066  29.887  29.868  1.00  0.00     0.049 A 
ATOM     23  H   UNL A   1      43.701  29.904  27.791  1.00  0.00     0.167 HD
ATOM     24  C   UNL A   1      37.216  29.988  29.614  1.00  0.00     0.034 A 
ATOM     25  C   UNL A   1      44.389  31.182  30.167  1.00  0.00     0.034 A 
ATOM     26  C   UNL A   1      37.480  29.973  31.024  1.00  0.00     0.049 A 
ATOM     27  C   UNL A   1      43.107  31.641  30.826  1.00  0.00     0.074 A 
ATOM     28  C   UNL A   1      37.016  29.388  32.182  1.00  0.00     0.029 A 
ATOM     29  N   UNL A   1      38.386  30.882  31.502  1.00  0.00    -0.354 N 
ATOM     30  N   UNL A   1      42.677  31.330  32.022  1.00  0.00    -0.248 NA
ATOM     31  C   UNL A   1      42.073  32.112  29.905  1.00  0.00     0.031 C 
ATOM     32  C   UNL A   1      38.099  29.506  33.118  1.00  0.00     0.029 A 
ATOM     33  C   UNL A   1      39.077  30.303  32.530  1.00  0.00     0.049 A 
ATOM     34  H   UNL A   1      38.516  31.798  31.164  1.00  0.00     0.167 HD
ATOM     35  C   UNL A   1      41.288  31.234  31.892  1.00  0.00     0.074 A 
ATOM     36  C   UNL A   1      40.987  31.748  30.569  1.00  0.00     0.031 C 
ATOM     37  C   UNL A   1      40.471  30.593  32.782  1.00  0.00     0.034 A 
BRANCH  24  38
ATOM     38  C   UNL A   1      35.948  30.604  29.132  1.00  0.00     0.023 A 
ATOM     39  C   UNL A   1      35.254  29.874  28.146  1.00  0.00     0.012 A 
ATOM     40  C   UNL A   1      35.534  31.915  29.436  1.00  0.00     0.148 A 
ATOM     41  C   UNL A   1      34.197  30.440  27.440  1.00  0.00     0.002 A 
ATOM     42  C   UNL A   1      34.469  32.476  28.726  1.00  0.00     0.091 A 
ATOM     43  F   UNL A   1      36.207  32.604  30.368  1.00  0.00    -0.205 F 
ATOM     44  C   UNL A   1      33.810  31.743  27.723  1.00  0.00     0.022 A 
BRANCH  42  45
ATOM     45  S   UNL A   1      33.883  34.162  28.969  1.00  0.00     0.127 S 
ATOM     46  O   UNL A   1      34.980  34.949  28.408  1.00  0.00    -0.237 OA
ATOM     47  O   UNL A   1      32.655  34.173  28.172  1.00  0.00    -0.237 OA
ATOM     48  O   UNL A   1      33.679  34.312  30.403  1.00  0.00    -0.744 OA
ENDBRANCH  42  45
ENDBRANCH  24  38
BRANCH  25  49
ATOM     49  C   UNL A   1      45.101  31.966  29.094  1.00  0.00     0.023 A 
ATOM     50  C   UNL A   1      46.515  31.994  29.169  1.00  0.00     0.012 A 
ATOM     51  C   UNL A   1      44.499  32.641  28.013  1.00  0.00     0.148 A 
ATOM     52  C   UNL A   1      47.299  32.531  28.147  1.00  0.00     0.002 A 
ATOM     53  C   UNL A   1      45.284  33.140  26.970  1.00  0.00     0.091 A 
ATOM     54  F   UNL A   1      43.168  32.775  27.985  1.00  0.00    -0.205 F 
ATOM     55  C   UNL A   1      46.682  33.073  27.029  1.00  0.00     0.022 A 
BRANCH  53  56
ATOM     56  S   UNL A   1      44.580  33.830  25.463  1.00  0.00     0.127 S 
ATOM     57  O   UNL A   1      43.839  32.692  24.921  1.00  0.00    -0.237 OA
ATOM     58  O   UNL A   1      43.749  34.906  26.000  1.00  0.00    -0.237 OA
ATOM     59  O   UNL A   1      45.715  34.259  24.658  1.00  0.00    -0.744 OA
ENDBRANCH  53  56
ENDBRANCH  25  49
BRANCH  37  60
ATOM     60  C   UNL A   1      41.106  30.101  34.049  1.00  0.00     0.023 A 
ATOM     61  C   UNL A   1      41.385  31.056  35.040  1.00  0.00     0.012 A 
ATOM     62  C   UNL A   1      41.365  28.740  34.318  1.00  0.00     0.148 A 
ATOM     63  C   UNL A   1      41.895  30.675  36.278  1.00  0.00     0.002 A 
ATOM     64  C   UNL A   1      41.873  28.362  35.562  1.00  0.00     0.091 A 
ATOM     65  F   UNL A   1      41.081  27.831  33.377  1.00  0.00    -0.205 F 
ATOM     66  C   UNL A   1      42.133  29.330  36.542  1.00  0.00     0.022 A 
BRANCH  64  67
ATOM     67  S   UNL A   1      42.241  26.655  35.996  1.00  0.00     0.127 S 
ATOM     68  O   UNL A   1      40.952  25.984  35.803  1.00  0.00    -0.237 OA
ATOM     69  O   UNL A   1      43.256  26.296  35.007  1.00  0.00    -0.237 OA
ATOM     70  O   UNL A   1      42.671  26.690  37.386  1.00  0.00    -0.744 OA
ENDBRANCH  64  67
ENDBRANCH  37  60
ENDBRANCH  11  12
ENDBRANCH   4   6
ENDBRANCH   3   4
ENDBRANCH   2   3
ENDBRANCH   1   2
BRANCH   1  71
ATOM     71  O   UNL A   1      37.042  21.937  26.068  1.00  0.00    -0.374 OA
BRANCH  71  72
ATOM     72  C   UNL A   1      36.308  23.147  26.120  1.00  0.00     0.202 C 
BRANCH  72  73
ATOM     73  C   UNL A   1      35.054  22.920  26.951  1.00  0.00     0.261 C 
BRANCH  73  74
ATOM     74  O   UNL A   1      34.004  23.845  26.607  1.00  0.00    -0.459 OA
BRANCH  74  75
ATOM     75  C   UNL A   1      32.735  23.339  26.700  1.00  0.00     0.365 C 
ATOM     76  O   UNL A   1      32.197  22.990  27.731  1.00  0.00    -0.245 OA
BRANCH  75  77
ATOM     77  C   UNL A   1      32.054  23.353  25.336  1.00  0.00     0.296 C 
ATOM     78  C   UNL A   1      31.782  21.909  24.898  1.00  0.00     0.091 C 
ATOM     79  N   UNL A   1      32.835  23.926  24.235  1.00  0.00    -0.319 N 
ATOM     80  C   UNL A   1      32.879  21.545  23.873  1.00  0.00     0.036 C 
ATOM     81  C   UNL A   1      33.257  22.916  23.282  1.00  0.00     0.270 C 
ATOM     82  H   UNL A   1      32.154  24.504  23.745  1.00  0.00     0.349 HD
ATOM     83  C   UNL A   1      32.336  20.606  22.777  1.00  0.00     0.074 C 
ATOM     84  C   UNL A   1      34.111  20.837  24.497  1.00  0.00     0.074 C 
ATOM     85  C   UNL A   1      32.068  19.196  23.305  1.00  0.00     0.261 C 
ATOM     86  C   UNL A   1      33.815  19.408  24.961  1.00  0.00     0.261 C 
ATOM     87  N   UNL A   1      33.259  18.583  23.883  1.00  0.00    -0.346 N 
ATOM     88  H   UNL A   1      33.963  18.473  23.154  1.00  0.00     0.346 HD
ATOM     89  H   UNL A   1      32.997  17.678  24.274  1.00  0.00     0.346 HD
BRANCH  79  90
ATOM     90  C   UNL A   1      33.638  25.138  24.420  1.00  0.00     0.302 C 
BRANCH  90  91
ATOM     91  C   UNL A   1      32.883  26.435  24.350  1.00  0.00     0.038 A 
ATOM     92  C   UNL A   1      32.788  27.320  25.451  1.00  0.00     0.012 A 
ATOM     93  C   UNL A   1      32.054  26.819  23.263  1.00  0.00     0.144 A 
ATOM     94  C   UNL A   1      31.850  28.374  25.535  1.00  0.00     0.003 A 
ATOM     95  C   UNL A   1      31.117  27.935  23.343  1.00  0.00     0.135 A 
ATOM     96  N   UNL A   1      31.891  26.221  22.074  1.00  0.00    -0.049 NA
ATOM     97  C   UNL A   1      30.994  28.736  24.485  1.00  0.00     0.034 A 
ATOM     98  N   UNL A   1      30.396  27.961  22.218  1.00  0.00    -0.050 NA
ATOM     99  O   UNL A   1      30.954  26.994  21.398  1.00  0.00    -0.243 OA
ENDBRANCH  90  91
ENDBRANCH  79  90
ENDBRANCH  75  77
ENDBRANCH  74  75
ENDBRANCH  73  74
ENDBRANCH  72  73
ENDBRANCH  71  72
ENDBRANCH   1  71
TORSDOF 19
ENDMDL
MODEL 3
REMARK VINA RESULT:     -11.8      3.471      5.216
REMARK SMILES O=C(OCCOCCOC(=O)[C@@H]1CC2(CC[NH2+]CC2)C[N@@H+]1Cc1cccc2nonc12)c1ccc(-c2c3nc(c(-c4cccc(S(=O)(=O)[O-])c4F)c4ccc([nH]4)c(-c4cccc(S(=O)(=O)[O-])c4F)c4nc(c(-c5cccc(S(=O)(=O)[O-])c5F)c5ccc2[nH]5)C=C4)C=C3)cc1
REMARK SMILES IDX 5 1 4 2 3 3 2 4 1 5 32 6 33 7 94 8 34 9 93 10 35 11 36 12
REMARK SMILES IDX 37 13 87 14 38 15 92 16 86 17 88 18 39 19 91 20 85 21 84 22
REMARK SMILES IDX 40 24 72 25 52 26 71 27 53 28 56 29 70 30 89 31 54 32 55 33
REMARK SMILES IDX 69 35 90 36 57 37 41 38 42 39 50 40 43 41 45 42 51 43 44 44
REMARK SMILES IDX 46 45 47 46 48 47 49 48 73 49 74 50 82 51 75 52 77 53 83 54
REMARK SMILES IDX 76 55 78 56 79 57 80 58 81 59 58 60 59 61 67 62 60 63 62 64
REMARK SMILES IDX 68 65 61 66 63 67 64 68 65 69 66 70 6 71 7 72 8 73 9 74
REMARK SMILES IDX 10 75 11 76 12 77 13 78 21 79 14 80 20 81 15 83 19 84 16 85
REMARK SMILES IDX 18 86 17 87 22 90 23 91 24 92 31 93 25 94 27 95 30 96 26 97
REMARK SMILES IDX 28 98 29 99
REMARK H PARENT 88 23 56 34 21 82 17 88 17 89
REMARK Flexibility Score: inf
ROOT
ATOM      1  C   UNL A   1      36.445  21.387  25.085  1.00  0.00     0.202 C 
ENDROOT
BRANCH   1   2
ATOM      2  C   UNL A   1      37.952  21.377  25.320  1.00  0.00     0.261 C 
BRANCH   2   3
ATOM      3  O   UNL A   1      38.313  22.581  26.022  1.00  0.00    -0.460 OA
BRANCH   3   4
ATOM      4  C   UNL A   1      39.581  22.568  26.515  1.00  0.00     0.338 C 
ATOM      5  O   UNL A   1      40.253  21.565  26.706  1.00  0.00    -0.246 OA
BRANCH   4   6
ATOM      6  C   UNL A   1      40.008  23.941  26.893  1.00  0.00     0.060 A 
ATOM      7  C   UNL A   1      41.260  24.424  26.495  1.00  0.00     0.016 A 
ATOM      8  C   UNL A   1      39.233  24.697  27.775  1.00  0.00     0.016 A 
ATOM      9  C   UNL A   1      41.704  25.674  26.947  1.00  0.00     0.010 A 
ATOM     10  C   UNL A   1      39.709  25.894  28.281  1.00  0.00     0.010 A 
ATOM     11  C   UNL A   1      40.921  26.429  27.836  1.00  0.00    -0.014 A 
BRANCH  11  12
ATOM     12  C   UNL A   1      41.252  27.846  28.147  1.00  0.00     0.031 A 
ATOM     13  C   UNL A   1      40.032  28.752  28.229  1.00  0.00     0.074 A 
ATOM     14  C   UNL A   1      42.365  28.119  28.860  1.00  0.00     0.049 A 
ATOM     15  N   UNL A   1      39.346  29.087  29.286  1.00  0.00    -0.248 NA
ATOM     16  C   UNL A   1      39.340  29.067  26.969  1.00  0.00     0.031 C 
ATOM     17  C   UNL A   1      42.549  27.748  30.262  1.00  0.00     0.029 A 
ATOM     18  N   UNL A   1      43.328  29.085  28.624  1.00  0.00    -0.354 N 
ATOM     19  C   UNL A   1      38.123  29.601  28.846  1.00  0.00     0.074 A 
ATOM     20  C   UNL A   1      38.166  29.545  27.401  1.00  0.00     0.031 C 
ATOM     21  C   UNL A   1      43.468  28.568  30.809  1.00  0.00     0.029 A 
ATOM     22  C   UNL A   1      43.954  29.508  29.797  1.00  0.00     0.049 A 
ATOM     23  H   UNL A   1      43.547  29.434  27.729  1.00  0.00     0.167 HD
ATOM     24  C   UNL A   1      37.122  30.057  29.658  1.00  0.00     0.034 A 
ATOM     25  C   UNL A   1      44.368  30.793  30.015  1.00  0.00     0.034 A 
ATOM     26  C   UNL A   1      37.414  30.104  31.062  1.00  0.00     0.049 A 
ATOM     27  C   UNL A   1      43.134  31.374  30.669  1.00  0.00     0.074 A 
ATOM     28  C   UNL A   1      36.937  29.616  32.259  1.00  0.00     0.029 A 
ATOM     29  N   UNL A   1      38.388  30.975  31.471  1.00  0.00    -0.354 N 
ATOM     30  N   UNL A   1      42.710  31.161  31.889  1.00  0.00    -0.248 NA
ATOM     31  C   UNL A   1      42.114  31.861  29.742  1.00  0.00     0.031 C 
ATOM     32  C   UNL A   1      38.046  29.713  33.168  1.00  0.00     0.029 A 
ATOM     33  C   UNL A   1      39.061  30.409  32.518  1.00  0.00     0.049 A 
ATOM     34  H   UNL A   1      38.572  31.860  31.078  1.00  0.00     0.167 HD
ATOM     35  C   UNL A   1      41.315  31.151  31.789  1.00  0.00     0.074 A 
ATOM     36  C   UNL A   1      41.021  31.609  30.444  1.00  0.00     0.031 C 
ATOM     37  C   UNL A   1      40.476  30.618  32.729  1.00  0.00     0.034 A 
BRANCH  24  38
ATOM     38  C   UNL A   1      35.888  30.729  29.164  1.00  0.00     0.023 A 
ATOM     39  C   UNL A   1      35.225  30.080  28.102  1.00  0.00     0.012 A 
ATOM     40  C   UNL A   1      35.483  32.025  29.537  1.00  0.00     0.148 A 
ATOM     41  C   UNL A   1      34.212  30.713  27.390  1.00  0.00     0.002 A 
ATOM     42  C   UNL A   1      34.460  32.654  28.821  1.00  0.00     0.091 A 
ATOM     43  F   UNL A   1      36.125  32.637  30.542  1.00  0.00    -0.205 F 
ATOM     44  C   UNL A   1      33.835  32.002  27.742  1.00  0.00     0.022 A 
BRANCH  42  45
ATOM     45  S   UNL A   1      33.894  34.331  29.151  1.00  0.00     0.127 S 
ATOM     46  O   UNL A   1      34.950  35.135  28.537  1.00  0.00    -0.237 OA
ATOM     47  O   UNL A   1      32.614  34.363  28.441  1.00  0.00    -0.237 OA
ATOM     48  O   UNL A   1      33.789  34.441  30.599  1.00  0.00    -0.744 OA
ENDBRANCH  42  45
ENDBRANCH  24  38
BRANCH  25  49
ATOM     49  C   UNL A   1      45.108  31.467  28.887  1.00  0.00     0.023 A 
ATOM     50  C   UNL A   1      45.776  30.613  27.975  1.00  0.00     0.012 A 
ATOM     51  C   UNL A   1      45.168  32.853  28.637  1.00  0.00     0.148 A 
ATOM     52  C   UNL A   1      46.346  31.094  26.795  1.00  0.00     0.002 A 
ATOM     53  C   UNL A   1      45.701  33.328  27.435  1.00  0.00     0.091 A 
ATOM     54  F   UNL A   1      44.688  33.704  29.550  1.00  0.00    -0.205 F 
ATOM     55  C   UNL A   1      46.276  32.449  26.508  1.00  0.00     0.022 A 
BRANCH  53  56
ATOM     56  S   UNL A   1      45.629  35.061  26.955  1.00  0.00     0.127 S 
ATOM     57  O   UNL A   1      46.777  35.625  27.662  1.00  0.00    -0.237 OA
ATOM     58  O   UNL A   1      45.785  34.965  25.504  1.00  0.00    -0.237 OA
ATOM     59  O   UNL A   1      44.333  35.544  27.413  1.00  0.00    -0.744 OA
ENDBRANCH  53  56
ENDBRANCH  25  49
BRANCH  37  60
ATOM     60  C   UNL A   1      41.104  30.156  34.010  1.00  0.00     0.023 A 
ATOM     61  C   UNL A   1      41.344  31.129  34.995  1.00  0.00     0.012 A 
ATOM     62  C   UNL A   1      41.395  28.805  34.298  1.00  0.00     0.148 A 
ATOM     63  C   UNL A   1      41.844  30.774  36.245  1.00  0.00     0.002 A 
ATOM     64  C   UNL A   1      41.893  28.454  35.554  1.00  0.00     0.091 A 
ATOM     65  F   UNL A   1      41.149  27.879  33.363  1.00  0.00    -0.205 F 
ATOM     66  C   UNL A   1      42.113  29.439  36.527  1.00  0.00     0.022 A 
BRANCH  64  67
ATOM     67  S   UNL A   1      42.298  26.761  36.012  1.00  0.00     0.127 S 
ATOM     68  O   UNL A   1      43.397  26.431  35.101  1.00  0.00    -0.237 OA
ATOM     69  O   UNL A   1      42.702  26.908  37.410  1.00  0.00    -0.237 OA
ATOM     70  O   UNL A   1      41.090  25.990  35.763  1.00  0.00    -0.744 OA
ENDBRANCH  64  67
ENDBRANCH  37  60
ENDBRANCH  11  12
ENDBRANCH   4   6
ENDBRANCH   3   4
ENDBRANCH   2   3
ENDBRANCH   1   2
BRANCH   1  71
ATOM     71  O   UNL A   1      36.032  22.684  24.679  1.00  0.00    -0.374 OA
BRANCH  71  72
ATOM     72  C   UNL A   1      36.016  22.958  23.289  1.00  0.00     0.202 C 
BRANCH  72  73
ATOM     73  C   UNL A   1      34.571  23.012  22.820  1.00  0.00     0.261 C 
BRANCH  73  74
ATOM     74  O   UNL A   1      34.232  24.298  22.263  1.00  0.00    -0.459 OA
BRANCH  74  75
ATOM     75  C   UNL A   1      33.418  25.070  23.049  1.00  0.00     0.365 C 
ATOM     76  O   UNL A   1      33.709  25.497  24.147  1.00  0.00    -0.245 OA
BRANCH  75  77
ATOM     77  C   UNL A   1      32.122  25.395  22.315  1.00  0.00     0.296 C 
ATOM     78  C   UNL A   1      31.843  26.898  22.434  1.00  0.00     0.091 C 
ATOM     79  N   UNL A   1      30.911  24.757  22.839  1.00  0.00    -0.319 N 
ATOM     80  C   UNL A   1      30.765  27.060  23.529  1.00  0.00     0.036 C 
ATOM     81  C   UNL A   1      30.020  25.713  23.472  1.00  0.00     0.270 C 
ATOM     82  H   UNL A   1      30.429  24.446  21.996  1.00  0.00     0.349 HD
ATOM     83  C   UNL A   1      29.810  28.228  23.211  1.00  0.00     0.074 C 
ATOM     84  C   UNL A   1      31.342  27.330  24.944  1.00  0.00     0.074 C 
ATOM     85  C   UNL A   1      30.485  29.589  23.380  1.00  0.00     0.261 C 
ATOM     86  C   UNL A   1      31.959  28.724  25.089  1.00  0.00     0.261 C 
ATOM     87  N   UNL A   1      31.013  29.784  24.727  1.00  0.00    -0.346 N 
ATOM     88  H   UNL A   1      30.238  29.779  25.390  1.00  0.00     0.346 HD
ATOM     89  H   UNL A   1      31.506  30.677  24.752  1.00  0.00     0.346 HD
BRANCH  79  90
ATOM     90  C   UNL A   1      30.914  23.359  23.278  1.00  0.00     0.302 C 
BRANCH  90  91
ATOM     91  C   UNL A   1      31.319  23.127  24.706  1.00  0.00     0.038 A 
ATOM     92  C   UNL A   1      31.145  24.107  25.714  1.00  0.00     0.012 A 
ATOM     93  C   UNL A   1      32.063  22.004  25.153  1.00  0.00     0.144 A 
ATOM     94  C   UNL A   1      31.783  24.060  26.975  1.00  0.00     0.003 A 
ATOM     95  C   UNL A   1      32.684  21.946  26.473  1.00  0.00     0.135 A 
ATOM     96  N   UNL A   1      32.417  20.902  24.477  1.00  0.00    -0.049 NA
ATOM     97  C   UNL A   1      32.558  22.976  27.412  1.00  0.00     0.034 A 
ATOM     98  N   UNL A   1      33.417  20.830  26.544  1.00  0.00    -0.050 NA
ATOM     99  O   UNL A   1      33.153  20.137  25.375  1.00  0.00    -0.243 OA
ENDBRANCH  90  91
ENDBRANCH  79  90
ENDBRANCH  75  77
ENDBRANCH  74  75
ENDBRANCH  73  74
ENDBRANCH  72  73
ENDBRANCH  71  72
ENDBRANCH   1  71
TORSDOF 19
ENDMDL
