MODEL 1
REMARK VINA RESULT:      -7.5      0.000      0.000
REMARK SMILES CC[C@H]1SC[C@H](C(=O)OCCOCCOC(=O)c2ccc(-c3c4nc(c(-c5cccc(S(=O)(=O)[O-])c5F)c5ccc([nH]5)c(-c5cccc(S(=O)(=O)[O-])c5F)c5nc(c(-c6cccc(S(=O)(=O)[O-])c6F)c6ccc3[nH]6)C=C5)C=C4)cc2)N1C(=O)C[C@@H]1CSCC[NH2+]1
REMARK SMILES IDX 12 1 11 2 10 3 9 4 7 5 8 6 6 7 3 8 4 9 81 10 5 11 2 12 1 13
REMARK SMILES IDX 82 14 83 15 84 16 85 17 86 18 90 19 87 20 89 21 88 24 13 25
REMARK SMILES IDX 14 26 15 27 16 28 17 29 18 30 19 31 80 32 20 33 79 34 21 35
REMARK SMILES IDX 22 36 23 37 73 38 24 39 78 40 72 41 74 42 25 43 77 44 71 45
REMARK SMILES IDX 70 46 26 48 58 49 38 50 57 51 39 52 42 53 56 54 75 55 40 56
REMARK SMILES IDX 41 57 55 59 76 60 43 61 27 62 28 63 36 64 29 65 31 66 37 67
REMARK SMILES IDX 30 68 32 69 33 70 34 71 35 72 59 73 60 74 68 75 61 76 63 77
REMARK SMILES IDX 69 78 62 79 64 80 65 81 66 82 67 83 44 84 45 85 53 86 46 87
REMARK SMILES IDX 48 88 54 89 47 90 49 91 50 92 51 93 52 94
REMARK H PARENT 90 22 90 23 74 47 42 58
REMARK Flexibility Score: inf
ROOT
ATOM      1  O   UNL A   1      49.916  20.653  34.302  1.00  0.00    -0.374 OA
ENDROOT
BRANCH   1   2
ATOM      2  C   UNL A   1      48.824  20.019  33.628  1.00  0.00     0.202 C 
BRANCH   2   3
ATOM      3  C   UNL A   1      47.437  20.277  34.220  1.00  0.00     0.261 C 
BRANCH   3   4
ATOM      4  O   UNL A   1      47.327  21.631  34.699  1.00  0.00    -0.462 OA
BRANCH   4   5
ATOM      5  C   UNL A   1      46.062  22.080  34.902  1.00  0.00     0.329 C 
ATOM      6  O   UNL A   1      45.179  22.089  34.046  1.00  0.00    -0.250 OA
BRANCH   5   7
ATOM      7  C   UNL A   1      45.744  22.425  36.367  1.00  0.00     0.206 C 
ATOM      8  C   UNL A   1      46.872  23.122  38.457  1.00  0.00     0.144 C 
ATOM      9  S   UNL A   1      47.287  21.361  38.273  1.00  0.00    -0.134 SA
ATOM     10  N   UNL A   1      46.464  23.496  37.100  1.00  0.00    -0.316 N 
ATOM     11  C   UNL A   1      45.896  21.102  37.141  1.00  0.00     0.109 C 
BRANCH   8  12
ATOM     12  C   UNL A   1      45.704  23.196  39.476  1.00  0.00     0.033 C 
ATOM     13  C   UNL A   1      45.307  24.612  39.860  1.00  0.00     0.007 C 
ENDBRANCH   8  12
BRANCH  10  14
ATOM     14  C   UNL A   1      46.495  24.748  36.516  1.00  0.00     0.230 C 
ATOM     15  O   UNL A   1      47.475  25.481  36.667  1.00  0.00    -0.275 OA
BRANCH  14  16
ATOM     16  C   UNL A   1      45.322  25.248  35.697  1.00  0.00     0.166 C 
BRANCH  16  17
ATOM     17  C   UNL A   1      44.223  25.999  36.488  1.00  0.00     0.201 C 
ATOM     18  C   UNL A   1      43.049  25.171  37.057  1.00  0.00     0.135 C 
ATOM     19  N   UNL A   1      43.779  27.253  35.847  1.00  0.00    -0.342 N 
ATOM     20  S   UNL A   1      41.719  24.745  35.899  1.00  0.00    -0.150 SA
ATOM     21  C   UNL A   1      42.854  27.020  34.726  1.00  0.00     0.271 C 
ATOM     22  H   UNL A   1      44.600  27.748  35.495  1.00  0.00     0.346 HD
ATOM     23  H   UNL A   1      43.281  27.800  36.549  1.00  0.00     0.346 HD
ATOM     24  C   UNL A   1      41.523  26.382  35.133  1.00  0.00     0.131 C 
ENDBRANCH  16  17
ENDBRANCH  14  16
ENDBRANCH  10  14
ENDBRANCH   5   7
ENDBRANCH   4   5
ENDBRANCH   3   4
ENDBRANCH   2   3
ENDBRANCH   1   2
BRANCH   1  25
ATOM     25  C   UNL A   1      51.173  20.663  33.627  1.00  0.00     0.202 C 
BRANCH  25  26
ATOM     26  C   UNL A   1      51.709  22.032  33.201  1.00  0.00     0.261 C 
BRANCH  26  27
ATOM     27  O   UNL A   1      50.675  22.919  32.744  1.00  0.00    -0.460 OA
BRANCH  27  28
ATOM     28  C   UNL A   1      51.131  24.124  32.328  1.00  0.00     0.338 C 
ATOM     29  O   UNL A   1      52.212  24.358  31.801  1.00  0.00    -0.246 OA
BRANCH  28  30
ATOM     30  C   UNL A   1      50.093  25.162  32.454  1.00  0.00     0.060 A 
ATOM     31  C   UNL A   1      48.954  24.826  33.193  1.00  0.00     0.016 A 
ATOM     32  C   UNL A   1      50.160  26.376  31.763  1.00  0.00     0.016 A 
ATOM     33  C   UNL A   1      47.836  25.651  33.161  1.00  0.00     0.010 A 
ATOM     34  C   UNL A   1      49.033  27.207  31.735  1.00  0.00     0.010 A 
ATOM     35  C   UNL A   1      47.847  26.814  32.381  1.00  0.00    -0.014 A 
BRANCH  35  36
ATOM     36  C   UNL A   1      46.551  27.481  32.102  1.00  0.00     0.031 A 
ATOM     37  C   UNL A   1      45.703  26.976  30.962  1.00  0.00     0.074 A 
ATOM     38  C   UNL A   1      46.095  28.461  32.902  1.00  0.00     0.049 A 
ATOM     39  N   UNL A   1      44.492  27.325  30.614  1.00  0.00    -0.248 NA
ATOM     40  C   UNL A   1      46.298  25.939  30.102  1.00  0.00     0.031 C 
ATOM     41  C   UNL A   1      46.823  29.036  34.030  1.00  0.00     0.029 A 
ATOM     42  N   UNL A   1      44.905  29.142  32.883  1.00  0.00    -0.354 N 
ATOM     43  C   UNL A   1      44.185  26.566  29.492  1.00  0.00     0.074 A 
ATOM     44  C   UNL A   1      45.347  25.756  29.198  1.00  0.00     0.031 C 
ATOM     45  C   UNL A   1      46.065  29.992  34.594  1.00  0.00     0.029 A 
ATOM     46  C   UNL A   1      44.802  30.097  33.864  1.00  0.00     0.049 A 
ATOM     47  H   UNL A   1      44.191  28.963  32.228  1.00  0.00     0.167 HD
ATOM     48  C   UNL A   1      43.031  26.523  28.783  1.00  0.00     0.034 A 
ATOM     49  C   UNL A   1      43.800  30.953  34.146  1.00  0.00     0.034 A 
ATOM     50  C   UNL A   1      41.865  27.305  29.093  1.00  0.00     0.049 A 
ATOM     51  C   UNL A   1      42.522  30.876  33.351  1.00  0.00     0.074 A 
ATOM     52  C   UNL A   1      40.634  27.304  28.460  1.00  0.00     0.029 A 
ATOM     53  N   UNL A   1      41.785  28.230  30.122  1.00  0.00    -0.354 N 
ATOM     54  N   UNL A   1      42.203  30.061  32.376  1.00  0.00    -0.248 NA
ATOM     55  C   UNL A   1      41.448  31.808  33.729  1.00  0.00     0.031 C 
ATOM     56  C   UNL A   1      39.814  28.240  29.100  1.00  0.00     0.029 A 
ATOM     57  C   UNL A   1      40.530  28.810  30.142  1.00  0.00     0.049 A 
ATOM     58  H   UNL A   1      42.515  28.442  30.748  1.00  0.00     0.167 HD
ATOM     59  C   UNL A   1      40.883  30.356  32.046  1.00  0.00     0.074 A 
ATOM     60  C   UNL A   1      40.457  31.409  32.944  1.00  0.00     0.031 C 
ATOM     61  C   UNL A   1      40.102  29.818  31.077  1.00  0.00     0.034 A 
BRANCH  48  62
ATOM     62  C   UNL A   1      42.963  25.566  27.623  1.00  0.00     0.023 A 
ATOM     63  C   UNL A   1      43.555  25.920  26.394  1.00  0.00     0.012 A 
ATOM     64  C   UNL A   1      42.354  24.302  27.759  1.00  0.00     0.148 A 
ATOM     65  C   UNL A   1      43.519  25.044  25.309  1.00  0.00     0.002 A 
ATOM     66  C   UNL A   1      42.356  23.420  26.684  1.00  0.00     0.091 A 
ATOM     67  F   UNL A   1      41.772  23.995  28.927  1.00  0.00    -0.205 F 
ATOM     68  C   UNL A   1      42.929  23.792  25.457  1.00  0.00     0.022 A 
BRANCH  66  69
ATOM     69  S   UNL A   1      41.682  21.758  26.801  1.00  0.00     0.127 S 
ATOM     70  O   UNL A   1      40.252  22.030  26.937  1.00  0.00    -0.237 OA
ATOM     71  O   UNL A   1      42.072  21.175  25.516  1.00  0.00    -0.237 OA
ATOM     72  O   UNL A   1      42.319  21.149  27.960  1.00  0.00    -0.744 OA
ENDBRANCH  66  69
ENDBRANCH  48  62
BRANCH  49  73
ATOM     73  C   UNL A   1      43.943  31.916  35.274  1.00  0.00     0.023 A 
ATOM     74  C   UNL A   1      44.408  33.222  35.023  1.00  0.00     0.012 A 
ATOM     75  C   UNL A   1      43.598  31.551  36.590  1.00  0.00     0.148 A 
ATOM     76  C   UNL A   1      44.554  34.137  36.066  1.00  0.00     0.002 A 
ATOM     77  C   UNL A   1      43.694  32.484  37.615  1.00  0.00     0.091 A 
ATOM     78  F   UNL A   1      43.178  30.298  36.813  1.00  0.00    -0.205 F 
ATOM     79  C   UNL A   1      44.186  33.772  37.359  1.00  0.00     0.022 A 
BRANCH  77  80
ATOM     80  S   UNL A   1      43.119  32.134  39.281  1.00  0.00     0.127 S 
ATOM     81  O   UNL A   1      43.454  33.371  39.980  1.00  0.00    -0.237 OA
ATOM     82  O   UNL A   1      41.689  31.912  39.070  1.00  0.00    -0.237 OA
ATOM     83  O   UNL A   1      43.851  30.946  39.703  1.00  0.00    -0.744 OA
ENDBRANCH  77  80
ENDBRANCH  49  73
BRANCH  61  84
ATOM     84  C   UNL A   1      38.693  30.339  30.949  1.00  0.00     0.023 A 
ATOM     85  C   UNL A   1      37.642  29.676  31.613  1.00  0.00     0.012 A 
ATOM     86  C   UNL A   1      38.419  31.515  30.225  1.00  0.00     0.148 A 
ATOM     87  C   UNL A   1      36.334  30.153  31.525  1.00  0.00     0.002 A 
ATOM     88  C   UNL A   1      37.121  32.012  30.181  1.00  0.00     0.091 A 
ATOM     89  F   UNL A   1      39.427  32.125  29.582  1.00  0.00    -0.205 F 
ATOM     90  C   UNL A   1      36.076  31.327  30.820  1.00  0.00     0.022 A 
BRANCH  88  91
ATOM     91  S   UNL A   1      36.726  33.567  29.372  1.00  0.00     0.127 S 
ATOM     92  O   UNL A   1      36.447  33.131  28.005  1.00  0.00    -0.237 OA
ATOM     93  O   UNL A   1      35.550  34.022  30.117  1.00  0.00    -0.237 OA
ATOM     94  O   UNL A   1      37.904  34.408  29.542  1.00  0.00    -0.744 OA
ENDBRANCH  88  91
ENDBRANCH  61  84
ENDBRANCH  35  36
ENDBRANCH  28  30
ENDBRANCH  27  28
ENDBRANCH  26  27
ENDBRANCH  25  26
ENDBRANCH   1  25
TORSDOF 21
ENDMDL
MODEL 2
REMARK VINA RESULT:      -7.3      3.939      5.722
REMARK SMILES CC[C@H]1SC[C@H](C(=O)OCCOCCOC(=O)c2ccc(-c3c4nc(c(-c5cccc(S(=O)(=O)[O-])c5F)c5ccc([nH]5)c(-c5cccc(S(=O)(=O)[O-])c5F)c5nc(c(-c6cccc(S(=O)(=O)[O-])c6F)c6ccc3[nH]6)C=C5)C=C4)cc2)N1C(=O)C[C@@H]1CSCC[NH2+]1
REMARK SMILES IDX 12 1 11 2 10 3 9 4 7 5 8 6 6 7 3 8 4 9 81 10 5 11 2 12 1 13
REMARK SMILES IDX 82 14 83 15 84 16 85 17 86 18 90 19 87 20 89 21 88 24 13 25
REMARK SMILES IDX 14 26 15 27 16 28 17 29 18 30 19 31 80 32 20 33 79 34 21 35
REMARK SMILES IDX 22 36 23 37 73 38 24 39 78 40 72 41 74 42 25 43 77 44 71 45
REMARK SMILES IDX 70 46 26 48 58 49 38 50 57 51 39 52 42 53 56 54 75 55 40 56
REMARK SMILES IDX 41 57 55 59 76 60 43 61 27 62 28 63 36 64 29 65 31 66 37 67
REMARK SMILES IDX 30 68 32 69 33 70 34 71 35 72 59 73 60 74 68 75 61 76 63 77
REMARK SMILES IDX 69 78 62 79 64 80 65 81 66 82 67 83 44 84 45 85 53 86 46 87
REMARK SMILES IDX 48 88 54 89 47 90 49 91 50 92 51 93 52 94
REMARK H PARENT 90 22 90 23 74 47 42 58
REMARK Flexibility Score: inf
ROOT
ATOM      1  O   UNL A   1      49.636  21.314  35.698  1.00  0.00    -0.374 OA
ENDROOT
BRANCH   1   2
ATOM      2  C   UNL A   1      48.526  20.804  36.445  1.00  0.00     0.202 C 
BRANCH   2   3
ATOM      3  C   UNL A   1      48.812  20.460  37.908  1.00  0.00     0.261 C 
BRANCH   3   4
ATOM      4  O   UNL A   1      47.631  20.625  38.715  1.00  0.00    -0.462 OA
BRANCH   4   5
ATOM      5  C   UNL A   1      47.093  19.480  39.208  1.00  0.00     0.329 C 
ATOM      6  O   UNL A   1      46.697  18.542  38.518  1.00  0.00    -0.250 OA
BRANCH   5   7
ATOM      7  C   UNL A   1      47.175  19.354  40.739  1.00  0.00     0.206 C 
ATOM      8  C   UNL A   1      47.698  17.690  42.496  1.00  0.00     0.144 C 
ATOM      9  S   UNL A   1      46.054  17.213  41.883  1.00  0.00    -0.134 SA
ATOM     10  N   UNL A   1      48.211  18.529  41.408  1.00  0.00    -0.316 N 
ATOM     11  C   UNL A   1      45.783  18.862  41.182  1.00  0.00     0.109 C 
BRANCH   8  12
ATOM     12  C   UNL A   1      47.467  18.484  43.808  1.00  0.00     0.033 C 
ATOM     13  C   UNL A   1      46.433  17.863  44.733  1.00  0.00     0.007 C 
ENDBRANCH   8  12
BRANCH  10  14
ATOM     14  C   UNL A   1      49.528  18.782  41.077  1.00  0.00     0.230 C 
ATOM     15  O   UNL A   1      50.104  18.086  40.237  1.00  0.00    -0.275 OA
BRANCH  14  16
ATOM     16  C   UNL A   1      50.293  19.903  41.751  1.00  0.00     0.166 C 
BRANCH  16  17
ATOM     17  C   UNL A   1      51.153  19.490  42.971  1.00  0.00     0.201 C 
ATOM     18  C   UNL A   1      51.924  20.601  43.720  1.00  0.00     0.135 C 
ATOM     19  N   UNL A   1      51.971  18.282  42.743  1.00  0.00    -0.342 N 
ATOM     20  S   UNL A   1      53.492  21.140  42.982  1.00  0.00    -0.150 SA
ATOM     21  C   UNL A   1      53.179  18.557  41.948  1.00  0.00     0.271 C 
ATOM     22  H   UNL A   1      51.404  17.594  42.247  1.00  0.00     0.346 HD
ATOM     23  H   UNL A   1      52.273  17.936  43.654  1.00  0.00     0.346 HD
ATOM     24  C   UNL A   1      54.179  19.494  42.629  1.00  0.00     0.131 C 
ENDBRANCH  16  17
ENDBRANCH  14  16
ENDBRANCH  10  14
ENDBRANCH   5   7
ENDBRANCH   4   5
ENDBRANCH   3   4
ENDBRANCH   2   3
ENDBRANCH   1   2
BRANCH   1  25
ATOM     25  C   UNL A   1      49.348  22.294  34.702  1.00  0.00     0.202 C 
BRANCH  25  26
ATOM     26  C   UNL A   1      47.868  22.601  34.452  1.00  0.00     0.261 C 
BRANCH  26  27
ATOM     27  O   UNL A   1      47.567  24.004  34.540  1.00  0.00    -0.460 OA
BRANCH  27  28
ATOM     28  C   UNL A   1      46.868  24.345  35.647  1.00  0.00     0.338 C 
ATOM     29  O   UNL A   1      47.052  23.936  36.788  1.00  0.00    -0.246 OA
BRANCH  28  30
ATOM     30  C   UNL A   1      45.899  25.417  35.360  1.00  0.00     0.060 A 
ATOM     31  C   UNL A   1      44.545  25.062  35.379  1.00  0.00     0.016 A 
ATOM     32  C   UNL A   1      46.293  26.694  34.951  1.00  0.00     0.016 A 
ATOM     33  C   UNL A   1      43.588  25.944  34.891  1.00  0.00     0.010 A 
ATOM     34  C   UNL A   1      45.326  27.582  34.462  1.00  0.00     0.010 A 
ATOM     35  C   UNL A   1      43.981  27.184  34.371  1.00  0.00    -0.014 A 
BRANCH  35  36
ATOM     36  C   UNL A   1      42.997  27.946  33.563  1.00  0.00     0.031 A 
ATOM     37  C   UNL A   1      42.847  27.617  32.099  1.00  0.00     0.074 A 
ATOM     38  C   UNL A   1      42.188  28.853  34.138  1.00  0.00     0.049 A 
ATOM     39  N   UNL A   1      41.974  28.067  31.235  1.00  0.00    -0.248 NA
ATOM     40  C   UNL A   1      43.806  26.653  31.534  1.00  0.00     0.031 C 
ATOM     41  C   UNL A   1      42.239  29.259  35.541  1.00  0.00     0.029 A 
ATOM     42  N   UNL A   1      41.163  29.594  33.607  1.00  0.00    -0.354 N 
ATOM     43  C   UNL A   1      42.285  27.455  30.027  1.00  0.00     0.074 A 
ATOM     44  C   UNL A   1      43.445  26.622  30.260  1.00  0.00     0.031 C 
ATOM     45  C   UNL A   1      41.290  30.185  35.759  1.00  0.00     0.029 A 
ATOM     46  C   UNL A   1      40.568  30.438  34.512  1.00  0.00     0.049 A 
ATOM     47  H   UNL A   1      40.881  29.528  32.666  1.00  0.00     0.167 HD
ATOM     48  C   UNL A   1      41.649  27.553  28.834  1.00  0.00     0.034 A 
ATOM     49  C   UNL A   1      39.552  31.309  34.355  1.00  0.00     0.034 A 
ATOM     50  C   UNL A   1      40.478  28.356  28.610  1.00  0.00     0.049 A 
ATOM     51  C   UNL A   1      38.853  31.389  33.023  1.00  0.00     0.074 A 
ATOM     52  C   UNL A   1      39.736  28.491  27.449  1.00  0.00     0.029 A 
ATOM     53  N   UNL A   1      39.878  29.163  29.564  1.00  0.00    -0.354 N 
ATOM     54  N   UNL A   1      39.079  30.706  31.927  1.00  0.00    -0.248 NA
ATOM     55  C   UNL A   1      37.725  32.329  32.921  1.00  0.00     0.031 C 
ATOM     56  C   UNL A   1      38.695  29.392  27.699  1.00  0.00     0.029 A 
ATOM     57  C   UNL A   1      38.779  29.803  29.021  1.00  0.00     0.049 A 
ATOM     58  H   UNL A   1      40.189  29.265  30.492  1.00  0.00     0.167 HD
ATOM     59  C   UNL A   1      38.105  31.106  31.018  1.00  0.00     0.074 A 
ATOM     60  C   UNL A   1      37.271  32.073  31.701  1.00  0.00     0.031 C 
ATOM     61  C   UNL A   1      37.926  30.722  29.730  1.00  0.00     0.034 A 
BRANCH  48  62
ATOM     62  C   UNL A   1      42.187  26.736  27.690  1.00  0.00     0.023 A 
ATOM     63  C   UNL A   1      43.043  27.340  26.747  1.00  0.00     0.012 A 
ATOM     64  C   UNL A   1      41.883  25.365  27.570  1.00  0.00     0.148 A 
ATOM     65  C   UNL A   1      43.567  26.601  25.686  1.00  0.00     0.002 A 
ATOM     66  C   UNL A   1      42.441  24.627  26.532  1.00  0.00     0.091 A 
ATOM     67  F   UNL A   1      41.045  24.815  28.460  1.00  0.00    -0.205 F 
ATOM     68  C   UNL A   1      43.274  25.244  25.585  1.00  0.00     0.022 A 
BRANCH  66  69
ATOM     69  S   UNL A   1      42.177  22.858  26.359  1.00  0.00     0.127 S 
ATOM     70  O   UNL A   1      43.047  22.327  27.408  1.00  0.00    -0.237 OA
ATOM     71  O   UNL A   1      40.745  22.729  26.633  1.00  0.00    -0.237 OA
ATOM     72  O   UNL A   1      42.564  22.528  24.995  1.00  0.00    -0.744 OA
ENDBRANCH  66  69
ENDBRANCH  48  62
BRANCH  49  73
ATOM     73  C   UNL A   1      39.095  32.130  35.511  1.00  0.00     0.023 A 
ATOM     74  C   UNL A   1      38.148  31.603  36.412  1.00  0.00     0.012 A 
ATOM     75  C   UNL A   1      39.610  33.421  35.735  1.00  0.00     0.148 A 
ATOM     76  C   UNL A   1      37.704  32.357  37.498  1.00  0.00     0.002 A 
ATOM     77  C   UNL A   1      39.203  34.146  36.848  1.00  0.00     0.091 A 
ATOM     78  F   UNL A   1      40.492  33.915  34.855  1.00  0.00    -0.205 F 
ATOM     79  C   UNL A   1      38.239  33.623  37.723  1.00  0.00     0.022 A 
BRANCH  77  80
ATOM     80  S   UNL A   1      39.939  35.728  37.280  1.00  0.00     0.127 S 
ATOM     81  O   UNL A   1      41.342  35.368  37.455  1.00  0.00    -0.237 OA
ATOM     82  O   UNL A   1      39.651  36.532  36.092  1.00  0.00    -0.237 OA
ATOM     83  O   UNL A   1      39.239  36.167  38.480  1.00  0.00    -0.744 OA
ENDBRANCH  77  80
ENDBRANCH  49  73
BRANCH  61  84
ATOM     84  C   UNL A   1      36.770  31.327  28.976  1.00  0.00     0.023 A 
ATOM     85  C   UNL A   1      36.757  32.711  28.712  1.00  0.00     0.012 A 
ATOM     86  C   UNL A   1      35.729  30.520  28.478  1.00  0.00     0.148 A 
ATOM     87  C   UNL A   1      35.707  33.288  27.998  1.00  0.00     0.002 A 
ATOM     88  C   UNL A   1      34.709  31.094  27.726  1.00  0.00     0.091 A 
ATOM     89  F   UNL A   1      35.744  29.207  28.754  1.00  0.00    -0.205 F 
ATOM     90  C   UNL A   1      34.690  32.479  27.495  1.00  0.00     0.022 A 
BRANCH  88  91
ATOM     91  S   UNL A   1      33.416  30.106  26.967  1.00  0.00     0.127 S 
ATOM     92  O   UNL A   1      33.128  29.131  28.017  1.00  0.00    -0.237 OA
ATOM     93  O   UNL A   1      32.355  31.090  26.741  1.00  0.00    -0.237 OA
ATOM     94  O   UNL A   1      34.001  29.567  25.745  1.00  0.00    -0.744 OA
ENDBRANCH  88  91
ENDBRANCH  61  84
ENDBRANCH  35  36
ENDBRANCH  28  30
ENDBRANCH  27  28
ENDBRANCH  26  27
ENDBRANCH  25  26
ENDBRANCH   1  25
TORSDOF 21
ENDMDL
MODEL 3
REMARK VINA RESULT:      -7.1     10.005     16.020
REMARK SMILES CC[C@H]1SC[C@H](C(=O)OCCOCCOC(=O)c2ccc(-c3c4nc(c(-c5cccc(S(=O)(=O)[O-])c5F)c5ccc([nH]5)c(-c5cccc(S(=O)(=O)[O-])c5F)c5nc(c(-c6cccc(S(=O)(=O)[O-])c6F)c6ccc3[nH]6)C=C5)C=C4)cc2)N1C(=O)C[C@@H]1CSCC[NH2+]1
REMARK SMILES IDX 12 1 11 2 10 3 9 4 7 5 8 6 6 7 3 8 4 9 81 10 5 11 2 12 1 13
REMARK SMILES IDX 82 14 83 15 84 16 85 17 86 18 90 19 87 20 89 21 88 24 13 25
REMARK SMILES IDX 14 26 15 27 16 28 17 29 18 30 19 31 80 32 20 33 79 34 21 35
REMARK SMILES IDX 22 36 23 37 73 38 24 39 78 40 72 41 74 42 25 43 77 44 71 45
REMARK SMILES IDX 70 46 26 48 58 49 38 50 57 51 39 52 42 53 56 54 75 55 40 56
REMARK SMILES IDX 41 57 55 59 76 60 43 61 27 62 28 63 36 64 29 65 31 66 37 67
REMARK SMILES IDX 30 68 32 69 33 70 34 71 35 72 59 73 60 74 68 75 61 76 63 77
REMARK SMILES IDX 69 78 62 79 64 80 65 81 66 82 67 83 44 84 45 85 53 86 46 87
REMARK SMILES IDX 48 88 54 89 47 90 49 91 50 92 51 93 52 94
REMARK H PARENT 90 22 90 23 74 47 42 58
REMARK Flexibility Score: inf
ROOT
ATOM      1  O   UNL A   1      45.232  40.555  28.263  1.00  0.00    -0.374 OA
ENDROOT
BRANCH   1   2
ATOM      2  C   UNL A   1      45.167  41.715  27.426  1.00  0.00     0.202 C 
BRANCH   2   3
ATOM      3  C   UNL A   1      43.911  41.842  26.564  1.00  0.00     0.261 C 
BRANCH   3   4
ATOM      4  O   UNL A   1      44.068  42.878  25.575  1.00  0.00    -0.462 OA
BRANCH   4   5
ATOM      5  C   UNL A   1      43.852  42.499  24.290  1.00  0.00     0.329 C 
ATOM      6  O   UNL A   1      42.830  41.944  23.889  1.00  0.00    -0.250 OA
BRANCH   5   7
ATOM      7  C   UNL A   1      44.927  42.980  23.302  1.00  0.00     0.206 C 
ATOM      8  C   UNL A   1      46.338  42.138  21.450  1.00  0.00     0.144 C 
ATOM      9  S   UNL A   1      47.090  41.447  22.954  1.00  0.00    -0.134 SA
ATOM     10  N   UNL A   1      44.989  42.490  21.902  1.00  0.00    -0.316 N 
ATOM     11  C   UNL A   1      46.274  42.690  23.991  1.00  0.00     0.109 C 
BRANCH   8  12
ATOM     12  C   UNL A   1      47.185  43.379  21.063  1.00  0.00     0.033 C 
ATOM     13  C   UNL A   1      48.630  43.313  21.529  1.00  0.00     0.007 C 
ENDBRANCH   8  12
BRANCH  10  14
ATOM     14  C   UNL A   1      43.839  42.604  21.144  1.00  0.00     0.230 C 
ATOM     15  O   UNL A   1      43.060  41.654  21.049  1.00  0.00    -0.275 OA
BRANCH  14  16
ATOM     16  C   UNL A   1      43.526  43.889  20.403  1.00  0.00     0.166 C 
BRANCH  16  17
ATOM     17  C   UNL A   1      43.553  43.796  18.857  1.00  0.00     0.201 C 
ATOM     18  C   UNL A   1      43.851  45.087  18.061  1.00  0.00     0.135 C 
ATOM     19  N   UNL A   1      42.435  43.019  18.287  1.00  0.00    -0.342 N 
ATOM     20  S   UNL A   1      42.464  46.231  17.823  1.00  0.00    -0.150 SA
ATOM     21  C   UNL A   1      41.176  43.782  18.248  1.00  0.00     0.271 C 
ATOM     22  H   UNL A   1      42.293  42.185  18.858  1.00  0.00     0.346 HD
ATOM     23  H   UNL A   1      42.681  42.781  17.326  1.00  0.00     0.346 HD
ATOM     24  C   UNL A   1      41.213  45.007  17.331  1.00  0.00     0.131 C 
ENDBRANCH  16  17
ENDBRANCH  14  16
ENDBRANCH  10  14
ENDBRANCH   5   7
ENDBRANCH   4   5
ENDBRANCH   3   4
ENDBRANCH   2   3
ENDBRANCH   1   2
BRANCH   1  25
ATOM     25  C   UNL A   1      44.081  39.713  28.290  1.00  0.00     0.202 C 
BRANCH  25  26
ATOM     26  C   UNL A   1      43.519  39.367  29.672  1.00  0.00     0.261 C 
BRANCH  26  27
ATOM     27  O   UNL A   1      43.927  38.066  30.130  1.00  0.00    -0.460 OA
BRANCH  27  28
ATOM     28  C   UNL A   1      44.955  38.094  31.010  1.00  0.00     0.338 C 
ATOM     29  O   UNL A   1      46.122  38.380  30.769  1.00  0.00    -0.246 OA
BRANCH  28  30
ATOM     30  C   UNL A   1      44.486  37.868  32.388  1.00  0.00     0.060 A 
ATOM     31  C   UNL A   1      44.744  36.609  32.942  1.00  0.00     0.016 A 
ATOM     32  C   UNL A   1      43.701  38.799  33.075  1.00  0.00     0.016 A 
ATOM     33  C   UNL A   1      44.134  36.235  34.133  1.00  0.00     0.010 A 
ATOM     34  C   UNL A   1      43.090  38.421  34.278  1.00  0.00     0.010 A 
ATOM     35  C   UNL A   1      43.254  37.116  34.775  1.00  0.00    -0.014 A 
BRANCH  35  36
ATOM     36  C   UNL A   1      42.374  36.573  35.839  1.00  0.00     0.031 A 
ATOM     37  C   UNL A   1      41.265  35.626  35.455  1.00  0.00     0.074 A 
ATOM     38  C   UNL A   1      42.612  36.846  37.134  1.00  0.00     0.049 A 
ATOM     39  N   UNL A   1      40.458  34.942  36.224  1.00  0.00    -0.248 NA
ATOM     40  C   UNL A   1      41.038  35.422  34.015  1.00  0.00     0.031 C 
ATOM     41  C   UNL A   1      43.649  37.747  37.630  1.00  0.00     0.029 A 
ATOM     42  N   UNL A   1      41.992  36.386  38.268  1.00  0.00    -0.354 N 
ATOM     43  C   UNL A   1      39.620  34.240  35.366  1.00  0.00     0.074 A 
ATOM     44  C   UNL A   1      39.998  34.601  34.017  1.00  0.00     0.031 C 
ATOM     45  C   UNL A   1      43.590  37.781  38.973  1.00  0.00     0.029 A 
ATOM     46  C   UNL A   1      42.509  36.907  39.428  1.00  0.00     0.049 A 
ATOM     47  H   UNL A   1      41.245  35.743  38.252  1.00  0.00     0.167 HD
ATOM     48  C   UNL A   1      38.642  33.353  35.668  1.00  0.00     0.034 A 
ATOM     49  C   UNL A   1      42.156  36.698  40.712  1.00  0.00     0.034 A 
ATOM     50  C   UNL A   1      38.289  32.969  37.008  1.00  0.00     0.049 A 
ATOM     51  C   UNL A   1      41.075  35.696  41.023  1.00  0.00     0.074 A 
ATOM     52  C   UNL A   1      37.340  32.049  37.418  1.00  0.00     0.029 A 
ATOM     53  N   UNL A   1      38.866  33.487  38.156  1.00  0.00    -0.354 N 
ATOM     54  N   UNL A   1      40.382  34.945  40.201  1.00  0.00    -0.248 NA
ATOM     55  C   UNL A   1      40.759  35.478  42.443  1.00  0.00     0.031 C 
ATOM     56  C   UNL A   1      37.335  32.021  38.817  1.00  0.00     0.029 A 
ATOM     57  C   UNL A   1      38.293  32.911  39.276  1.00  0.00     0.049 A 
ATOM     58  H   UNL A   1      39.579  34.165  38.173  1.00  0.00     0.167 HD
ATOM     59  C   UNL A   1      39.575  34.143  41.003  1.00  0.00     0.074 A 
ATOM     60  C   UNL A   1      39.884  34.484  42.376  1.00  0.00     0.031 C 
ATOM     61  C   UNL A   1      38.650  33.222  40.636  1.00  0.00     0.034 A 
BRANCH  48  62
ATOM     62  C   UNL A   1      37.913  32.704  34.522  1.00  0.00     0.023 A 
ATOM     63  C   UNL A   1      38.325  31.435  34.066  1.00  0.00     0.012 A 
ATOM     64  C   UNL A   1      36.797  33.324  33.926  1.00  0.00     0.148 A 
ATOM     65  C   UNL A   1      37.656  30.805  33.016  1.00  0.00     0.002 A 
ATOM     66  C   UNL A   1      36.113  32.673  32.906  1.00  0.00     0.091 A 
ATOM     67  F   UNL A   1      36.438  34.542  34.355  1.00  0.00    -0.205 F 
ATOM     68  C   UNL A   1      36.546  31.419  32.444  1.00  0.00     0.022 A 
BRANCH  66  69
ATOM     69  S   UNL A   1      34.630  33.352  32.154  1.00  0.00     0.127 S 
ATOM     70  O   UNL A   1      33.658  33.207  33.237  1.00  0.00    -0.237 OA
ATOM     71  O   UNL A   1      35.028  34.733  31.875  1.00  0.00    -0.237 OA
ATOM     72  O   UNL A   1      34.375  32.545  30.970  1.00  0.00    -0.744 OA
ENDBRANCH  66  69
ENDBRANCH  48  62
BRANCH  49  73
ATOM     73  C   UNL A   1      42.880  37.407  41.805  1.00  0.00     0.023 A 
ATOM     74  C   UNL A   1      44.042  36.835  42.359  1.00  0.00     0.012 A 
ATOM     75  C   UNL A   1      42.435  38.655  42.280  1.00  0.00     0.148 A 
ATOM     76  C   UNL A   1      44.732  37.481  43.385  1.00  0.00     0.002 A 
ATOM     77  C   UNL A   1      43.156  39.318  43.265  1.00  0.00     0.091 A 
ATOM     78  F   UNL A   1      41.315  39.173  41.757  1.00  0.00    -0.205 F 
ATOM     79  C   UNL A   1      44.296  38.727  43.831  1.00  0.00     0.022 A 
BRANCH  77  80
ATOM     80  S   UNL A   1      42.736  40.982  43.801  1.00  0.00     0.127 S 
ATOM     81  O   UNL A   1      43.703  41.205  44.870  1.00  0.00    -0.237 OA
ATOM     82  O   UNL A   1      42.967  41.762  42.585  1.00  0.00    -0.237 OA
ATOM     83  O   UNL A   1      41.338  40.916  44.209  1.00  0.00    -0.744 OA
ENDBRANCH  77  80
ENDBRANCH  49  73
BRANCH  61  84
ATOM     84  C   UNL A   1      37.918  32.494  41.735  1.00  0.00     0.023 A 
ATOM     85  C   UNL A   1      38.543  31.416  42.394  1.00  0.00     0.012 A 
ATOM     86  C   UNL A   1      36.642  32.915  42.156  1.00  0.00     0.148 A 
ATOM     87  C   UNL A   1      37.892  30.743  43.427  1.00  0.00     0.002 A 
ATOM     88  C   UNL A   1      36.018  32.269  43.219  1.00  0.00     0.091 A 
ATOM     89  F   UNL A   1      36.052  33.930  41.507  1.00  0.00    -0.205 F 
ATOM     90  C   UNL A   1      36.636  31.176  43.847  1.00  0.00     0.022 A 
BRANCH  88  91
ATOM     91  S   UNL A   1      34.444  32.828  43.878  1.00  0.00     0.127 S 
ATOM     92  O   UNL A   1      34.370  32.095  45.140  1.00  0.00    -0.237 OA
ATOM     93  O   UNL A   1      34.653  34.270  44.022  1.00  0.00    -0.237 OA
ATOM     94  O   UNL A   1      33.449  32.466  42.876  1.00  0.00    -0.744 OA
ENDBRANCH  88  91
ENDBRANCH  61  84
ENDBRANCH  35  36
ENDBRANCH  28  30
ENDBRANCH  27  28
ENDBRANCH  26  27
ENDBRANCH  25  26
ENDBRANCH   1  25
TORSDOF 21
ENDMDL
