MODEL 1
REMARK VINA RESULT:     -11.8      0.000      0.000
REMARK SMILES Cc1ccc(NC(=O)N2CCCC[C@@H]2C(=O)OCCOCCOC(=O)c2ccc(-c3c4nc(c(-c5cccc(S(=O)(=O)[O-])c5F)c5ccc([nH]5)c(-c5cccc(S(=O)(=O)[O-])c5F)c5nc(c(-c6cccc(S(=O)(=O)[O-])c6F)c6ccc3[nH]6)C=C5)C=C4)cc2)cc1
REMARK SMILES IDX 21 1 20 2 19 3 18 4 17 5 15 6 16 7 14 8 9 9 10 10 11 11
REMARK SMILES IDX 13 12 12 13 7 14 6 15 8 17 5 18 1 19 2 20 3 21 90 22 4 23
REMARK SMILES IDX 89 24 22 25 23 26 24 27 25 28 26 29 27 30 88 31 28 32 87 33
REMARK SMILES IDX 29 34 30 35 31 36 81 37 32 38 86 39 80 40 82 41 33 42 85 43
REMARK SMILES IDX 79 44 78 45 34 47 66 48 46 49 65 50 47 51 50 52 64 53 83 54
REMARK SMILES IDX 48 55 49 56 63 58 84 59 51 60 35 61 36 62 44 63 37 64 39 65
REMARK SMILES IDX 45 66 38 67 40 68 41 69 42 70 43 71 67 72 68 73 76 74 69 75
REMARK SMILES IDX 71 76 77 77 70 78 72 79 73 80 74 81 75 82 52 83 53 84 61 85
REMARK SMILES IDX 54 86 56 87 62 88 55 89 57 90 58 91 59 92 60 93
REMARK H PARENT 6 16 82 46 50 57
REMARK Flexibility Score: inf
ROOT
ATOM      1  C   UNL A   1      32.861  29.360  26.693  1.00  0.00     0.202 C 
ENDROOT
BRANCH   1   2
ATOM      2  O   UNL A   1      31.525  28.926  26.555  1.00  0.00    -0.374 OA
BRANCH   2   3
ATOM      3  C   UNL A   1      31.312  27.527  26.429  1.00  0.00     0.202 C 
BRANCH   3   4
ATOM      4  C   UNL A   1      32.627  26.937  25.980  1.00  0.00     0.261 C 
BRANCH   4   5
ATOM      5  O   UNL A   1      32.533  25.496  25.871  1.00  0.00    -0.462 OA
BRANCH   5   6
ATOM      6  C   UNL A   1      32.757  24.921  24.641  1.00  0.00     0.329 C 
ATOM      7  O   UNL A   1      32.238  25.297  23.615  1.00  0.00    -0.250 OA
BRANCH   6   8
ATOM      8  C   UNL A   1      33.788  23.770  24.715  1.00  0.00     0.196 C 
ATOM      9  N   UNL A   1      33.757  22.888  25.923  1.00  0.00    -0.311 N 
ATOM     10  C   UNL A   1      35.015  22.334  26.426  1.00  0.00     0.122 C 
ATOM     11  C   UNL A   1      36.269  23.139  26.156  1.00  0.00     0.022 C 
ATOM     12  C   UNL A   1      35.169  24.411  24.407  1.00  0.00     0.037 C 
ATOM     13  C   UNL A   1      36.341  23.506  24.690  1.00  0.00     0.005 C 
BRANCH   9  14
ATOM     14  C   UNL A   1      32.653  22.255  26.481  1.00  0.00     0.322 C 
ATOM     15  N   UNL A   1      32.000  21.240  25.883  1.00  0.00    -0.308 N 
ATOM     16  H   UNL A   1      31.022  21.324  25.944  1.00  0.00     0.171 HD
ATOM     17  O   UNL A   1      32.180  22.657  27.552  1.00  0.00    -0.248 OA
BRANCH  15  18
ATOM     18  C   UNL A   1      32.411  20.093  25.196  1.00  0.00     0.042 A 
ATOM     19  C   UNL A   1      33.960  16.833  22.859  1.00  0.00     0.044 C 
ATOM     20  C   UNL A   1      33.334  17.927  23.670  1.00  0.00    -0.051 A 
ATOM     21  C   UNL A   1      33.410  17.900  25.069  1.00  0.00     0.005 A 
ATOM     22  C   UNL A   1      32.714  19.010  23.045  1.00  0.00     0.005 A 
ATOM     23  C   UNL A   1      32.927  18.968  25.828  1.00  0.00     0.026 A 
ATOM     24  C   UNL A   1      32.239  20.078  23.806  1.00  0.00     0.026 A 
ENDBRANCH  15  18
ENDBRANCH   9  14
ENDBRANCH   6   8
ENDBRANCH   5   6
ENDBRANCH   4   5
ENDBRANCH   3   4
ENDBRANCH   2   3
ENDBRANCH   1   2
BRANCH   1  25
ATOM     25  C   UNL A   1      32.998  30.787  27.231  1.00  0.00     0.261 C 
BRANCH  25  26
ATOM     26  O   UNL A   1      34.379  31.188  27.169  1.00  0.00    -0.460 OA
BRANCH  26  27
ATOM     27  C   UNL A   1      34.984  31.331  28.382  1.00  0.00     0.338 C 
ATOM     28  O   UNL A   1      34.810  32.283  29.125  1.00  0.00    -0.246 OA
BRANCH  27  29
ATOM     29  C   UNL A   1      36.053  30.300  28.533  1.00  0.00     0.060 A 
ATOM     30  C   UNL A   1      36.265  29.690  29.780  1.00  0.00     0.016 A 
ATOM     31  C   UNL A   1      37.001  30.147  27.522  1.00  0.00     0.016 A 
ATOM     32  C   UNL A   1      37.492  29.071  30.066  1.00  0.00     0.010 A 
ATOM     33  C   UNL A   1      38.227  29.585  27.829  1.00  0.00     0.010 A 
ATOM     34  C   UNL A   1      38.507  29.095  29.118  1.00  0.00    -0.014 A 
BRANCH  34  35
ATOM     35  C   UNL A   1      39.891  28.658  29.334  1.00  0.00     0.031 A 
ATOM     36  C   UNL A   1      40.212  27.237  29.067  1.00  0.00     0.074 A 
ATOM     37  C   UNL A   1      40.922  29.529  29.476  1.00  0.00     0.049 A 
ATOM     38  N   UNL A   1      41.383  26.725  29.229  1.00  0.00    -0.248 NA
ATOM     39  C   UNL A   1      39.225  26.256  28.629  1.00  0.00     0.031 C 
ATOM     40  C   UNL A   1      42.299  29.312  29.029  1.00  0.00     0.029 A 
ATOM     41  N   UNL A   1      40.970  30.840  29.964  1.00  0.00    -0.354 N 
ATOM     42  C   UNL A   1      41.396  25.509  28.598  1.00  0.00     0.074 A 
ATOM     43  C   UNL A   1      40.005  25.192  28.408  1.00  0.00     0.031 C 
ATOM     44  C   UNL A   1      43.075  30.344  29.383  1.00  0.00     0.029 A 
ATOM     45  C   UNL A   1      42.301  31.136  30.306  1.00  0.00     0.049 A 
ATOM     46  H   UNL A   1      40.203  31.450  30.052  1.00  0.00     0.167 HD
ATOM     47  C   UNL A   1      42.598  25.018  28.183  1.00  0.00     0.034 A 
ATOM     48  C   UNL A   1      42.660  31.450  31.580  1.00  0.00     0.034 A 
ATOM     49  C   UNL A   1      43.726  25.820  28.733  1.00  0.00     0.049 A 
ATOM     50  C   UNL A   1      43.610  30.421  32.147  1.00  0.00     0.074 A 
ATOM     51  C   UNL A   1      44.706  26.633  28.186  1.00  0.00     0.029 A 
ATOM     52  N   UNL A   1      43.804  26.030  30.117  1.00  0.00    -0.354 N 
ATOM     53  N   UNL A   1      44.036  29.379  31.487  1.00  0.00    -0.248 NA
ATOM     54  C   UNL A   1      44.161  30.469  33.490  1.00  0.00     0.031 C 
ATOM     55  C   UNL A   1      45.336  27.359  29.247  1.00  0.00     0.029 A 
ATOM     56  C   UNL A   1      44.782  26.960  30.455  1.00  0.00     0.049 A 
ATOM     57  H   UNL A   1      43.234  25.571  30.775  1.00  0.00     0.167 HD
ATOM     58  C   UNL A   1      44.736  28.536  32.297  1.00  0.00     0.074 A 
ATOM     59  C   UNL A   1      44.862  29.321  33.522  1.00  0.00     0.031 C 
ATOM     60  C   UNL A   1      45.065  27.269  31.874  1.00  0.00     0.034 A 
BRANCH  47  61
ATOM     61  C   UNL A   1      42.782  23.913  27.138  1.00  0.00     0.023 A 
ATOM     62  C   UNL A   1      43.472  24.251  25.951  1.00  0.00     0.012 A 
ATOM     63  C   UNL A   1      42.279  22.583  27.184  1.00  0.00     0.148 A 
ATOM     64  C   UNL A   1      43.640  23.350  24.887  1.00  0.00     0.002 A 
ATOM     65  C   UNL A   1      42.496  21.664  26.150  1.00  0.00     0.091 A 
ATOM     66  F   UNL A   1      41.509  22.186  28.193  1.00  0.00    -0.205 F 
ATOM     67  C   UNL A   1      43.165  22.051  24.991  1.00  0.00     0.022 A 
BRANCH  65  68
ATOM     68  S   UNL A   1      41.928  19.949  26.231  1.00  0.00     0.127 S 
ATOM     69  O   UNL A   1      40.481  20.095  26.075  1.00  0.00    -0.237 OA
ATOM     70  O   UNL A   1      42.603  19.341  25.084  1.00  0.00    -0.237 OA
ATOM     71  O   UNL A   1      42.349  19.431  27.527  1.00  0.00    -0.744 OA
ENDBRANCH  65  68
ENDBRANCH  47  61
BRANCH  48  72
ATOM     72  C   UNL A   1      41.588  32.211  32.291  1.00  0.00     0.023 A 
ATOM     73  C   UNL A   1      41.274  33.501  31.785  1.00  0.00     0.012 A 
ATOM     74  C   UNL A   1      40.625  31.538  33.062  1.00  0.00     0.148 A 
ATOM     75  C   UNL A   1      39.996  34.044  31.937  1.00  0.00     0.002 A 
ATOM     76  C   UNL A   1      39.337  32.064  33.165  1.00  0.00     0.091 A 
ATOM     77  F   UNL A   1      40.956  30.364  33.615  1.00  0.00    -0.205 F 
ATOM     78  C   UNL A   1      39.014  33.302  32.583  1.00  0.00     0.022 A 
BRANCH  76  79
ATOM     79  S   UNL A   1      37.987  31.112  33.876  1.00  0.00     0.127 S 
ATOM     80  O   UNL A   1      38.335  31.120  35.293  1.00  0.00    -0.237 OA
ATOM     81  O   UNL A   1      36.817  31.920  33.527  1.00  0.00    -0.237 OA
ATOM     82  O   UNL A   1      38.037  29.817  33.212  1.00  0.00    -0.744 OA
ENDBRANCH  76  79
ENDBRANCH  48  72
BRANCH  60  83
ATOM     83  C   UNL A   1      45.648  26.161  32.756  1.00  0.00     0.023 A 
ATOM     84  C   UNL A   1      47.021  25.864  32.810  1.00  0.00     0.012 A 
ATOM     85  C   UNL A   1      44.825  25.406  33.636  1.00  0.00     0.148 A 
ATOM     86  C   UNL A   1      47.562  24.922  33.693  1.00  0.00     0.002 A 
ATOM     87  C   UNL A   1      45.370  24.525  34.568  1.00  0.00     0.091 A 
ATOM     88  F   UNL A   1      43.491  25.491  33.554  1.00  0.00    -0.205 F 
ATOM     89  C   UNL A   1      46.739  24.275  34.596  1.00  0.00     0.022 A 
BRANCH  87  90
ATOM     90  S   UNL A   1      44.366  23.733  35.831  1.00  0.00     0.127 S 
ATOM     91  O   UNL A   1      43.818  24.888  36.539  1.00  0.00    -0.237 OA
ATOM     92  O   UNL A   1      43.394  22.994  35.024  1.00  0.00    -0.237 OA
ATOM     93  O   UNL A   1      45.276  22.892  36.596  1.00  0.00    -0.744 OA
ENDBRANCH  87  90
ENDBRANCH  60  83
ENDBRANCH  34  35
ENDBRANCH  27  29
ENDBRANCH  26  27
ENDBRANCH  25  26
ENDBRANCH   1  25
TORSDOF 19
ENDMDL
MODEL 2
REMARK VINA RESULT:     -11.3      3.012      4.503
REMARK SMILES Cc1ccc(NC(=O)N2CCCC[C@@H]2C(=O)OCCOCCOC(=O)c2ccc(-c3c4nc(c(-c5cccc(S(=O)(=O)[O-])c5F)c5ccc([nH]5)c(-c5cccc(S(=O)(=O)[O-])c5F)c5nc(c(-c6cccc(S(=O)(=O)[O-])c6F)c6ccc3[nH]6)C=C5)C=C4)cc2)cc1
REMARK SMILES IDX 21 1 20 2 19 3 18 4 17 5 15 6 16 7 14 8 9 9 10 10 11 11
REMARK SMILES IDX 13 12 12 13 7 14 6 15 8 17 5 18 1 19 2 20 3 21 90 22 4 23
REMARK SMILES IDX 89 24 22 25 23 26 24 27 25 28 26 29 27 30 88 31 28 32 87 33
REMARK SMILES IDX 29 34 30 35 31 36 81 37 32 38 86 39 80 40 82 41 33 42 85 43
REMARK SMILES IDX 79 44 78 45 34 47 66 48 46 49 65 50 47 51 50 52 64 53 83 54
REMARK SMILES IDX 48 55 49 56 63 58 84 59 51 60 35 61 36 62 44 63 37 64 39 65
REMARK SMILES IDX 45 66 38 67 40 68 41 69 42 70 43 71 67 72 68 73 76 74 69 75
REMARK SMILES IDX 71 76 77 77 70 78 72 79 73 80 74 81 75 82 52 83 53 84 61 85
REMARK SMILES IDX 54 86 56 87 62 88 55 89 57 90 58 91 59 92 60 93
REMARK H PARENT 6 16 82 46 50 57
REMARK Flexibility Score: inf
ROOT
ATOM      1  C   UNL A   1      34.433  31.251  27.926  1.00  0.00     0.202 C 
ENDROOT
BRANCH   1   2
ATOM      2  O   UNL A   1      33.820  30.346  27.032  1.00  0.00    -0.374 OA
BRANCH   2   3
ATOM      3  C   UNL A   1      32.403  30.262  27.073  1.00  0.00     0.202 C 
BRANCH   3   4
ATOM      4  C   UNL A   1      31.935  30.282  25.638  1.00  0.00     0.261 C 
BRANCH   4   5
ATOM      5  O   UNL A   1      32.878  29.594  24.780  1.00  0.00    -0.462 OA
BRANCH   5   6
ATOM      6  C   UNL A   1      32.426  28.521  24.047  1.00  0.00     0.329 C 
ATOM      7  O   UNL A   1      33.085  27.947  23.211  1.00  0.00    -0.250 OA
BRANCH   6   8
ATOM      8  C   UNL A   1      30.993  28.101  24.452  1.00  0.00     0.196 C 
ATOM      9  N   UNL A   1      30.833  26.815  25.199  1.00  0.00    -0.311 N 
ATOM     10  C   UNL A   1      29.628  26.014  24.977  1.00  0.00     0.122 C 
ATOM     11  C   UNL A   1      28.965  26.145  23.621  1.00  0.00     0.022 C 
ATOM     12  C   UNL A   1      30.131  28.223  23.166  1.00  0.00     0.037 C 
ATOM     13  C   UNL A   1      28.760  27.606  23.286  1.00  0.00     0.005 C 
BRANCH   9  14
ATOM     14  C   UNL A   1      31.530  26.397  26.325  1.00  0.00     0.322 C 
ATOM     15  N   UNL A   1      32.335  25.317  26.341  1.00  0.00    -0.308 N 
ATOM     16  H   UNL A   1      32.222  24.766  27.149  1.00  0.00     0.171 HD
ATOM     17  O   UNL A   1      31.382  26.987  27.404  1.00  0.00    -0.248 OA
BRANCH  15  18
ATOM     18  C   UNL A   1      33.296  24.809  25.460  1.00  0.00     0.042 A 
ATOM     19  C   UNL A   1      36.329  22.927  23.063  1.00  0.00     0.044 C 
ATOM     20  C   UNL A   1      35.301  23.668  23.864  1.00  0.00    -0.051 A 
ATOM     21  C   UNL A   1      33.995  23.810  23.378  1.00  0.00     0.005 A 
ATOM     22  C   UNL A   1      35.616  24.179  25.125  1.00  0.00     0.005 A 
ATOM     23  C   UNL A   1      33.004  24.402  24.165  1.00  0.00     0.026 A 
ATOM     24  C   UNL A   1      34.621  24.763  25.909  1.00  0.00     0.026 A 
ENDBRANCH  15  18
ENDBRANCH   9  14
ENDBRANCH   6   8
ENDBRANCH   5   6
ENDBRANCH   4   5
ENDBRANCH   3   4
ENDBRANCH   2   3
ENDBRANCH   1   2
BRANCH   1  25
ATOM     25  C   UNL A   1      33.825  32.656  27.901  1.00  0.00     0.261 C 
BRANCH  25  26
ATOM     26  O   UNL A   1      33.706  33.147  29.249  1.00  0.00    -0.460 OA
BRANCH  26  27
ATOM     27  C   UNL A   1      34.366  34.315  29.488  1.00  0.00     0.338 C 
ATOM     28  O   UNL A   1      33.969  35.411  29.126  1.00  0.00    -0.246 OA
BRANCH  27  29
ATOM     29  C   UNL A   1      35.731  34.020  30.015  1.00  0.00     0.060 A 
ATOM     30  C   UNL A   1      36.840  34.077  29.156  1.00  0.00     0.016 A 
ATOM     31  C   UNL A   1      35.864  33.432  31.273  1.00  0.00     0.016 A 
ATOM     32  C   UNL A   1      38.027  33.405  29.487  1.00  0.00     0.010 A 
ATOM     33  C   UNL A   1      37.016  32.726  31.566  1.00  0.00     0.010 A 
ATOM     34  C   UNL A   1      38.085  32.655  30.655  1.00  0.00    -0.014 A 
BRANCH  34  35
ATOM     35  C   UNL A   1      39.179  31.757  31.042  1.00  0.00     0.031 A 
ATOM     36  C   UNL A   1      39.298  30.468  30.324  1.00  0.00     0.074 A 
ATOM     37  C   UNL A   1      40.230  32.165  31.798  1.00  0.00     0.049 A 
ATOM     38  N   UNL A   1      40.204  29.588  30.577  1.00  0.00    -0.248 NA
ATOM     39  C   UNL A   1      38.375  30.040  29.277  1.00  0.00     0.031 C 
ATOM     40  C   UNL A   1      41.606  31.675  31.694  1.00  0.00     0.029 A 
ATOM     41  N   UNL A   1      40.345  33.170  32.766  1.00  0.00    -0.354 N 
ATOM     42  C   UNL A   1      40.216  28.694  29.539  1.00  0.00     0.074 A 
ATOM     43  C   UNL A   1      38.962  28.910  28.867  1.00  0.00     0.031 C 
ATOM     44  C   UNL A   1      42.378  32.242  32.630  1.00  0.00     0.029 A 
ATOM     45  C   UNL A   1      41.484  32.905  33.546  1.00  0.00     0.049 A 
ATOM     46  H   UNL A   1      39.731  33.931  32.881  1.00  0.00     0.167 HD
ATOM     47  C   UNL A   1      41.368  28.004  29.304  1.00  0.00     0.034 A 
ATOM     48  C   UNL A   1      41.398  32.673  34.883  1.00  0.00     0.034 A 
ATOM     49  C   UNL A   1      42.343  28.192  30.415  1.00  0.00     0.049 A 
ATOM     50  C   UNL A   1      41.855  31.272  35.221  1.00  0.00     0.074 A 
ATOM     51  C   UNL A   1      43.593  28.780  30.530  1.00  0.00     0.029 A 
ATOM     52  N   UNL A   1      41.942  27.920  31.730  1.00  0.00    -0.354 N 
ATOM     53  N   UNL A   1      42.286  30.412  34.340  1.00  0.00    -0.248 NA
ATOM     54  C   UNL A   1      41.867  30.719  36.564  1.00  0.00     0.031 C 
ATOM     55  C   UNL A   1      43.912  28.897  31.921  1.00  0.00     0.029 A 
ATOM     56  C   UNL A   1      42.883  28.336  32.665  1.00  0.00     0.049 A 
ATOM     57  H   UNL A   1      41.092  27.482  31.965  1.00  0.00     0.167 HD
ATOM     58  C   UNL A   1      42.461  29.182  34.898  1.00  0.00     0.074 A 
ATOM     59  C   UNL A   1      42.273  29.459  36.319  1.00  0.00     0.031 C 
ATOM     60  C   UNL A   1      42.675  28.076  34.107  1.00  0.00     0.034 A 
BRANCH  47  61
ATOM     61  C   UNL A   1      41.712  27.285  27.995  1.00  0.00     0.023 A 
ATOM     62  C   UNL A   1      41.812  28.076  26.828  1.00  0.00     0.012 A 
ATOM     63  C   UNL A   1      41.879  25.887  27.792  1.00  0.00     0.148 A 
ATOM     64  C   UNL A   1      42.046  27.528  25.557  1.00  0.00     0.002 A 
ATOM     65  C   UNL A   1      42.172  25.343  26.535  1.00  0.00     0.091 A 
ATOM     66  F   UNL A   1      41.686  25.031  28.791  1.00  0.00    -0.205 F 
ATOM     67  C   UNL A   1      42.241  26.162  25.410  1.00  0.00     0.022 A 
BRANCH  65  68
ATOM     68  S   UNL A   1      42.464  23.577  26.279  1.00  0.00     0.127 S 
ATOM     69  O   UNL A   1      41.123  23.016  26.441  1.00  0.00    -0.237 OA
ATOM     70  O   UNL A   1      42.976  23.540  24.909  1.00  0.00    -0.237 OA
ATOM     71  O   UNL A   1      43.422  23.160  27.295  1.00  0.00    -0.744 OA
ENDBRANCH  65  68
ENDBRANCH  47  61
BRANCH  48  72
ATOM     72  C   UNL A   1      40.306  33.469  35.520  1.00  0.00     0.023 A 
ATOM     73  C   UNL A   1      39.023  32.863  35.582  1.00  0.00     0.012 A 
ATOM     74  C   UNL A   1      40.608  34.500  36.426  1.00  0.00     0.148 A 
ATOM     75  C   UNL A   1      38.120  33.188  36.598  1.00  0.00     0.002 A 
ATOM     76  C   UNL A   1      39.723  34.782  37.466  1.00  0.00     0.091 A 
ATOM     77  F   UNL A   1      41.782  35.133  36.305  1.00  0.00    -0.205 F 
ATOM     78  C   UNL A   1      38.493  34.111  37.569  1.00  0.00     0.022 A 
BRANCH  76  79
ATOM     79  S   UNL A   1      40.182  35.869  38.822  1.00  0.00     0.127 S 
ATOM     80  O   UNL A   1      40.230  37.168  38.158  1.00  0.00    -0.237 OA
ATOM     81  O   UNL A   1      39.065  35.698  39.754  1.00  0.00    -0.237 OA
ATOM     82  O   UNL A   1      41.453  35.356  39.315  1.00  0.00    -0.744 OA
ENDBRANCH  76  79
ENDBRANCH  48  72
BRANCH  60  83
ATOM     83  C   UNL A   1      42.665  26.623  34.589  1.00  0.00     0.023 A 
ATOM     84  C   UNL A   1      41.623  26.076  35.359  1.00  0.00     0.012 A 
ATOM     85  C   UNL A   1      43.693  25.713  34.219  1.00  0.00     0.148 A 
ATOM     86  C   UNL A   1      41.567  24.723  35.711  1.00  0.00     0.002 A 
ATOM     87  C   UNL A   1      43.599  24.352  34.502  1.00  0.00     0.091 A 
ATOM     88  F   UNL A   1      44.808  26.158  33.626  1.00  0.00    -0.205 F 
ATOM     89  C   UNL A   1      42.539  23.853  35.255  1.00  0.00     0.022 A 
BRANCH  87  90
ATOM     90  S   UNL A   1      44.776  23.159  33.851  1.00  0.00     0.127 S 
ATOM     91  O   UNL A   1      44.211  21.899  34.329  1.00  0.00    -0.237 OA
ATOM     92  O   UNL A   1      44.657  23.374  32.408  1.00  0.00    -0.237 OA
ATOM     93  O   UNL A   1      46.069  23.528  34.409  1.00  0.00    -0.744 OA
ENDBRANCH  87  90
ENDBRANCH  60  83
ENDBRANCH  34  35
ENDBRANCH  27  29
ENDBRANCH  26  27
ENDBRANCH  25  26
ENDBRANCH   1  25
TORSDOF 19
ENDMDL
MODEL 3
REMARK VINA RESULT:     -11.2      2.899      4.600
REMARK SMILES Cc1ccc(NC(=O)N2CCCC[C@@H]2C(=O)OCCOCCOC(=O)c2ccc(-c3c4nc(c(-c5cccc(S(=O)(=O)[O-])c5F)c5ccc([nH]5)c(-c5cccc(S(=O)(=O)[O-])c5F)c5nc(c(-c6cccc(S(=O)(=O)[O-])c6F)c6ccc3[nH]6)C=C5)C=C4)cc2)cc1
REMARK SMILES IDX 21 1 20 2 19 3 18 4 17 5 15 6 16 7 14 8 9 9 10 10 11 11
REMARK SMILES IDX 13 12 12 13 7 14 6 15 8 17 5 18 1 19 2 20 3 21 90 22 4 23
REMARK SMILES IDX 89 24 22 25 23 26 24 27 25 28 26 29 27 30 88 31 28 32 87 33
REMARK SMILES IDX 29 34 30 35 31 36 81 37 32 38 86 39 80 40 82 41 33 42 85 43
REMARK SMILES IDX 79 44 78 45 34 47 66 48 46 49 65 50 47 51 50 52 64 53 83 54
REMARK SMILES IDX 48 55 49 56 63 58 84 59 51 60 35 61 36 62 44 63 37 64 39 65
REMARK SMILES IDX 45 66 38 67 40 68 41 69 42 70 43 71 67 72 68 73 76 74 69 75
REMARK SMILES IDX 71 76 77 77 70 78 72 79 73 80 74 81 75 82 52 83 53 84 61 85
REMARK SMILES IDX 54 86 56 87 62 88 55 89 57 90 58 91 59 92 60 93
REMARK H PARENT 6 16 82 46 50 57
REMARK Flexibility Score: inf
ROOT
ATOM      1  C   UNL A   1      33.463  30.427  27.232  1.00  0.00     0.202 C 
ENDROOT
BRANCH   1   2
ATOM      2  O   UNL A   1      32.397  29.502  27.182  1.00  0.00    -0.374 OA
BRANCH   2   3
ATOM      3  C   UNL A   1      32.742  28.124  27.184  1.00  0.00     0.202 C 
BRANCH   3   4
ATOM      4  C   UNL A   1      34.026  28.007  26.399  1.00  0.00     0.261 C 
BRANCH   4   5
ATOM      5  O   UNL A   1      33.795  27.344  25.131  1.00  0.00    -0.462 OA
BRANCH   5   6
ATOM      6  C   UNL A   1      33.818  25.969  25.103  1.00  0.00     0.329 C 
ATOM      7  O   UNL A   1      34.433  25.287  25.889  1.00  0.00    -0.250 OA
BRANCH   6   8
ATOM      8  C   UNL A   1      32.926  25.395  23.977  1.00  0.00     0.196 C 
ATOM      9  N   UNL A   1      31.720  24.608  24.381  1.00  0.00    -0.311 N 
ATOM     10  C   UNL A   1      31.291  23.490  23.540  1.00  0.00     0.122 C 
ATOM     11  C   UNL A   1      32.367  22.793  22.734  1.00  0.00     0.022 C 
ATOM     12  C   UNL A   1      33.886  24.666  22.998  1.00  0.00     0.037 C 
ATOM     13  C   UNL A   1      33.184  23.813  21.972  1.00  0.00     0.005 C 
BRANCH   9  14
ATOM     14  C   UNL A   1      30.742  24.968  25.300  1.00  0.00     0.322 C 
ATOM     15  N   UNL A   1      30.232  26.212  25.389  1.00  0.00    -0.308 N 
ATOM     16  H   UNL A   1      30.134  26.520  26.319  1.00  0.00     0.171 HD
ATOM     17  O   UNL A   1      30.338  24.148  26.134  1.00  0.00    -0.248 OA
BRANCH  15  18
ATOM     18  C   UNL A   1      29.812  27.159  24.450  1.00  0.00     0.042 A 
ATOM     19  C   UNL A   1      28.191  30.180  21.855  1.00  0.00     0.044 C 
ATOM     20  C   UNL A   1      28.777  29.076  22.681  1.00  0.00    -0.051 A 
ATOM     21  C   UNL A   1      30.106  29.151  23.120  1.00  0.00     0.005 A 
ATOM     22  C   UNL A   1      27.995  27.985  23.068  1.00  0.00     0.005 A 
ATOM     23  C   UNL A   1      30.627  28.182  23.981  1.00  0.00     0.026 A 
ATOM     24  C   UNL A   1      28.518  27.023  23.932  1.00  0.00     0.026 A 
ENDBRANCH  15  18
ENDBRANCH   9  14
ENDBRANCH   6   8
ENDBRANCH   5   6
ENDBRANCH   4   5
ENDBRANCH   3   4
ENDBRANCH   2   3
ENDBRANCH   1   2
BRANCH   1  25
ATOM     25  C   UNL A   1      33.012  31.890  27.272  1.00  0.00     0.261 C 
BRANCH  25  26
ATOM     26  O   UNL A   1      34.157  32.735  27.487  1.00  0.00    -0.460 OA
BRANCH  26  27
ATOM     27  C   UNL A   1      34.161  33.393  28.681  1.00  0.00     0.338 C 
ATOM     28  O   UNL A   1      33.305  34.193  29.023  1.00  0.00    -0.246 OA
BRANCH  27  29
ATOM     29  C   UNL A   1      35.469  33.180  29.367  1.00  0.00     0.060 A 
ATOM     30  C   UNL A   1      36.667  33.464  28.691  1.00  0.00     0.016 A 
ATOM     31  C   UNL A   1      35.506  32.453  30.556  1.00  0.00     0.016 A 
ATOM     32  C   UNL A   1      37.873  32.885  29.115  1.00  0.00     0.010 A 
ATOM     33  C   UNL A   1      36.687  31.841  30.935  1.00  0.00     0.010 A 
ATOM     34  C   UNL A   1      37.868  32.002  30.187  1.00  0.00    -0.014 A 
BRANCH  34  35
ATOM     35  C   UNL A   1      39.004  31.184  30.629  1.00  0.00     0.031 A 
ATOM     36  C   UNL A   1      39.181  29.857  29.996  1.00  0.00     0.074 A 
ATOM     37  C   UNL A   1      40.035  31.689  31.351  1.00  0.00     0.049 A 
ATOM     38  N   UNL A   1      40.128  29.039  30.302  1.00  0.00    -0.248 NA
ATOM     39  C   UNL A   1      38.278  29.318  28.984  1.00  0.00     0.031 C 
ATOM     40  C   UNL A   1      41.433  31.258  31.273  1.00  0.00     0.029 A 
ATOM     41  N   UNL A   1      40.104  32.760  32.250  1.00  0.00    -0.354 N 
ATOM     42  C   UNL A   1      40.180  28.079  29.325  1.00  0.00     0.074 A 
ATOM     43  C   UNL A   1      38.916  28.193  28.646  1.00  0.00     0.031 C 
ATOM     44  C   UNL A   1      42.179  31.920  32.166  1.00  0.00     0.029 A 
ATOM     45  C   UNL A   1      41.256  32.601  33.041  1.00  0.00     0.049 A 
ATOM     46  H   UNL A   1      39.456  33.498  32.317  1.00  0.00     0.167 HD
ATOM     47  C   UNL A   1      41.363  27.430  29.131  1.00  0.00     0.034 A 
ATOM     48  C   UNL A   1      41.182  32.453  34.391  1.00  0.00     0.034 A 
ATOM     49  C   UNL A   1      42.330  27.736  30.223  1.00  0.00     0.049 A 
ATOM     50  C   UNL A   1      41.705  31.100  34.818  1.00  0.00     0.074 A 
ATOM     51  C   UNL A   1      43.551  28.388  30.293  1.00  0.00     0.029 A 
ATOM     52  N   UNL A   1      41.943  27.533  31.555  1.00  0.00    -0.354 N 
ATOM     53  N   UNL A   1      42.175  30.205  33.993  1.00  0.00    -0.248 NA
ATOM     54  C   UNL A   1      41.744  30.638  36.194  1.00  0.00     0.031 C 
ATOM     55  C   UNL A   1      43.866  28.611  31.672  1.00  0.00     0.029 A 
ATOM     56  C   UNL A   1      42.866  28.053  32.456  1.00  0.00     0.049 A 
ATOM     57  H   UNL A   1      41.115  27.073  31.822  1.00  0.00     0.167 HD
ATOM     58  C   UNL A   1      42.408  29.024  34.630  1.00  0.00     0.074 A 
ATOM     59  C   UNL A   1      42.208  29.385  36.032  1.00  0.00     0.031 C 
ATOM     60  C   UNL A   1      42.671  27.880  33.913  1.00  0.00     0.034 A 
BRANCH  47  61
ATOM     61  C   UNL A   1      41.738  26.643  27.871  1.00  0.00     0.023 A 
ATOM     62  C   UNL A   1      42.073  27.387  26.717  1.00  0.00     0.012 A 
ATOM     63  C   UNL A   1      41.726  25.232  27.694  1.00  0.00     0.148 A 
ATOM     64  C   UNL A   1      42.360  26.786  25.482  1.00  0.00     0.002 A 
ATOM     65  C   UNL A   1      42.070  24.626  26.479  1.00  0.00     0.091 A 
ATOM     66  F   UNL A   1      41.308  24.432  28.672  1.00  0.00    -0.205 F 
ATOM     67  C   UNL A   1      42.374  25.404  25.364  1.00  0.00     0.022 A 
BRANCH  65  68
ATOM     68  S   UNL A   1      42.133  22.832  26.265  1.00  0.00     0.127 S 
ATOM     69  O   UNL A   1      42.994  22.418  27.373  1.00  0.00    -0.237 OA
ATOM     70  O   UNL A   1      40.729  22.450  26.413  1.00  0.00    -0.237 OA
ATOM     71  O   UNL A   1      42.692  22.588  24.940  1.00  0.00    -0.744 OA
ENDBRANCH  65  68
ENDBRANCH  47  61
BRANCH  48  72
ATOM     72  C   UNL A   1      40.055  33.238  34.978  1.00  0.00     0.023 A 
ATOM     73  C   UNL A   1      38.771  32.632  34.955  1.00  0.00     0.012 A 
ATOM     74  C   UNL A   1      40.305  34.252  35.920  1.00  0.00     0.148 A 
ATOM     75  C   UNL A   1      37.811  32.939  35.924  1.00  0.00     0.002 A 
ATOM     76  C   UNL A   1      39.361  34.515  36.912  1.00  0.00     0.091 A 
ATOM     77  F   UNL A   1      41.483  34.886  35.878  1.00  0.00    -0.205 F 
ATOM     78  C   UNL A   1      38.127  33.842  36.932  1.00  0.00     0.022 A 
BRANCH  76  79
ATOM     79  S   UNL A   1      39.741  35.575  38.313  1.00  0.00     0.127 S 
ATOM     80  O   UNL A   1      39.723  36.898  37.696  1.00  0.00    -0.237 OA
ATOM     81  O   UNL A   1      38.624  35.307  39.222  1.00  0.00    -0.237 OA
ATOM     82  O   UNL A   1      41.033  35.117  38.805  1.00  0.00    -0.744 OA
ENDBRANCH  76  79
ENDBRANCH  48  72
BRANCH  60  83
ATOM     83  C   UNL A   1      42.730  26.463  34.490  1.00  0.00     0.023 A 
ATOM     84  C   UNL A   1      41.685  25.894  35.240  1.00  0.00     0.012 A 
ATOM     85  C   UNL A   1      43.836  25.604  34.235  1.00  0.00     0.148 A 
ATOM     86  C   UNL A   1      41.698  24.565  35.678  1.00  0.00     0.002 A 
ATOM     87  C   UNL A   1      43.815  24.261  34.603  1.00  0.00     0.091 A 
ATOM     88  F   UNL A   1      44.950  26.088  33.672  1.00  0.00    -0.205 F 
ATOM     89  C   UNL A   1      42.750  23.738  35.331  1.00  0.00     0.022 A 
BRANCH  87  90
ATOM     90  S   UNL A   1      45.103  23.114  34.095  1.00  0.00     0.127 S 
ATOM     91  O   UNL A   1      44.551  21.837  34.543  1.00  0.00    -0.237 OA
ATOM     92  O   UNL A   1      45.116  23.298  32.643  1.00  0.00    -0.237 OA
ATOM     93  O   UNL A   1      46.317  23.552  34.768  1.00  0.00    -0.744 OA
ENDBRANCH  87  90
ENDBRANCH  60  83
ENDBRANCH  34  35
ENDBRANCH  27  29
ENDBRANCH  26  27
ENDBRANCH  25  26
ENDBRANCH   1  25
TORSDOF 19
ENDMDL
