MODEL 1
REMARK VINA RESULT:     -10.2      0.000      0.000
REMARK SMILES Cc1coc2cc3c(cc12)[C@@H](C)[C@H](CCC(=O)N[C@@H](Cc1c[nH]c2ccccc12)C(=O)OCCOCCOC(=O)c1ccc(-c2c4nc(c(-c5cccc(S(=O)(=O)[O-])c5F)c5ccc([nH]5)c(-c5cccc(S(=O)(=O)[O-])c5F)c5nc(c(-c6cccc(S(=O)(=O)[O-])c6F)c6ccc2[nH]6)C=C5)C=C4)cc1)C(=O)O3
REMARK SMILES IDX 34 1 33 2 32 3 30 4 31 5 19 6 18 7 16 8 17 9 15 11 14 12
REMARK SMILES IDX 13 13 1 14 2 15 3 16 10 17 4 18 5 19 9 20 6 21 8 22 7 23
REMARK SMILES IDX 11 24 106 25 12 26 104 27 105 28 20 29 21 30 22 31 29 32
REMARK SMILES IDX 23 33 24 34 28 35 25 37 27 38 26 39 35 40 36 41 37 42 38 43
REMARK SMILES IDX 39 44 40 45 41 46 42 47 103 48 43 49 102 50 44 51 45 52
REMARK SMILES IDX 46 53 96 54 47 55 101 56 95 57 97 58 48 59 100 60 94 61
REMARK SMILES IDX 93 62 49 64 81 65 61 66 80 67 62 68 65 69 79 70 98 71 63 72
REMARK SMILES IDX 64 73 78 75 99 76 66 77 50 78 51 79 59 80 52 81 54 82 60 83
REMARK SMILES IDX 53 84 55 85 56 86 57 87 58 88 82 89 83 90 91 91 84 92 86 93
REMARK SMILES IDX 92 94 85 95 87 96 88 97 89 98 90 99 67 100 68 101 76 102
REMARK SMILES IDX 69 103 71 104 77 105 70 106 72 107 73 108 74 109 75 110
REMARK H PARENT 18 10 23 36 97 63 65 74
REMARK Flexibility Score: inf
ROOT
ATOM      1  C   UNL A   1      39.867  26.148  28.975  1.00  0.00     0.202 C 
ENDROOT
BRANCH   1   2
ATOM      2  C   UNL A   1      39.858  27.665  29.167  1.00  0.00     0.261 C 
BRANCH   2   3
ATOM      3  O   UNL A   1      38.534  28.167  29.342  1.00  0.00    -0.462 OA
BRANCH   3   4
ATOM      4  C   UNL A   1      38.269  29.229  28.565  1.00  0.00     0.329 C 
ATOM      5  O   UNL A   1      38.588  29.345  27.383  1.00  0.00    -0.250 OA
BRANCH   4   6
ATOM      6  C   UNL A   1      37.505  30.335  29.266  1.00  0.00     0.196 C 
BRANCH   6   7
ATOM      7  N   UNL A   1      36.669  31.371  28.625  1.00  0.00    -0.342 N 
ATOM      8  C   UNL A   1      35.465  31.260  27.972  1.00  0.00     0.220 C 
ATOM      9  O   UNL A   1      35.011  32.251  27.395  1.00  0.00    -0.275 OA
ATOM     10  H   UNL A   1      37.032  32.285  28.675  1.00  0.00     0.164 HD
BRANCH   8  11
ATOM     11  C   UNL A   1      34.633  29.970  28.030  1.00  0.00     0.101 C 
BRANCH  11  12
ATOM     12  C   UNL A   1      34.790  28.906  26.921  1.00  0.00     0.026 C 
BRANCH  12  13
ATOM     13  C   UNL A   1      33.499  28.147  26.585  1.00  0.00     0.107 C 
ATOM     14  C   UNL A   1      28.393  31.947  23.489  1.00  0.00     0.048 C 
ATOM     15  C   UNL A   1      29.091  30.754  22.965  1.00  0.00    -0.005 A 
ATOM     16  C   UNL A   1      28.972  30.198  21.706  1.00  0.00     0.199 A 
ATOM     17  C   UNL A   1      30.031  29.938  23.653  1.00  0.00     0.024 A 
ATOM     18  O   UNL A   1      29.730  29.080  21.590  1.00  0.00    -0.464 OA
ATOM     19  C   UNL A   1      30.365  28.913  22.778  1.00  0.00     0.137 A 
ATOM     20  C   UNL A   1      30.622  29.959  24.925  1.00  0.00     0.020 A 
ATOM     21  C   UNL A   1      31.228  27.875  23.085  1.00  0.00     0.095 A 
ATOM     22  C   UNL A   1      31.551  28.961  25.254  1.00  0.00    -0.001 A 
ATOM     23  C   UNL A   1      31.814  27.940  24.346  1.00  0.00     0.138 A 
ATOM     24  C   UNL A   1      32.204  28.974  26.598  1.00  0.00     0.034 C 
ATOM     25  O   UNL A   1      32.692  26.897  24.626  1.00  0.00    -0.426 OA
ATOM     26  C   UNL A   1      31.178  28.478  27.643  1.00  0.00     0.014 C 
ATOM     27  C   UNL A   1      33.740  27.162  25.462  1.00  0.00     0.314 C 
ATOM     28  O   UNL A   1      34.775  26.506  25.386  1.00  0.00    -0.251 OA
ENDBRANCH  12  13
ENDBRANCH  11  12
ENDBRANCH   8  11
ENDBRANCH   6   7
BRANCH   6  29
ATOM     29  C   UNL A   1      36.774  29.656  30.447  1.00  0.00     0.074 C 
BRANCH  29  30
ATOM     30  C   UNL A   1      36.877  30.395  31.740  1.00  0.00    -0.020 A 
ATOM     31  C   UNL A   1      37.792  30.162  32.746  1.00  0.00     0.087 A 
ATOM     32  C   UNL A   1      36.092  31.522  32.139  1.00  0.00     0.003 A 
ATOM     33  N   UNL A   1      37.571  31.070  33.746  1.00  0.00    -0.361 N 
ATOM     34  C   UNL A   1      36.530  31.903  33.406  1.00  0.00     0.046 A 
ATOM     35  C   UNL A   1      35.059  32.268  31.533  1.00  0.00     0.010 A 
ATOM     36  H   UNL A   1      38.083  31.121  34.585  1.00  0.00     0.166 HD
ATOM     37  C   UNL A   1      35.969  32.974  34.110  1.00  0.00     0.026 A 
ATOM     38  C   UNL A   1      34.501  33.355  32.213  1.00  0.00     0.001 A 
ATOM     39  C   UNL A   1      34.947  33.695  33.487  1.00  0.00     0.002 A 
ENDBRANCH  29  30
ENDBRANCH   6  29
ENDBRANCH   4   6
ENDBRANCH   3   4
ENDBRANCH   2   3
ENDBRANCH   1   2
BRANCH   1  40
ATOM     40  O   UNL A   1      39.268  25.639  27.787  1.00  0.00    -0.374 OA
BRANCH  40  41
ATOM     41  C   UNL A   1      38.706  24.323  27.820  1.00  0.00     0.202 C 
BRANCH  41  42
ATOM     42  C   UNL A   1      38.703  23.443  26.550  1.00  0.00     0.261 C 
BRANCH  42  43
ATOM     43  O   UNL A   1      39.992  22.870  26.280  1.00  0.00    -0.460 OA
BRANCH  43  44
ATOM     44  C   UNL A   1      40.705  22.460  27.362  1.00  0.00     0.338 C 
ATOM     45  O   UNL A   1      40.619  21.388  27.940  1.00  0.00    -0.246 OA
BRANCH  44  46
ATOM     46  C   UNL A   1      41.860  23.375  27.453  1.00  0.00     0.060 A 
ATOM     47  C   UNL A   1      42.512  23.607  28.664  1.00  0.00     0.016 A 
ATOM     48  C   UNL A   1      42.095  24.198  26.337  1.00  0.00     0.016 A 
ATOM     49  C   UNL A   1      43.341  24.722  28.773  1.00  0.00     0.010 A 
ATOM     50  C   UNL A   1      42.863  25.349  26.472  1.00  0.00     0.010 A 
ATOM     51  C   UNL A   1      43.468  25.627  27.700  1.00  0.00    -0.014 A 
BRANCH  51  52
ATOM     52  C   UNL A   1      44.496  26.670  27.793  1.00  0.00     0.031 A 
ATOM     53  C   UNL A   1      45.818  26.094  27.439  1.00  0.00     0.074 A 
ATOM     54  C   UNL A   1      44.332  27.992  28.033  1.00  0.00     0.049 A 
ATOM     55  N   UNL A   1      46.811  25.877  28.236  1.00  0.00    -0.248 NA
ATOM     56  C   UNL A   1      45.960  25.467  26.113  1.00  0.00     0.031 C 
ATOM     57  C   UNL A   1      43.074  28.733  28.142  1.00  0.00     0.029 A 
ATOM     58  N   UNL A   1      45.275  28.990  28.113  1.00  0.00    -0.354 N 
ATOM     59  C   UNL A   1      47.798  25.321  27.428  1.00  0.00     0.074 A 
ATOM     60  C   UNL A   1      47.146  24.871  26.232  1.00  0.00     0.031 C 
ATOM     61  C   UNL A   1      43.321  30.060  28.029  1.00  0.00     0.029 A 
ATOM     62  C   UNL A   1      44.755  30.279  27.955  1.00  0.00     0.049 A 
ATOM     63  H   UNL A   1      46.231  28.812  28.270  1.00  0.00     0.167 HD
ATOM     64  C   UNL A   1      49.111  25.568  27.668  1.00  0.00     0.034 A 
ATOM     65  C   UNL A   1      45.446  31.426  27.714  1.00  0.00     0.034 A 
ATOM     66  C   UNL A   1      49.306  26.082  28.998  1.00  0.00     0.049 A 
ATOM     67  C   UNL A   1      46.836  31.206  28.154  1.00  0.00     0.074 A 
ATOM     68  C   UNL A   1      49.115  25.619  30.282  1.00  0.00     0.029 A 
ATOM     69  N   UNL A   1      49.422  27.444  29.071  1.00  0.00    -0.354 N 
ATOM     70  N   UNL A   1      47.186  31.078  29.401  1.00  0.00    -0.248 NA
ATOM     71  C   UNL A   1      47.825  30.790  27.174  1.00  0.00     0.031 C 
ATOM     72  C   UNL A   1      48.799  26.773  31.056  1.00  0.00     0.029 A 
ATOM     73  C   UNL A   1      48.863  27.896  30.230  1.00  0.00     0.049 A 
ATOM     74  H   UNL A   1      49.848  28.013  28.388  1.00  0.00     0.167 HD
ATOM     75  C   UNL A   1      48.199  30.136  29.362  1.00  0.00     0.074 A 
ATOM     76  C   UNL A   1      48.659  30.128  27.978  1.00  0.00     0.031 C 
ATOM     77  C   UNL A   1      48.336  29.237  30.378  1.00  0.00     0.034 A 
BRANCH  64  78
ATOM     78  C   UNL A   1      50.147  25.797  26.583  1.00  0.00     0.023 A 
ATOM     79  C   UNL A   1      51.340  25.044  26.673  1.00  0.00     0.012 A 
ATOM     80  C   UNL A   1      50.150  26.884  25.675  1.00  0.00     0.148 A 
ATOM     81  C   UNL A   1      52.481  25.382  25.938  1.00  0.00     0.002 A 
ATOM     82  C   UNL A   1      51.257  27.162  24.883  1.00  0.00     0.091 A 
ATOM     83  F   UNL A   1      49.139  27.753  25.661  1.00  0.00    -0.205 F 
ATOM     84  C   UNL A   1      52.437  26.434  25.033  1.00  0.00     0.022 A 
BRANCH  82  85
ATOM     85  S   UNL A   1      51.236  28.481  23.660  1.00  0.00     0.127 S 
ATOM     86  O   UNL A   1      52.440  28.186  22.890  1.00  0.00    -0.237 OA
ATOM     87  O   UNL A   1      49.974  28.219  22.968  1.00  0.00    -0.237 OA
ATOM     88  O   UNL A   1      51.254  29.725  24.419  1.00  0.00    -0.744 OA
ENDBRANCH  82  85
ENDBRANCH  64  78
BRANCH  65  89
ATOM     89  C   UNL A   1      45.104  32.641  26.919  1.00  0.00     0.023 A 
ATOM     90  C   UNL A   1      44.610  32.507  25.599  1.00  0.00     0.012 A 
ATOM     91  C   UNL A   1      44.943  33.887  27.554  1.00  0.00     0.148 A 
ATOM     92  C   UNL A   1      43.931  33.557  24.963  1.00  0.00     0.002 A 
ATOM     93  C   UNL A   1      44.265  34.928  26.920  1.00  0.00     0.091 A 
ATOM     94  F   UNL A   1      45.368  34.024  28.816  1.00  0.00    -0.205 F 
ATOM     95  C   UNL A   1      43.745  34.763  25.630  1.00  0.00     0.022 A 
BRANCH  93  96
ATOM     96  S   UNL A   1      43.934  36.492  27.744  1.00  0.00     0.127 S 
ATOM     97  O   UNL A   1      45.258  37.116  27.747  1.00  0.00    -0.237 OA
ATOM     98  O   UNL A   1      42.967  37.109  26.841  1.00  0.00    -0.237 OA
ATOM     99  O   UNL A   1      43.429  36.147  29.066  1.00  0.00    -0.744 OA
ENDBRANCH  93  96
ENDBRANCH  65  89
BRANCH  77 100
ATOM    100  C   UNL A   1      47.700  29.562  31.704  1.00  0.00     0.023 A 
ATOM    101  C   UNL A   1      48.319  30.362  32.684  1.00  0.00     0.012 A 
ATOM    102  C   UNL A   1      46.360  29.178  31.879  1.00  0.00     0.148 A 
ATOM    103  C   UNL A   1      47.610  30.766  33.820  1.00  0.00     0.002 A 
ATOM    104  C   UNL A   1      45.643  29.633  32.975  1.00  0.00     0.091 A 
ATOM    105  F   UNL A   1      45.797  28.400  30.941  1.00  0.00    -0.205 F 
ATOM    106  C   UNL A   1      46.267  30.420  33.954  1.00  0.00     0.022 A 
BRANCH 104 107
ATOM    107  S   UNL A   1      43.878  29.349  33.117  1.00  0.00     0.127 S 
ATOM    108  O   UNL A   1      43.394  29.770  31.803  1.00  0.00    -0.237 OA
ATOM    109  O   UNL A   1      43.815  27.907  33.361  1.00  0.00    -0.237 OA
ATOM    110  O   UNL A   1      43.428  30.162  34.239  1.00  0.00    -0.744 OA
ENDBRANCH 104 107
ENDBRANCH  77 100
ENDBRANCH  51  52
ENDBRANCH  44  46
ENDBRANCH  43  44
ENDBRANCH  42  43
ENDBRANCH  41  42
ENDBRANCH  40  41
ENDBRANCH   1  40
TORSDOF 23
ENDMDL
MODEL 2
REMARK VINA RESULT:     -10.0      4.697     11.142
REMARK SMILES Cc1coc2cc3c(cc12)[C@@H](C)[C@H](CCC(=O)N[C@@H](Cc1c[nH]c2ccccc12)C(=O)OCCOCCOC(=O)c1ccc(-c2c4nc(c(-c5cccc(S(=O)(=O)[O-])c5F)c5ccc([nH]5)c(-c5cccc(S(=O)(=O)[O-])c5F)c5nc(c(-c6cccc(S(=O)(=O)[O-])c6F)c6ccc2[nH]6)C=C5)C=C4)cc1)C(=O)O3
REMARK SMILES IDX 34 1 33 2 32 3 30 4 31 5 19 6 18 7 16 8 17 9 15 11 14 12
REMARK SMILES IDX 13 13 1 14 2 15 3 16 10 17 4 18 5 19 9 20 6 21 8 22 7 23
REMARK SMILES IDX 11 24 106 25 12 26 104 27 105 28 20 29 21 30 22 31 29 32
REMARK SMILES IDX 23 33 24 34 28 35 25 37 27 38 26 39 35 40 36 41 37 42 38 43
REMARK SMILES IDX 39 44 40 45 41 46 42 47 103 48 43 49 102 50 44 51 45 52
REMARK SMILES IDX 46 53 96 54 47 55 101 56 95 57 97 58 48 59 100 60 94 61
REMARK SMILES IDX 93 62 49 64 81 65 61 66 80 67 62 68 65 69 79 70 98 71 63 72
REMARK SMILES IDX 64 73 78 75 99 76 66 77 50 78 51 79 59 80 52 81 54 82 60 83
REMARK SMILES IDX 53 84 55 85 56 86 57 87 58 88 82 89 83 90 91 91 84 92 86 93
REMARK SMILES IDX 92 94 85 95 87 96 88 97 89 98 90 99 67 100 68 101 76 102
REMARK SMILES IDX 69 103 71 104 77 105 70 106 72 107 73 108 74 109 75 110
REMARK H PARENT 18 10 23 36 97 63 65 74
REMARK Flexibility Score: inf
ROOT
ATOM      1  C   UNL A   1      47.895  26.429  32.061  1.00  0.00     0.202 C 
ENDROOT
BRANCH   1   2
ATOM      2  C   UNL A   1      47.728  25.633  30.766  1.00  0.00     0.261 C 
BRANCH   2   3
ATOM      3  O   UNL A   1      47.731  26.483  29.620  1.00  0.00    -0.462 OA
BRANCH   3   4
ATOM      4  C   UNL A   1      46.551  27.088  29.412  1.00  0.00     0.329 C 
ATOM      5  O   UNL A   1      45.471  26.723  29.876  1.00  0.00    -0.250 OA
BRANCH   4   6
ATOM      6  C   UNL A   1      46.631  28.318  28.531  1.00  0.00     0.196 C 
BRANCH   6   7
ATOM      7  N   UNL A   1      46.781  28.340  27.060  1.00  0.00    -0.342 N 
ATOM      8  C   UNL A   1      46.525  27.363  26.129  1.00  0.00     0.220 C 
ATOM      9  O   UNL A   1      46.852  27.562  24.956  1.00  0.00    -0.275 OA
ATOM     10  H   UNL A   1      47.116  29.188  26.691  1.00  0.00     0.164 HD
BRANCH   8  11
ATOM     11  C   UNL A   1      45.754  26.084  26.493  1.00  0.00     0.101 C 
BRANCH  11  12
ATOM     12  C   UNL A   1      46.457  24.712  26.394  1.00  0.00     0.026 C 
BRANCH  12  13
ATOM     13  C   UNL A   1      45.671  23.551  27.020  1.00  0.00     0.107 C 
ATOM     14  C   UNL A   1      38.761  24.694  28.043  1.00  0.00     0.048 C 
ATOM     15  C   UNL A   1      39.403  23.653  27.210  1.00  0.00    -0.005 A 
ATOM     16  C   UNL A   1      38.783  22.756  26.364  1.00  0.00     0.199 A 
ATOM     17  C   UNL A   1      40.793  23.370  27.112  1.00  0.00     0.024 A 
ATOM     18  O   UNL A   1      39.683  21.917  25.793  1.00  0.00    -0.464 OA
ATOM     19  C   UNL A   1      40.906  22.281  26.259  1.00  0.00     0.137 A 
ATOM     20  C   UNL A   1      41.961  23.918  27.665  1.00  0.00     0.020 A 
ATOM     21  C   UNL A   1      42.101  21.665  25.932  1.00  0.00     0.095 A 
ATOM     22  C   UNL A   1      43.199  23.363  27.311  1.00  0.00    -0.001 A 
ATOM     23  C   UNL A   1      43.241  22.248  26.480  1.00  0.00     0.138 A 
ATOM     24  C   UNL A   1      44.456  23.941  27.877  1.00  0.00     0.034 C 
ATOM     25  O   UNL A   1      44.433  21.624  26.124  1.00  0.00    -0.426 OA
ATOM     26  C   UNL A   1      44.582  23.487  29.349  1.00  0.00     0.014 C 
ATOM     27  C   UNL A   1      45.553  22.403  26.042  1.00  0.00     0.314 C 
ATOM     28  O   UNL A   1      46.482  22.077  25.308  1.00  0.00    -0.251 OA
ENDBRANCH  12  13
ENDBRANCH  11  12
ENDBRANCH   8  11
ENDBRANCH   6   7
BRANCH   6  29
ATOM     29  C   UNL A   1      45.494  29.250  29.006  1.00  0.00     0.074 C 
BRANCH  29  30
ATOM     30  C   UNL A   1      44.426  29.486  27.990  1.00  0.00    -0.020 A 
ATOM     31  C   UNL A   1      44.492  30.351  26.917  1.00  0.00     0.087 A 
ATOM     32  C   UNL A   1      43.171  28.805  27.904  1.00  0.00     0.003 A 
ATOM     33  N   UNL A   1      43.323  30.251  26.212  1.00  0.00    -0.361 N 
ATOM     34  C   UNL A   1      42.494  29.324  26.801  1.00  0.00     0.046 A 
ATOM     35  C   UNL A   1      42.552  27.781  28.651  1.00  0.00     0.010 A 
ATOM     36  H   UNL A   1      43.108  30.766  25.402  1.00  0.00     0.166 HD
ATOM     37  C   UNL A   1      41.219  28.891  26.425  1.00  0.00     0.026 A 
ATOM     38  C   UNL A   1      41.286  27.321  28.275  1.00  0.00     0.001 A 
ATOM     39  C   UNL A   1      40.627  27.877  27.182  1.00  0.00     0.002 A 
ENDBRANCH  29  30
ENDBRANCH   6  29
ENDBRANCH   4   6
ENDBRANCH   3   4
ENDBRANCH   2   3
ENDBRANCH   1   2
BRANCH   1  40
ATOM     40  O   UNL A   1      47.124  26.012  33.184  1.00  0.00    -0.374 OA
BRANCH  40  41
ATOM     41  C   UNL A   1      47.434  24.753  33.790  1.00  0.00     0.202 C 
BRANCH  41  42
ATOM     42  C   UNL A   1      46.361  23.992  34.601  1.00  0.00     0.261 C 
BRANCH  42  43
ATOM     43  O   UNL A   1      45.055  24.097  34.011  1.00  0.00    -0.460 OA
BRANCH  43  44
ATOM     44  C   UNL A   1      44.012  24.194  34.876  1.00  0.00     0.338 C 
ATOM     45  O   UNL A   1      43.860  23.581  35.921  1.00  0.00    -0.246 OA
BRANCH  44  46
ATOM     46  C   UNL A   1      43.313  25.447  34.525  1.00  0.00     0.060 A 
ATOM     47  C   UNL A   1      43.808  26.307  33.544  1.00  0.00     0.016 A 
ATOM     48  C   UNL A   1      42.295  25.860  35.401  1.00  0.00     0.016 A 
ATOM     49  C   UNL A   1      43.331  27.615  33.501  1.00  0.00     0.010 A 
ATOM     50  C   UNL A   1      41.875  27.186  35.402  1.00  0.00     0.010 A 
ATOM     51  C   UNL A   1      42.412  28.074  34.468  1.00  0.00    -0.014 A 
BRANCH  51  52
ATOM     52  C   UNL A   1      41.795  29.390  34.265  1.00  0.00     0.031 A 
ATOM     53  C   UNL A   1      41.035  29.388  32.989  1.00  0.00     0.074 A 
ATOM     54  C   UNL A   1      41.770  30.445  35.111  1.00  0.00     0.049 A 
ATOM     55  N   UNL A   1      41.334  30.021  31.904  1.00  0.00    -0.248 NA
ATOM     56  C   UNL A   1      39.968  28.384  32.828  1.00  0.00     0.031 C 
ATOM     57  C   UNL A   1      42.252  30.496  36.493  1.00  0.00     0.029 A 
ATOM     58  N   UNL A   1      41.190  31.682  34.951  1.00  0.00    -0.354 N 
ATOM     59  C   UNL A   1      40.324  29.683  31.008  1.00  0.00     0.074 A 
ATOM     60  C   UNL A   1      39.683  28.512  31.533  1.00  0.00     0.031 C 
ATOM     61  C   UNL A   1      41.737  31.587  37.110  1.00  0.00     0.029 A 
ATOM     62  C   UNL A   1      40.987  32.376  36.149  1.00  0.00     0.049 A 
ATOM     63  H   UNL A   1      40.942  32.047  34.071  1.00  0.00     0.167 HD
ATOM     64  C   UNL A   1      39.892  30.576  30.081  1.00  0.00     0.034 A 
ATOM     65  C   UNL A   1      40.205  33.472  36.348  1.00  0.00     0.034 A 
ATOM     66  C   UNL A   1      40.838  31.647  29.915  1.00  0.00     0.049 A 
ATOM     67  C   UNL A   1      40.020  34.125  35.039  1.00  0.00     0.074 A 
ATOM     68  C   UNL A   1      42.141  31.767  29.483  1.00  0.00     0.029 A 
ATOM     69  N   UNL A   1      40.534  32.788  30.609  1.00  0.00    -0.354 N 
ATOM     70  N   UNL A   1      40.973  34.735  34.395  1.00  0.00    -0.248 NA
ATOM     71  C   UNL A   1      38.828  33.821  34.265  1.00  0.00     0.031 C 
ATOM     72  C   UNL A   1      42.684  32.858  30.220  1.00  0.00     0.029 A 
ATOM     73  C   UNL A   1      41.682  33.394  31.030  1.00  0.00     0.049 A 
ATOM     74  H   UNL A   1      39.623  33.122  30.778  1.00  0.00     0.167 HD
ATOM     75  C   UNL A   1      40.708  34.446  33.068  1.00  0.00     0.074 A 
ATOM     76  C   UNL A   1      39.307  34.041  33.039  1.00  0.00     0.031 C 
ATOM     77  C   UNL A   1      41.734  34.259  32.190  1.00  0.00     0.034 A 
BRANCH  64  78
ATOM     78  C   UNL A   1      38.440  30.746  29.675  1.00  0.00     0.023 A 
ATOM     79  C   UNL A   1      38.086  30.309  28.378  1.00  0.00     0.012 A 
ATOM     80  C   UNL A   1      37.493  31.553  30.353  1.00  0.00     0.148 A 
ATOM     81  C   UNL A   1      36.882  30.690  27.776  1.00  0.00     0.002 A 
ATOM     82  C   UNL A   1      36.262  31.856  29.785  1.00  0.00     0.091 A 
ATOM     83  F   UNL A   1      37.818  32.157  31.497  1.00  0.00    -0.205 F 
ATOM     84  C   UNL A   1      35.964  31.455  28.483  1.00  0.00     0.022 A 
BRANCH  82  85
ATOM     85  S   UNL A   1      35.018  32.801  30.677  1.00  0.00     0.127 S 
ATOM     86  O   UNL A   1      35.700  34.077  30.868  1.00  0.00    -0.237 OA
ATOM     87  O   UNL A   1      33.919  32.822  29.711  1.00  0.00    -0.237 OA
ATOM     88  O   UNL A   1      34.735  32.041  31.887  1.00  0.00    -0.744 OA
ENDBRANCH  82  85
ENDBRANCH  64  78
BRANCH  65  89
ATOM     89  C   UNL A   1      39.388  33.908  37.517  1.00  0.00     0.023 A 
ATOM     90  C   UNL A   1      38.661  32.953  38.268  1.00  0.00     0.012 A 
ATOM     91  C   UNL A   1      39.585  35.179  38.090  1.00  0.00     0.148 A 
ATOM     92  C   UNL A   1      38.201  33.239  39.562  1.00  0.00     0.002 A 
ATOM     93  C   UNL A   1      39.129  35.459  39.377  1.00  0.00     0.091 A 
ATOM     94  F   UNL A   1      40.303  36.085  37.413  1.00  0.00    -0.205 F 
ATOM     95  C   UNL A   1      38.449  34.487  40.123  1.00  0.00     0.022 A 
BRANCH  93  96
ATOM     96  S   UNL A   1      39.466  37.028  40.189  1.00  0.00     0.127 S 
ATOM     97  O   UNL A   1      40.925  37.102  40.105  1.00  0.00    -0.237 OA
ATOM     98  O   UNL A   1      38.753  37.970  39.332  1.00  0.00    -0.237 OA
ATOM     99  O   UNL A   1      38.948  36.894  41.545  1.00  0.00    -0.744 OA
ENDBRANCH  93  96
ENDBRANCH  65  89
BRANCH  77 100
ATOM    100  C   UNL A   1      43.089  34.805  32.555  1.00  0.00     0.023 A 
ATOM    101  C   UNL A   1      43.501  36.118  32.254  1.00  0.00     0.012 A 
ATOM    102  C   UNL A   1      43.897  34.006  33.381  1.00  0.00     0.148 A 
ATOM    103  C   UNL A   1      44.703  36.619  32.767  1.00  0.00     0.002 A 
ATOM    104  C   UNL A   1      45.054  34.528  33.938  1.00  0.00     0.091 A 
ATOM    105  F   UNL A   1      43.493  32.752  33.639  1.00  0.00    -0.205 F 
ATOM    106  C   UNL A   1      45.467  35.831  33.626  1.00  0.00     0.022 A 
BRANCH 104 107
ATOM    107  S   UNL A   1      45.990  33.616  35.167  1.00  0.00     0.127 S 
ATOM    108  O   UNL A   1      46.649  34.690  35.908  1.00  0.00    -0.237 OA
ATOM    109  O   UNL A   1      44.935  32.920  35.906  1.00  0.00    -0.237 OA
ATOM    110  O   UNL A   1      46.877  32.732  34.424  1.00  0.00    -0.744 OA
ENDBRANCH 104 107
ENDBRANCH  77 100
ENDBRANCH  51  52
ENDBRANCH  44  46
ENDBRANCH  43  44
ENDBRANCH  42  43
ENDBRANCH  41  42
ENDBRANCH  40  41
ENDBRANCH   1  40
TORSDOF 23
ENDMDL
MODEL 3
REMARK VINA RESULT:     -10.0      4.215     10.352
REMARK SMILES Cc1coc2cc3c(cc12)[C@@H](C)[C@H](CCC(=O)N[C@@H](Cc1c[nH]c2ccccc12)C(=O)OCCOCCOC(=O)c1ccc(-c2c4nc(c(-c5cccc(S(=O)(=O)[O-])c5F)c5ccc([nH]5)c(-c5cccc(S(=O)(=O)[O-])c5F)c5nc(c(-c6cccc(S(=O)(=O)[O-])c6F)c6ccc2[nH]6)C=C5)C=C4)cc1)C(=O)O3
REMARK SMILES IDX 34 1 33 2 32 3 30 4 31 5 19 6 18 7 16 8 17 9 15 11 14 12
REMARK SMILES IDX 13 13 1 14 2 15 3 16 10 17 4 18 5 19 9 20 6 21 8 22 7 23
REMARK SMILES IDX 11 24 106 25 12 26 104 27 105 28 20 29 21 30 22 31 29 32
REMARK SMILES IDX 23 33 24 34 28 35 25 37 27 38 26 39 35 40 36 41 37 42 38 43
REMARK SMILES IDX 39 44 40 45 41 46 42 47 103 48 43 49 102 50 44 51 45 52
REMARK SMILES IDX 46 53 96 54 47 55 101 56 95 57 97 58 48 59 100 60 94 61
REMARK SMILES IDX 93 62 49 64 81 65 61 66 80 67 62 68 65 69 79 70 98 71 63 72
REMARK SMILES IDX 64 73 78 75 99 76 66 77 50 78 51 79 59 80 52 81 54 82 60 83
REMARK SMILES IDX 53 84 55 85 56 86 57 87 58 88 82 89 83 90 91 91 84 92 86 93
REMARK SMILES IDX 92 94 85 95 87 96 88 97 89 98 90 99 67 100 68 101 76 102
REMARK SMILES IDX 69 103 71 104 77 105 70 106 72 107 73 108 74 109 75 110
REMARK H PARENT 18 10 23 36 97 63 65 74
REMARK Flexibility Score: inf
ROOT
ATOM      1  C   UNL A   1      35.581  34.806  32.214  1.00  0.00     0.202 C 
ENDROOT
BRANCH   1   2
ATOM      2  C   UNL A   1      36.970  34.500  32.776  1.00  0.00     0.261 C 
BRANCH   2   3
ATOM      3  O   UNL A   1      37.044  34.765  34.176  1.00  0.00    -0.462 OA
BRANCH   3   4
ATOM      4  C   UNL A   1      37.186  33.652  34.914  1.00  0.00     0.329 C 
ATOM      5  O   UNL A   1      36.772  32.536  34.608  1.00  0.00    -0.250 OA
BRANCH   4   6
ATOM      6  C   UNL A   1      37.935  33.863  36.214  1.00  0.00     0.196 C 
BRANCH   6   7
ATOM      7  N   UNL A   1      38.636  35.094  36.638  1.00  0.00    -0.342 N 
ATOM      8  C   UNL A   1      39.927  35.502  36.408  1.00  0.00     0.220 C 
ATOM      9  O   UNL A   1      40.338  36.517  36.977  1.00  0.00    -0.275 OA
ATOM     10  H   UNL A   1      38.091  35.719  37.169  1.00  0.00     0.164 HD
BRANCH   8  11
ATOM     11  C   UNL A   1      40.828  34.789  35.388  1.00  0.00     0.101 C 
BRANCH  11  12
ATOM     12  C   UNL A   1      41.636  35.619  34.366  1.00  0.00     0.026 C 
BRANCH  12  13
ATOM     13  C   UNL A   1      42.444  34.781  33.366  1.00  0.00     0.107 C 
ATOM     14  C   UNL A   1      42.899  37.394  26.803  1.00  0.00     0.048 C 
ATOM     15  C   UNL A   1      43.997  37.104  27.751  1.00  0.00    -0.005 A 
ATOM     16  C   UNL A   1      45.338  37.393  27.594  1.00  0.00     0.199 A 
ATOM     17  C   UNL A   1      43.890  36.471  29.020  1.00  0.00     0.024 A 
ATOM     18  O   UNL A   1      46.063  36.943  28.648  1.00  0.00    -0.464 OA
ATOM     19  C   UNL A   1      45.185  36.369  29.510  1.00  0.00     0.137 A 
ATOM     20  C   UNL A   1      42.834  35.968  29.794  1.00  0.00     0.020 A 
ATOM     21  C   UNL A   1      45.520  35.769  30.712  1.00  0.00     0.095 A 
ATOM     22  C   UNL A   1      43.123  35.408  31.047  1.00  0.00    -0.001 A 
ATOM     23  C   UNL A   1      44.446  35.302  31.464  1.00  0.00     0.138 A 
ATOM     24  C   UNL A   1      42.011  34.880  31.894  1.00  0.00     0.034 C 
ATOM     25  O   UNL A   1      44.805  34.719  32.677  1.00  0.00    -0.426 OA
ATOM     26  C   UNL A   1      41.550  33.527  31.306  1.00  0.00     0.014 C 
ATOM     27  C   UNL A   1      43.917  34.819  33.711  1.00  0.00     0.314 C 
ATOM     28  O   UNL A   1      44.312  34.781  34.873  1.00  0.00    -0.251 OA
ENDBRANCH  12  13
ENDBRANCH  11  12
ENDBRANCH   8  11
ENDBRANCH   6   7
BRANCH   6  29
ATOM     29  C   UNL A   1      37.008  33.319  37.325  1.00  0.00     0.074 C 
BRANCH  29  30
ATOM     30  C   UNL A   1      37.723  32.861  38.553  1.00  0.00    -0.020 A 
ATOM     31  C   UNL A   1      39.087  32.880  38.763  1.00  0.00     0.087 A 
ATOM     32  C   UNL A   1      37.119  32.385  39.759  1.00  0.00     0.003 A 
ATOM     33  N   UNL A   1      39.334  32.405  40.022  1.00  0.00    -0.361 N 
ATOM     34  C   UNL A   1      38.151  32.083  40.646  1.00  0.00     0.046 A 
ATOM     35  C   UNL A   1      35.788  32.199  40.189  1.00  0.00     0.010 A 
ATOM     36  H   UNL A   1      40.227  32.309  40.423  1.00  0.00     0.166 HD
ATOM     37  C   UNL A   1      37.920  31.578  41.930  1.00  0.00     0.026 A 
ATOM     38  C   UNL A   1      35.539  31.715  41.477  1.00  0.00     0.001 A 
ATOM     39  C   UNL A   1      36.593  31.402  42.330  1.00  0.00     0.002 A 
ENDBRANCH  29  30
ENDBRANCH   6  29
ENDBRANCH   4   6
ENDBRANCH   3   4
ENDBRANCH   2   3
ENDBRANCH   1   2
BRANCH   1  40
ATOM     40  O   UNL A   1      34.618  33.757  32.255  1.00  0.00    -0.374 OA
BRANCH  40  41
ATOM     41  C   UNL A   1      34.729  32.697  31.300  1.00  0.00     0.202 C 
BRANCH  41  42
ATOM     42  C   UNL A   1      34.373  32.943  29.816  1.00  0.00     0.261 C 
BRANCH  42  43
ATOM     43  O   UNL A   1      35.466  32.640  28.935  1.00  0.00    -0.460 OA
BRANCH  43  44
ATOM     44  C   UNL A   1      35.475  31.393  28.396  1.00  0.00     0.338 C 
ATOM     45  O   UNL A   1      34.742  30.963  27.519  1.00  0.00    -0.246 OA
BRANCH  44  46
ATOM     46  C   UNL A   1      36.773  30.800  28.775  1.00  0.00     0.060 A 
ATOM     47  C   UNL A   1      37.761  31.553  29.410  1.00  0.00     0.016 A 
ATOM     48  C   UNL A   1      37.066  29.538  28.230  1.00  0.00     0.016 A 
ATOM     49  C   UNL A   1      39.066  31.067  29.421  1.00  0.00     0.010 A 
ATOM     50  C   UNL A   1      38.382  29.091  28.179  1.00  0.00     0.010 A 
ATOM     51  C   UNL A   1      39.390  29.868  28.753  1.00  0.00    -0.014 A 
BRANCH  51  52
ATOM     52  C   UNL A   1      40.728  29.302  28.958  1.00  0.00     0.031 A 
ATOM     53  C   UNL A   1      40.930  29.022  30.402  1.00  0.00     0.074 A 
ATOM     54  C   UNL A   1      41.641  28.945  28.025  1.00  0.00     0.049 A 
ATOM     55  N   UNL A   1      41.719  29.645  31.213  1.00  0.00    -0.248 NA
ATOM     56  C   UNL A   1      39.973  28.118  31.066  1.00  0.00     0.031 C 
ATOM     57  C   UNL A   1      41.474  28.926  26.571  1.00  0.00     0.029 A 
ATOM     58  N   UNL A   1      42.894  28.403  28.190  1.00  0.00    -0.354 N 
ATOM     59  C   UNL A   1      41.532  29.016  32.441  1.00  0.00     0.074 A 
ATOM     60  C   UNL A   1      40.302  28.285  32.346  1.00  0.00     0.031 C 
ATOM     61  C   UNL A   1      42.464  28.186  26.013  1.00  0.00     0.029 A 
ATOM     62  C   UNL A   1      43.398  27.774  27.047  1.00  0.00     0.049 A 
ATOM     63  H   UNL A   1      43.392  28.454  29.038  1.00  0.00     0.167 HD
ATOM     64  C   UNL A   1      42.561  28.888  33.317  1.00  0.00     0.034 A 
ATOM     65  C   UNL A   1      44.459  26.926  26.968  1.00  0.00     0.034 A 
ATOM     66  C   UNL A   1      43.636  29.787  32.988  1.00  0.00     0.049 A 
ATOM     67  C   UNL A   1      45.308  27.170  28.149  1.00  0.00     0.074 A 
ATOM     68  C   UNL A   1      43.806  31.153  32.924  1.00  0.00     0.029 A 
ATOM     69  N   UNL A   1      44.660  29.217  32.280  1.00  0.00    -0.354 N 
ATOM     70  N   UNL A   1      45.998  28.258  28.330  1.00  0.00    -0.248 NA
ATOM     71  C   UNL A   1      45.138  26.326  29.320  1.00  0.00     0.031 C 
ATOM     72  C   UNL A   1      44.765  31.366  31.893  1.00  0.00     0.029 A 
ATOM     73  C   UNL A   1      45.182  30.126  31.407  1.00  0.00     0.049 A 
ATOM     74  H   UNL A   1      44.973  28.289  32.386  1.00  0.00     0.167 HD
ATOM     75  C   UNL A   1      45.919  28.473  29.695  1.00  0.00     0.074 A 
ATOM     76  C   UNL A   1      45.538  27.184  30.261  1.00  0.00     0.031 C 
ATOM     77  C   UNL A   1      45.858  29.744  30.185  1.00  0.00     0.034 A 
BRANCH  64  78
ATOM     78  C   UNL A   1      42.808  27.655  34.166  1.00  0.00     0.023 A 
ATOM     79  C   UNL A   1      42.771  27.829  35.568  1.00  0.00     0.012 A 
ATOM     80  C   UNL A   1      43.348  26.434  33.693  1.00  0.00     0.148 A 
ATOM     81  C   UNL A   1      43.284  26.867  36.444  1.00  0.00     0.002 A 
ATOM     82  C   UNL A   1      43.776  25.444  34.569  1.00  0.00     0.091 A 
ATOM     83  F   UNL A   1      43.590  26.262  32.393  1.00  0.00    -0.205 F 
ATOM     84  C   UNL A   1      43.777  25.668  35.945  1.00  0.00     0.022 A 
BRANCH  82  85
ATOM     85  S   UNL A   1      44.376  23.854  33.978  1.00  0.00     0.127 S 
ATOM     86  O   UNL A   1      45.801  24.123  33.811  1.00  0.00    -0.237 OA
ATOM     87  O   UNL A   1      44.036  22.978  35.099  1.00  0.00    -0.237 OA
ATOM     88  O   UNL A   1      43.632  23.579  32.756  1.00  0.00    -0.744 OA
ENDBRANCH  82  85
ENDBRANCH  64  78
BRANCH  65  89
ATOM     89  C   UNL A   1      44.720  25.742  26.099  1.00  0.00     0.023 A 
ATOM     90  C   UNL A   1      45.986  25.578  25.487  1.00  0.00     0.012 A 
ATOM     91  C   UNL A   1      43.863  24.625  26.140  1.00  0.00     0.148 A 
ATOM     92  C   UNL A   1      46.400  24.334  24.989  1.00  0.00     0.002 A 
ATOM     93  C   UNL A   1      44.280  23.389  25.647  1.00  0.00     0.091 A 
ATOM     94  F   UNL A   1      42.677  24.748  26.748  1.00  0.00    -0.205 F 
ATOM     95  C   UNL A   1      45.553  23.235  25.083  1.00  0.00     0.022 A 
BRANCH  93  96
ATOM     96  S   UNL A   1      43.263  21.913  25.790  1.00  0.00     0.127 S 
ATOM     97  O   UNL A   1      43.237  21.706  27.239  1.00  0.00    -0.237 OA
ATOM     98  O   UNL A   1      42.000  22.359  25.211  1.00  0.00    -0.237 OA
ATOM     99  O   UNL A   1      43.964  20.873  25.048  1.00  0.00    -0.744 OA
ENDBRANCH  93  96
ENDBRANCH  65  89
BRANCH  77 100
ATOM    100  C   UNL A   1      46.327  30.869  29.301  1.00  0.00     0.023 A 
ATOM    101  C   UNL A   1      47.683  31.219  29.147  1.00  0.00     0.012 A 
ATOM    102  C   UNL A   1      45.366  31.472  28.473  1.00  0.00     0.148 A 
ATOM    103  C   UNL A   1      48.067  32.159  28.186  1.00  0.00     0.002 A 
ATOM    104  C   UNL A   1      45.759  32.355  27.479  1.00  0.00     0.091 A 
ATOM    105  F   UNL A   1      44.078  31.137  28.650  1.00  0.00    -0.205 F 
ATOM    106  C   UNL A   1      47.108  32.710  27.338  1.00  0.00     0.022 A 
BRANCH 104 107
ATOM    107  S   UNL A   1      44.591  32.971  26.265  1.00  0.00     0.127 S 
ATOM    108  O   UNL A   1      45.469  33.650  25.314  1.00  0.00    -0.237 OA
ATOM    109  O   UNL A   1      43.984  31.736  25.765  1.00  0.00    -0.237 OA
ATOM    110  O   UNL A   1      43.670  33.833  26.993  1.00  0.00    -0.744 OA
ENDBRANCH 104 107
ENDBRANCH  77 100
ENDBRANCH  51  52
ENDBRANCH  44  46
ENDBRANCH  43  44
ENDBRANCH  42  43
ENDBRANCH  41  42
ENDBRANCH  40  41
ENDBRANCH   1  40
TORSDOF 23
ENDMDL
