MODEL 1
REMARK VINA RESULT:     -10.7      0.000      0.000
REMARK SMILES O=C(OCCOCCOC(=O)C1CN(c2cnccn2)C1)c1ccc(-c2c3nc(c(-c4cccc(S(=O)(=O)[O-])c4F)c4ccc([nH]4)c(-c4cccc(S(=O)(=O)[O-])c4F)c4nc(c(-c5cccc(S(=O)(=O)[O-])c5F)c5ccc2[nH]5)C=C4)C=C3)cc1
REMARK SMILES IDX 5 1 4 2 3 3 2 4 1 5 22 6 23 7 84 8 24 9 83 10 25 11 26 12
REMARK SMILES IDX 27 13 77 14 28 15 82 16 76 17 78 18 29 19 81 20 75 21 74 22
REMARK SMILES IDX 30 24 62 25 42 26 61 27 43 28 46 29 60 30 79 31 44 32 45 33
REMARK SMILES IDX 59 35 80 36 47 37 31 38 32 39 40 40 33 41 35 42 41 43 34 44
REMARK SMILES IDX 36 45 37 46 38 47 39 48 63 49 64 50 72 51 65 52 67 53 73 54
REMARK SMILES IDX 66 55 68 56 69 57 70 58 71 59 48 60 49 61 57 62 50 63 52 64
REMARK SMILES IDX 58 65 51 66 53 67 54 68 55 69 56 70 6 71 7 72 8 73 9 74
REMARK SMILES IDX 10 75 11 76 12 77 13 78 21 79 14 80 15 81 16 82 20 83 17 84
REMARK SMILES IDX 19 85 18 86
REMARK H PARENT 78 23 46 34
REMARK Flexibility Score: inf
ROOT
ATOM      1  C   UNL A   1      31.863  30.768  26.412  1.00  0.00     0.202 C 
ENDROOT
BRANCH   1   2
ATOM      2  C   UNL A   1      31.404  32.175  26.820  1.00  0.00     0.261 C 
BRANCH   2   3
ATOM      3  O   UNL A   1      32.507  33.097  26.831  1.00  0.00    -0.460 OA
BRANCH   3   4
ATOM      4  C   UNL A   1      33.135  33.631  27.909  1.00  0.00     0.338 C 
ATOM      5  O   UNL A   1      32.663  34.639  28.428  1.00  0.00    -0.246 OA
BRANCH   4   6
ATOM      6  C   UNL A   1      34.390  33.054  28.479  1.00  0.00     0.060 A 
ATOM      7  C   UNL A   1      34.463  31.798  29.078  1.00  0.00     0.016 A 
ATOM      8  C   UNL A   1      35.582  33.782  28.336  1.00  0.00     0.016 A 
ATOM      9  C   UNL A   1      35.632  31.319  29.627  1.00  0.00     0.010 A 
ATOM     10  C   UNL A   1      36.793  33.270  28.817  1.00  0.00     0.010 A 
ATOM     11  C   UNL A   1      36.809  32.042  29.486  1.00  0.00    -0.014 A 
BRANCH  11  12
ATOM     12  C   UNL A   1      37.992  31.466  30.140  1.00  0.00     0.031 A 
ATOM     13  C   UNL A   1      38.237  31.784  31.578  1.00  0.00     0.074 A 
ATOM     14  C   UNL A   1      38.676  30.504  29.489  1.00  0.00     0.049 A 
ATOM     15  N   UNL A   1      39.152  31.312  32.376  1.00  0.00    -0.248 NA
ATOM     16  C   UNL A   1      37.311  32.737  32.215  1.00  0.00     0.031 C 
ATOM     17  C   UNL A   1      38.406  30.062  28.115  1.00  0.00     0.029 A 
ATOM     18  N   UNL A   1      39.695  29.693  29.904  1.00  0.00    -0.354 N 
ATOM     19  C   UNL A   1      38.939  31.935  33.598  1.00  0.00     0.074 A 
ATOM     20  C   UNL A   1      37.804  32.816  33.441  1.00  0.00     0.031 C 
ATOM     21  C   UNL A   1      39.229  29.047  27.810  1.00  0.00     0.029 A 
ATOM     22  C   UNL A   1      40.126  28.819  28.934  1.00  0.00     0.049 A 
ATOM     23  H   UNL A   1      40.083  29.730  30.808  1.00  0.00     0.167 HD
ATOM     24  C   UNL A   1      39.634  31.777  34.746  1.00  0.00     0.034 A 
ATOM     25  C   UNL A   1      41.162  27.960  28.947  1.00  0.00     0.034 A 
ATOM     26  C   UNL A   1      40.759  30.893  34.864  1.00  0.00     0.049 A 
ATOM     27  C   UNL A   1      41.963  27.865  30.216  1.00  0.00     0.074 A 
ATOM     28  C   UNL A   1      41.597  30.699  35.945  1.00  0.00     0.029 A 
ATOM     29  N   UNL A   1      41.204  30.053  33.850  1.00  0.00    -0.354 N 
ATOM     30  N   UNL A   1      41.762  28.467  31.365  1.00  0.00    -0.248 NA
ATOM     31  C   UNL A   1      43.119  26.962  30.202  1.00  0.00     0.031 C 
ATOM     32  C   UNL A   1      42.564  29.759  35.575  1.00  0.00     0.029 A 
ATOM     33  C   UNL A   1      42.307  29.339  34.277  1.00  0.00     0.049 A 
ATOM     34  H   UNL A   1      40.795  29.978  32.958  1.00  0.00     0.167 HD
ATOM     35  C   UNL A   1      42.754  28.007  32.216  1.00  0.00     0.074 A 
ATOM     36  C   UNL A   1      43.532  27.042  31.460  1.00  0.00     0.031 C 
ATOM     37  C   UNL A   1      43.023  28.360  33.498  1.00  0.00     0.034 A 
BRANCH  24  38
ATOM     38  C   UNL A   1      39.210  32.606  35.925  1.00  0.00     0.023 A 
ATOM     39  C   UNL A   1      39.675  33.931  36.063  1.00  0.00     0.012 A 
ATOM     40  C   UNL A   1      38.362  32.065  36.909  1.00  0.00     0.148 A 
ATOM     41  C   UNL A   1      39.328  34.691  37.180  1.00  0.00     0.002 A 
ATOM     42  C   UNL A   1      37.987  32.842  37.998  1.00  0.00     0.091 A 
ATOM     43  F   UNL A   1      37.957  30.794  36.772  1.00  0.00    -0.205 F 
ATOM     44  C   UNL A   1      38.478  34.150  38.141  1.00  0.00     0.022 A 
BRANCH  42  45
ATOM     45  S   UNL A   1      36.857  32.257  39.264  1.00  0.00     0.127 S 
ATOM     46  O   UNL A   1      37.250  33.076  40.411  1.00  0.00    -0.237 OA
ATOM     47  O   UNL A   1      35.556  32.596  38.689  1.00  0.00    -0.237 OA
ATOM     48  O   UNL A   1      37.111  30.830  39.407  1.00  0.00    -0.744 OA
ENDBRANCH  42  45
ENDBRANCH  24  38
BRANCH  25  49
ATOM     49  C   UNL A   1      41.517  27.178  27.728  1.00  0.00     0.023 A 
ATOM     50  C   UNL A   1      42.048  27.823  26.596  1.00  0.00     0.012 A 
ATOM     51  C   UNL A   1      41.322  25.781  27.689  1.00  0.00     0.148 A 
ATOM     52  C   UNL A   1      42.337  27.101  25.436  1.00  0.00     0.002 A 
ATOM     53  C   UNL A   1      41.671  25.059  26.554  1.00  0.00     0.091 A 
ATOM     54  F   UNL A   1      40.794  25.181  28.766  1.00  0.00    -0.205 F 
ATOM     55  C   UNL A   1      42.159  25.719  25.418  1.00  0.00     0.022 A 
BRANCH  53  56
ATOM     56  S   UNL A   1      41.591  23.265  26.504  1.00  0.00     0.127 S 
ATOM     57  O   UNL A   1      42.337  22.968  25.284  1.00  0.00    -0.237 OA
ATOM     58  O   UNL A   1      42.269  22.893  27.747  1.00  0.00    -0.237 OA
ATOM     59  O   UNL A   1      40.172  22.938  26.478  1.00  0.00    -0.744 OA
ENDBRANCH  53  56
ENDBRANCH  25  49
BRANCH  37  60
ATOM     60  C   UNL A   1      44.186  27.674  34.158  1.00  0.00     0.023 A 
ATOM     61  C   UNL A   1      45.484  28.207  34.023  1.00  0.00     0.012 A 
ATOM     62  C   UNL A   1      43.979  26.538  34.960  1.00  0.00     0.148 A 
ATOM     63  C   UNL A   1      46.566  27.590  34.645  1.00  0.00     0.002 A 
ATOM     64  C   UNL A   1      45.054  25.963  35.624  1.00  0.00     0.091 A 
ATOM     65  F   UNL A   1      42.738  26.038  35.057  1.00  0.00    -0.205 F 
ATOM     66  C   UNL A   1      46.350  26.477  35.455  1.00  0.00     0.022 A 
BRANCH  64  67
ATOM     67  S   UNL A   1      44.848  24.598  36.771  1.00  0.00     0.127 S 
ATOM     68  O   UNL A   1      44.413  23.524  35.880  1.00  0.00    -0.237 OA
ATOM     69  O   UNL A   1      46.199  24.438  37.308  1.00  0.00    -0.237 OA
ATOM     70  O   UNL A   1      43.861  25.042  37.746  1.00  0.00    -0.744 OA
ENDBRANCH  64  67
ENDBRANCH  37  60
ENDBRANCH  11  12
ENDBRANCH   4   6
ENDBRANCH   3   4
ENDBRANCH   2   3
ENDBRANCH   1   2
BRANCH   1  71
ATOM     71  O   UNL A   1      31.237  30.176  25.270  1.00  0.00    -0.374 OA
BRANCH  71  72
ATOM     72  C   UNL A   1      31.649  28.848  24.920  1.00  0.00     0.202 C 
BRANCH  72  73
ATOM     73  C   UNL A   1      32.506  28.882  23.648  1.00  0.00     0.261 C 
BRANCH  73  74
ATOM     74  O   UNL A   1      33.575  27.941  23.810  1.00  0.00    -0.463 OA
BRANCH  74  75
ATOM     75  C   UNL A   1      33.584  26.955  22.864  1.00  0.00     0.312 C 
ATOM     76  O   UNL A   1      33.794  27.157  21.671  1.00  0.00    -0.252 OA
BRANCH  75  77
ATOM     77  C   UNL A   1      33.406  25.601  23.542  1.00  0.00     0.138 C 
ATOM     78  C   UNL A   1      33.919  24.382  22.798  1.00  0.00     0.135 C 
ATOM     79  C   UNL A   1      34.331  25.166  24.686  1.00  0.00     0.135 C 
ATOM     80  N   UNL A   1      34.327  23.880  24.067  1.00  0.00    -0.353 N 
BRANCH  80  81
ATOM     81  C   UNL A   1      35.124  22.763  24.293  1.00  0.00     0.147 A 
ATOM     82  C   UNL A   1      36.511  22.813  24.155  1.00  0.00     0.157 A 
ATOM     83  N   UNL A   1      34.526  21.641  24.757  1.00  0.00    -0.236 NA
ATOM     84  N   UNL A   1      37.335  21.784  24.483  1.00  0.00    -0.259 NA
ATOM     85  C   UNL A   1      35.332  20.603  25.053  1.00  0.00     0.133 A 
ATOM     86  C   UNL A   1      36.707  20.678  24.936  1.00  0.00     0.131 A 
ENDBRANCH  80  81
ENDBRANCH  75  77
ENDBRANCH  74  75
ENDBRANCH  73  74
ENDBRANCH  72  73
ENDBRANCH  71  72
ENDBRANCH   1  71
TORSDOF 18
ENDMDL
MODEL 2
REMARK VINA RESULT:     -10.7      2.693      4.122
REMARK SMILES O=C(OCCOCCOC(=O)C1CN(c2cnccn2)C1)c1ccc(-c2c3nc(c(-c4cccc(S(=O)(=O)[O-])c4F)c4ccc([nH]4)c(-c4cccc(S(=O)(=O)[O-])c4F)c4nc(c(-c5cccc(S(=O)(=O)[O-])c5F)c5ccc2[nH]5)C=C4)C=C3)cc1
REMARK SMILES IDX 5 1 4 2 3 3 2 4 1 5 22 6 23 7 84 8 24 9 83 10 25 11 26 12
REMARK SMILES IDX 27 13 77 14 28 15 82 16 76 17 78 18 29 19 81 20 75 21 74 22
REMARK SMILES IDX 30 24 62 25 42 26 61 27 43 28 46 29 60 30 79 31 44 32 45 33
REMARK SMILES IDX 59 35 80 36 47 37 31 38 32 39 40 40 33 41 35 42 41 43 34 44
REMARK SMILES IDX 36 45 37 46 38 47 39 48 63 49 64 50 72 51 65 52 67 53 73 54
REMARK SMILES IDX 66 55 68 56 69 57 70 58 71 59 48 60 49 61 57 62 50 63 52 64
REMARK SMILES IDX 58 65 51 66 53 67 54 68 55 69 56 70 6 71 7 72 8 73 9 74
REMARK SMILES IDX 10 75 11 76 12 77 13 78 21 79 14 80 15 81 16 82 20 83 17 84
REMARK SMILES IDX 19 85 18 86
REMARK H PARENT 78 23 46 34
REMARK Flexibility Score: inf
ROOT
ATOM      1  C   UNL A   1      32.209  30.153  26.949  1.00  0.00     0.202 C 
ENDROOT
BRANCH   1   2
ATOM      2  C   UNL A   1      31.648  31.564  26.730  1.00  0.00     0.261 C 
BRANCH   2   3
ATOM      3  O   UNL A   1      32.702  32.541  26.689  1.00  0.00    -0.460 OA
BRANCH   3   4
ATOM      4  C   UNL A   1      33.343  33.118  27.737  1.00  0.00     0.338 C 
ATOM      5  O   UNL A   1      32.872  34.142  28.226  1.00  0.00    -0.246 OA
BRANCH   4   6
ATOM      6  C   UNL A   1      34.612  32.571  28.307  1.00  0.00     0.060 A 
ATOM      7  C   UNL A   1      34.713  31.320  28.912  1.00  0.00     0.016 A 
ATOM      8  C   UNL A   1      35.786  33.325  28.159  1.00  0.00     0.016 A 
ATOM      9  C   UNL A   1      35.893  30.869  29.461  1.00  0.00     0.010 A 
ATOM     10  C   UNL A   1      37.009  32.841  28.641  1.00  0.00     0.010 A 
ATOM     11  C   UNL A   1      37.053  31.617  29.314  1.00  0.00    -0.014 A 
BRANCH  11  12
ATOM     12  C   UNL A   1      38.249  31.069  29.969  1.00  0.00     0.031 A 
ATOM     13  C   UNL A   1      38.509  31.428  31.395  1.00  0.00     0.074 A 
ATOM     14  C   UNL A   1      38.935  30.097  29.335  1.00  0.00     0.049 A 
ATOM     15  N   UNL A   1      39.438  30.986  32.194  1.00  0.00    -0.248 NA
ATOM     16  C   UNL A   1      37.581  32.389  32.018  1.00  0.00     0.031 C 
ATOM     17  C   UNL A   1      38.654  29.616  27.977  1.00  0.00     0.029 A 
ATOM     18  N   UNL A   1      39.967  29.308  29.759  1.00  0.00    -0.354 N 
ATOM     19  C   UNL A   1      39.233  31.639  33.401  1.00  0.00     0.074 A 
ATOM     20  C   UNL A   1      38.088  32.504  33.235  1.00  0.00     0.031 C 
ATOM     21  C   UNL A   1      39.482  28.602  27.688  1.00  0.00     0.029 A 
ATOM     22  C   UNL A   1      40.395  28.412  28.807  1.00  0.00     0.049 A 
ATOM     23  H   UNL A   1      40.365  29.372  30.657  1.00  0.00     0.167 HD
ATOM     24  C   UNL A   1      39.944  31.518  34.544  1.00  0.00     0.034 A 
ATOM     25  C   UNL A   1      41.440  27.564  28.830  1.00  0.00     0.034 A 
ATOM     26  C   UNL A   1      41.078  30.648  34.672  1.00  0.00     0.049 A 
ATOM     27  C   UNL A   1      42.256  27.509  30.091  1.00  0.00     0.074 A 
ATOM     28  C   UNL A   1      41.931  30.490  35.747  1.00  0.00     0.029 A 
ATOM     29  N   UNL A   1      41.520  29.786  33.676  1.00  0.00    -0.354 N 
ATOM     30  N   UNL A   1      42.063  28.140  31.226  1.00  0.00    -0.248 NA
ATOM     31  C   UNL A   1      43.422  26.618  30.087  1.00  0.00     0.031 C 
ATOM     32  C   UNL A   1      42.903  29.550  35.390  1.00  0.00     0.029 A 
ATOM     33  C   UNL A   1      42.635  29.094  34.108  1.00  0.00     0.049 A 
ATOM     34  H   UNL A   1      41.100  29.683  32.791  1.00  0.00     0.167 HD
ATOM     35  C   UNL A   1      43.070  27.712  32.077  1.00  0.00     0.074 A 
ATOM     36  C   UNL A   1      43.848  26.735  31.337  1.00  0.00     0.031 C 
ATOM     37  C   UNL A   1      43.351  28.101  33.346  1.00  0.00     0.034 A 
BRANCH  24  38
ATOM     38  C   UNL A   1      39.525  32.374  35.706  1.00  0.00     0.023 A 
ATOM     39  C   UNL A   1      38.651  31.859  36.686  1.00  0.00     0.012 A 
ATOM     40  C   UNL A   1      39.986  33.699  35.818  1.00  0.00     0.148 A 
ATOM     41  C   UNL A   1      38.216  32.662  37.741  1.00  0.00     0.002 A 
ATOM     42  C   UNL A   1      39.582  34.480  36.894  1.00  0.00     0.091 A 
ATOM     43  F   UNL A   1      40.792  34.176  34.859  1.00  0.00    -0.205 F 
ATOM     44  C   UNL A   1      38.688  33.968  37.848  1.00  0.00     0.022 A 
BRANCH  42  45
ATOM     45  S   UNL A   1      40.171  36.156  37.152  1.00  0.00     0.127 S 
ATOM     46  O   UNL A   1      39.377  36.573  38.308  1.00  0.00    -0.237 OA
ATOM     47  O   UNL A   1      41.590  35.937  37.433  1.00  0.00    -0.237 OA
ATOM     48  O   UNL A   1      39.894  36.878  35.918  1.00  0.00    -0.744 OA
ENDBRANCH  42  45
ENDBRANCH  24  38
BRANCH  25  49
ATOM     49  C   UNL A   1      41.788  26.753  27.628  1.00  0.00     0.023 A 
ATOM     50  C   UNL A   1      42.376  27.361  26.503  1.00  0.00     0.012 A 
ATOM     51  C   UNL A   1      41.529  25.366  27.596  1.00  0.00     0.148 A 
ATOM     52  C   UNL A   1      42.660  26.613  25.358  1.00  0.00     0.002 A 
ATOM     53  C   UNL A   1      41.871  24.617  26.478  1.00  0.00     0.091 A 
ATOM     54  F   UNL A   1      40.946  24.803  28.665  1.00  0.00    -0.205 F 
ATOM     55  C   UNL A   1      42.417  25.241  25.349  1.00  0.00     0.022 A 
BRANCH  53  56
ATOM     56  S   UNL A   1      41.708  22.829  26.443  1.00  0.00     0.127 S 
ATOM     57  O   UNL A   1      40.258  22.660  26.451  1.00  0.00    -0.237 OA
ATOM     58  O   UNL A   1      42.361  22.486  25.179  1.00  0.00    -0.237 OA
ATOM     59  O   UNL A   1      42.411  22.350  27.626  1.00  0.00    -0.744 OA
ENDBRANCH  53  56
ENDBRANCH  25  49
BRANCH  37  60
ATOM     60  C   UNL A   1      44.529  27.445  34.010  1.00  0.00     0.023 A 
ATOM     61  C   UNL A   1      45.789  28.073  33.984  1.00  0.00     0.012 A 
ATOM     62  C   UNL A   1      44.367  26.235  34.709  1.00  0.00     0.148 A 
ATOM     63  C   UNL A   1      46.883  27.482  34.610  1.00  0.00     0.002 A 
ATOM     64  C   UNL A   1      45.448  25.682  35.380  1.00  0.00     0.091 A 
ATOM     65  F   UNL A   1      43.161  25.646  34.702  1.00  0.00    -0.205 F 
ATOM     66  C   UNL A   1      46.710  26.295  35.319  1.00  0.00     0.022 A 
BRANCH  64  67
ATOM     67  S   UNL A   1      45.288  24.218  36.405  1.00  0.00     0.127 S 
ATOM     68  O   UNL A   1      46.637  23.659  36.338  1.00  0.00    -0.237 OA
ATOM     69  O   UNL A   1      44.925  24.786  37.703  1.00  0.00    -0.237 OA
ATOM     70  O   UNL A   1      44.243  23.411  35.788  1.00  0.00    -0.744 OA
ENDBRANCH  64  67
ENDBRANCH  37  60
ENDBRANCH  11  12
ENDBRANCH   4   6
ENDBRANCH   3   4
ENDBRANCH   2   3
ENDBRANCH   1   2
BRANCH   1  71
ATOM     71  O   UNL A   1      33.146  29.660  25.987  1.00  0.00    -0.374 OA
BRANCH  71  72
ATOM     72  C   UNL A   1      33.725  28.374  26.247  1.00  0.00     0.202 C 
BRANCH  72  73
ATOM     73  C   UNL A   1      32.786  27.265  25.754  1.00  0.00     0.261 C 
BRANCH  73  74
ATOM     74  O   UNL A   1      32.802  27.277  24.321  1.00  0.00    -0.463 OA
BRANCH  74  75
ATOM     75  C   UNL A   1      31.611  26.915  23.758  1.00  0.00     0.312 C 
ATOM     76  O   UNL A   1      31.422  25.843  23.189  1.00  0.00    -0.252 OA
BRANCH  75  77
ATOM     77  C   UNL A   1      30.567  27.989  24.048  1.00  0.00     0.138 C 
ATOM     78  C   UNL A   1      30.858  29.390  23.542  1.00  0.00     0.135 C 
ATOM     79  C   UNL A   1      29.274  28.071  23.228  1.00  0.00     0.135 C 
ATOM     80  N   UNL A   1      29.468  29.485  23.249  1.00  0.00    -0.353 N 
BRANCH  80  81
ATOM     81  C   UNL A   1      28.846  30.496  22.525  1.00  0.00     0.147 A 
ATOM     82  C   UNL A   1      28.627  31.760  23.072  1.00  0.00     0.157 A 
ATOM     83  N   UNL A   1      28.549  30.255  21.227  1.00  0.00    -0.236 NA
ATOM     84  N   UNL A   1      28.136  32.810  22.362  1.00  0.00    -0.259 NA
ATOM     85  C   UNL A   1      28.029  31.280  20.524  1.00  0.00     0.133 A 
ATOM     86  C   UNL A   1      27.844  32.534  21.073  1.00  0.00     0.131 A 
ENDBRANCH  80  81
ENDBRANCH  75  77
ENDBRANCH  74  75
ENDBRANCH  73  74
ENDBRANCH  72  73
ENDBRANCH  71  72
ENDBRANCH   1  71
TORSDOF 18
ENDMDL
MODEL 3
REMARK VINA RESULT:     -10.6      5.493     10.865
REMARK SMILES O=C(OCCOCCOC(=O)C1CN(c2cnccn2)C1)c1ccc(-c2c3nc(c(-c4cccc(S(=O)(=O)[O-])c4F)c4ccc([nH]4)c(-c4cccc(S(=O)(=O)[O-])c4F)c4nc(c(-c5cccc(S(=O)(=O)[O-])c5F)c5ccc2[nH]5)C=C4)C=C3)cc1
REMARK SMILES IDX 5 1 4 2 3 3 2 4 1 5 22 6 23 7 84 8 24 9 83 10 25 11 26 12
REMARK SMILES IDX 27 13 77 14 28 15 82 16 76 17 78 18 29 19 81 20 75 21 74 22
REMARK SMILES IDX 30 24 62 25 42 26 61 27 43 28 46 29 60 30 79 31 44 32 45 33
REMARK SMILES IDX 59 35 80 36 47 37 31 38 32 39 40 40 33 41 35 42 41 43 34 44
REMARK SMILES IDX 36 45 37 46 38 47 39 48 63 49 64 50 72 51 65 52 67 53 73 54
REMARK SMILES IDX 66 55 68 56 69 57 70 58 71 59 48 60 49 61 57 62 50 63 52 64
REMARK SMILES IDX 58 65 51 66 53 67 54 68 55 69 56 70 6 71 7 72 8 73 9 74
REMARK SMILES IDX 10 75 11 76 12 77 13 78 21 79 14 80 15 81 16 82 20 83 17 84
REMARK SMILES IDX 19 85 18 86
REMARK H PARENT 78 23 46 34
REMARK Flexibility Score: inf
ROOT
ATOM      1  C   UNL A   1      37.147  22.191  24.271  1.00  0.00     0.202 C 
ENDROOT
BRANCH   1   2
ATOM      2  C   UNL A   1      37.362  20.753  24.763  1.00  0.00     0.261 C 
BRANCH   2   3
ATOM      3  O   UNL A   1      38.068  20.734  26.015  1.00  0.00    -0.460 OA
BRANCH   3   4
ATOM      4  C   UNL A   1      39.397  20.916  26.225  1.00  0.00     0.338 C 
ATOM      5  O   UNL A   1      40.158  19.970  26.040  1.00  0.00    -0.246 OA
BRANCH   4   6
ATOM      6  C   UNL A   1      39.969  22.215  26.692  1.00  0.00     0.060 A 
ATOM      7  C   UNL A   1      39.611  23.454  26.165  1.00  0.00     0.016 A 
ATOM      8  C   UNL A   1      40.862  22.197  27.775  1.00  0.00     0.016 A 
ATOM      9  C   UNL A   1      40.192  24.625  26.596  1.00  0.00     0.010 A 
ATOM     10  C   UNL A   1      41.397  23.389  28.278  1.00  0.00     0.010 A 
ATOM     11  C   UNL A   1      41.076  24.604  27.667  1.00  0.00    -0.014 A 
BRANCH  11  12
ATOM     12  C   UNL A   1      41.671  25.899  28.025  1.00  0.00     0.031 A 
ATOM     13  C   UNL A   1      43.018  26.241  27.478  1.00  0.00     0.074 A 
ATOM     14  C   UNL A   1      40.892  26.811  28.641  1.00  0.00     0.049 A 
ATOM     15  N   UNL A   1      43.684  27.356  27.580  1.00  0.00    -0.248 NA
ATOM     16  C   UNL A   1      43.695  25.201  26.684  1.00  0.00     0.031 C 
ATOM     17  C   UNL A   1      39.517  26.574  29.096  1.00  0.00     0.029 A 
ATOM     18  N   UNL A   1      41.119  28.124  28.944  1.00  0.00    -0.354 N 
ATOM     19  C   UNL A   1      44.872  27.144  26.897  1.00  0.00     0.074 A 
ATOM     20  C   UNL A   1      44.837  25.795  26.378  1.00  0.00     0.031 C 
ATOM     21  C   UNL A   1      39.018  27.711  29.604  1.00  0.00     0.029 A 
ATOM     22  C   UNL A   1      40.058  28.730  29.576  1.00  0.00     0.049 A 
ATOM     23  H   UNL A   1      41.959  28.592  28.731  1.00  0.00     0.167 HD
ATOM     24  C   UNL A   1      45.897  28.007  26.721  1.00  0.00     0.034 A 
ATOM     25  C   UNL A   1      39.962  29.962  30.108  1.00  0.00     0.034 A 
ATOM     26  C   UNL A   1      45.898  29.340  27.253  1.00  0.00     0.049 A 
ATOM     27  C   UNL A   1      41.149  30.872  29.962  1.00  0.00     0.074 A 
ATOM     28  C   UNL A   1      46.903  30.287  27.215  1.00  0.00     0.029 A 
ATOM     29  N   UNL A   1      44.828  29.913  27.931  1.00  0.00    -0.354 N 
ATOM     30  N   UNL A   1      42.277  30.659  29.323  1.00  0.00    -0.248 NA
ATOM     31  C   UNL A   1      41.052  32.194  30.589  1.00  0.00     0.031 C 
ATOM     32  C   UNL A   1      46.448  31.424  27.892  1.00  0.00     0.029 A 
ATOM     33  C   UNL A   1      45.147  31.200  28.320  1.00  0.00     0.049 A 
ATOM     34  H   UNL A   1      43.969  29.467  28.110  1.00  0.00     0.167 HD
ATOM     35  C   UNL A   1      43.017  31.824  29.457  1.00  0.00     0.074 A 
ATOM     36  C   UNL A   1      42.190  32.754  30.204  1.00  0.00     0.031 C 
ATOM     37  C   UNL A   1      44.273  32.101  29.028  1.00  0.00     0.034 A 
BRANCH  24  38
ATOM     38  C   UNL A   1      47.093  27.507  25.962  1.00  0.00     0.023 A 
ATOM     39  C   UNL A   1      48.110  26.794  26.631  1.00  0.00     0.012 A 
ATOM     40  C   UNL A   1      47.219  27.760  24.583  1.00  0.00     0.148 A 
ATOM     41  C   UNL A   1      49.248  26.370  25.944  1.00  0.00     0.002 A 
ATOM     42  C   UNL A   1      48.336  27.298  23.897  1.00  0.00     0.091 A 
ATOM     43  F   UNL A   1      46.255  28.466  23.974  1.00  0.00    -0.205 F 
ATOM     44  C   UNL A   1      49.357  26.615  24.578  1.00  0.00     0.022 A 
BRANCH  42  45
ATOM     45  S   UNL A   1      48.547  27.517  22.128  1.00  0.00     0.127 S 
ATOM     46  O   UNL A   1      47.284  28.155  21.757  1.00  0.00    -0.237 OA
ATOM     47  O   UNL A   1      49.716  28.396  22.069  1.00  0.00    -0.237 OA
ATOM     48  O   UNL A   1      48.754  26.185  21.576  1.00  0.00    -0.744 OA
ENDBRANCH  42  45
ENDBRANCH  24  38
BRANCH  25  49
ATOM     49  C   UNL A   1      38.737  30.376  30.851  1.00  0.00     0.023 A 
ATOM     50  C   UNL A   1      38.591  30.063  32.216  1.00  0.00     0.012 A 
ATOM     51  C   UNL A   1      37.704  31.081  30.199  1.00  0.00     0.148 A 
ATOM     52  C   UNL A   1      37.425  30.408  32.904  1.00  0.00     0.002 A 
ATOM     53  C   UNL A   1      36.574  31.475  30.904  1.00  0.00     0.091 A 
ATOM     54  F   UNL A   1      37.844  31.352  28.893  1.00  0.00    -0.205 F 
ATOM     55  C   UNL A   1      36.422  31.122  32.252  1.00  0.00     0.022 A 
BRANCH  53  56
ATOM     56  S   UNL A   1      35.302  32.508  30.167  1.00  0.00     0.127 S 
ATOM     57  O   UNL A   1      36.068  33.686  29.769  1.00  0.00    -0.237 OA
ATOM     58  O   UNL A   1      34.834  31.674  29.059  1.00  0.00    -0.237 OA
ATOM     59  O   UNL A   1      34.313  32.716  31.215  1.00  0.00    -0.744 OA
ENDBRANCH  53  56
ENDBRANCH  25  49
BRANCH  37  60
ATOM     60  C   UNL A   1      44.806  33.472  29.336  1.00  0.00     0.023 A 
ATOM     61  C   UNL A   1      45.488  33.705  30.546  1.00  0.00     0.012 A 
ATOM     62  C   UNL A   1      44.679  34.511  28.397  1.00  0.00     0.148 A 
ATOM     63  C   UNL A   1      46.001  34.967  30.835  1.00  0.00     0.002 A 
ATOM     64  C   UNL A   1      45.243  35.750  28.666  1.00  0.00     0.091 A 
ATOM     65  F   UNL A   1      44.007  34.271  27.261  1.00  0.00    -0.205 F 
ATOM     66  C   UNL A   1      45.890  35.985  29.890  1.00  0.00     0.022 A 
BRANCH  64  67
ATOM     67  S   UNL A   1      45.243  37.081  27.461  1.00  0.00     0.127 S 
ATOM     68  O   UNL A   1      45.884  38.160  28.210  1.00  0.00    -0.237 OA
ATOM     69  O   UNL A   1      46.054  36.521  26.381  1.00  0.00    -0.237 OA
ATOM     70  O   UNL A   1      43.846  37.303  27.112  1.00  0.00    -0.744 OA
ENDBRANCH  64  67
ENDBRANCH  37  60
ENDBRANCH  11  12
ENDBRANCH   4   6
ENDBRANCH   3   4
ENDBRANCH   2   3
ENDBRANCH   1   2
BRANCH   1  71
ATOM     71  O   UNL A   1      36.029  22.908  24.801  1.00  0.00    -0.374 OA
BRANCH  71  72
ATOM     72  C   UNL A   1      35.286  23.722  23.883  1.00  0.00     0.202 C 
BRANCH  72  73
ATOM     73  C   UNL A   1      33.991  24.211  24.545  1.00  0.00     0.261 C 
BRANCH  73  74
ATOM     74  O   UNL A   1      32.889  23.758  23.747  1.00  0.00    -0.463 OA
BRANCH  74  75
ATOM     75  C   UNL A   1      32.261  22.658  24.256  1.00  0.00     0.312 C 
ATOM     76  O   UNL A   1      31.231  22.707  24.925  1.00  0.00    -0.252 OA
BRANCH  75  77
ATOM     77  C   UNL A   1      32.973  21.399  23.772  1.00  0.00     0.138 C 
ATOM     78  C   UNL A   1      33.553  20.482  24.833  1.00  0.00     0.135 C 
ATOM     79  C   UNL A   1      32.177  20.178  23.296  1.00  0.00     0.135 C 
ATOM     80  N   UNL A   1      33.138  19.398  24.007  1.00  0.00    -0.353 N 
BRANCH  80  81
ATOM     81  C   UNL A   1      33.135  18.052  24.354  1.00  0.00     0.147 A 
ATOM     82  C   UNL A   1      34.030  17.147  23.783  1.00  0.00     0.157 A 
ATOM     83  N   UNL A   1      32.304  17.655  25.345  1.00  0.00    -0.236 NA
ATOM     84  N   UNL A   1      34.143  15.852  24.182  1.00  0.00    -0.259 NA
ATOM     85  C   UNL A   1      32.386  16.364  25.724  1.00  0.00     0.133 A 
ATOM     86  C   UNL A   1      33.297  15.487  25.167  1.00  0.00     0.131 A 
ENDBRANCH  80  81
ENDBRANCH  75  77
ENDBRANCH  74  75
ENDBRANCH  73  74
ENDBRANCH  72  73
ENDBRANCH  71  72
ENDBRANCH   1  71
TORSDOF 18
ENDMDL
