MODEL 1
REMARK VINA RESULT:     -11.1      0.000      0.000
REMARK SMILES O=C(OCCOCCOC(=O)c1ccnc(-n2cnnn2)c1)c1ccc(-c2c3nc(c(-c4cccc(S(=O)(=O)[O-])c4F)c4ccc([nH]4)c(-c4cccc(S(=O)(=O)[O-])c4F)c4nc(c(-c5cccc(S(=O)(=O)[O-])c5F)c5ccc2[nH]5)C=C4)C=C3)cc1
REMARK SMILES IDX 5 1 4 2 3 3 2 4 1 5 23 6 24 7 85 8 25 9 84 10 26 11 27 12
REMARK SMILES IDX 28 13 78 14 29 15 83 16 77 17 79 18 30 19 82 20 76 21 75 22
REMARK SMILES IDX 31 24 63 25 43 26 62 27 44 28 47 29 61 30 80 31 45 32 46 33
REMARK SMILES IDX 60 35 81 36 48 37 32 38 33 39 41 40 34 41 36 42 42 43 35 44
REMARK SMILES IDX 37 45 38 46 39 47 40 48 64 49 65 50 73 51 66 52 68 53 74 54
REMARK SMILES IDX 67 55 69 56 70 57 71 58 72 59 49 60 50 61 58 62 51 63 53 64
REMARK SMILES IDX 59 65 52 66 54 67 55 68 56 69 57 70 6 71 7 72 8 73 9 74
REMARK SMILES IDX 10 75 11 76 12 77 13 78 22 79 14 80 16 81 15 82 17 83 18 84
REMARK SMILES IDX 21 85 19 86 20 87
REMARK H PARENT 79 23 47 34
REMARK Flexibility Score: inf
ROOT
ATOM      1  C   UNL A   1      33.230  29.096  27.337  1.00  0.00     0.202 C 
ENDROOT
BRANCH   1   2
ATOM      2  C   UNL A   1      33.503  30.549  26.963  1.00  0.00     0.261 C 
BRANCH   2   3
ATOM      3  O   UNL A   1      34.116  31.328  28.003  1.00  0.00    -0.460 OA
BRANCH   3   4
ATOM      4  C   UNL A   1      35.348  31.883  27.944  1.00  0.00     0.338 C 
ATOM      5  O   UNL A   1      35.485  33.020  27.497  1.00  0.00    -0.246 OA
BRANCH   4   6
ATOM      6  C   UNL A   1      36.473  31.229  28.662  1.00  0.00     0.060 A 
ATOM      7  C   UNL A   1      37.629  31.882  29.079  1.00  0.00     0.016 A 
ATOM      8  C   UNL A   1      36.394  29.833  28.797  1.00  0.00     0.016 A 
ATOM      9  C   UNL A   1      38.766  31.158  29.358  1.00  0.00     0.010 A 
ATOM     10  C   UNL A   1      37.514  29.097  29.150  1.00  0.00     0.010 A 
ATOM     11  C   UNL A   1      38.718  29.765  29.325  1.00  0.00    -0.014 A 
BRANCH  11  12
ATOM     12  C   UNL A   1      39.966  29.068  29.572  1.00  0.00     0.031 A 
ATOM     13  C   UNL A   1      40.416  29.150  30.987  1.00  0.00     0.074 A 
ATOM     14  C   UNL A   1      40.635  28.410  28.608  1.00  0.00     0.049 A 
ATOM     15  N   UNL A   1      41.436  29.793  31.456  1.00  0.00    -0.248 NA
ATOM     16  C   UNL A   1      39.512  28.623  32.019  1.00  0.00     0.031 C 
ATOM     17  C   UNL A   1      40.175  28.060  27.260  1.00  0.00     0.029 A 
ATOM     18  N   UNL A   1      41.845  27.795  28.684  1.00  0.00    -0.354 N 
ATOM     19  C   UNL A   1      41.431  29.547  32.827  1.00  0.00     0.074 A 
ATOM     20  C   UNL A   1      40.139  28.995  33.135  1.00  0.00     0.031 C 
ATOM     21  C   UNL A   1      40.962  27.077  26.766  1.00  0.00     0.029 A 
ATOM     22  C   UNL A   1      42.058  26.847  27.690  1.00  0.00     0.049 A 
ATOM     23  H   UNL A   1      42.509  28.003  29.380  1.00  0.00     0.167 HD
ATOM     24  C   UNL A   1      42.581  29.584  33.554  1.00  0.00     0.034 A 
ATOM     25  C   UNL A   1      43.018  25.889  27.689  1.00  0.00     0.034 A 
ATOM     26  C   UNL A   1      43.617  30.300  32.858  1.00  0.00     0.049 A 
ATOM     27  C   UNL A   1      44.075  26.328  28.630  1.00  0.00     0.074 A 
ATOM     28  C   UNL A   1      43.768  31.591  32.392  1.00  0.00     0.029 A 
ATOM     29  N   UNL A   1      44.562  29.546  32.208  1.00  0.00    -0.354 N 
ATOM     30  N   UNL A   1      44.826  27.373  28.423  1.00  0.00    -0.248 NA
ATOM     31  C   UNL A   1      43.990  25.875  30.008  1.00  0.00     0.031 C 
ATOM     32  C   UNL A   1      44.452  31.449  31.150  1.00  0.00     0.029 A 
ATOM     33  C   UNL A   1      44.741  30.095  30.968  1.00  0.00     0.049 A 
ATOM     34  H   UNL A   1      45.026  28.756  32.567  1.00  0.00     0.167 HD
ATOM     35  C   UNL A   1      44.923  27.974  29.671  1.00  0.00     0.074 A 
ATOM     36  C   UNL A   1      44.475  26.957  30.621  1.00  0.00     0.031 C 
ATOM     37  C   UNL A   1      45.075  29.325  29.792  1.00  0.00     0.034 A 
BRANCH  24  38
ATOM     38  C   UNL A   1      42.906  28.645  34.694  1.00  0.00     0.023 A 
ATOM     39  C   UNL A   1      43.402  29.223  35.885  1.00  0.00     0.012 A 
ATOM     40  C   UNL A   1      43.040  27.244  34.562  1.00  0.00     0.148 A 
ATOM     41  C   UNL A   1      44.063  28.460  36.854  1.00  0.00     0.002 A 
ATOM     42  C   UNL A   1      43.633  26.479  35.558  1.00  0.00     0.091 A 
ATOM     43  F   UNL A   1      42.717  26.643  33.415  1.00  0.00    -0.205 F 
ATOM     44  C   UNL A   1      44.178  27.085  36.690  1.00  0.00     0.022 A 
BRANCH  42  45
ATOM     45  S   UNL A   1      43.775  24.693  35.414  1.00  0.00     0.127 S 
ATOM     46  O   UNL A   1      44.317  24.338  36.722  1.00  0.00    -0.237 OA
ATOM     47  O   UNL A   1      42.383  24.303  35.191  1.00  0.00    -0.237 OA
ATOM     48  O   UNL A   1      44.651  24.458  34.272  1.00  0.00    -0.744 OA
ENDBRANCH  42  45
ENDBRANCH  24  38
BRANCH  25  49
ATOM     49  C   UNL A   1      42.940  24.491  27.202  1.00  0.00     0.023 A 
ATOM     50  C   UNL A   1      41.708  23.806  27.237  1.00  0.00     0.012 A 
ATOM     51  C   UNL A   1      43.990  23.935  26.436  1.00  0.00     0.148 A 
ATOM     52  C   UNL A   1      41.520  22.623  26.511  1.00  0.00     0.002 A 
ATOM     53  C   UNL A   1      43.799  22.757  25.720  1.00  0.00     0.091 A 
ATOM     54  F   UNL A   1      45.142  24.611  26.336  1.00  0.00    -0.205 F 
ATOM     55  C   UNL A   1      42.561  22.104  25.745  1.00  0.00     0.022 A 
BRANCH  53  56
ATOM     56  S   UNL A   1      45.085  22.048  24.681  1.00  0.00     0.127 S 
ATOM     57  O   UNL A   1      44.498  20.756  24.320  1.00  0.00    -0.237 OA
ATOM     58  O   UNL A   1      45.158  23.014  23.589  1.00  0.00    -0.237 OA
ATOM     59  O   UNL A   1      46.271  21.953  25.522  1.00  0.00    -0.744 OA
ENDBRANCH  53  56
ENDBRANCH  25  49
BRANCH  37  60
ATOM     60  C   UNL A   1      45.383  30.125  28.554  1.00  0.00     0.023 A 
ATOM     61  C   UNL A   1      44.380  30.585  27.674  1.00  0.00     0.012 A 
ATOM     62  C   UNL A   1      46.694  30.604  28.407  1.00  0.00     0.148 A 
ATOM     63  C   UNL A   1      44.686  31.505  26.666  1.00  0.00     0.002 A 
ATOM     64  C   UNL A   1      46.982  31.557  27.442  1.00  0.00     0.091 A 
ATOM     65  F   UNL A   1      47.630  30.151  29.256  1.00  0.00    -0.205 F 
ATOM     66  C   UNL A   1      45.984  32.005  26.562  1.00  0.00     0.022 A 
BRANCH  64  67
ATOM     67  S   UNL A   1      48.591  32.346  27.361  1.00  0.00     0.127 S 
ATOM     68  O   UNL A   1      49.052  32.239  28.743  1.00  0.00    -0.237 OA
ATOM     69  O   UNL A   1      49.306  31.498  26.407  1.00  0.00    -0.237 OA
ATOM     70  O   UNL A   1      48.350  33.703  26.886  1.00  0.00    -0.744 OA
ENDBRANCH  64  67
ENDBRANCH  37  60
ENDBRANCH  11  12
ENDBRANCH   4   6
ENDBRANCH   3   4
ENDBRANCH   2   3
ENDBRANCH   1   2
BRANCH   1  71
ATOM     71  O   UNL A   1      33.814  28.081  26.537  1.00  0.00    -0.374 OA
BRANCH  71  72
ATOM     72  C   UNL A   1      33.681  28.215  25.116  1.00  0.00     0.202 C 
BRANCH  72  73
ATOM     73  C   UNL A   1      32.690  27.307  24.367  1.00  0.00     0.261 C 
BRANCH  73  74
ATOM     74  O   UNL A   1      31.372  27.881  24.232  1.00  0.00    -0.460 OA
BRANCH  74  75
ATOM     75  C   UNL A   1      30.603  27.335  23.257  1.00  0.00     0.338 C 
ATOM     76  O   UNL A   1      30.783  26.294  22.663  1.00  0.00    -0.246 OA
BRANCH  75  77
ATOM     77  C   UNL A   1      29.345  28.101  23.136  1.00  0.00     0.065 A 
ATOM     78  C   UNL A   1      28.119  27.488  23.349  1.00  0.00     0.036 A 
ATOM     79  C   UNL A   1      29.426  29.477  22.898  1.00  0.00     0.065 A 
ATOM     80  C   UNL A   1      27.008  28.307  23.401  1.00  0.00     0.114 A 
ATOM     81  C   UNL A   1      28.251  30.214  22.951  1.00  0.00     0.157 A 
ATOM     82  N   UNL A   1      27.052  29.650  23.244  1.00  0.00    -0.237 NA
BRANCH  81  83
ATOM     83  N   UNL A   1      28.302  31.606  22.707  1.00  0.00    -0.182 N 
ATOM     84  C   UNL A   1      28.809  32.595  23.509  1.00  0.00     0.254 A 
ATOM     85  N   UNL A   1      27.822  32.177  21.581  1.00  0.00    -0.039 NA
ATOM     86  N   UNL A   1      28.572  33.761  22.955  1.00  0.00    -0.117 NA
ATOM     87  N   UNL A   1      27.937  33.487  21.770  1.00  0.00    -0.024 NA
ENDBRANCH  81  83
ENDBRANCH  75  77
ENDBRANCH  74  75
ENDBRANCH  73  74
ENDBRANCH  72  73
ENDBRANCH  71  72
ENDBRANCH   1  71
TORSDOF 18
ENDMDL
MODEL 2
REMARK VINA RESULT:     -11.1      4.781      6.566
REMARK SMILES O=C(OCCOCCOC(=O)c1ccnc(-n2cnnn2)c1)c1ccc(-c2c3nc(c(-c4cccc(S(=O)(=O)[O-])c4F)c4ccc([nH]4)c(-c4cccc(S(=O)(=O)[O-])c4F)c4nc(c(-c5cccc(S(=O)(=O)[O-])c5F)c5ccc2[nH]5)C=C4)C=C3)cc1
REMARK SMILES IDX 5 1 4 2 3 3 2 4 1 5 23 6 24 7 85 8 25 9 84 10 26 11 27 12
REMARK SMILES IDX 28 13 78 14 29 15 83 16 77 17 79 18 30 19 82 20 76 21 75 22
REMARK SMILES IDX 31 24 63 25 43 26 62 27 44 28 47 29 61 30 80 31 45 32 46 33
REMARK SMILES IDX 60 35 81 36 48 37 32 38 33 39 41 40 34 41 36 42 42 43 35 44
REMARK SMILES IDX 37 45 38 46 39 47 40 48 64 49 65 50 73 51 66 52 68 53 74 54
REMARK SMILES IDX 67 55 69 56 70 57 71 58 72 59 49 60 50 61 58 62 51 63 53 64
REMARK SMILES IDX 59 65 52 66 54 67 55 68 56 69 57 70 6 71 7 72 8 73 9 74
REMARK SMILES IDX 10 75 11 76 12 77 13 78 22 79 14 80 16 81 15 82 17 83 18 84
REMARK SMILES IDX 21 85 19 86 20 87
REMARK H PARENT 79 23 47 34
REMARK Flexibility Score: inf
ROOT
ATOM      1  C   UNL A   1      33.110  34.301  28.181  1.00  0.00     0.202 C 
ENDROOT
BRANCH   1   2
ATOM      2  C   UNL A   1      34.581  33.968  28.402  1.00  0.00     0.261 C 
BRANCH   2   3
ATOM      3  O   UNL A   1      34.815  32.746  29.123  1.00  0.00    -0.460 OA
BRANCH   3   4
ATOM      4  C   UNL A   1      35.306  31.604  28.590  1.00  0.00     0.338 C 
ATOM      5  O   UNL A   1      34.904  31.219  27.495  1.00  0.00    -0.246 OA
BRANCH   4   6
ATOM      6  C   UNL A   1      36.509  30.979  29.199  1.00  0.00     0.060 A 
ATOM      7  C   UNL A   1      37.675  31.665  29.526  1.00  0.00     0.016 A 
ATOM      8  C   UNL A   1      36.487  29.579  29.319  1.00  0.00     0.016 A 
ATOM      9  C   UNL A   1      38.855  30.975  29.696  1.00  0.00     0.010 A 
ATOM     10  C   UNL A   1      37.657  28.877  29.563  1.00  0.00     0.010 A 
ATOM     11  C   UNL A   1      38.849  29.582  29.645  1.00  0.00    -0.014 A 
BRANCH  11  12
ATOM     12  C   UNL A   1      40.136  28.925  29.774  1.00  0.00     0.031 A 
ATOM     13  C   UNL A   1      40.675  28.952  31.160  1.00  0.00     0.074 A 
ATOM     14  C   UNL A   1      40.763  28.344  28.735  1.00  0.00     0.049 A 
ATOM     15  N   UNL A   1      41.699  29.610  31.596  1.00  0.00    -0.248 NA
ATOM     16  C   UNL A   1      39.861  28.336  32.217  1.00  0.00     0.031 C 
ATOM     17  C   UNL A   1      40.228  28.046  27.403  1.00  0.00     0.029 A 
ATOM     18  N   UNL A   1      41.997  27.776  28.700  1.00  0.00    -0.354 N 
ATOM     19  C   UNL A   1      41.794  29.294  32.950  1.00  0.00     0.074 A 
ATOM     20  C   UNL A   1      40.546  28.675  33.309  1.00  0.00     0.031 C 
ATOM     21  C   UNL A   1      41.017  27.123  26.807  1.00  0.00     0.029 A 
ATOM     22  C   UNL A   1      42.179  26.889  27.645  1.00  0.00     0.049 A 
ATOM     23  H   UNL A   1      42.698  27.974  29.362  1.00  0.00     0.167 HD
ATOM     24  C   UNL A   1      42.987  29.340  33.603  1.00  0.00     0.034 A 
ATOM     25  C   UNL A   1      43.172  25.972  27.531  1.00  0.00     0.034 A 
ATOM     26  C   UNL A   1      43.948  30.132  32.881  1.00  0.00     0.049 A 
ATOM     27  C   UNL A   1      44.272  26.404  28.424  1.00  0.00     0.074 A 
ATOM     28  C   UNL A   1      44.020  31.450  32.477  1.00  0.00     0.029 A 
ATOM     29  N   UNL A   1      44.874  29.451  32.132  1.00  0.00    -0.354 N 
ATOM     30  N   UNL A   1      44.968  27.488  28.226  1.00  0.00    -0.248 NA
ATOM     31  C   UNL A   1      44.295  25.877  29.779  1.00  0.00     0.031 C 
ATOM     32  C   UNL A   1      44.625  31.400  31.188  1.00  0.00     0.029 A 
ATOM     33  C   UNL A   1      44.951  30.070  30.915  1.00  0.00     0.049 A 
ATOM     34  H   UNL A   1      45.391  28.662  32.418  1.00  0.00     0.167 HD
ATOM     35  C   UNL A   1      45.126  28.028  29.497  1.00  0.00     0.074 A 
ATOM     36  C   UNL A   1      44.779  26.946  30.417  1.00  0.00     0.031 C 
ATOM     37  C   UNL A   1      45.234  29.375  29.680  1.00  0.00     0.034 A 
BRANCH  24  38
ATOM     38  C   UNL A   1      43.421  28.357  34.667  1.00  0.00     0.023 A 
ATOM     39  C   UNL A   1      43.995  28.892  35.844  1.00  0.00     0.012 A 
ATOM     40  C   UNL A   1      43.575  26.968  34.457  1.00  0.00     0.148 A 
ATOM     41  C   UNL A   1      44.747  28.101  36.720  1.00  0.00     0.002 A 
ATOM     42  C   UNL A   1      44.262  26.173  35.366  1.00  0.00     0.091 A 
ATOM     43  F   UNL A   1      43.178  26.413  33.310  1.00  0.00    -0.205 F 
ATOM     44  C   UNL A   1      44.879  26.739  36.481  1.00  0.00     0.022 A 
BRANCH  42  45
ATOM     45  S   UNL A   1      44.433  24.400  35.124  1.00  0.00     0.127 S 
ATOM     46  O   UNL A   1      45.299  24.348  33.951  1.00  0.00    -0.237 OA
ATOM     47  O   UNL A   1      45.061  23.989  36.380  1.00  0.00    -0.237 OA
ATOM     48  O   UNL A   1      43.077  23.894  34.942  1.00  0.00    -0.744 OA
ENDBRANCH  42  45
ENDBRANCH  24  38
BRANCH  25  49
ATOM     49  C   UNL A   1      43.113  24.599  26.975  1.00  0.00     0.023 A 
ATOM     50  C   UNL A   1      41.939  23.834  27.124  1.00  0.00     0.012 A 
ATOM     51  C   UNL A   1      44.086  24.154  26.050  1.00  0.00     0.148 A 
ATOM     52  C   UNL A   1      41.727  22.680  26.358  1.00  0.00     0.002 A 
ATOM     53  C   UNL A   1      43.873  23.005  25.295  1.00  0.00     0.091 A 
ATOM     54  F   UNL A   1      45.173  24.908  25.846  1.00  0.00    -0.205 F 
ATOM     55  C   UNL A   1      42.689  22.271  25.437  1.00  0.00     0.022 A 
BRANCH  53  56
ATOM     56  S   UNL A   1      45.052  22.436  24.062  1.00  0.00     0.127 S 
ATOM     57  O   UNL A   1      45.919  23.607  23.914  1.00  0.00    -0.237 OA
ATOM     58  O   UNL A   1      45.671  21.298  24.737  1.00  0.00    -0.237 OA
ATOM     59  O   UNL A   1      44.268  22.117  22.876  1.00  0.00    -0.744 OA
ENDBRANCH  53  56
ENDBRANCH  25  49
BRANCH  37  60
ATOM     60  C   UNL A   1      45.430  30.250  28.470  1.00  0.00     0.023 A 
ATOM     61  C   UNL A   1      44.355  30.845  27.777  1.00  0.00     0.012 A 
ATOM     62  C   UNL A   1      46.743  30.651  28.171  1.00  0.00     0.148 A 
ATOM     63  C   UNL A   1      44.590  31.821  26.803  1.00  0.00     0.002 A 
ATOM     64  C   UNL A   1      46.968  31.656  27.244  1.00  0.00     0.091 A 
ATOM     65  F   UNL A   1      47.748  30.069  28.844  1.00  0.00    -0.205 F 
ATOM     66  C   UNL A   1      45.896  32.239  26.549  1.00  0.00     0.022 A 
BRANCH  64  67
ATOM     67  S   UNL A   1      48.607  32.340  26.989  1.00  0.00     0.127 S 
ATOM     68  O   UNL A   1      49.365  31.165  26.567  1.00  0.00    -0.237 OA
ATOM     69  O   UNL A   1      48.371  33.330  25.936  1.00  0.00    -0.237 OA
ATOM     70  O   UNL A   1      49.006  32.916  28.267  1.00  0.00    -0.744 OA
ENDBRANCH  64  67
ENDBRANCH  37  60
ENDBRANCH  11  12
ENDBRANCH   4   6
ENDBRANCH   3   4
ENDBRANCH   2   3
ENDBRANCH   1   2
BRANCH   1  71
ATOM     71  O   UNL A   1      32.526  35.308  28.991  1.00  0.00    -0.374 OA
BRANCH  71  72
ATOM     72  C   UNL A   1      33.393  35.992  29.904  1.00  0.00     0.202 C 
BRANCH  72  73
ATOM     73  C   UNL A   1      33.297  35.679  31.408  1.00  0.00     0.261 C 
BRANCH  73  74
ATOM     74  O   UNL A   1      34.303  34.753  31.870  1.00  0.00    -0.460 OA
BRANCH  74  75
ATOM     75  C   UNL A   1      35.010  35.162  32.953  1.00  0.00     0.338 C 
ATOM     76  O   UNL A   1      34.661  35.935  33.819  1.00  0.00    -0.246 OA
BRANCH  75  77
ATOM     77  C   UNL A   1      36.244  34.359  33.068  1.00  0.00     0.065 A 
ATOM     78  C   UNL A   1      37.274  34.509  32.150  1.00  0.00     0.036 A 
ATOM     79  C   UNL A   1      36.389  33.518  34.176  1.00  0.00     0.065 A 
ATOM     80  C   UNL A   1      38.463  33.863  32.431  1.00  0.00     0.114 A 
ATOM     81  C   UNL A   1      37.615  32.895  34.362  1.00  0.00     0.157 A 
ATOM     82  N   UNL A   1      38.666  33.096  33.526  1.00  0.00    -0.237 NA
BRANCH  81  83
ATOM     83  N   UNL A   1      37.788  32.033  35.469  1.00  0.00    -0.182 N 
ATOM     84  C   UNL A   1      38.367  30.791  35.501  1.00  0.00     0.254 A 
ATOM     85  N   UNL A   1      37.375  32.342  36.717  1.00  0.00    -0.039 NA
ATOM     86  N   UNL A   1      38.238  30.288  36.707  1.00  0.00    -0.117 NA
ATOM     87  N   UNL A   1      37.599  31.253  37.445  1.00  0.00    -0.024 NA
ENDBRANCH  81  83
ENDBRANCH  75  77
ENDBRANCH  74  75
ENDBRANCH  73  74
ENDBRANCH  72  73
ENDBRANCH  71  72
ENDBRANCH   1  71
TORSDOF 18
ENDMDL
MODEL 3
REMARK VINA RESULT:     -11.0      1.894      2.316
REMARK SMILES O=C(OCCOCCOC(=O)c1ccnc(-n2cnnn2)c1)c1ccc(-c2c3nc(c(-c4cccc(S(=O)(=O)[O-])c4F)c4ccc([nH]4)c(-c4cccc(S(=O)(=O)[O-])c4F)c4nc(c(-c5cccc(S(=O)(=O)[O-])c5F)c5ccc2[nH]5)C=C4)C=C3)cc1
REMARK SMILES IDX 5 1 4 2 3 3 2 4 1 5 23 6 24 7 85 8 25 9 84 10 26 11 27 12
REMARK SMILES IDX 28 13 78 14 29 15 83 16 77 17 79 18 30 19 82 20 76 21 75 22
REMARK SMILES IDX 31 24 63 25 43 26 62 27 44 28 47 29 61 30 80 31 45 32 46 33
REMARK SMILES IDX 60 35 81 36 48 37 32 38 33 39 41 40 34 41 36 42 42 43 35 44
REMARK SMILES IDX 37 45 38 46 39 47 40 48 64 49 65 50 73 51 66 52 68 53 74 54
REMARK SMILES IDX 67 55 69 56 70 57 71 58 72 59 49 60 50 61 58 62 51 63 53 64
REMARK SMILES IDX 59 65 52 66 54 67 55 68 56 69 57 70 6 71 7 72 8 73 9 74
REMARK SMILES IDX 10 75 11 76 12 77 13 78 22 79 14 80 16 81 15 82 17 83 18 84
REMARK SMILES IDX 21 85 19 86 20 87
REMARK H PARENT 79 23 47 34
REMARK Flexibility Score: inf
ROOT
ATOM      1  C   UNL A   1      33.916  31.288  27.962  1.00  0.00     0.202 C 
ENDROOT
BRANCH   1   2
ATOM      2  C   UNL A   1      34.526  32.663  27.712  1.00  0.00     0.261 C 
BRANCH   2   3
ATOM      3  O   UNL A   1      35.961  32.702  27.782  1.00  0.00    -0.460 OA
BRANCH   3   4
ATOM      4  C   UNL A   1      36.683  33.007  28.885  1.00  0.00     0.338 C 
ATOM      5  O   UNL A   1      36.368  33.976  29.572  1.00  0.00    -0.246 OA
BRANCH   4   6
ATOM      6  C   UNL A   1      37.669  32.022  29.401  1.00  0.00     0.060 A 
ATOM      7  C   UNL A   1      38.880  32.358  30.000  1.00  0.00     0.016 A 
ATOM      8  C   UNL A   1      37.394  30.670  29.133  1.00  0.00     0.016 A 
ATOM      9  C   UNL A   1      39.892  31.427  30.076  1.00  0.00     0.010 A 
ATOM     10  C   UNL A   1      38.384  29.711  29.276  1.00  0.00     0.010 A 
ATOM     11  C   UNL A   1      39.657  30.121  29.648  1.00  0.00    -0.014 A 
BRANCH  11  12
ATOM     12  C   UNL A   1      40.784  29.210  29.702  1.00  0.00     0.031 A 
ATOM     13  C   UNL A   1      41.182  28.847  31.089  1.00  0.00     0.074 A 
ATOM     14  C   UNL A   1      41.394  28.741  28.598  1.00  0.00     0.049 A 
ATOM     15  N   UNL A   1      42.261  29.187  31.715  1.00  0.00    -0.248 NA
ATOM     16  C   UNL A   1      40.171  28.202  31.938  1.00  0.00     0.031 C 
ATOM     17  C   UNL A   1      40.946  28.832  27.205  1.00  0.00     0.029 A 
ATOM     18  N   UNL A   1      42.502  27.959  28.509  1.00  0.00    -0.354 N 
ATOM     19  C   UNL A   1      42.165  28.589  32.970  1.00  0.00     0.074 A 
ATOM     20  C   UNL A   1      40.797  28.170  33.115  1.00  0.00     0.031 C 
ATOM     21  C   UNL A   1      41.608  27.913  26.467  1.00  0.00     0.029 A 
ATOM     22  C   UNL A   1      42.622  27.288  27.298  1.00  0.00     0.049 A 
ATOM     23  H   UNL A   1      43.160  27.876  29.237  1.00  0.00     0.167 HD
ATOM     24  C   UNL A   1      43.278  28.264  33.683  1.00  0.00     0.034 A 
ATOM     25  C   UNL A   1      43.439  26.236  27.042  1.00  0.00     0.034 A 
ATOM     26  C   UNL A   1      44.432  28.981  33.208  1.00  0.00     0.049 A 
ATOM     27  C   UNL A   1      44.507  26.250  28.069  1.00  0.00     0.074 A 
ATOM     28  C   UNL A   1      44.781  30.312  33.106  1.00  0.00     0.029 A 
ATOM     29  N   UNL A   1      45.288  28.297  32.381  1.00  0.00    -0.354 N 
ATOM     30  N   UNL A   1      45.403  27.192  28.152  1.00  0.00    -0.248 NA
ATOM     31  C   UNL A   1      44.302  25.465  29.275  1.00  0.00     0.031 C 
ATOM     32  C   UNL A   1      45.489  30.407  31.873  1.00  0.00     0.029 A 
ATOM     33  C   UNL A   1      45.593  29.123  31.335  1.00  0.00     0.049 A 
ATOM     34  H   UNL A   1      45.622  27.381  32.516  1.00  0.00     0.167 HD
ATOM     35  C   UNL A   1      45.532  27.420  29.517  1.00  0.00     0.074 A 
ATOM     36  C   UNL A   1      44.907  26.263  30.157  1.00  0.00     0.031 C 
ATOM     37  C   UNL A   1      45.865  28.653  29.996  1.00  0.00     0.034 A 
BRANCH  24  38
ATOM     38  C   UNL A   1      43.421  27.019  34.530  1.00  0.00     0.023 A 
ATOM     39  C   UNL A   1      43.471  27.195  35.932  1.00  0.00     0.012 A 
ATOM     40  C   UNL A   1      43.807  25.754  34.031  1.00  0.00     0.148 A 
ATOM     41  C   UNL A   1      43.952  26.193  36.782  1.00  0.00     0.002 A 
ATOM     42  C   UNL A   1      44.216  24.738  34.885  1.00  0.00     0.091 A 
ATOM     43  F   UNL A   1      43.912  25.553  32.716  1.00  0.00    -0.205 F 
ATOM     44  C   UNL A   1      44.324  24.962  36.257  1.00  0.00     0.022 A 
BRANCH  42  45
ATOM     45  S   UNL A   1      44.674  23.115  34.263  1.00  0.00     0.127 S 
ATOM     46  O   UNL A   1      44.300  22.257  35.383  1.00  0.00    -0.237 OA
ATOM     47  O   UNL A   1      43.821  23.000  33.080  1.00  0.00    -0.237 OA
ATOM     48  O   UNL A   1      46.099  23.194  33.965  1.00  0.00    -0.744 OA
ENDBRANCH  42  45
ENDBRANCH  24  38
BRANCH  25  49
ATOM     49  C   UNL A   1      43.186  25.044  26.197  1.00  0.00     0.023 A 
ATOM     50  C   UNL A   1      44.075  24.729  25.149  1.00  0.00     0.012 A 
ATOM     51  C   UNL A   1      42.254  24.060  26.598  1.00  0.00     0.148 A 
ATOM     52  C   UNL A   1      44.055  23.467  24.541  1.00  0.00     0.002 A 
ATOM     53  C   UNL A   1      42.235  22.810  25.988  1.00  0.00     0.091 A 
ATOM     54  F   UNL A   1      41.451  24.320  27.639  1.00  0.00    -0.205 F 
ATOM     55  C   UNL A   1      43.142  22.505  24.967  1.00  0.00     0.022 A 
BRANCH  53  56
ATOM     56  S   UNL A   1      41.110  21.506  26.509  1.00  0.00     0.127 S 
ATOM     57  O   UNL A   1      41.341  21.471  27.954  1.00  0.00    -0.237 OA
ATOM     58  O   UNL A   1      39.814  22.047  26.108  1.00  0.00    -0.237 OA
ATOM     59  O   UNL A   1      41.538  20.305  25.805  1.00  0.00    -0.744 OA
ENDBRANCH  53  56
ENDBRANCH  25  49
BRANCH  37  60
ATOM     60  C   UNL A   1      46.333  29.699  29.019  1.00  0.00     0.023 A 
ATOM     61  C   UNL A   1      47.652  29.740  28.519  1.00  0.00     0.012 A 
ATOM     62  C   UNL A   1      45.353  30.515  28.431  1.00  0.00     0.148 A 
ATOM     63  C   UNL A   1      47.982  30.584  27.455  1.00  0.00     0.002 A 
ATOM     64  C   UNL A   1      45.672  31.309  27.341  1.00  0.00     0.091 A 
ATOM     65  F   UNL A   1      44.106  30.457  28.924  1.00  0.00    -0.205 F 
ATOM     66  C   UNL A   1      46.988  31.355  26.853  1.00  0.00     0.022 A 
BRANCH  64  67
ATOM     67  S   UNL A   1      44.407  32.201  26.434  1.00  0.00     0.127 S 
ATOM     68  O   UNL A   1      45.160  32.721  25.295  1.00  0.00    -0.237 OA
ATOM     69  O   UNL A   1      43.453  31.140  26.106  1.00  0.00    -0.237 OA
ATOM     70  O   UNL A   1      43.887  33.206  27.351  1.00  0.00    -0.744 OA
ENDBRANCH  64  67
ENDBRANCH  37  60
ENDBRANCH  11  12
ENDBRANCH   4   6
ENDBRANCH   3   4
ENDBRANCH   2   3
ENDBRANCH   1   2
BRANCH   1  71
ATOM     71  O   UNL A   1      32.915  30.830  27.069  1.00  0.00    -0.374 OA
BRANCH  71  72
ATOM     72  C   UNL A   1      32.614  29.429  27.092  1.00  0.00     0.202 C 
BRANCH  72  73
ATOM     73  C   UNL A   1      32.958  28.567  25.863  1.00  0.00     0.261 C 
BRANCH  73  74
ATOM     74  O   UNL A   1      32.164  28.881  24.699  1.00  0.00    -0.460 OA
BRANCH  74  75
ATOM     75  C   UNL A   1      31.540  27.822  24.125  1.00  0.00     0.338 C 
ATOM     76  O   UNL A   1      31.876  26.658  24.148  1.00  0.00    -0.246 OA
BRANCH  75  77
ATOM     77  C   UNL A   1      30.223  28.249  23.608  1.00  0.00     0.065 A 
ATOM     78  C   UNL A   1      29.177  27.345  23.500  1.00  0.00     0.036 A 
ATOM     79  C   UNL A   1      30.030  29.604  23.321  1.00  0.00     0.065 A 
ATOM     80  C   UNL A   1      27.933  27.858  23.187  1.00  0.00     0.114 A 
ATOM     81  C   UNL A   1      28.748  30.022  22.995  1.00  0.00     0.157 A 
ATOM     82  N   UNL A   1      27.691  29.170  22.970  1.00  0.00    -0.237 NA
BRANCH  81  83
ATOM     83  N   UNL A   1      28.524  31.385  22.693  1.00  0.00    -0.182 N 
ATOM     84  C   UNL A   1      27.968  31.929  21.564  1.00  0.00     0.254 A 
ATOM     85  N   UNL A   1      28.853  32.391  23.531  1.00  0.00    -0.039 NA
ATOM     86  N   UNL A   1      28.032  33.238  21.642  1.00  0.00    -0.117 NA
ATOM     87  N   UNL A   1      28.606  33.509  22.858  1.00  0.00    -0.024 NA
ENDBRANCH  81  83
ENDBRANCH  75  77
ENDBRANCH  74  75
ENDBRANCH  73  74
ENDBRANCH  72  73
ENDBRANCH  71  72
ENDBRANCH   1  71
TORSDOF 18
ENDMDL
