MODEL 1
REMARK VINA RESULT:     -11.6      0.000      0.000
REMARK SMILES Cc1c(Br)c(C)c2c(c1Br)O[C@H](C(F)(F)F)C(C(=O)OCCOCCOC(=O)c1ccc(-c3c4nc(c(-c5cccc(S(=O)(=O)[O-])c5F)c5ccc([nH]5)c(-c5cccc(S(=O)(=O)[O-])c5F)c5nc(c(-c6cccc(S(=O)(=O)[O-])c6F)c6ccc3[nH]6)C=C5)C=C4)cc1)=C2
REMARK SMILES IDX 24 1 23 2 22 3 21 4 20 5 18 6 19 7 17 8 1 9 2 10 3 11 9 12
REMARK SMILES IDX 4 13 5 14 8 15 10 16 6 17 7 18 11 19 92 20 12 21 13 22 14 23
REMARK SMILES IDX 15 24 16 25 25 26 26 27 27 28 28 29 29 30 30 31 91 32 31 33
REMARK SMILES IDX 90 34 32 35 33 36 34 37 84 38 35 39 89 40 83 41 85 42 36 43
REMARK SMILES IDX 88 44 82 45 81 46 37 48 69 49 49 50 68 51 50 52 53 53 67 54
REMARK SMILES IDX 86 55 51 56 52 57 66 59 87 60 54 61 38 62 39 63 47 64 40 65
REMARK SMILES IDX 42 66 48 67 41 68 43 69 44 70 45 71 46 72 70 73 71 74 79 75
REMARK SMILES IDX 72 76 74 77 80 78 73 79 75 80 76 81 77 82 78 83 55 84 56 85
REMARK SMILES IDX 64 86 57 87 59 88 65 89 58 90 60 91 61 92 62 93 63 94
REMARK H PARENT 85 47 53 58
REMARK Flexibility Score: inf
ROOT
ATOM      1  C   UNL A   1      31.265  31.580  26.359  1.00  0.00     0.202 C 
ENDROOT
BRANCH   1   2
ATOM      2  O   UNL A   1      32.105  30.431  26.475  1.00  0.00    -0.374 OA
BRANCH   2   3
ATOM      3  C   UNL A   1      32.433  29.718  25.283  1.00  0.00     0.202 C 
BRANCH   3   4
ATOM      4  C   UNL A   1      33.530  28.652  25.378  1.00  0.00     0.261 C 
BRANCH   4   5
ATOM      5  O   UNL A   1      32.993  27.324  25.306  1.00  0.00    -0.460 OA
BRANCH   5   6
ATOM      6  C   UNL A   1      33.392  26.617  24.223  1.00  0.00     0.338 C 
ATOM      7  O   UNL A   1      33.779  27.068  23.154  1.00  0.00    -0.246 OA
BRANCH   6   8
ATOM      8  C   UNL A   1      33.451  25.181  24.554  1.00  0.00     0.087 C 
ATOM      9  C   UNL A   1      35.203  18.934  24.716  1.00  0.00     0.047 C 
ATOM     10  C   UNL A   1      35.114  20.435  24.872  1.00  0.00    -0.019 A 
ATOM     11  C   UNL A   1      36.257  21.261  24.996  1.00  0.00     0.025 A 
ATOM     12  C   UNL A   1      33.841  21.050  24.888  1.00  0.00     0.064 A 
ATOM     13  Br  UNL A   1      37.998  20.457  25.082  1.00  0.00    -0.050 Br
ATOM     14  C   UNL A   1      36.140  22.672  25.050  1.00  0.00    -0.026 A 
ATOM     15  C   UNL A   1      33.709  22.448  24.913  1.00  0.00     0.142 A 
ATOM     16  Br  UNL A   1      32.245  19.988  24.835  1.00  0.00    -0.046 Br
ATOM     17  C   UNL A   1      37.340  23.586  25.200  1.00  0.00     0.046 C 
ATOM     18  C   UNL A   1      34.852  23.255  24.941  1.00  0.00     0.022 A 
ATOM     19  O   UNL A   1      32.438  22.962  24.940  1.00  0.00    -0.474 OA
ATOM     20  C   UNL A   1      34.675  24.695  24.783  1.00  0.00     0.027 C 
ATOM     21  C   UNL A   1      32.207  24.348  24.579  1.00  0.00     0.316 C 
BRANCH  21  22
ATOM     22  C   UNL A   1      31.431  24.398  23.255  1.00  0.00     0.430 C 
ATOM     23  F   UNL A   1      30.660  25.505  23.181  1.00  0.00    -0.167 F 
ATOM     24  F   UNL A   1      32.268  24.417  22.192  1.00  0.00    -0.167 F 
ATOM     25  F   UNL A   1      30.622  23.322  23.116  1.00  0.00    -0.167 F 
ENDBRANCH  21  22
ENDBRANCH   6   8
ENDBRANCH   5   6
ENDBRANCH   4   5
ENDBRANCH   3   4
ENDBRANCH   2   3
ENDBRANCH   1   2
BRANCH   1  26
ATOM     26  C   UNL A   1      31.746  32.896  26.984  1.00  0.00     0.261 C 
BRANCH  26  27
ATOM     27  O   UNL A   1      33.176  33.040  26.955  1.00  0.00    -0.460 OA
BRANCH  27  28
ATOM     28  C   UNL A   1      33.712  33.630  28.050  1.00  0.00     0.338 C 
ATOM     29  O   UNL A   1      33.209  34.514  28.734  1.00  0.00    -0.246 OA
BRANCH  28  30
ATOM     30  C   UNL A   1      34.939  32.921  28.446  1.00  0.00     0.060 A 
ATOM     31  C   UNL A   1      34.808  31.648  29.016  1.00  0.00     0.016 A 
ATOM     32  C   UNL A   1      36.194  33.518  28.320  1.00  0.00     0.016 A 
ATOM     33  C   UNL A   1      35.933  30.976  29.486  1.00  0.00     0.010 A 
ATOM     34  C   UNL A   1      37.323  32.845  28.800  1.00  0.00     0.010 A 
ATOM     35  C   UNL A   1      37.195  31.583  29.408  1.00  0.00    -0.014 A 
BRANCH  35  36
ATOM     36  C   UNL A   1      38.360  30.929  30.048  1.00  0.00     0.031 A 
ATOM     37  C   UNL A   1      38.724  31.283  31.464  1.00  0.00     0.074 A 
ATOM     38  C   UNL A   1      39.071  30.006  29.375  1.00  0.00     0.049 A 
ATOM     39  N   UNL A   1      39.682  30.805  32.212  1.00  0.00    -0.248 NA
ATOM     40  C   UNL A   1      37.901  32.310  32.124  1.00  0.00     0.031 C 
ATOM     41  C   UNL A   1      38.807  29.580  28.001  1.00  0.00     0.029 A 
ATOM     42  N   UNL A   1      40.162  29.264  29.753  1.00  0.00    -0.354 N 
ATOM     43  C   UNL A   1      39.586  31.475  33.426  1.00  0.00     0.074 A 
ATOM     44  C   UNL A   1      38.494  32.415  33.306  1.00  0.00     0.031 C 
ATOM     45  C   UNL A   1      39.714  28.654  27.650  1.00  0.00     0.029 A 
ATOM     46  C   UNL A   1      40.636  28.436  28.763  1.00  0.00     0.049 A 
ATOM     47  H   UNL A   1      40.567  29.320  30.648  1.00  0.00     0.167 HD
ATOM     48  C   UNL A   1      40.324  31.301  34.548  1.00  0.00     0.034 A 
ATOM     49  C   UNL A   1      41.694  27.600  28.755  1.00  0.00     0.034 A 
ATOM     50  C   UNL A   1      41.397  30.351  34.665  1.00  0.00     0.049 A 
ATOM     51  C   UNL A   1      42.522  27.454  30.005  1.00  0.00     0.074 A 
ATOM     52  C   UNL A   1      42.184  30.081  35.770  1.00  0.00     0.029 A 
ATOM     53  N   UNL A   1      41.837  29.520  33.646  1.00  0.00    -0.354 N 
ATOM     54  N   UNL A   1      42.352  28.017  31.177  1.00  0.00    -0.248 NA
ATOM     55  C   UNL A   1      43.671  26.536  29.945  1.00  0.00     0.031 C 
ATOM     56  C   UNL A   1      43.119  29.108  35.412  1.00  0.00     0.029 A 
ATOM     57  C   UNL A   1      42.892  28.744  34.094  1.00  0.00     0.049 A 
ATOM     58  H   UNL A   1      41.457  29.488  32.739  1.00  0.00     0.167 HD
ATOM     59  C   UNL A   1      43.341  27.491  32.003  1.00  0.00     0.074 A 
ATOM     60  C   UNL A   1      44.101  26.556  31.201  1.00  0.00     0.031 C 
ATOM     61  C   UNL A   1      43.601  27.770  33.304  1.00  0.00     0.034 A 
BRANCH  48  62
ATOM     62  C   UNL A   1      39.969  32.114  35.765  1.00  0.00     0.023 A 
ATOM     63  C   UNL A   1      40.615  33.347  35.985  1.00  0.00     0.012 A 
ATOM     64  C   UNL A   1      38.927  31.717  36.627  1.00  0.00     0.148 A 
ATOM     65  C   UNL A   1      40.246  34.164  37.053  1.00  0.00     0.002 A 
ATOM     66  C   UNL A   1      38.533  32.557  37.662  1.00  0.00     0.091 A 
ATOM     67  F   UNL A   1      38.335  30.533  36.412  1.00  0.00    -0.205 F 
ATOM     68  C   UNL A   1      39.197  33.776  37.881  1.00  0.00     0.022 A 
BRANCH  66  69
ATOM     69  S   UNL A   1      37.137  32.195  38.733  1.00  0.00     0.127 S 
ATOM     70  O   UNL A   1      37.575  32.784  39.998  1.00  0.00    -0.237 OA
ATOM     71  O   UNL A   1      36.047  32.912  38.072  1.00  0.00    -0.237 OA
ATOM     72  O   UNL A   1      36.999  30.745  38.740  1.00  0.00    -0.744 OA
ENDBRANCH  66  69
ENDBRANCH  48  62
BRANCH  49  73
ATOM     73  C   UNL A   1      41.983  26.783  27.542  1.00  0.00     0.023 A 
ATOM     74  C   UNL A   1      42.570  27.398  26.418  1.00  0.00     0.012 A 
ATOM     75  C   UNL A   1      41.727  25.398  27.508  1.00  0.00     0.148 A 
ATOM     76  C   UNL A   1      42.876  26.655  25.277  1.00  0.00     0.002 A 
ATOM     77  C   UNL A   1      42.087  24.653  26.390  1.00  0.00     0.091 A 
ATOM     78  F   UNL A   1      41.153  24.833  28.580  1.00  0.00    -0.205 F 
ATOM     79  C   UNL A   1      42.646  25.283  25.267  1.00  0.00     0.022 A 
BRANCH  77  80
ATOM     80  S   UNL A   1      41.955  22.862  26.338  1.00  0.00     0.127 S 
ATOM     81  O   UNL A   1      42.535  22.558  25.033  1.00  0.00    -0.237 OA
ATOM     82  O   UNL A   1      42.774  22.470  27.486  1.00  0.00    -0.237 OA
ATOM     83  O   UNL A   1      40.536  22.568  26.482  1.00  0.00    -0.744 OA
ENDBRANCH  77  80
ENDBRANCH  49  73
BRANCH  61  84
ATOM     84  C   UNL A   1      44.733  27.041  33.981  1.00  0.00     0.023 A 
ATOM     85  C   UNL A   1      46.035  27.574  33.933  1.00  0.00     0.012 A 
ATOM     86  C   UNL A   1      44.476  25.914  34.788  1.00  0.00     0.148 A 
ATOM     87  C   UNL A   1      47.067  26.989  34.667  1.00  0.00     0.002 A 
ATOM     88  C   UNL A   1      45.496  25.368  35.558  1.00  0.00     0.091 A 
ATOM     89  F   UNL A   1      43.231  25.415  34.810  1.00  0.00    -0.205 F 
ATOM     90  C   UNL A   1      46.794  25.899  35.490  1.00  0.00     0.022 A 
BRANCH  88  91
ATOM     91  S   UNL A   1      45.220  24.037  36.733  1.00  0.00     0.127 S 
ATOM     92  O   UNL A   1      44.194  24.616  37.600  1.00  0.00    -0.237 OA
ATOM     93  O   UNL A   1      44.749  22.956  35.868  1.00  0.00    -0.237 OA
ATOM     94  O   UNL A   1      46.504  23.790  37.374  1.00  0.00    -0.744 OA
ENDBRANCH  88  91
ENDBRANCH  61  84
ENDBRANCH  35  36
ENDBRANCH  28  30
ENDBRANCH  27  28
ENDBRANCH  26  27
ENDBRANCH   1  26
TORSDOF 18
ENDMDL
MODEL 2
REMARK VINA RESULT:     -11.4      1.530      7.631
REMARK SMILES Cc1c(Br)c(C)c2c(c1Br)O[C@H](C(F)(F)F)C(C(=O)OCCOCCOC(=O)c1ccc(-c3c4nc(c(-c5cccc(S(=O)(=O)[O-])c5F)c5ccc([nH]5)c(-c5cccc(S(=O)(=O)[O-])c5F)c5nc(c(-c6cccc(S(=O)(=O)[O-])c6F)c6ccc3[nH]6)C=C5)C=C4)cc1)=C2
REMARK SMILES IDX 24 1 23 2 22 3 21 4 20 5 18 6 19 7 17 8 1 9 2 10 3 11 9 12
REMARK SMILES IDX 4 13 5 14 8 15 10 16 6 17 7 18 11 19 92 20 12 21 13 22 14 23
REMARK SMILES IDX 15 24 16 25 25 26 26 27 27 28 28 29 29 30 30 31 91 32 31 33
REMARK SMILES IDX 90 34 32 35 33 36 34 37 84 38 35 39 89 40 83 41 85 42 36 43
REMARK SMILES IDX 88 44 82 45 81 46 37 48 69 49 49 50 68 51 50 52 53 53 67 54
REMARK SMILES IDX 86 55 51 56 52 57 66 59 87 60 54 61 38 62 39 63 47 64 40 65
REMARK SMILES IDX 42 66 48 67 41 68 43 69 44 70 45 71 46 72 70 73 71 74 79 75
REMARK SMILES IDX 72 76 74 77 80 78 73 79 75 80 76 81 77 82 78 83 55 84 56 85
REMARK SMILES IDX 64 86 57 87 59 88 65 89 58 90 60 91 61 92 62 93 63 94
REMARK H PARENT 85 47 53 58
REMARK Flexibility Score: inf
ROOT
ATOM      1  C   UNL A   1      31.293  29.335  24.886  1.00  0.00     0.202 C 
ENDROOT
BRANCH   1   2
ATOM      2  O   UNL A   1      31.666  29.249  23.511  1.00  0.00    -0.374 OA
BRANCH   2   3
ATOM      3  C   UNL A   1      32.953  28.719  23.196  1.00  0.00     0.202 C 
BRANCH   3   4
ATOM      4  C   UNL A   1      33.835  28.269  24.365  1.00  0.00     0.261 C 
BRANCH   4   5
ATOM      5  O   UNL A   1      33.869  26.840  24.491  1.00  0.00    -0.460 OA
BRANCH   5   6
ATOM      6  C   UNL A   1      33.514  26.378  25.712  1.00  0.00     0.338 C 
ATOM      7  O   UNL A   1      33.063  27.031  26.642  1.00  0.00    -0.246 OA
BRANCH   6   8
ATOM      8  C   UNL A   1      33.602  24.906  25.737  1.00  0.00     0.087 C 
ATOM      9  C   UNL A   1      35.399  18.792  24.505  1.00  0.00     0.047 C 
ATOM     10  C   UNL A   1      35.310  20.227  24.972  1.00  0.00    -0.019 A 
ATOM     11  C   UNL A   1      36.454  21.031  25.196  1.00  0.00     0.025 A 
ATOM     12  C   UNL A   1      34.037  20.802  25.189  1.00  0.00     0.064 A 
ATOM     13  Br  UNL A   1      38.202  20.259  25.010  1.00  0.00    -0.050 Br
ATOM     14  C   UNL A   1      36.332  22.400  25.545  1.00  0.00    -0.026 A 
ATOM     15  C   UNL A   1      33.898  22.162  25.509  1.00  0.00     0.142 A 
ATOM     16  Br  UNL A   1      32.448  19.743  25.015  1.00  0.00    -0.046 Br
ATOM     17  C   UNL A   1      37.533  23.285  25.808  1.00  0.00     0.046 C 
ATOM     18  C   UNL A   1      35.036  22.968  25.636  1.00  0.00     0.022 A 
ATOM     19  O   UNL A   1      32.629  22.637  25.718  1.00  0.00    -0.474 OA
ATOM     20  C   UNL A   1      34.841  24.407  25.788  1.00  0.00     0.027 C 
ATOM     21  C   UNL A   1      32.367  24.063  25.664  1.00  0.00     0.316 C 
BRANCH  21  22
ATOM     22  C   UNL A   1      31.511  24.368  24.427  1.00  0.00     0.430 C 
ATOM     23  F   UNL A   1      30.633  23.370  24.181  1.00  0.00    -0.167 F 
ATOM     24  F   UNL A   1      30.794  25.503  24.590  1.00  0.00    -0.167 F 
ATOM     25  F   UNL A   1      32.275  24.524  23.322  1.00  0.00    -0.167 F 
ENDBRANCH  21  22
ENDBRANCH   6   8
ENDBRANCH   5   6
ENDBRANCH   4   5
ENDBRANCH   3   4
ENDBRANCH   2   3
ENDBRANCH   1   2
BRANCH   1  26
ATOM     26  C   UNL A   1      31.493  30.673  25.610  1.00  0.00     0.261 C 
BRANCH  26  27
ATOM     27  O   UNL A   1      32.312  30.556  26.785  1.00  0.00    -0.460 OA
BRANCH  27  28
ATOM     28  C   UNL A   1      32.982  31.683  27.127  1.00  0.00     0.338 C 
ATOM     29  O   UNL A   1      32.545  32.828  27.137  1.00  0.00    -0.246 OA
BRANCH  28  30
ATOM     30  C   UNL A   1      34.296  31.330  27.687  1.00  0.00     0.060 A 
ATOM     31  C   UNL A   1      34.546  29.982  27.977  1.00  0.00     0.016 A 
ATOM     32  C   UNL A   1      35.246  32.309  27.981  1.00  0.00     0.016 A 
ATOM     33  C   UNL A   1      35.741  29.612  28.589  1.00  0.00     0.010 A 
ATOM     34  C   UNL A   1      36.442  31.936  28.603  1.00  0.00     0.010 A 
ATOM     35  C   UNL A   1      36.684  30.590  28.933  1.00  0.00    -0.014 A 
BRANCH  35  36
ATOM     36  C   UNL A   1      37.880  30.206  29.719  1.00  0.00     0.031 A 
ATOM     37  C   UNL A   1      38.903  29.286  29.110  1.00  0.00     0.074 A 
ATOM     38  C   UNL A   1      38.061  30.696  30.958  1.00  0.00     0.049 A 
ATOM     39  N   UNL A   1      40.028  28.856  29.615  1.00  0.00    -0.248 NA
ATOM     40  C   UNL A   1      38.623  28.787  27.753  1.00  0.00     0.031 C 
ATOM     41  C   UNL A   1      37.139  31.598  31.649  1.00  0.00     0.029 A 
ATOM     42  N   UNL A   1      39.077  30.502  31.860  1.00  0.00    -0.354 N 
ATOM     43  C   UNL A   1      40.587  28.030  28.648  1.00  0.00     0.074 A 
ATOM     44  C   UNL A   1      39.664  27.995  27.535  1.00  0.00     0.031 C 
ATOM     45  C   UNL A   1      37.630  31.876  32.867  1.00  0.00     0.029 A 
ATOM     46  C   UNL A   1      38.888  31.157  33.054  1.00  0.00     0.049 A 
ATOM     47  H   UNL A   1      39.867  29.945  31.670  1.00  0.00     0.167 HD
ATOM     48  C   UNL A   1      41.776  27.382  28.675  1.00  0.00     0.034 A 
ATOM     49  C   UNL A   1      39.644  31.174  34.171  1.00  0.00     0.034 A 
ATOM     50  C   UNL A   1      42.697  27.436  29.777  1.00  0.00     0.049 A 
ATOM     51  C   UNL A   1      40.944  30.412  34.188  1.00  0.00     0.074 A 
ATOM     52  C   UNL A   1      43.938  26.836  29.886  1.00  0.00     0.029 A 
ATOM     53  N   UNL A   1      42.477  28.122  30.962  1.00  0.00    -0.354 N 
ATOM     54  N   UNL A   1      41.508  29.723  33.225  1.00  0.00    -0.248 NA
ATOM     55  C   UNL A   1      41.730  30.453  35.431  1.00  0.00     0.031 C 
ATOM     56  C   UNL A   1      44.458  27.136  31.146  1.00  0.00     0.029 A 
ATOM     57  C   UNL A   1      43.557  27.953  31.811  1.00  0.00     0.049 A 
ATOM     58  H   UNL A   1      41.673  28.650  31.169  1.00  0.00     0.167 HD
ATOM     59  C   UNL A   1      42.729  29.285  33.730  1.00  0.00     0.074 A 
ATOM     60  C   UNL A   1      42.829  29.796  35.081  1.00  0.00     0.031 C 
ATOM     61  C   UNL A   1      43.673  28.519  33.130  1.00  0.00     0.034 A 
BRANCH  48  62
ATOM     62  C   UNL A   1      42.185  26.598  27.455  1.00  0.00     0.023 A 
ATOM     63  C   UNL A   1      42.893  27.246  26.423  1.00  0.00     0.012 A 
ATOM     64  C   UNL A   1      41.968  25.208  27.377  1.00  0.00     0.148 A 
ATOM     65  C   UNL A   1      43.361  26.529  25.323  1.00  0.00     0.002 A 
ATOM     66  C   UNL A   1      42.479  24.492  26.301  1.00  0.00     0.091 A 
ATOM     67  F   UNL A   1      41.278  24.612  28.360  1.00  0.00    -0.205 F 
ATOM     68  C   UNL A   1      43.167  25.151  25.269  1.00  0.00     0.022 A 
BRANCH  66  69
ATOM     69  S   UNL A   1      42.361  22.703  26.177  1.00  0.00     0.127 S 
ATOM     70  O   UNL A   1      42.972  22.457  24.871  1.00  0.00    -0.237 OA
ATOM     71  O   UNL A   1      43.163  22.262  27.318  1.00  0.00    -0.237 OA
ATOM     72  O   UNL A   1      40.942  22.384  26.267  1.00  0.00    -0.744 OA
ENDBRANCH  66  69
ENDBRANCH  48  62
BRANCH  49  73
ATOM     73  C   UNL A   1      39.222  31.997  35.339  1.00  0.00     0.023 A 
ATOM     74  C   UNL A   1      38.382  31.430  36.318  1.00  0.00     0.012 A 
ATOM     75  C   UNL A   1      39.680  33.319  35.514  1.00  0.00     0.148 A 
ATOM     76  C   UNL A   1      37.989  32.167  37.436  1.00  0.00     0.002 A 
ATOM     77  C   UNL A   1      39.332  34.028  36.658  1.00  0.00     0.091 A 
ATOM     78  F   UNL A   1      40.465  33.847  34.565  1.00  0.00    -0.205 F 
ATOM     79  C   UNL A   1      38.473  33.460  37.612  1.00  0.00     0.022 A 
BRANCH  77  80
ATOM     80  S   UNL A   1      40.015  35.646  37.037  1.00  0.00     0.127 S 
ATOM     81  O   UNL A   1      39.351  35.961  38.301  1.00  0.00    -0.237 OA
ATOM     82  O   UNL A   1      41.443  35.348  37.146  1.00  0.00    -0.237 OA
ATOM     83  O   UNL A   1      39.660  36.496  35.910  1.00  0.00    -0.744 OA
ENDBRANCH  77  80
ENDBRANCH  49  73
BRANCH  61  84
ATOM     84  C   UNL A   1      44.930  28.198  33.899  1.00  0.00     0.023 A 
ATOM     85  C   UNL A   1      46.019  29.088  33.862  1.00  0.00     0.012 A 
ATOM     86  C   UNL A   1      44.968  27.093  34.774  1.00  0.00     0.148 A 
ATOM     87  C   UNL A   1      47.134  28.878  34.673  1.00  0.00     0.002 A 
ATOM     88  C   UNL A   1      46.059  26.918  35.618  1.00  0.00     0.091 A 
ATOM     89  F   UNL A   1      43.925  26.250  34.785  1.00  0.00    -0.205 F 
ATOM     90  C   UNL A   1      47.146  27.804  35.561  1.00  0.00     0.022 A 
BRANCH  88  91
ATOM     91  S   UNL A   1      46.118  25.634  36.874  1.00  0.00     0.127 S 
ATOM     92  O   UNL A   1      45.455  24.523  36.194  1.00  0.00    -0.237 OA
ATOM     93  O   UNL A   1      47.558  25.461  37.068  1.00  0.00    -0.237 OA
ATOM     94  O   UNL A   1      45.407  26.165  38.029  1.00  0.00    -0.744 OA
ENDBRANCH  88  91
ENDBRANCH  61  84
ENDBRANCH  35  36
ENDBRANCH  28  30
ENDBRANCH  27  28
ENDBRANCH  26  27
ENDBRANCH   1  26
TORSDOF 18
ENDMDL
MODEL 3
REMARK VINA RESULT:     -11.3      4.856      7.768
REMARK SMILES Cc1c(Br)c(C)c2c(c1Br)O[C@H](C(F)(F)F)C(C(=O)OCCOCCOC(=O)c1ccc(-c3c4nc(c(-c5cccc(S(=O)(=O)[O-])c5F)c5ccc([nH]5)c(-c5cccc(S(=O)(=O)[O-])c5F)c5nc(c(-c6cccc(S(=O)(=O)[O-])c6F)c6ccc3[nH]6)C=C5)C=C4)cc1)=C2
REMARK SMILES IDX 24 1 23 2 22 3 21 4 20 5 18 6 19 7 17 8 1 9 2 10 3 11 9 12
REMARK SMILES IDX 4 13 5 14 8 15 10 16 6 17 7 18 11 19 92 20 12 21 13 22 14 23
REMARK SMILES IDX 15 24 16 25 25 26 26 27 27 28 28 29 29 30 30 31 91 32 31 33
REMARK SMILES IDX 90 34 32 35 33 36 34 37 84 38 35 39 89 40 83 41 85 42 36 43
REMARK SMILES IDX 88 44 82 45 81 46 37 48 69 49 49 50 68 51 50 52 53 53 67 54
REMARK SMILES IDX 86 55 51 56 52 57 66 59 87 60 54 61 38 62 39 63 47 64 40 65
REMARK SMILES IDX 42 66 48 67 41 68 43 69 44 70 45 71 46 72 70 73 71 74 79 75
REMARK SMILES IDX 72 76 74 77 80 78 73 79 75 80 76 81 77 82 78 83 55 84 56 85
REMARK SMILES IDX 64 86 57 87 59 88 65 89 58 90 60 91 61 92 62 93 63 94
REMARK H PARENT 85 47 53 58
REMARK Flexibility Score: inf
ROOT
ATOM      1  C   UNL A   1      33.914  35.053  28.823  1.00  0.00     0.202 C 
ENDROOT
BRANCH   1   2
ATOM      2  O   UNL A   1      32.709  35.644  29.310  1.00  0.00    -0.374 OA
BRANCH   2   3
ATOM      3  C   UNL A   1      32.597  35.878  30.713  1.00  0.00     0.202 C 
BRANCH   3   4
ATOM      4  C   UNL A   1      33.880  35.795  31.547  1.00  0.00     0.261 C 
BRANCH   4   5
ATOM      5  O   UNL A   1      33.865  34.675  32.444  1.00  0.00    -0.460 OA
BRANCH   5   6
ATOM      6  C   UNL A   1      34.714  33.677  32.106  1.00  0.00     0.338 C 
ATOM      7  O   UNL A   1      34.428  32.626  31.550  1.00  0.00    -0.246 OA
BRANCH   6   8
ATOM      8  C   UNL A   1      36.105  34.092  32.365  1.00  0.00     0.087 C 
ATOM      9  C   UNL A   1      42.591  34.220  32.554  1.00  0.00     0.047 C 
ATOM     10  C   UNL A   1      41.137  34.270  32.148  1.00  0.00    -0.019 A 
ATOM     11  C   UNL A   1      40.697  33.962  30.837  1.00  0.00     0.025 A 
ATOM     12  C   UNL A   1      40.166  34.631  33.109  1.00  0.00     0.064 A 
ATOM     13  Br  UNL A   1      41.992  33.567  29.476  1.00  0.00    -0.050 Br
ATOM     14  C   UNL A   1      39.318  33.931  30.514  1.00  0.00    -0.026 A 
ATOM     15  C   UNL A   1      38.794  34.579  32.813  1.00  0.00     0.142 A 
ATOM     16  Br  UNL A   1      40.694  35.168  34.873  1.00  0.00    -0.046 Br
ATOM     17  C   UNL A   1      38.812  33.623  29.119  1.00  0.00     0.046 C 
ATOM     18  C   UNL A   1      38.371  34.182  31.539  1.00  0.00     0.022 A 
ATOM     19  O   UNL A   1      37.920  34.959  33.798  1.00  0.00    -0.474 OA
ATOM     20  C   UNL A   1      36.942  33.967  31.330  1.00  0.00     0.027 C 
ATOM     21  C   UNL A   1      36.523  34.574  33.720  1.00  0.00     0.316 C 
BRANCH  21  22
ATOM     22  C   UNL A   1      36.220  33.559  34.831  1.00  0.00     0.430 C 
ATOM     23  F   UNL A   1      36.451  32.294  34.415  1.00  0.00    -0.167 F 
ATOM     24  F   UNL A   1      36.995  33.772  35.920  1.00  0.00    -0.167 F 
ATOM     25  F   UNL A   1      34.929  33.633  35.230  1.00  0.00    -0.167 F 
ENDBRANCH  21  22
ENDBRANCH   6   8
ENDBRANCH   5   6
ENDBRANCH   4   5
ENDBRANCH   3   4
ENDBRANCH   2   3
ENDBRANCH   1   2
BRANCH   1  26
ATOM     26  C   UNL A   1      33.815  33.717  28.075  1.00  0.00     0.261 C 
BRANCH  26  27
ATOM     27  O   UNL A   1      34.936  32.853  28.325  1.00  0.00    -0.460 OA
BRANCH  27  28
ATOM     28  C   UNL A   1      34.699  31.536  28.111  1.00  0.00     0.338 C 
ATOM     29  O   UNL A   1      33.712  31.040  27.581  1.00  0.00    -0.246 OA
BRANCH  28  30
ATOM     30  C   UNL A   1      35.903  30.755  28.437  1.00  0.00     0.060 A 
ATOM     31  C   UNL A   1      35.902  30.012  29.625  1.00  0.00     0.016 A 
ATOM     32  C   UNL A   1      37.037  30.797  27.625  1.00  0.00     0.016 A 
ATOM     33  C   UNL A   1      37.049  29.328  30.018  1.00  0.00     0.010 A 
ATOM     34  C   UNL A   1      38.191  30.116  28.026  1.00  0.00     0.010 A 
ATOM     35  C   UNL A   1      38.211  29.400  29.236  1.00  0.00    -0.014 A 
BRANCH  35  36
ATOM     36  C   UNL A   1      39.468  28.797  29.739  1.00  0.00     0.031 A 
ATOM     37  C   UNL A   1      40.096  29.335  30.996  1.00  0.00     0.074 A 
ATOM     38  C   UNL A   1      40.028  27.761  29.091  1.00  0.00     0.049 A 
ATOM     39  N   UNL A   1      41.171  28.930  31.617  1.00  0.00    -0.248 NA
ATOM     40  C   UNL A   1      39.425  30.478  31.638  1.00  0.00     0.031 C 
ATOM     41  C   UNL A   1      39.505  27.154  27.866  1.00  0.00     0.029 A 
ATOM     42  N   UNL A   1      41.161  27.037  29.365  1.00  0.00    -0.354 N 
ATOM     43  C   UNL A   1      41.314  29.769  32.715  1.00  0.00     0.074 A 
ATOM     44  C   UNL A   1      40.231  30.726  32.662  1.00  0.00     0.031 C 
ATOM     45  C   UNL A   1      40.318  26.152  27.494  1.00  0.00     0.029 A 
ATOM     46  C   UNL A   1      41.430  26.059  28.438  1.00  0.00     0.049 A 
ATOM     47  H   UNL A   1      41.728  27.204  30.153  1.00  0.00     0.167 HD
ATOM     48  C   UNL A   1      42.248  29.727  33.695  1.00  0.00     0.034 A 
ATOM     49  C   UNL A   1      42.457  25.189  28.358  1.00  0.00     0.034 A 
ATOM     50  C   UNL A   1      43.311  28.762  33.752  1.00  0.00     0.049 A 
ATOM     51  C   UNL A   1      43.504  25.189  29.442  1.00  0.00     0.074 A 
ATOM     52  C   UNL A   1      44.289  28.622  34.720  1.00  0.00     0.029 A 
ATOM     53  N   UNL A   1      43.542  27.778  32.802  1.00  0.00    -0.354 N 
ATOM     54  N   UNL A   1      43.564  25.919  30.529  1.00  0.00    -0.248 NA
ATOM     55  C   UNL A   1      44.609  24.227  29.307  1.00  0.00     0.031 C 
ATOM     56  C   UNL A   1      45.128  27.571  34.343  1.00  0.00     0.029 A 
ATOM     57  C   UNL A   1      44.653  27.032  33.157  1.00  0.00     0.049 A 
ATOM     58  H   UNL A   1      42.997  27.633  31.996  1.00  0.00     0.167 HD
ATOM     59  C   UNL A   1      44.684  25.478  31.227  1.00  0.00     0.074 A 
ATOM     60  C   UNL A   1      45.269  24.409  30.445  1.00  0.00     0.031 C 
ATOM     61  C   UNL A   1      45.188  25.928  32.403  1.00  0.00     0.034 A 
BRANCH  48  62
ATOM     62  C   UNL A   1      42.138  30.719  34.824  1.00  0.00     0.023 A 
ATOM     63  C   UNL A   1      41.110  30.570  35.777  1.00  0.00     0.012 A 
ATOM     64  C   UNL A   1      43.106  31.727  35.004  1.00  0.00     0.148 A 
ATOM     65  C   UNL A   1      41.035  31.418  36.881  1.00  0.00     0.002 A 
ATOM     66  C   UNL A   1      43.051  32.539  36.131  1.00  0.00     0.091 A 
ATOM     67  F   UNL A   1      44.065  31.865  34.078  1.00  0.00    -0.205 F 
ATOM     68  C   UNL A   1      42.013  32.391  37.065  1.00  0.00     0.022 A 
BRANCH  66  69
ATOM     69  S   UNL A   1      44.308  33.766  36.509  1.00  0.00     0.127 S 
ATOM     70  O   UNL A   1      45.143  33.046  37.471  1.00  0.00    -0.237 OA
ATOM     71  O   UNL A   1      44.931  33.981  35.204  1.00  0.00    -0.237 OA
ATOM     72  O   UNL A   1      43.599  34.919  37.046  1.00  0.00    -0.744 OA
ENDBRANCH  66  69
ENDBRANCH  48  62
BRANCH  49  73
ATOM     73  C   UNL A   1      42.503  24.196  27.246  1.00  0.00     0.023 A 
ATOM     74  C   UNL A   1      43.197  24.517  26.063  1.00  0.00     0.012 A 
ATOM     75  C   UNL A   1      41.908  22.925  27.368  1.00  0.00     0.148 A 
ATOM     76  C   UNL A   1      43.279  23.600  25.014  1.00  0.00     0.002 A 
ATOM     77  C   UNL A   1      42.043  21.995  26.343  1.00  0.00     0.091 A 
ATOM     78  F   UNL A   1      41.239  22.644  28.495  1.00  0.00    -0.205 F 
ATOM     79  C   UNL A   1      42.713  22.337  25.158  1.00  0.00     0.022 A 
BRANCH  77  80
ATOM     80  S   UNL A   1      41.466  20.300  26.493  1.00  0.00     0.127 S 
ATOM     81  O   UNL A   1      40.024  20.459  26.326  1.00  0.00    -0.237 OA
ATOM     82  O   UNL A   1      42.151  19.652  25.374  1.00  0.00    -0.237 OA
ATOM     83  O   UNL A   1      41.903  19.852  27.808  1.00  0.00    -0.744 OA
ENDBRANCH  77  80
ENDBRANCH  49  73
BRANCH  61  84
ATOM     84  C   UNL A   1      46.419  25.259  32.959  1.00  0.00     0.023 A 
ATOM     85  C   UNL A   1      47.689  25.809  32.706  1.00  0.00     0.012 A 
ATOM     86  C   UNL A   1      46.299  24.176  33.855  1.00  0.00     0.148 A 
ATOM     87  C   UNL A   1      48.824  25.285  33.324  1.00  0.00     0.002 A 
ATOM     88  C   UNL A   1      47.427  23.693  34.508  1.00  0.00     0.091 A 
ATOM     89  F   UNL A   1      45.081  23.659  34.073  1.00  0.00    -0.205 F 
ATOM     90  C   UNL A   1      48.691  24.240  34.235  1.00  0.00     0.022 A 
BRANCH  88  91
ATOM     91  S   UNL A   1      47.343  22.428  35.782  1.00  0.00     0.127 S 
ATOM     92  O   UNL A   1      46.824  21.286  35.032  1.00  0.00    -0.237 OA
ATOM     93  O   UNL A   1      48.744  22.307  36.187  1.00  0.00    -0.237 OA
ATOM     94  O   UNL A   1      46.454  22.949  36.811  1.00  0.00    -0.744 OA
ENDBRANCH  88  91
ENDBRANCH  61  84
ENDBRANCH  35  36
ENDBRANCH  28  30
ENDBRANCH  27  28
ENDBRANCH  26  27
ENDBRANCH   1  26
TORSDOF 18
ENDMDL
