MODEL 1
REMARK VINA RESULT:     -11.2      0.000      0.000
REMARK SMILES O=C(Cc1ccn(-c2ccccc2F)c1)OCCOCCOC(=O)c1ccc(-c2c3nc(c(-c4cccc(S(=O)(=O)[O-])c4F)c4ccc([nH]4)c(-c4cccc(S(=O)(=O)[O-])c4F)c4nc(c(-c5cccc(S(=O)(=O)[O-])c5F)c5ccc2[nH]5)C=C4)C=C3)cc1
REMARK SMILES IDX 20 1 19 2 18 3 17 4 16 5 2 6 1 7 3 8 4 9 5 10 15 11 6 12
REMARK SMILES IDX 7 13 8 14 9 15 13 16 10 17 12 18 14 19 11 20 21 21 22 22
REMARK SMILES IDX 23 23 24 24 25 25 26 26 87 27 27 28 86 29 28 30 29 31 30 32
REMARK SMILES IDX 80 33 31 34 85 35 79 36 81 37 32 38 84 39 78 40 77 41 33 43
REMARK SMILES IDX 65 44 45 45 64 46 46 47 49 48 63 49 82 50 47 51 48 52 62 54
REMARK SMILES IDX 83 55 50 56 34 57 35 58 43 59 36 60 38 61 44 62 37 63 39 64
REMARK SMILES IDX 40 65 41 66 42 67 66 68 67 69 75 70 68 71 70 72 76 73 69 74
REMARK SMILES IDX 71 75 72 76 73 77 74 78 51 79 52 80 60 81 53 82 55 83 61 84
REMARK SMILES IDX 54 85 56 86 57 87 58 88 59 89
REMARK H PARENT 81 42 49 53
REMARK Flexibility Score: inf
ROOT
ATOM      1  C   UNL A   1      38.961  22.117  26.203  1.00  0.00     0.202 C 
ENDROOT
BRANCH   1   2
ATOM      2  O   UNL A   1      37.921  22.779  25.473  1.00  0.00    -0.374 OA
BRANCH   2   3
ATOM      3  C   UNL A   1      37.240  22.047  24.454  1.00  0.00     0.202 C 
BRANCH   3   4
ATOM      4  C   UNL A   1      35.835  22.488  24.081  1.00  0.00     0.261 C 
BRANCH   4   5
ATOM      5  O   UNL A   1      34.973  22.752  25.200  1.00  0.00    -0.463 OA
BRANCH   5   6
ATOM      6  C   UNL A   1      33.839  23.489  25.185  1.00  0.00     0.310 C 
ATOM      7  O   UNL A   1      33.921  24.717  25.239  1.00  0.00    -0.252 OA
BRANCH   6   8
ATOM      8  C   UNL A   1      32.476  22.824  25.204  1.00  0.00     0.159 C 
BRANCH   8   9
ATOM      9  C   UNL A   1      32.446  21.444  24.656  1.00  0.00    -0.019 A 
ATOM     10  C   UNL A   1      32.188  21.076  23.313  1.00  0.00     0.024 A 
ATOM     11  C   UNL A   1      32.757  20.280  25.338  1.00  0.00     0.095 A 
ATOM     12  C   UNL A   1      32.480  19.738  23.198  1.00  0.00     0.091 A 
ATOM     13  N   UNL A   1      32.811  19.235  24.441  1.00  0.00    -0.321 N 
BRANCH  13  14
ATOM     14  C   UNL A   1      33.164  17.895  24.718  1.00  0.00     0.081 A 
ATOM     15  C   UNL A   1      32.183  16.998  25.163  1.00  0.00     0.030 A 
ATOM     16  C   UNL A   1      34.485  17.463  24.590  1.00  0.00     0.147 A 
ATOM     17  C   UNL A   1      32.535  15.688  25.498  1.00  0.00     0.002 A 
ATOM     18  C   UNL A   1      34.839  16.166  24.956  1.00  0.00     0.041 A 
ATOM     19  F   UNL A   1      35.464  18.293  24.204  1.00  0.00    -0.205 F 
ATOM     20  C   UNL A   1      33.865  15.279  25.413  1.00  0.00     0.003 A 
ENDBRANCH  13  14
ENDBRANCH   8   9
ENDBRANCH   6   8
ENDBRANCH   5   6
ENDBRANCH   4   5
ENDBRANCH   3   4
ENDBRANCH   2   3
ENDBRANCH   1   2
BRANCH   1  21
ATOM     21  C   UNL A   1      39.329  20.710  25.786  1.00  0.00     0.261 C 
BRANCH  21  22
ATOM     22  O   UNL A   1      40.158  20.145  26.780  1.00  0.00    -0.460 OA
BRANCH  22  23
ATOM     23  C   UNL A   1      41.268  19.555  26.295  1.00  0.00     0.338 C 
ATOM     24  O   UNL A   1      41.377  18.454  25.792  1.00  0.00    -0.246 OA
BRANCH  23  25
ATOM     25  C   UNL A   1      42.387  20.449  26.578  1.00  0.00     0.060 A 
ATOM     26  C   UNL A   1      42.396  20.964  27.879  1.00  0.00     0.016 A 
ATOM     27  C   UNL A   1      42.853  21.155  25.465  1.00  0.00     0.016 A 
ATOM     28  C   UNL A   1      42.590  22.313  28.017  1.00  0.00     0.010 A 
ATOM     29  C   UNL A   1      42.890  22.509  25.582  1.00  0.00     0.010 A 
ATOM     30  C   UNL A   1      42.759  23.070  26.853  1.00  0.00    -0.014 A 
BRANCH  30  31
ATOM     31  C   UNL A   1      43.085  24.479  26.971  1.00  0.00     0.031 A 
ATOM     32  C   UNL A   1      41.787  25.254  27.283  1.00  0.00     0.074 A 
ATOM     33  C   UNL A   1      44.410  24.772  26.802  1.00  0.00     0.049 A 
ATOM     34  N   UNL A   1      41.482  26.488  27.043  1.00  0.00    -0.248 NA
ATOM     35  C   UNL A   1      40.595  24.524  27.832  1.00  0.00     0.031 C 
ATOM     36  C   UNL A   1      45.492  23.793  26.514  1.00  0.00     0.029 A 
ATOM     37  N   UNL A   1      45.124  25.943  26.844  1.00  0.00    -0.354 N 
ATOM     38  C   UNL A   1      40.227  26.724  27.650  1.00  0.00     0.074 A 
ATOM     39  C   UNL A   1      39.658  25.460  27.963  1.00  0.00     0.031 C 
ATOM     40  C   UNL A   1      46.675  24.420  26.316  1.00  0.00     0.029 A 
ATOM     41  C   UNL A   1      46.498  25.847  26.507  1.00  0.00     0.049 A 
ATOM     42  H   UNL A   1      44.707  26.800  27.093  1.00  0.00     0.167 HD
ATOM     43  C   UNL A   1      39.809  27.963  28.026  1.00  0.00     0.034 A 
ATOM     44  C   UNL A   1      47.400  26.868  26.362  1.00  0.00     0.034 A 
ATOM     45  C   UNL A   1      40.820  28.914  27.707  1.00  0.00     0.049 A 
ATOM     46  C   UNL A   1      46.705  28.057  26.877  1.00  0.00     0.074 A 
ATOM     47  C   UNL A   1      41.257  29.403  26.504  1.00  0.00     0.029 A 
ATOM     48  N   UNL A   1      41.796  29.077  28.665  1.00  0.00    -0.354 N 
ATOM     49  N   UNL A   1      46.412  28.254  28.130  1.00  0.00    -0.248 NA
ATOM     50  C   UNL A   1      46.161  29.025  25.917  1.00  0.00     0.031 C 
ATOM     51  C   UNL A   1      42.656  29.417  26.663  1.00  0.00     0.029 A 
ATOM     52  C   UNL A   1      42.992  29.192  28.005  1.00  0.00     0.049 A 
ATOM     53  H   UNL A   1      41.660  29.105  29.640  1.00  0.00     0.167 HD
ATOM     54  C   UNL A   1      45.362  29.134  28.041  1.00  0.00     0.074 A 
ATOM     55  C   UNL A   1      45.491  29.800  26.763  1.00  0.00     0.031 C 
ATOM     56  C   UNL A   1      44.208  28.884  28.717  1.00  0.00     0.034 A 
BRANCH  43  57
ATOM     57  C   UNL A   1      38.673  28.441  28.880  1.00  0.00     0.023 A 
ATOM     58  C   UNL A   1      37.629  29.091  28.169  1.00  0.00     0.012 A 
ATOM     59  C   UNL A   1      38.700  28.575  30.279  1.00  0.00     0.148 A 
ATOM     60  C   UNL A   1      36.721  29.936  28.798  1.00  0.00     0.002 A 
ATOM     61  C   UNL A   1      37.753  29.386  30.910  1.00  0.00     0.091 A 
ATOM     62  F   UNL A   1      39.683  28.001  30.979  1.00  0.00    -0.205 F 
ATOM     63  C   UNL A   1      36.793  30.094  30.169  1.00  0.00     0.022 A 
BRANCH  61  64
ATOM     64  S   UNL A   1      37.688  29.613  32.691  1.00  0.00     0.127 S 
ATOM     65  O   UNL A   1      39.006  30.176  32.973  1.00  0.00    -0.237 OA
ATOM     66  O   UNL A   1      36.582  30.564  32.829  1.00  0.00    -0.237 OA
ATOM     67  O   UNL A   1      37.408  28.297  33.248  1.00  0.00    -0.744 OA
ENDBRANCH  61  64
ENDBRANCH  43  57
BRANCH  44  68
ATOM     68  C   UNL A   1      48.754  27.081  25.724  1.00  0.00     0.023 A 
ATOM     69  C   UNL A   1      49.983  26.822  26.348  1.00  0.00     0.012 A 
ATOM     70  C   UNL A   1      48.824  27.419  24.338  1.00  0.00     0.148 A 
ATOM     71  C   UNL A   1      51.183  26.787  25.605  1.00  0.00     0.002 A 
ATOM     72  C   UNL A   1      49.973  27.228  23.583  1.00  0.00     0.091 A 
ATOM     73  F   UNL A   1      47.761  27.962  23.734  1.00  0.00    -0.205 F 
ATOM     74  C   UNL A   1      51.172  26.929  24.217  1.00  0.00     0.022 A 
BRANCH  72  75
ATOM     75  S   UNL A   1      49.914  27.157  21.779  1.00  0.00     0.127 S 
ATOM     76  O   UNL A   1      49.665  28.551  21.419  1.00  0.00    -0.237 OA
ATOM     77  O   UNL A   1      51.257  26.670  21.465  1.00  0.00    -0.237 OA
ATOM     78  O   UNL A   1      48.843  26.228  21.440  1.00  0.00    -0.744 OA
ENDBRANCH  72  75
ENDBRANCH  44  68
BRANCH  56  79
ATOM     79  C   UNL A   1      44.360  28.078  30.007  1.00  0.00     0.023 A 
ATOM     80  C   UNL A   1      44.007  26.714  29.931  1.00  0.00     0.012 A 
ATOM     81  C   UNL A   1      44.751  28.567  31.279  1.00  0.00     0.148 A 
ATOM     82  C   UNL A   1      44.026  25.876  31.050  1.00  0.00     0.002 A 
ATOM     83  C   UNL A   1      44.762  27.728  32.405  1.00  0.00     0.091 A 
ATOM     84  F   UNL A   1      45.103  29.846  31.395  1.00  0.00    -0.205 F 
ATOM     85  C   UNL A   1      44.403  26.380  32.284  1.00  0.00     0.022 A 
BRANCH  83  86
ATOM     86  S   UNL A   1      45.190  28.260  34.077  1.00  0.00     0.127 S 
ATOM     87  O   UNL A   1      44.141  29.238  34.374  1.00  0.00    -0.237 OA
ATOM     88  O   UNL A   1      45.079  27.018  34.838  1.00  0.00    -0.237 OA
ATOM     89  O   UNL A   1      46.530  28.821  33.997  1.00  0.00    -0.744 OA
ENDBRANCH  83  86
ENDBRANCH  56  79
ENDBRANCH  30  31
ENDBRANCH  23  25
ENDBRANCH  22  23
ENDBRANCH  21  22
ENDBRANCH   1  21
TORSDOF 19
ENDMDL
MODEL 2
REMARK VINA RESULT:     -11.2      1.864      3.424
REMARK SMILES O=C(Cc1ccn(-c2ccccc2F)c1)OCCOCCOC(=O)c1ccc(-c2c3nc(c(-c4cccc(S(=O)(=O)[O-])c4F)c4ccc([nH]4)c(-c4cccc(S(=O)(=O)[O-])c4F)c4nc(c(-c5cccc(S(=O)(=O)[O-])c5F)c5ccc2[nH]5)C=C4)C=C3)cc1
REMARK SMILES IDX 20 1 19 2 18 3 17 4 16 5 2 6 1 7 3 8 4 9 5 10 15 11 6 12
REMARK SMILES IDX 7 13 8 14 9 15 13 16 10 17 12 18 14 19 11 20 21 21 22 22
REMARK SMILES IDX 23 23 24 24 25 25 26 26 87 27 27 28 86 29 28 30 29 31 30 32
REMARK SMILES IDX 80 33 31 34 85 35 79 36 81 37 32 38 84 39 78 40 77 41 33 43
REMARK SMILES IDX 65 44 45 45 64 46 46 47 49 48 63 49 82 50 47 51 48 52 62 54
REMARK SMILES IDX 83 55 50 56 34 57 35 58 43 59 36 60 38 61 44 62 37 63 39 64
REMARK SMILES IDX 40 65 41 66 42 67 66 68 67 69 75 70 68 71 70 72 76 73 69 74
REMARK SMILES IDX 71 75 72 76 73 77 74 78 51 79 52 80 60 81 53 82 55 83 61 84
REMARK SMILES IDX 54 85 56 86 57 87 58 88 59 89
REMARK H PARENT 81 42 49 53
REMARK Flexibility Score: inf
ROOT
ATOM      1  C   UNL A   1      38.548  21.685  25.765  1.00  0.00     0.202 C 
ENDROOT
BRANCH   1   2
ATOM      2  O   UNL A   1      37.428  22.003  24.928  1.00  0.00    -0.374 OA
BRANCH   2   3
ATOM      3  C   UNL A   1      36.195  22.352  25.556  1.00  0.00     0.202 C 
BRANCH   3   4
ATOM      4  C   UNL A   1      35.197  21.240  25.829  1.00  0.00     0.261 C 
BRANCH   4   5
ATOM      5  O   UNL A   1      34.472  20.788  24.673  1.00  0.00    -0.463 OA
BRANCH   5   6
ATOM      6  C   UNL A   1      33.130  20.816  24.505  1.00  0.00     0.310 C 
ATOM      7  O   UNL A   1      32.418  20.143  25.252  1.00  0.00    -0.252 OA
BRANCH   6   8
ATOM      8  C   UNL A   1      32.504  21.579  23.354  1.00  0.00     0.159 C 
BRANCH   8   9
ATOM      9  C   UNL A   1      32.774  23.039  23.351  1.00  0.00    -0.019 A 
ATOM     10  C   UNL A   1      33.057  23.841  22.218  1.00  0.00     0.024 A 
ATOM     11  C   UNL A   1      32.704  23.893  24.439  1.00  0.00     0.095 A 
ATOM     12  C   UNL A   1      33.015  25.152  22.630  1.00  0.00     0.091 A 
ATOM     13  N   UNL A   1      32.818  25.193  23.997  1.00  0.00    -0.321 N 
BRANCH  13  14
ATOM     14  C   UNL A   1      32.728  26.367  24.779  1.00  0.00     0.081 A 
ATOM     15  C   UNL A   1      33.698  26.623  25.758  1.00  0.00     0.030 A 
ATOM     16  C   UNL A   1      31.665  27.255  24.614  1.00  0.00     0.147 A 
ATOM     17  C   UNL A   1      33.583  27.749  26.577  1.00  0.00     0.002 A 
ATOM     18  C   UNL A   1      31.535  28.360  25.453  1.00  0.00     0.041 A 
ATOM     19  F   UNL A   1      30.694  27.035  23.716  1.00  0.00    -0.205 F 
ATOM     20  C   UNL A   1      32.491  28.605  26.438  1.00  0.00     0.003 A 
ENDBRANCH  13  14
ENDBRANCH   8   9
ENDBRANCH   6   8
ENDBRANCH   5   6
ENDBRANCH   4   5
ENDBRANCH   3   4
ENDBRANCH   2   3
ENDBRANCH   1   2
BRANCH   1  21
ATOM     21  C   UNL A   1      39.133  20.294  25.661  1.00  0.00     0.261 C 
BRANCH  21  22
ATOM     22  O   UNL A   1      40.105  20.135  26.672  1.00  0.00    -0.460 OA
BRANCH  22  23
ATOM     23  C   UNL A   1      41.230  19.519  26.257  1.00  0.00     0.338 C 
ATOM     24  O   UNL A   1      41.350  18.398  25.802  1.00  0.00    -0.246 OA
BRANCH  23  25
ATOM     25  C   UNL A   1      42.343  20.416  26.553  1.00  0.00     0.060 A 
ATOM     26  C   UNL A   1      42.337  20.930  27.853  1.00  0.00     0.016 A 
ATOM     27  C   UNL A   1      42.819  21.123  25.445  1.00  0.00     0.016 A 
ATOM     28  C   UNL A   1      42.526  22.280  27.994  1.00  0.00     0.010 A 
ATOM     29  C   UNL A   1      42.851  22.478  25.562  1.00  0.00     0.010 A 
ATOM     30  C   UNL A   1      42.706  23.038  26.833  1.00  0.00    -0.014 A 
BRANCH  30  31
ATOM     31  C   UNL A   1      43.027  24.448  26.954  1.00  0.00     0.031 A 
ATOM     32  C   UNL A   1      41.722  25.220  27.244  1.00  0.00     0.074 A 
ATOM     33  C   UNL A   1      44.353  24.743  26.807  1.00  0.00     0.049 A 
ATOM     34  N   UNL A   1      41.419  26.453  26.997  1.00  0.00    -0.248 NA
ATOM     35  C   UNL A   1      40.523  24.488  27.773  1.00  0.00     0.031 C 
ATOM     36  C   UNL A   1      45.443  23.765  26.538  1.00  0.00     0.029 A 
ATOM     37  N   UNL A   1      45.065  25.915  26.859  1.00  0.00    -0.354 N 
ATOM     38  C   UNL A   1      40.153  26.687  27.583  1.00  0.00     0.074 A 
ATOM     39  C   UNL A   1      39.582  25.423  27.888  1.00  0.00     0.031 C 
ATOM     40  C   UNL A   1      46.627  24.394  26.359  1.00  0.00     0.029 A 
ATOM     41  C   UNL A   1      46.444  25.822  26.545  1.00  0.00     0.049 A 
ATOM     42  H   UNL A   1      44.642  26.771  27.100  1.00  0.00     0.167 HD
ATOM     43  C   UNL A   1      39.727  27.926  27.951  1.00  0.00     0.034 A 
ATOM     44  C   UNL A   1      47.346  26.844  26.414  1.00  0.00     0.034 A 
ATOM     45  C   UNL A   1      40.741  28.879  27.647  1.00  0.00     0.049 A 
ATOM     46  C   UNL A   1      46.640  28.032  26.916  1.00  0.00     0.074 A 
ATOM     47  C   UNL A   1      41.197  29.367  26.452  1.00  0.00     0.029 A 
ATOM     48  N   UNL A   1      41.700  29.044  28.622  1.00  0.00    -0.354 N 
ATOM     49  N   UNL A   1      46.326  28.230  28.164  1.00  0.00    -0.248 NA
ATOM     50  C   UNL A   1      46.111  28.998  25.946  1.00  0.00     0.031 C 
ATOM     51  C   UNL A   1      42.594  29.384  26.634  1.00  0.00     0.029 A 
ATOM     52  C   UNL A   1      42.907  29.161  27.981  1.00  0.00     0.049 A 
ATOM     53  H   UNL A   1      41.549  29.073  29.594  1.00  0.00     0.167 HD
ATOM     54  C   UNL A   1      45.277  29.108  28.057  1.00  0.00     0.074 A 
ATOM     55  C   UNL A   1      45.425  29.773  26.780  1.00  0.00     0.031 C 
ATOM     56  C   UNL A   1      44.112  28.856  28.714  1.00  0.00     0.034 A 
BRANCH  43  57
ATOM     57  C   UNL A   1      38.576  28.402  28.785  1.00  0.00     0.023 A 
ATOM     58  C   UNL A   1      37.536  29.036  28.055  1.00  0.00     0.012 A 
ATOM     59  C   UNL A   1      38.583  28.551  30.183  1.00  0.00     0.148 A 
ATOM     60  C   UNL A   1      36.612  29.879  28.663  1.00  0.00     0.002 A 
ATOM     61  C   UNL A   1      37.622  29.359  30.794  1.00  0.00     0.091 A 
ATOM     62  F   UNL A   1      39.562  27.991  30.901  1.00  0.00    -0.205 F 
ATOM     63  C   UNL A   1      36.666  30.052  30.034  1.00  0.00     0.022 A 
BRANCH  61  64
ATOM     64  S   UNL A   1      37.532  29.603  32.572  1.00  0.00     0.127 S 
ATOM     65  O   UNL A   1      38.775  30.319  32.843  1.00  0.00    -0.237 OA
ATOM     66  O   UNL A   1      36.322  30.420  32.699  1.00  0.00    -0.237 OA
ATOM     67  O   UNL A   1      37.408  28.271  33.148  1.00  0.00    -0.744 OA
ENDBRANCH  61  64
ENDBRANCH  43  57
BRANCH  44  68
ATOM     68  C   UNL A   1      48.711  27.059  25.799  1.00  0.00     0.023 A 
ATOM     69  C   UNL A   1      49.929  26.784  26.436  1.00  0.00     0.012 A 
ATOM     70  C   UNL A   1      48.802  27.417  24.419  1.00  0.00     0.148 A 
ATOM     71  C   UNL A   1      51.139  26.754  25.710  1.00  0.00     0.002 A 
ATOM     72  C   UNL A   1      49.960  27.231  23.677  1.00  0.00     0.091 A 
ATOM     73  F   UNL A   1      47.750  27.975  23.808  1.00  0.00    -0.205 F 
ATOM     74  C   UNL A   1      51.148  26.916  24.324  1.00  0.00     0.022 A 
BRANCH  72  75
ATOM     75  S   UNL A   1      49.926  27.187  21.872  1.00  0.00     0.127 S 
ATOM     76  O   UNL A   1      49.676  28.585  21.529  1.00  0.00    -0.237 OA
ATOM     77  O   UNL A   1      51.276  26.711  21.569  1.00  0.00    -0.237 OA
ATOM     78  O   UNL A   1      48.865  26.258  21.504  1.00  0.00    -0.744 OA
ENDBRANCH  72  75
ENDBRANCH  44  68
BRANCH  56  79
ATOM     79  C   UNL A   1      44.244  28.052  30.007  1.00  0.00     0.023 A 
ATOM     80  C   UNL A   1      43.916  26.682  29.921  1.00  0.00     0.012 A 
ATOM     81  C   UNL A   1      44.594  28.546  31.289  1.00  0.00     0.148 A 
ATOM     82  C   UNL A   1      43.921  25.844  31.040  1.00  0.00     0.002 A 
ATOM     83  C   UNL A   1      44.590  27.707  32.414  1.00  0.00     0.091 A 
ATOM     84  F   UNL A   1      44.920  29.831  31.415  1.00  0.00    -0.205 F 
ATOM     85  C   UNL A   1      44.257  26.353  32.284  1.00  0.00     0.022 A 
BRANCH  83  86
ATOM     86  S   UNL A   1      44.965  28.245  34.098  1.00  0.00     0.127 S 
ATOM     87  O   UNL A   1      44.750  27.021  34.873  1.00  0.00    -0.237 OA
ATOM     88  O   UNL A   1      46.365  28.647  33.993  1.00  0.00    -0.237 OA
ATOM     89  O   UNL A   1      44.031  29.320  34.399  1.00  0.00    -0.744 OA
ENDBRANCH  83  86
ENDBRANCH  56  79
ENDBRANCH  30  31
ENDBRANCH  23  25
ENDBRANCH  22  23
ENDBRANCH  21  22
ENDBRANCH   1  21
TORSDOF 19
ENDMDL
MODEL 3
REMARK VINA RESULT:     -10.6      6.124     11.741
REMARK SMILES O=C(Cc1ccn(-c2ccccc2F)c1)OCCOCCOC(=O)c1ccc(-c2c3nc(c(-c4cccc(S(=O)(=O)[O-])c4F)c4ccc([nH]4)c(-c4cccc(S(=O)(=O)[O-])c4F)c4nc(c(-c5cccc(S(=O)(=O)[O-])c5F)c5ccc2[nH]5)C=C4)C=C3)cc1
REMARK SMILES IDX 20 1 19 2 18 3 17 4 16 5 2 6 1 7 3 8 4 9 5 10 15 11 6 12
REMARK SMILES IDX 7 13 8 14 9 15 13 16 10 17 12 18 14 19 11 20 21 21 22 22
REMARK SMILES IDX 23 23 24 24 25 25 26 26 87 27 27 28 86 29 28 30 29 31 30 32
REMARK SMILES IDX 80 33 31 34 85 35 79 36 81 37 32 38 84 39 78 40 77 41 33 43
REMARK SMILES IDX 65 44 45 45 64 46 46 47 49 48 63 49 82 50 47 51 48 52 62 54
REMARK SMILES IDX 83 55 50 56 34 57 35 58 43 59 36 60 38 61 44 62 37 63 39 64
REMARK SMILES IDX 40 65 41 66 42 67 66 68 67 69 75 70 68 71 70 72 76 73 69 74
REMARK SMILES IDX 71 75 72 76 73 77 74 78 51 79 52 80 60 81 53 82 55 83 61 84
REMARK SMILES IDX 54 85 56 86 57 87 58 88 59 89
REMARK H PARENT 81 42 49 53
REMARK Flexibility Score: inf
ROOT
ATOM      1  C   UNL A   1      33.503  29.850  26.567  1.00  0.00     0.202 C 
ENDROOT
BRANCH   1   2
ATOM      2  O   UNL A   1      33.391  28.656  27.351  1.00  0.00    -0.374 OA
BRANCH   2   3
ATOM      3  C   UNL A   1      32.085  28.164  27.650  1.00  0.00     0.202 C 
BRANCH   3   4
ATOM      4  C   UNL A   1      31.352  27.393  26.565  1.00  0.00     0.261 C 
BRANCH   4   5
ATOM      5  O   UNL A   1      32.177  26.494  25.806  1.00  0.00    -0.463 OA
BRANCH   5   6
ATOM      6  C   UNL A   1      32.483  26.599  24.493  1.00  0.00     0.310 C 
ATOM      7  O   UNL A   1      33.529  27.161  24.163  1.00  0.00    -0.252 OA
BRANCH   6   8
ATOM      8  C   UNL A   1      31.514  26.128  23.427  1.00  0.00     0.159 C 
BRANCH   8   9
ATOM      9  C   UNL A   1      30.348  27.020  23.202  1.00  0.00    -0.019 A 
ATOM     10  C   UNL A   1      29.014  26.782  23.613  1.00  0.00     0.024 A 
ATOM     11  C   UNL A   1      30.374  28.284  22.636  1.00  0.00     0.095 A 
ATOM     12  C   UNL A   1      28.314  27.948  23.408  1.00  0.00     0.091 A 
ATOM     13  N   UNL A   1      29.137  28.870  22.790  1.00  0.00    -0.321 N 
BRANCH  13  14
ATOM     14  C   UNL A   1      28.765  30.180  22.414  1.00  0.00     0.081 A 
ATOM     15  C   UNL A   1      28.192  30.404  21.153  1.00  0.00     0.030 A 
ATOM     16  C   UNL A   1      28.996  31.261  23.266  1.00  0.00     0.147 A 
ATOM     17  C   UNL A   1      27.879  31.703  20.750  1.00  0.00     0.002 A 
ATOM     18  C   UNL A   1      28.712  32.559  22.848  1.00  0.00     0.041 A 
ATOM     19  F   UNL A   1      29.574  31.102  24.466  1.00  0.00    -0.205 F 
ATOM     20  C   UNL A   1      28.157  32.782  21.589  1.00  0.00     0.003 A 
ENDBRANCH  13  14
ENDBRANCH   8   9
ENDBRANCH   6   8
ENDBRANCH   5   6
ENDBRANCH   4   5
ENDBRANCH   3   4
ENDBRANCH   2   3
ENDBRANCH   1   2
BRANCH   1  21
ATOM     21  C   UNL A   1      32.900  31.119  27.126  1.00  0.00     0.261 C 
BRANCH  21  22
ATOM     22  O   UNL A   1      33.872  31.776  27.912  1.00  0.00    -0.460 OA
BRANCH  22  23
ATOM     23  C   UNL A   1      33.534  33.032  28.264  1.00  0.00     0.338 C 
ATOM     24  O   UNL A   1      32.691  33.752  27.766  1.00  0.00    -0.246 OA
BRANCH  23  25
ATOM     25  C   UNL A   1      34.455  33.443  29.320  1.00  0.00     0.060 A 
ATOM     26  C   UNL A   1      35.595  34.109  28.860  1.00  0.00     0.016 A 
ATOM     27  C   UNL A   1      34.446  32.611  30.444  1.00  0.00     0.016 A 
ATOM     28  C   UNL A   1      36.804  33.694  29.353  1.00  0.00     0.010 A 
ATOM     29  C   UNL A   1      35.645  32.091  30.818  1.00  0.00     0.010 A 
ATOM     30  C   UNL A   1      36.807  32.638  30.270  1.00  0.00    -0.014 A 
BRANCH  30  31
ATOM     31  C   UNL A   1      38.057  32.255  30.900  1.00  0.00     0.031 A 
ATOM     32  C   UNL A   1      38.678  31.102  30.084  1.00  0.00     0.074 A 
ATOM     33  C   UNL A   1      38.382  32.987  32.008  1.00  0.00     0.049 A 
ATOM     34  N   UNL A   1      39.493  30.170  30.458  1.00  0.00    -0.248 NA
ATOM     35  C   UNL A   1      38.238  30.866  28.668  1.00  0.00     0.031 C 
ATOM     36  C   UNL A   1      37.579  34.095  32.592  1.00  0.00     0.029 A 
ATOM     37  N   UNL A   1      39.451  32.961  32.869  1.00  0.00    -0.354 N 
ATOM     38  C   UNL A   1      39.856  29.453  29.294  1.00  0.00     0.074 A 
ATOM     39  C   UNL A   1      38.936  29.806  28.270  1.00  0.00     0.031 C 
ATOM     40  C   UNL A   1      38.137  34.548  33.738  1.00  0.00     0.029 A 
ATOM     41  C   UNL A   1      39.373  33.830  33.985  1.00  0.00     0.049 A 
ATOM     42  H   UNL A   1      40.226  32.372  32.719  1.00  0.00     0.167 HD
ATOM     43  C   UNL A   1      41.013  28.744  29.193  1.00  0.00     0.034 A 
ATOM     44  C   UNL A   1      40.240  33.918  35.043  1.00  0.00     0.034 A 
ATOM     45  C   UNL A   1      41.739  28.857  30.413  1.00  0.00     0.049 A 
ATOM     46  C   UNL A   1      41.397  33.102  34.646  1.00  0.00     0.074 A 
ATOM     47  C   UNL A   1      41.504  28.338  31.659  1.00  0.00     0.029 A 
ATOM     48  N   UNL A   1      42.557  29.961  30.508  1.00  0.00    -0.354 N 
ATOM     49  N   UNL A   1      42.234  33.421  33.702  1.00  0.00    -0.248 NA
ATOM     50  C   UNL A   1      41.550  31.766  35.235  1.00  0.00     0.031 C 
ATOM     51  C   UNL A   1      41.803  29.421  32.509  1.00  0.00     0.029 A 
ATOM     52  C   UNL A   1      42.439  30.440  31.787  1.00  0.00     0.049 A 
ATOM     53  H   UNL A   1      43.120  30.336  29.792  1.00  0.00     0.167 HD
ATOM     54  C   UNL A   1      42.745  32.197  33.351  1.00  0.00     0.074 A 
ATOM     55  C   UNL A   1      42.567  31.332  34.498  1.00  0.00     0.031 C 
ATOM     56  C   UNL A   1      42.770  31.820  32.043  1.00  0.00     0.034 A 
BRANCH  43  57
ATOM     57  C   UNL A   1      41.729  28.120  28.033  1.00  0.00     0.023 A 
ATOM     58  C   UNL A   1      41.790  28.931  26.868  1.00  0.00     0.012 A 
ATOM     59  C   UNL A   1      42.047  26.757  27.904  1.00  0.00     0.148 A 
ATOM     60  C   UNL A   1      42.038  28.397  25.608  1.00  0.00     0.002 A 
ATOM     61  C   UNL A   1      42.345  26.237  26.642  1.00  0.00     0.091 A 
ATOM     62  F   UNL A   1      41.974  25.957  28.973  1.00  0.00    -0.205 F 
ATOM     63  C   UNL A   1      42.301  27.044  25.494  1.00  0.00     0.022 A 
BRANCH  61  64
ATOM     64  S   UNL A   1      42.781  24.515  26.369  1.00  0.00     0.127 S 
ATOM     65  O   UNL A   1      43.976  24.370  27.194  1.00  0.00    -0.237 OA
ATOM     66  O   UNL A   1      41.598  23.823  26.888  1.00  0.00    -0.237 OA
ATOM     67  O   UNL A   1      42.961  24.377  24.930  1.00  0.00    -0.744 OA
ENDBRANCH  61  64
ENDBRANCH  43  57
BRANCH  44  68
ATOM     68  C   UNL A   1      40.236  34.476  36.448  1.00  0.00     0.023 A 
ATOM     69  C   UNL A   1      40.586  35.789  36.790  1.00  0.00     0.012 A 
ATOM     70  C   UNL A   1      39.692  33.685  37.507  1.00  0.00     0.148 A 
ATOM     71  C   UNL A   1      40.301  36.308  38.071  1.00  0.00     0.002 A 
ATOM     72  C   UNL A   1      39.268  34.240  38.707  1.00  0.00     0.091 A 
ATOM     73  F   UNL A   1      39.603  32.358  37.365  1.00  0.00    -0.205 F 
ATOM     74  C   UNL A   1      39.589  35.558  39.007  1.00  0.00     0.022 A 
BRANCH  72  75
ATOM     75  S   UNL A   1      38.134  33.360  39.803  1.00  0.00     0.127 S 
ATOM     76  O   UNL A   1      37.873  34.351  40.844  1.00  0.00    -0.237 OA
ATOM     77  O   UNL A   1      37.009  33.098  38.905  1.00  0.00    -0.237 OA
ATOM     78  O   UNL A   1      38.838  32.164  40.248  1.00  0.00    -0.744 OA
ENDBRANCH  72  75
ENDBRANCH  44  68
BRANCH  56  79
ATOM     79  C   UNL A   1      42.881  32.960  31.031  1.00  0.00     0.023 A 
ATOM     80  C   UNL A   1      41.670  33.404  30.461  1.00  0.00     0.012 A 
ATOM     81  C   UNL A   1      44.071  33.569  30.557  1.00  0.00     0.148 A 
ATOM     82  C   UNL A   1      41.629  34.388  29.468  1.00  0.00     0.002 A 
ATOM     83  C   UNL A   1      44.032  34.550  29.554  1.00  0.00     0.091 A 
ATOM     84  F   UNL A   1      45.238  33.188  31.074  1.00  0.00    -0.205 F 
ATOM     85  C   UNL A   1      42.806  34.961  29.015  1.00  0.00     0.022 A 
BRANCH  83  86
ATOM     86  S   UNL A   1      45.488  35.349  28.841  1.00  0.00     0.127 S 
ATOM     87  O   UNL A   1      46.329  34.206  28.482  1.00  0.00    -0.237 OA
ATOM     88  O   UNL A   1      44.925  36.059  27.695  1.00  0.00    -0.237 OA
ATOM     89  O   UNL A   1      46.039  36.198  29.887  1.00  0.00    -0.744 OA
ENDBRANCH  83  86
ENDBRANCH  56  79
ENDBRANCH  30  31
ENDBRANCH  23  25
ENDBRANCH  22  23
ENDBRANCH  21  22
ENDBRANCH   1  21
TORSDOF 19
ENDMDL
