MODEL 1
REMARK VINA RESULT:     -12.2      0.000      0.000
REMARK SMILES Cc1ccnc(C(=O)c2[nH]c3cc(Cl)c(F)cc3c2CC(=O)OCCOCCOC(=O)c2ccc(-c3c4nc(c(-c5cccc(S(=O)(=O)[O-])c5F)c5ccc([nH]5)c(-c5cccc(S(=O)(=O)[O-])c5F)c5nc(c(-c6cccc(S(=O)(=O)[O-])c6F)c6ccc3[nH]6)C=C5)C=C4)cc2)c1
REMARK SMILES IDX 26 1 25 2 24 3 23 4 21 5 22 6 20 7 19 8 9 9 10 10 11 11
REMARK SMILES IDX 18 13 12 14 17 15 13 16 15 17 14 18 16 19 7 20 8 21 6 22
REMARK SMILES IDX 1 23 2 24 3 25 95 26 4 27 5 28 27 29 28 30 29 31 30 32 31 33
REMARK SMILES IDX 32 34 33 35 94 36 34 37 93 38 35 39 36 40 37 41 87 42 38 43
REMARK SMILES IDX 92 44 86 45 88 46 39 47 91 48 85 49 84 50 40 52 72 53 52 54
REMARK SMILES IDX 71 55 53 56 56 57 70 58 89 59 54 60 55 61 69 63 90 64 57 65
REMARK SMILES IDX 41 66 42 67 50 68 43 69 45 70 51 71 44 72 46 73 47 74 48 75
REMARK SMILES IDX 49 76 73 77 74 78 82 79 75 80 77 81 83 82 76 83 78 84 79 85
REMARK SMILES IDX 80 86 81 87 58 88 59 89 67 90 60 91 62 92 68 93 61 94 63 95
REMARK SMILES IDX 64 96 65 97 66 98
REMARK H PARENT 10 12 88 51 56 62
REMARK Flexibility Score: inf
ROOT
ATOM      1  O   UNL A   1      37.269  23.837  25.278  1.00  0.00    -0.374 OA
ENDROOT
BRANCH   1   2
ATOM      2  C   UNL A   1      36.831  23.263  24.054  1.00  0.00     0.202 C 
BRANCH   2   3
ATOM      3  C   UNL A   1      35.301  23.173  24.079  1.00  0.00     0.261 C 
BRANCH   3   4
ATOM      4  O   UNL A   1      34.739  23.344  22.738  1.00  0.00    -0.463 OA
BRANCH   4   5
ATOM      5  C   UNL A   1      33.487  23.862  22.687  1.00  0.00     0.310 C 
ATOM      6  O   UNL A   1      33.273  25.049  22.449  1.00  0.00    -0.252 OA
BRANCH   5   7
ATOM      7  C   UNL A   1      32.331  22.870  22.861  1.00  0.00     0.161 C 
BRANCH   7   8
ATOM      8  C   UNL A   1      32.185  21.963  24.091  1.00  0.00     0.000 A 
ATOM      9  C   UNL A   1      32.128  22.253  25.489  1.00  0.00     0.093 A 
ATOM     10  N   UNL A   1      32.400  21.044  26.117  1.00  0.00    -0.351 N 
ATOM     11  C   UNL A   1      32.485  19.998  25.238  1.00  0.00     0.048 A 
ATOM     12  H   UNL A   1      32.519  20.951  27.089  1.00  0.00     0.167 HD
ATOM     13  C   UNL A   1      32.300  20.519  23.963  1.00  0.00     0.007 A 
ATOM     14  C   UNL A   1      32.745  18.639  25.484  1.00  0.00     0.050 A 
ATOM     15  C   UNL A   1      32.338  19.622  22.869  1.00  0.00     0.051 A 
ATOM     16  C   UNL A   1      32.783  17.776  24.385  1.00  0.00     0.078 A 
ATOM     17  C   UNL A   1      32.569  18.261  23.101  1.00  0.00     0.142 A 
ATOM     18  Cl  UNL A   1      33.117  16.105  24.648  1.00  0.00    -0.081 Cl
ATOM     19  F   UNL A   1      32.603  17.429  22.048  1.00  0.00    -0.205 F 
BRANCH   9  20
ATOM     20  C   UNL A   1      32.126  23.461  26.357  1.00  0.00     0.227 C 
ATOM     21  O   UNL A   1      31.884  23.306  27.556  1.00  0.00    -0.285 OA
BRANCH  20  22
ATOM     22  C   UNL A   1      32.251  24.927  25.886  1.00  0.00     0.113 A 
ATOM     23  C   UNL A   1      34.043  28.197  26.587  1.00  0.00     0.044 C 
ATOM     24  C   UNL A   1      33.166  27.176  25.897  1.00  0.00    -0.047 A 
ATOM     25  C   UNL A   1      31.979  27.647  25.353  1.00  0.00     0.023 A 
ATOM     26  C   UNL A   1      33.364  25.770  26.019  1.00  0.00     0.036 A 
ATOM     27  C   UNL A   1      31.009  26.720  25.045  1.00  0.00     0.112 A 
ATOM     28  N   UNL A   1      31.099  25.399  25.334  1.00  0.00    -0.253 NA
ENDBRANCH  20  22
ENDBRANCH   9  20
ENDBRANCH   7   8
ENDBRANCH   5   7
ENDBRANCH   4   5
ENDBRANCH   3   4
ENDBRANCH   2   3
ENDBRANCH   1   2
BRANCH   1  29
ATOM     29  C   UNL A   1      37.953  22.902  26.097  1.00  0.00     0.202 C 
BRANCH  29  30
ATOM     30  C   UNL A   1      38.234  21.570  25.400  1.00  0.00     0.261 C 
BRANCH  30  31
ATOM     31  O   UNL A   1      39.619  21.350  25.494  1.00  0.00    -0.460 OA
BRANCH  31  32
ATOM     32  C   UNL A   1      40.180  20.153  25.741  1.00  0.00     0.338 C 
ATOM     33  O   UNL A   1      39.760  19.032  25.534  1.00  0.00    -0.246 OA
BRANCH  32  34
ATOM     34  C   UNL A   1      41.422  20.644  26.370  1.00  0.00     0.060 A 
ATOM     35  C   UNL A   1      41.285  20.629  27.767  1.00  0.00     0.016 A 
ATOM     36  C   UNL A   1      41.966  21.758  25.700  1.00  0.00     0.016 A 
ATOM     37  C   UNL A   1      41.342  21.842  28.422  1.00  0.00     0.010 A 
ATOM     38  C   UNL A   1      42.073  22.966  26.379  1.00  0.00     0.010 A 
ATOM     39  C   UNL A   1      41.696  23.015  27.721  1.00  0.00    -0.014 A 
BRANCH  39  40
ATOM     40  C   UNL A   1      42.051  24.133  28.582  1.00  0.00     0.031 A 
ATOM     41  C   UNL A   1      41.042  25.204  28.403  1.00  0.00     0.074 A 
ATOM     42  C   UNL A   1      43.069  24.298  29.440  1.00  0.00     0.049 A 
ATOM     43  N   UNL A   1      41.185  26.286  27.713  1.00  0.00    -0.248 NA
ATOM     44  C   UNL A   1      39.662  24.893  28.800  1.00  0.00     0.031 C 
ATOM     45  C   UNL A   1      43.982  23.319  30.019  1.00  0.00     0.029 A 
ATOM     46  N   UNL A   1      43.421  25.463  30.059  1.00  0.00    -0.354 N 
ATOM     47  C   UNL A   1      39.934  26.883  27.732  1.00  0.00     0.074 A 
ATOM     48  C   UNL A   1      39.006  25.900  28.228  1.00  0.00     0.031 C 
ATOM     49  C   UNL A   1      44.614  23.889  31.077  1.00  0.00     0.029 A 
ATOM     50  C   UNL A   1      44.243  25.296  31.159  1.00  0.00     0.049 A 
ATOM     51  H   UNL A   1      43.115  26.347  29.748  1.00  0.00     0.167 HD
ATOM     52  C   UNL A   1      39.775  28.216  27.550  1.00  0.00     0.034 A 
ATOM     53  C   UNL A   1      44.486  26.238  32.105  1.00  0.00     0.034 A 
ATOM     54  C   UNL A   1      40.934  28.835  26.970  1.00  0.00     0.049 A 
ATOM     55  C   UNL A   1      44.156  27.565  31.526  1.00  0.00     0.074 A 
ATOM     56  C   UNL A   1      41.629  28.683  25.785  1.00  0.00     0.029 A 
ATOM     57  N   UNL A   1      41.775  29.514  27.817  1.00  0.00    -0.354 N 
ATOM     58  N   UNL A   1      44.852  28.147  30.592  1.00  0.00    -0.248 NA
ATOM     59  C   UNL A   1      42.815  28.094  31.726  1.00  0.00     0.031 C 
ATOM     60  C   UNL A   1      42.999  28.870  26.132  1.00  0.00     0.029 A 
ATOM     61  C   UNL A   1      43.056  29.145  27.498  1.00  0.00     0.049 A 
ATOM     62  H   UNL A   1      41.507  30.147  28.522  1.00  0.00     0.167 HD
ATOM     63  C   UNL A   1      43.908  28.794  29.804  1.00  0.00     0.074 A 
ATOM     64  C   UNL A   1      42.693  28.818  30.611  1.00  0.00     0.031 C 
ATOM     65  C   UNL A   1      44.119  28.995  28.470  1.00  0.00     0.034 A 
BRANCH  52  66
ATOM     66  C   UNL A   1      38.677  28.992  28.211  1.00  0.00     0.023 A 
ATOM     67  C   UNL A   1      37.812  29.744  27.396  1.00  0.00     0.012 A 
ATOM     68  C   UNL A   1      38.593  29.193  29.608  1.00  0.00     0.148 A 
ATOM     69  C   UNL A   1      36.907  30.654  27.952  1.00  0.00     0.002 A 
ATOM     70  C   UNL A   1      37.622  30.013  30.158  1.00  0.00     0.091 A 
ATOM     71  F   UNL A   1      39.543  28.706  30.416  1.00  0.00    -0.205 F 
ATOM     72  C   UNL A   1      36.794  30.771  29.333  1.00  0.00     0.022 A 
BRANCH  70  73
ATOM     73  S   UNL A   1      37.393  30.100  31.936  1.00  0.00     0.127 S 
ATOM     74  O   UNL A   1      38.597  30.806  32.356  1.00  0.00    -0.237 OA
ATOM     75  O   UNL A   1      36.151  30.866  32.045  1.00  0.00    -0.237 OA
ATOM     76  O   UNL A   1      37.268  28.711  32.369  1.00  0.00    -0.744 OA
ENDBRANCH  70  73
ENDBRANCH  52  66
BRANCH  53  77
ATOM     77  C   UNL A   1      44.688  26.083  33.565  1.00  0.00     0.023 A 
ATOM     78  C   UNL A   1      45.960  26.333  34.119  1.00  0.00     0.012 A 
ATOM     79  C   UNL A   1      43.583  26.009  34.440  1.00  0.00     0.148 A 
ATOM     80  C   UNL A   1      46.119  26.551  35.493  1.00  0.00     0.002 A 
ATOM     81  C   UNL A   1      43.745  26.223  35.804  1.00  0.00     0.091 A 
ATOM     82  F   UNL A   1      42.360  25.831  33.923  1.00  0.00    -0.205 F 
ATOM     83  C   UNL A   1      45.011  26.507  36.334  1.00  0.00     0.022 A 
BRANCH  81  84
ATOM     84  S   UNL A   1      42.351  26.228  36.939  1.00  0.00     0.127 S 
ATOM     85  O   UNL A   1      41.816  24.878  36.767  1.00  0.00    -0.237 OA
ATOM     86  O   UNL A   1      43.009  26.470  38.220  1.00  0.00    -0.237 OA
ATOM     87  O   UNL A   1      41.464  27.288  36.474  1.00  0.00    -0.744 OA
ENDBRANCH  81  84
ENDBRANCH  53  77
BRANCH  65  88
ATOM     88  C   UNL A   1      45.505  28.754  27.921  1.00  0.00     0.023 A 
ATOM     89  C   UNL A   1      46.498  29.757  27.922  1.00  0.00     0.012 A 
ATOM     90  C   UNL A   1      45.864  27.447  27.547  1.00  0.00     0.148 A 
ATOM     91  C   UNL A   1      47.808  29.471  27.526  1.00  0.00     0.002 A 
ATOM     92  C   UNL A   1      47.180  27.155  27.208  1.00  0.00     0.091 A 
ATOM     93  F   UNL A   1      44.913  26.499  27.548  1.00  0.00    -0.205 F 
ATOM     94  C   UNL A   1      48.152  28.166  27.183  1.00  0.00     0.022 A 
BRANCH  92  95
ATOM     95  S   UNL A   1      47.713  25.469  26.898  1.00  0.00     0.127 S 
ATOM     96  O   UNL A   1      47.165  24.757  28.051  1.00  0.00    -0.237 OA
ATOM     97  O   UNL A   1      47.064  25.161  25.623  1.00  0.00    -0.237 OA
ATOM     98  O   UNL A   1      49.169  25.523  26.822  1.00  0.00    -0.744 OA
ENDBRANCH  92  95
ENDBRANCH  65  88
ENDBRANCH  39  40
ENDBRANCH  32  34
ENDBRANCH  31  32
ENDBRANCH  30  31
ENDBRANCH  29  30
ENDBRANCH   1  29
TORSDOF 20
ENDMDL
MODEL 2
REMARK VINA RESULT:     -11.4      2.605      4.011
REMARK SMILES Cc1ccnc(C(=O)c2[nH]c3cc(Cl)c(F)cc3c2CC(=O)OCCOCCOC(=O)c2ccc(-c3c4nc(c(-c5cccc(S(=O)(=O)[O-])c5F)c5ccc([nH]5)c(-c5cccc(S(=O)(=O)[O-])c5F)c5nc(c(-c6cccc(S(=O)(=O)[O-])c6F)c6ccc3[nH]6)C=C5)C=C4)cc2)c1
REMARK SMILES IDX 26 1 25 2 24 3 23 4 21 5 22 6 20 7 19 8 9 9 10 10 11 11
REMARK SMILES IDX 18 13 12 14 17 15 13 16 15 17 14 18 16 19 7 20 8 21 6 22
REMARK SMILES IDX 1 23 2 24 3 25 95 26 4 27 5 28 27 29 28 30 29 31 30 32 31 33
REMARK SMILES IDX 32 34 33 35 94 36 34 37 93 38 35 39 36 40 37 41 87 42 38 43
REMARK SMILES IDX 92 44 86 45 88 46 39 47 91 48 85 49 84 50 40 52 72 53 52 54
REMARK SMILES IDX 71 55 53 56 56 57 70 58 89 59 54 60 55 61 69 63 90 64 57 65
REMARK SMILES IDX 41 66 42 67 50 68 43 69 45 70 51 71 44 72 46 73 47 74 48 75
REMARK SMILES IDX 49 76 73 77 74 78 82 79 75 80 77 81 83 82 76 83 78 84 79 85
REMARK SMILES IDX 80 86 81 87 58 88 59 89 67 90 60 91 62 92 68 93 61 94 63 95
REMARK SMILES IDX 64 96 65 97 66 98
REMARK H PARENT 10 12 88 51 56 62
REMARK Flexibility Score: inf
ROOT
ATOM      1  O   UNL A   1      36.572  23.114  25.806  1.00  0.00    -0.374 OA
ENDROOT
BRANCH   1   2
ATOM      2  C   UNL A   1      36.146  22.582  24.559  1.00  0.00     0.202 C 
BRANCH   2   3
ATOM      3  C   UNL A   1      35.220  23.603  23.887  1.00  0.00     0.261 C 
BRANCH   3   4
ATOM      4  O   UNL A   1      34.733  24.591  24.851  1.00  0.00    -0.463 OA
BRANCH   4   5
ATOM      5  C   UNL A   1      33.914  25.548  24.349  1.00  0.00     0.310 C 
ATOM      6  O   UNL A   1      33.836  25.786  23.146  1.00  0.00    -0.252 OA
BRANCH   5   7
ATOM      7  C   UNL A   1      33.018  26.276  25.359  1.00  0.00     0.161 C 
BRANCH   7   8
ATOM      8  C   UNL A   1      31.487  26.170  25.347  1.00  0.00     0.000 A 
ATOM      9  C   UNL A   1      30.598  25.139  25.783  1.00  0.00     0.093 A 
ATOM     10  N   UNL A   1      29.389  25.422  25.160  1.00  0.00    -0.351 N 
ATOM     11  C   UNL A   1      29.406  26.614  24.486  1.00  0.00     0.048 A 
ATOM     12  H   UNL A   1      28.604  24.829  25.200  1.00  0.00     0.167 HD
ATOM     13  C   UNL A   1      30.683  27.144  24.625  1.00  0.00     0.007 A 
ATOM     14  C   UNL A   1      28.391  27.237  23.741  1.00  0.00     0.050 A 
ATOM     15  C   UNL A   1      30.952  28.391  24.013  1.00  0.00     0.051 A 
ATOM     16  C   UNL A   1      28.686  28.466  23.142  1.00  0.00     0.078 A 
ATOM     17  C   UNL A   1      29.943  29.037  23.290  1.00  0.00     0.142 A 
ATOM     18  Cl  UNL A   1      27.469  29.250  22.205  1.00  0.00    -0.081 Cl
ATOM     19  F   UNL A   1      30.222  30.219  22.717  1.00  0.00    -0.205 F 
BRANCH   9  20
ATOM     20  C   UNL A   1      30.703  23.812  26.447  1.00  0.00     0.227 C 
ATOM     21  O   UNL A   1      29.879  23.542  27.324  1.00  0.00    -0.285 OA
BRANCH  20  22
ATOM     22  C   UNL A   1      31.838  22.781  26.257  1.00  0.00     0.113 A 
ATOM     23  C   UNL A   1      32.701  19.498  24.562  1.00  0.00     0.044 C 
ATOM     24  C   UNL A   1      32.870  20.782  25.344  1.00  0.00    -0.047 A 
ATOM     25  C   UNL A   1      33.709  20.728  26.449  1.00  0.00     0.023 A 
ATOM     26  C   UNL A   1      32.027  21.917  25.169  1.00  0.00     0.036 A 
ATOM     27  C   UNL A   1      33.610  21.743  27.373  1.00  0.00     0.112 A 
ATOM     28  N   UNL A   1      32.680  22.728  27.325  1.00  0.00    -0.253 NA
ENDBRANCH  20  22
ENDBRANCH   9  20
ENDBRANCH   7   8
ENDBRANCH   5   7
ENDBRANCH   4   5
ENDBRANCH   3   4
ENDBRANCH   2   3
ENDBRANCH   1   2
BRANCH   1  29
ATOM     29  C   UNL A   1      37.942  22.850  26.064  1.00  0.00     0.202 C 
BRANCH  29  30
ATOM     30  C   UNL A   1      38.379  21.440  25.662  1.00  0.00     0.261 C 
BRANCH  30  31
ATOM     31  O   UNL A   1      39.782  21.417  25.737  1.00  0.00    -0.460 OA
BRANCH  31  32
ATOM     32  C   UNL A   1      40.519  20.292  25.774  1.00  0.00     0.338 C 
ATOM     33  O   UNL A   1      40.236  19.157  25.445  1.00  0.00    -0.246 OA
BRANCH  32  34
ATOM     34  C   UNL A   1      41.737  20.874  26.371  1.00  0.00     0.060 A 
ATOM     35  C   UNL A   1      41.647  20.827  27.771  1.00  0.00     0.016 A 
ATOM     36  C   UNL A   1      42.166  22.038  25.704  1.00  0.00     0.016 A 
ATOM     37  C   UNL A   1      41.626  22.032  28.445  1.00  0.00     0.010 A 
ATOM     38  C   UNL A   1      42.195  23.242  26.400  1.00  0.00     0.010 A 
ATOM     39  C   UNL A   1      41.860  23.240  27.754  1.00  0.00    -0.014 A 
BRANCH  39  40
ATOM     40  C   UNL A   1      42.150  24.370  28.623  1.00  0.00     0.031 A 
ATOM     41  C   UNL A   1      41.085  25.386  28.445  1.00  0.00     0.074 A 
ATOM     42  C   UNL A   1      43.154  24.587  29.485  1.00  0.00     0.049 A 
ATOM     43  N   UNL A   1      41.172  26.478  27.762  1.00  0.00    -0.248 NA
ATOM     44  C   UNL A   1      39.723  24.998  28.835  1.00  0.00     0.031 C 
ATOM     45  C   UNL A   1      44.117  23.655  30.063  1.00  0.00     0.029 A 
ATOM     46  N   UNL A   1      43.440  25.765  30.112  1.00  0.00    -0.354 N 
ATOM     47  C   UNL A   1      39.890  27.006  27.779  1.00  0.00     0.074 A 
ATOM     48  C   UNL A   1      39.015  25.971  28.266  1.00  0.00     0.031 C 
ATOM     49  C   UNL A   1      44.713  24.253  31.126  1.00  0.00     0.029 A 
ATOM     50  C   UNL A   1      44.266  25.637  31.215  1.00  0.00     0.049 A 
ATOM     51  H   UNL A   1      43.088  26.633  29.805  1.00  0.00     0.167 HD
ATOM     52  C   UNL A   1      39.659  28.330  27.603  1.00  0.00     0.034 A 
ATOM     53  C   UNL A   1      44.455  26.586  32.167  1.00  0.00     0.034 A 
ATOM     54  C   UNL A   1      40.785  29.014  27.031  1.00  0.00     0.049 A 
ATOM     55  C   UNL A   1      44.054  27.896  31.593  1.00  0.00     0.074 A 
ATOM     56  C   UNL A   1      41.491  28.907  25.849  1.00  0.00     0.029 A 
ATOM     57  N   UNL A   1      41.584  29.733  27.886  1.00  0.00    -0.354 N 
ATOM     58  N   UNL A   1      44.721  28.520  30.665  1.00  0.00    -0.248 NA
ATOM     59  C   UNL A   1      42.686  28.349  31.791  1.00  0.00     0.031 C 
ATOM     60  C   UNL A   1      42.848  29.166  26.202  1.00  0.00     0.029 A 
ATOM     61  C   UNL A   1      42.885  29.436  27.570  1.00  0.00     0.049 A 
ATOM     62  H   UNL A   1      41.280  30.346  28.593  1.00  0.00     0.167 HD
ATOM     63  C   UNL A   1      43.746  29.119  29.877  1.00  0.00     0.074 A 
ATOM     64  C   UNL A   1      42.528  29.072  30.680  1.00  0.00     0.031 C 
ATOM     65  C   UNL A   1      43.950  29.339  28.545  1.00  0.00     0.034 A 
BRANCH  52  66
ATOM     66  C   UNL A   1      38.518  29.041  28.265  1.00  0.00     0.023 A 
ATOM     67  C   UNL A   1      37.607  29.736  27.449  1.00  0.00     0.012 A 
ATOM     68  C   UNL A   1      38.426  29.243  29.661  1.00  0.00     0.148 A 
ATOM     69  C   UNL A   1      36.650  30.592  28.003  1.00  0.00     0.002 A 
ATOM     70  C   UNL A   1      37.408  30.005  30.211  1.00  0.00     0.091 A 
ATOM     71  F   UNL A   1      39.405  28.817  30.469  1.00  0.00    -0.205 F 
ATOM     72  C   UNL A   1      36.534  30.708  29.384  1.00  0.00     0.022 A 
BRANCH  70  73
ATOM     73  S   UNL A   1      37.179  30.085  31.989  1.00  0.00     0.127 S 
ATOM     74  O   UNL A   1      38.311  30.910  32.396  1.00  0.00    -0.237 OA
ATOM     75  O   UNL A   1      35.868  30.728  32.097  1.00  0.00    -0.237 OA
ATOM     76  O   UNL A   1      37.192  28.696  32.435  1.00  0.00    -0.744 OA
ENDBRANCH  70  73
ENDBRANCH  52  66
BRANCH  53  77
ATOM     77  C   UNL A   1      44.659  26.434  33.627  1.00  0.00     0.023 A 
ATOM     78  C   UNL A   1      45.888  26.822  34.198  1.00  0.00     0.012 A 
ATOM     79  C   UNL A   1      43.562  26.217  34.488  1.00  0.00     0.148 A 
ATOM     80  C   UNL A   1      46.007  27.036  35.577  1.00  0.00     0.002 A 
ATOM     81  C   UNL A   1      43.685  26.429  35.857  1.00  0.00     0.091 A 
ATOM     82  F   UNL A   1      42.373  25.906  33.955  1.00  0.00    -0.205 F 
ATOM     83  C   UNL A   1      44.904  26.851  36.404  1.00  0.00     0.022 A 
BRANCH  81  84
ATOM     84  S   UNL A   1      42.289  26.255  36.976  1.00  0.00     0.127 S 
ATOM     85  O   UNL A   1      41.401  27.324  36.520  1.00  0.00    -0.237 OA
ATOM     86  O   UNL A   1      41.830  24.903  36.674  1.00  0.00    -0.237 OA
ATOM     87  O   UNL A   1      42.828  26.456  38.316  1.00  0.00    -0.744 OA
ENDBRANCH  81  84
ENDBRANCH  53  77
BRANCH  65  88
ATOM     88  C   UNL A   1      45.350  29.177  28.000  1.00  0.00     0.023 A 
ATOM     89  C   UNL A   1      45.781  27.984  27.381  1.00  0.00     0.012 A 
ATOM     90  C   UNL A   1      46.194  30.300  27.964  1.00  0.00     0.148 A 
ATOM     91  C   UNL A   1      47.037  27.904  26.773  1.00  0.00     0.002 A 
ATOM     92  C   UNL A   1      47.418  30.233  27.310  1.00  0.00     0.091 A 
ATOM     93  F   UNL A   1      45.776  31.430  28.556  1.00  0.00    -0.205 F 
ATOM     94  C   UNL A   1      47.849  29.033  26.725  1.00  0.00     0.022 A 
BRANCH  92  95
ATOM     95  S   UNL A   1      48.442  31.691  27.090  1.00  0.00     0.127 S 
ATOM     96  O   UNL A   1      49.650  31.130  26.489  1.00  0.00    -0.237 OA
ATOM     97  O   UNL A   1      47.634  32.512  26.188  1.00  0.00    -0.237 OA
ATOM     98  O   UNL A   1      48.605  32.263  28.422  1.00  0.00    -0.744 OA
ENDBRANCH  92  95
ENDBRANCH  65  88
ENDBRANCH  39  40
ENDBRANCH  32  34
ENDBRANCH  31  32
ENDBRANCH  30  31
ENDBRANCH  29  30
ENDBRANCH   1  29
TORSDOF 20
ENDMDL
MODEL 3
REMARK VINA RESULT:     -11.2      3.157      7.204
REMARK SMILES Cc1ccnc(C(=O)c2[nH]c3cc(Cl)c(F)cc3c2CC(=O)OCCOCCOC(=O)c2ccc(-c3c4nc(c(-c5cccc(S(=O)(=O)[O-])c5F)c5ccc([nH]5)c(-c5cccc(S(=O)(=O)[O-])c5F)c5nc(c(-c6cccc(S(=O)(=O)[O-])c6F)c6ccc3[nH]6)C=C5)C=C4)cc2)c1
REMARK SMILES IDX 26 1 25 2 24 3 23 4 21 5 22 6 20 7 19 8 9 9 10 10 11 11
REMARK SMILES IDX 18 13 12 14 17 15 13 16 15 17 14 18 16 19 7 20 8 21 6 22
REMARK SMILES IDX 1 23 2 24 3 25 95 26 4 27 5 28 27 29 28 30 29 31 30 32 31 33
REMARK SMILES IDX 32 34 33 35 94 36 34 37 93 38 35 39 36 40 37 41 87 42 38 43
REMARK SMILES IDX 92 44 86 45 88 46 39 47 91 48 85 49 84 50 40 52 72 53 52 54
REMARK SMILES IDX 71 55 53 56 56 57 70 58 89 59 54 60 55 61 69 63 90 64 57 65
REMARK SMILES IDX 41 66 42 67 50 68 43 69 45 70 51 71 44 72 46 73 47 74 48 75
REMARK SMILES IDX 49 76 73 77 74 78 82 79 75 80 77 81 83 82 76 83 78 84 79 85
REMARK SMILES IDX 80 86 81 87 58 88 59 89 67 90 60 91 62 92 68 93 61 94 63 95
REMARK SMILES IDX 64 96 65 97 66 98
REMARK H PARENT 10 12 88 51 56 62
REMARK Flexibility Score: inf
ROOT
ATOM      1  O   UNL A   1      32.372  29.392  27.107  1.00  0.00    -0.374 OA
ENDROOT
BRANCH   1   2
ATOM      2  C   UNL A   1      31.629  28.672  26.132  1.00  0.00     0.202 C 
BRANCH   2   3
ATOM      3  C   UNL A   1      31.380  27.254  26.661  1.00  0.00     0.261 C 
BRANCH   3   4
ATOM      4  O   UNL A   1      32.549  26.398  26.450  1.00  0.00    -0.463 OA
BRANCH   4   5
ATOM      5  C   UNL A   1      32.322  25.063  26.530  1.00  0.00     0.310 C 
ATOM      6  O   UNL A   1      31.338  24.594  27.097  1.00  0.00    -0.252 OA
BRANCH   5   7
ATOM      7  C   UNL A   1      33.322  24.158  25.800  1.00  0.00     0.161 C 
BRANCH   7   8
ATOM      8  C   UNL A   1      33.083  23.619  24.383  1.00  0.00     0.000 A 
ATOM      9  C   UNL A   1      32.696  24.266  23.169  1.00  0.00     0.093 A 
ATOM     10  N   UNL A   1      32.252  23.241  22.343  1.00  0.00    -0.351 N 
ATOM     11  C   UNL A   1      32.457  21.999  22.882  1.00  0.00     0.048 A 
ATOM     12  H   UNL A   1      31.834  23.392  21.464  1.00  0.00     0.167 HD
ATOM     13  C   UNL A   1      33.028  22.187  24.135  1.00  0.00     0.007 A 
ATOM     14  C   UNL A   1      32.146  20.733  22.360  1.00  0.00     0.050 A 
ATOM     15  C   UNL A   1      33.343  21.037  24.898  1.00  0.00     0.051 A 
ATOM     16  C   UNL A   1      32.462  19.614  23.137  1.00  0.00     0.078 A 
ATOM     17  C   UNL A   1      33.064  19.768  24.379  1.00  0.00     0.142 A 
ATOM     18  Cl  UNL A   1      32.078  18.044  22.534  1.00  0.00    -0.081 Cl
ATOM     19  F   UNL A   1      33.370  18.691  25.121  1.00  0.00    -0.205 F 
BRANCH   9  20
ATOM     20  C   UNL A   1      32.413  25.652  22.710  1.00  0.00     0.227 C 
ATOM     21  O   UNL A   1      33.359  26.321  22.286  1.00  0.00    -0.285 OA
BRANCH  20  22
ATOM     22  C   UNL A   1      31.071  26.406  22.846  1.00  0.00     0.113 A 
ATOM     23  C   UNL A   1      29.546  29.875  23.022  1.00  0.00     0.044 C 
ATOM     24  C   UNL A   1      29.645  28.369  22.935  1.00  0.00    -0.047 A 
ATOM     25  C   UNL A   1      28.717  27.643  23.670  1.00  0.00     0.023 A 
ATOM     26  C   UNL A   1      30.770  27.693  22.379  1.00  0.00     0.036 A 
ATOM     27  C   UNL A   1      28.988  26.314  23.902  1.00  0.00     0.112 A 
ATOM     28  N   UNL A   1      30.144  25.700  23.550  1.00  0.00    -0.253 NA
ENDBRANCH  20  22
ENDBRANCH   9  20
ENDBRANCH   7   8
ENDBRANCH   5   7
ENDBRANCH   4   5
ENDBRANCH   3   4
ENDBRANCH   2   3
ENDBRANCH   1   2
BRANCH   1  29
ATOM     29  C   UNL A   1      33.103  30.468  26.540  1.00  0.00     0.202 C 
BRANCH  29  30
ATOM     30  C   UNL A   1      33.713  31.408  27.581  1.00  0.00     0.261 C 
BRANCH  30  31
ATOM     31  O   UNL A   1      35.095  31.154  27.593  1.00  0.00    -0.460 OA
BRANCH  31  32
ATOM     32  C   UNL A   1      36.011  31.980  28.130  1.00  0.00     0.338 C 
ATOM     33  O   UNL A   1      36.244  33.150  27.899  1.00  0.00    -0.246 OA
BRANCH  32  34
ATOM     34  C   UNL A   1      36.648  31.004  29.036  1.00  0.00     0.060 A 
ATOM     35  C   UNL A   1      37.754  31.596  29.668  1.00  0.00     0.016 A 
ATOM     36  C   UNL A   1      36.729  29.714  28.476  1.00  0.00     0.016 A 
ATOM     37  C   UNL A   1      38.997  31.057  29.404  1.00  0.00     0.010 A 
ATOM     38  C   UNL A   1      37.983  29.151  28.260  1.00  0.00     0.010 A 
ATOM     39  C   UNL A   1      39.114  29.859  28.667  1.00  0.00    -0.014 A 
BRANCH  39  40
ATOM     40  C   UNL A   1      40.423  29.234  28.761  1.00  0.00     0.031 A 
ATOM     41  C   UNL A   1      40.671  28.871  30.176  1.00  0.00     0.074 A 
ATOM     42  C   UNL A   1      41.342  28.961  27.822  1.00  0.00     0.049 A 
ATOM     43  N   UNL A   1      41.423  29.507  31.012  1.00  0.00    -0.248 NA
ATOM     44  C   UNL A   1      39.774  27.875  30.776  1.00  0.00     0.031 C 
ATOM     45  C   UNL A   1      41.221  28.924  26.369  1.00  0.00     0.029 A 
ATOM     46  N   UNL A   1      42.623  28.545  28.043  1.00  0.00    -0.354 N 
ATOM     47  C   UNL A   1      41.215  28.871  32.226  1.00  0.00     0.074 A 
ATOM     48  C   UNL A   1      40.059  28.027  32.067  1.00  0.00     0.031 C 
ATOM     49  C   UNL A   1      42.301  28.277  25.861  1.00  0.00     0.029 A 
ATOM     50  C   UNL A   1      43.235  27.978  26.939  1.00  0.00     0.049 A 
ATOM     51  H   UNL A   1      43.073  28.640  28.914  1.00  0.00     0.167 HD
ATOM     52  C   UNL A   1      42.136  28.908  33.219  1.00  0.00     0.034 A 
ATOM     53  C   UNL A   1      44.367  27.230  26.969  1.00  0.00     0.034 A 
ATOM     54  C   UNL A   1      43.108  29.949  33.032  1.00  0.00     0.049 A 
ATOM     55  C   UNL A   1      45.083  27.534  28.234  1.00  0.00     0.074 A 
ATOM     56  C   UNL A   1      43.053  31.326  32.934  1.00  0.00     0.029 A 
ATOM     57  N   UNL A   1      44.333  29.583  32.531  1.00  0.00    -0.354 N 
ATOM     58  N   UNL A   1      45.677  28.666  28.482  1.00  0.00    -0.248 NA
ATOM     59  C   UNL A   1      44.820  26.699  29.396  1.00  0.00     0.031 C 
ATOM     60  C   UNL A   1      44.044  31.670  31.970  1.00  0.00     0.029 A 
ATOM     61  C   UNL A   1      44.658  30.488  31.554  1.00  0.00     0.049 A 
ATOM     62  H   UNL A   1      44.875  28.813  32.819  1.00  0.00     0.167 HD
ATOM     63  C   UNL A   1      45.462  28.883  29.838  1.00  0.00     0.074 A 
ATOM     64  C   UNL A   1      45.029  27.593  30.365  1.00  0.00     0.031 C 
ATOM     65  C   UNL A   1      45.381  30.148  30.347  1.00  0.00     0.034 A 
BRANCH  52  66
ATOM     66  C   UNL A   1      42.325  27.775  34.182  1.00  0.00     0.023 A 
ATOM     67  C   UNL A   1      41.840  27.930  35.493  1.00  0.00     0.012 A 
ATOM     68  C   UNL A   1      43.151  26.657  33.923  1.00  0.00     0.148 A 
ATOM     69  C   UNL A   1      42.166  27.013  36.496  1.00  0.00     0.002 A 
ATOM     70  C   UNL A   1      43.381  25.694  34.891  1.00  0.00     0.091 A 
ATOM     71  F   UNL A   1      43.843  26.583  32.779  1.00  0.00    -0.205 F 
ATOM     72  C   UNL A   1      42.915  25.881  36.191  1.00  0.00     0.022 A 
BRANCH  70  73
ATOM     73  S   UNL A   1      44.258  24.180  34.491  1.00  0.00     0.127 S 
ATOM     74  O   UNL A   1      44.247  23.485  35.772  1.00  0.00    -0.237 OA
ATOM     75  O   UNL A   1      43.400  23.598  33.458  1.00  0.00    -0.237 OA
ATOM     76  O   UNL A   1      45.560  24.617  33.998  1.00  0.00    -0.744 OA
ENDBRANCH  70  73
ENDBRANCH  52  66
BRANCH  53  77
ATOM     77  C   UNL A   1      44.744  26.050  26.155  1.00  0.00     0.023 A 
ATOM     78  C   UNL A   1      46.022  25.999  25.561  1.00  0.00     0.012 A 
ATOM     79  C   UNL A   1      43.993  24.858  26.227  1.00  0.00     0.148 A 
ATOM     80  C   UNL A   1      46.554  24.789  25.098  1.00  0.00     0.002 A 
ATOM     81  C   UNL A   1      44.524  23.659  25.764  1.00  0.00     0.091 A 
ATOM     82  F   UNL A   1      42.803  24.879  26.841  1.00  0.00    -0.205 F 
ATOM     83  C   UNL A   1      45.810  23.618  25.210  1.00  0.00     0.022 A 
BRANCH  81  84
ATOM     84  S   UNL A   1      43.639  22.102  25.919  1.00  0.00     0.127 S 
ATOM     85  O   UNL A   1      42.546  22.279  24.963  1.00  0.00    -0.237 OA
ATOM     86  O   UNL A   1      44.657  21.137  25.517  1.00  0.00    -0.237 OA
ATOM     87  O   UNL A   1      43.209  22.027  27.311  1.00  0.00    -0.744 OA
ENDBRANCH  81  84
ENDBRANCH  53  77
BRANCH  65  88
ATOM     88  C   UNL A   1      45.804  31.301  29.468  1.00  0.00     0.023 A 
ATOM     89  C   UNL A   1      47.106  31.845  29.517  1.00  0.00     0.012 A 
ATOM     90  C   UNL A   1      44.927  31.737  28.459  1.00  0.00     0.148 A 
ATOM     91  C   UNL A   1      47.509  32.824  28.606  1.00  0.00     0.002 A 
ATOM     92  C   UNL A   1      45.351  32.670  27.521  1.00  0.00     0.091 A 
ATOM     93  F   UNL A   1      43.691  31.215  28.420  1.00  0.00    -0.205 F 
ATOM     94  C   UNL A   1      46.637  33.226  27.598  1.00  0.00     0.022 A 
BRANCH  92  95
ATOM     95  S   UNL A   1      44.324  33.118  26.117  1.00  0.00     0.127 S 
ATOM     96  O   UNL A   1      43.739  31.832  25.744  1.00  0.00    -0.237 OA
ATOM     97  O   UNL A   1      43.384  34.072  26.705  1.00  0.00    -0.237 OA
ATOM     98  O   UNL A   1      45.230  33.708  25.139  1.00  0.00    -0.744 OA
ENDBRANCH  92  95
ENDBRANCH  65  88
ENDBRANCH  39  40
ENDBRANCH  32  34
ENDBRANCH  31  32
ENDBRANCH  30  31
ENDBRANCH  29  30
ENDBRANCH   1  29
TORSDOF 20
ENDMDL
