MODEL 1
REMARK VINA RESULT:     -12.6      0.000      0.000
REMARK SMILES O=C(OCCOCCOC(=O)c1ccc(-c2c3nc(c(-c4cccc(S(=O)(=O)[O-])c4F)c4ccc([nH]4)c(-c4cccc(S(=O)(=O)[O-])c4F)c4nc(c(-c5cccc(S(=O)(=O)[O-])c5F)c5ccc2[nH]5)C=C4)C=C3)cc1)C1=Cc2c(Cl)cc(Cl)cc2O[C@@H]1C(F)(F)F
REMARK SMILES IDX 7 1 6 2 5 3 4 4 3 5 2 6 1 7 75 8 76 9 86 10 77 11 85 12
REMARK SMILES IDX 78 13 84 14 79 15 80 16 83 17 81 18 82 19 87 20 88 21 89 22
REMARK SMILES IDX 90 23 8 24 9 25 10 26 11 27 12 28 13 29 74 30 14 31 73 32
REMARK SMILES IDX 15 33 16 34 17 35 67 36 18 37 72 38 66 39 68 40 19 41 71 42
REMARK SMILES IDX 65 43 64 44 20 46 52 47 32 48 51 49 33 50 36 51 50 52 69 53
REMARK SMILES IDX 34 54 35 55 49 57 70 58 37 59 21 60 22 61 30 62 23 63 25 64
REMARK SMILES IDX 31 65 24 66 26 67 27 68 28 69 29 70 53 71 54 72 62 73 55 74
REMARK SMILES IDX 57 75 63 76 56 77 58 78 59 79 60 80 61 81 38 82 39 83 47 84
REMARK SMILES IDX 40 85 42 86 48 87 41 88 43 89 44 90 45 91 46 92
REMARK H PARENT 68 45 36 56
REMARK Flexibility Score: inf
ROOT
ATOM      1  C   UNL A   1      31.039  31.459  26.642  1.00  0.00     0.202 C 
ENDROOT
BRANCH   1   2
ATOM      2  O   UNL A   1      31.359  30.734  25.436  1.00  0.00    -0.374 OA
BRANCH   2   3
ATOM      3  C   UNL A   1      31.675  29.156  25.248  1.00  0.00     0.202 C 
BRANCH   3   4
ATOM      4  C   UNL A   1      33.510  28.057  25.702  1.00  0.00     0.261 C 
BRANCH   4   5
ATOM      5  O   UNL A   1      34.047  26.832  24.929  1.00  0.00    -0.460 OA
BRANCH   5   6
ATOM      6  C   UNL A   1      33.192  25.807  24.903  1.00  0.00     0.338 C 
ATOM      7  O   UNL A   1      32.368  25.454  25.706  1.00  0.00    -0.246 OA
BRANCH   6   8
ATOM      8  C   UNL A   1      33.832  25.125  23.806  1.00  0.00     0.087 C 
ATOM      9  C   UNL A   1      34.756  24.076  24.310  1.00  0.00     0.029 C 
ATOM     10  C   UNL A   1      32.226  24.782  22.774  1.00  0.00     0.316 C 
ATOM     11  C   UNL A   1      34.405  22.287  24.222  1.00  0.00     0.036 A 
ATOM     12  O   UNL A   1      31.804  22.904  22.711  1.00  0.00    -0.475 OA
ATOM     13  C   UNL A   1      35.187  21.382  24.894  1.00  0.00     0.053 A 
ATOM     14  C   UNL A   1      32.942  21.701  23.488  1.00  0.00     0.130 A 
ATOM     15  Cl  UNL A   1      36.670  21.787  25.649  1.00  0.00    -0.083 Cl
ATOM     16  C   UNL A   1      34.676  20.081  24.985  1.00  0.00     0.042 A 
ATOM     17  C   UNL A   1      32.480  20.432  23.703  1.00  0.00     0.067 A 
ATOM     18  C   UNL A   1      33.390  19.653  24.461  1.00  0.00     0.046 A 
ATOM     19  Cl  UNL A   1      32.950  18.040  24.912  1.00  0.00    -0.084 Cl
BRANCH  10  20
ATOM     20  C   UNL A   1      32.439  25.827  21.601  1.00  0.00     0.430 C 
ATOM     21  F   UNL A   1      32.607  25.290  20.379  1.00  0.00    -0.167 F 
ATOM     22  F   UNL A   1      31.302  26.577  21.508  1.00  0.00    -0.167 F 
ATOM     23  F   UNL A   1      33.425  26.729  21.808  1.00  0.00    -0.167 F 
ENDBRANCH  10  20
ENDBRANCH   6   8
ENDBRANCH   5   6
ENDBRANCH   4   5
ENDBRANCH   3   4
ENDBRANCH   2   3
ENDBRANCH   1   2
BRANCH   1  24
ATOM     24  C   UNL A   1      32.012  32.580  27.005  1.00  0.00     0.261 C 
BRANCH  24  25
ATOM     25  O   UNL A   1      33.158  32.069  27.673  1.00  0.00    -0.460 OA
BRANCH  25  26
ATOM     26  C   UNL A   1      34.024  33.036  28.050  1.00  0.00     0.338 C 
ATOM     27  O   UNL A   1      33.806  34.232  28.138  1.00  0.00    -0.246 OA
BRANCH  26  28
ATOM     28  C   UNL A   1      35.328  32.424  28.347  1.00  0.00     0.060 A 
ATOM     29  C   UNL A   1      35.341  31.047  28.589  1.00  0.00     0.016 A 
ATOM     30  C   UNL A   1      36.510  33.178  28.406  1.00  0.00     0.016 A 
ATOM     31  C   UNL A   1      36.534  30.423  28.910  1.00  0.00     0.010 A 
ATOM     32  C   UNL A   1      37.708  32.551  28.730  1.00  0.00     0.010 A 
ATOM     33  C   UNL A   1      37.709  31.178  29.005  1.00  0.00    -0.014 A 
BRANCH  33  34
ATOM     34  C   UNL A   1      38.868  30.555  29.660  1.00  0.00     0.031 A 
ATOM     35  C   UNL A   1      39.156  30.979  31.065  1.00  0.00     0.074 A 
ATOM     36  C   UNL A   1      39.586  29.607  29.040  1.00  0.00     0.049 A 
ATOM     37  N   UNL A   1      40.032  30.507  31.905  1.00  0.00    -0.248 NA
ATOM     38  C   UNL A   1      38.333  32.083  31.596  1.00  0.00     0.031 C 
ATOM     39  C   UNL A   1      39.362  29.129  27.679  1.00  0.00     0.029 A 
ATOM     40  N   UNL A   1      40.652  28.875  29.487  1.00  0.00    -0.354 N 
ATOM     41  C   UNL A   1      39.875  31.260  33.060  1.00  0.00     0.074 A 
ATOM     42  C   UNL A   1      38.832  32.227  32.811  1.00  0.00     0.031 C 
ATOM     43  C   UNL A   1      40.259  28.167  27.402  1.00  0.00     0.029 A 
ATOM     44  C   UNL A   1      41.141  27.995  28.554  1.00  0.00     0.049 A 
ATOM     45  H   UNL A   1      41.031  28.970  30.391  1.00  0.00     0.167 HD
ATOM     46  C   UNL A   1      40.547  31.152  34.227  1.00  0.00     0.034 A 
ATOM     47  C   UNL A   1      42.194  27.160  28.632  1.00  0.00     0.034 A 
ATOM     48  C   UNL A   1      41.614  30.216  34.434  1.00  0.00     0.049 A 
ATOM     49  C   UNL A   1      42.967  27.103  29.923  1.00  0.00     0.074 A 
ATOM     50  C   UNL A   1      42.371  30.011  35.572  1.00  0.00     0.029 A 
ATOM     51  N   UNL A   1      42.102  29.355  33.462  1.00  0.00    -0.354 N 
ATOM     52  N   UNL A   1      42.753  27.749  31.045  1.00  0.00    -0.248 NA
ATOM     53  C   UNL A   1      44.108  26.179  29.969  1.00  0.00     0.031 C 
ATOM     54  C   UNL A   1      43.356  29.067  35.268  1.00  0.00     0.029 A 
ATOM     55  C   UNL A   1      43.166  28.630  33.965  1.00  0.00     0.049 A 
ATOM     56  H   UNL A   1      41.743  29.271  32.549  1.00  0.00     0.167 HD
ATOM     57  C   UNL A   1      43.698  27.274  31.947  1.00  0.00     0.074 A 
ATOM     58  C   UNL A   1      44.481  26.280  31.238  1.00  0.00     0.031 C 
ATOM     59  C   UNL A   1      43.901  27.620  33.243  1.00  0.00     0.034 A 
BRANCH  46  60
ATOM     60  C   UNL A   1      40.170  32.110  35.322  1.00  0.00     0.023 A 
ATOM     61  C   UNL A   1      40.905  33.299  35.515  1.00  0.00     0.012 A 
ATOM     62  C   UNL A   1      39.098  31.811  36.184  1.00  0.00     0.148 A 
ATOM     63  C   UNL A   1      40.610  34.148  36.580  1.00  0.00     0.002 A 
ATOM     64  C   UNL A   1      38.776  32.689  37.209  1.00  0.00     0.091 A 
ATOM     65  F   UNL A   1      38.438  30.659  36.006  1.00  0.00    -0.205 F 
ATOM     66  C   UNL A   1      39.541  33.848  37.420  1.00  0.00     0.022 A 
BRANCH  64  67
ATOM     67  S   UNL A   1      37.373  32.426  38.294  1.00  0.00     0.127 S 
ATOM     68  O   UNL A   1      37.811  33.102  39.514  1.00  0.00    -0.237 OA
ATOM     69  O   UNL A   1      36.298  33.107  37.572  1.00  0.00    -0.237 OA
ATOM     70  O   UNL A   1      37.212  30.983  38.405  1.00  0.00    -0.744 OA
ENDBRANCH  64  67
ENDBRANCH  46  60
BRANCH  47  71
ATOM     71  C   UNL A   1      42.553  26.294  27.474  1.00  0.00     0.023 A 
ATOM     72  C   UNL A   1      43.360  26.809  26.440  1.00  0.00     0.012 A 
ATOM     73  C   UNL A   1      42.107  24.961  27.398  1.00  0.00     0.148 A 
ATOM     74  C   UNL A   1      43.686  26.022  25.335  1.00  0.00     0.002 A 
ATOM     75  C   UNL A   1      42.479  24.167  26.321  1.00  0.00     0.091 A 
ATOM     76  F   UNL A   1      41.337  24.494  28.390  1.00  0.00    -0.205 F 
ATOM     77  C   UNL A   1      43.253  24.700  25.279  1.00  0.00     0.022 A 
BRANCH  75  78
ATOM     78  S   UNL A   1      42.060  22.423  26.215  1.00  0.00     0.127 S 
ATOM     79  O   UNL A   1      42.594  21.910  27.474  1.00  0.00    -0.237 OA
ATOM     80  O   UNL A   1      40.599  22.473  26.137  1.00  0.00    -0.237 OA
ATOM     81  O   UNL A   1      42.713  21.929  25.010  1.00  0.00    -0.744 OA
ENDBRANCH  75  78
ENDBRANCH  47  71
BRANCH  59  82
ATOM     82  C   UNL A   1      44.965  26.874  34.004  1.00  0.00     0.023 A 
ATOM     83  C   UNL A   1      46.296  27.330  34.013  1.00  0.00     0.012 A 
ATOM     84  C   UNL A   1      44.612  25.750  34.779  1.00  0.00     0.148 A 
ATOM     85  C   UNL A   1      47.271  26.653  34.745  1.00  0.00     0.002 A 
ATOM     86  C   UNL A   1      45.574  25.118  35.554  1.00  0.00     0.091 A 
ATOM     87  F   UNL A   1      43.342  25.322  34.745  1.00  0.00    -0.205 F 
ATOM     88  C   UNL A   1      46.907  25.556  35.525  1.00  0.00     0.022 A 
BRANCH  86  89
ATOM     89  S   UNL A   1      45.171  23.772  36.673  1.00  0.00     0.127 S 
ATOM     90  O   UNL A   1      46.487  23.425  37.207  1.00  0.00    -0.237 OA
ATOM     91  O   UNL A   1      44.276  24.426  37.629  1.00  0.00    -0.237 OA
ATOM     92  O   UNL A   1      44.537  22.745  35.857  1.00  0.00    -0.744 OA
ENDBRANCH  86  89
ENDBRANCH  59  82
ENDBRANCH  33  34
ENDBRANCH  26  28
ENDBRANCH  25  26
ENDBRANCH  24  25
ENDBRANCH   1  24
TORSDOF 18
ENDMDL
MODEL 2
REMARK VINA RESULT:     -12.4      1.712      7.803
REMARK SMILES O=C(OCCOCCOC(=O)c1ccc(-c2c3nc(c(-c4cccc(S(=O)(=O)[O-])c4F)c4ccc([nH]4)c(-c4cccc(S(=O)(=O)[O-])c4F)c4nc(c(-c5cccc(S(=O)(=O)[O-])c5F)c5ccc2[nH]5)C=C4)C=C3)cc1)C1=Cc2c(Cl)cc(Cl)cc2O[C@@H]1C(F)(F)F
REMARK SMILES IDX 7 1 6 2 5 3 4 4 3 5 2 6 1 7 75 8 76 9 86 10 77 11 85 12
REMARK SMILES IDX 78 13 84 14 79 15 80 16 83 17 81 18 82 19 87 20 88 21 89 22
REMARK SMILES IDX 90 23 8 24 9 25 10 26 11 27 12 28 13 29 74 30 14 31 73 32
REMARK SMILES IDX 15 33 16 34 17 35 67 36 18 37 72 38 66 39 68 40 19 41 71 42
REMARK SMILES IDX 65 43 64 44 20 46 52 47 32 48 51 49 33 50 36 51 50 52 69 53
REMARK SMILES IDX 34 54 35 55 49 57 70 58 37 59 21 60 22 61 30 62 23 63 25 64
REMARK SMILES IDX 31 65 24 66 26 67 27 68 28 69 29 70 53 71 54 72 62 73 55 74
REMARK SMILES IDX 57 75 63 76 56 77 58 78 59 79 60 80 61 81 38 82 39 83 47 84
REMARK SMILES IDX 40 85 42 86 48 87 41 88 43 89 44 90 45 91 46 92
REMARK H PARENT 68 45 36 56
REMARK Flexibility Score: inf
ROOT
ATOM      1  C   UNL A   1      31.236  29.282  24.648  1.00  0.00     0.202 C 
ENDROOT
BRANCH   1   2
ATOM      2  O   UNL A   1      32.293  28.859  23.761  1.00  0.00    -0.374 OA
BRANCH   2   3
ATOM      3  C   UNL A   1      32.286  27.667  22.663  1.00  0.00     0.202 C 
BRANCH   3   4
ATOM      4  C   UNL A   1      33.486  25.840  22.608  1.00  0.00     0.261 C 
BRANCH   4   5
ATOM      5  O   UNL A   1      32.995  24.447  22.154  1.00  0.00    -0.460 OA
BRANCH   5   6
ATOM      6  C   UNL A   1      33.521  23.445  22.861  1.00  0.00     0.338 C 
ATOM      7  O   UNL A   1      34.658  23.061  22.947  1.00  0.00    -0.246 OA
BRANCH   6   8
ATOM      8  C   UNL A   1      32.259  22.819  23.168  1.00  0.00     0.087 C 
ATOM      9  C   UNL A   1      32.147  21.506  22.485  1.00  0.00     0.029 C 
ATOM     10  C   UNL A   1      32.339  23.063  25.091  1.00  0.00     0.316 C 
ATOM     11  C   UNL A   1      32.285  19.900  23.342  1.00  0.00     0.036 A 
ATOM     12  O   UNL A   1      32.540  21.386  26.016  1.00  0.00    -0.475 OA
ATOM     13  C   UNL A   1      32.391  18.730  22.633  1.00  0.00     0.053 A 
ATOM     14  C   UNL A   1      32.529  19.826  25.061  1.00  0.00     0.130 A 
ATOM     15  Cl  UNL A   1      32.155  18.622  20.940  1.00  0.00    -0.083 Cl
ATOM     16  C   UNL A   1      32.766  17.599  23.370  1.00  0.00     0.042 A 
ATOM     17  C   UNL A   1      32.976  18.694  25.683  1.00  0.00     0.067 A 
ATOM     18  C   UNL A   1      33.078  17.598  24.789  1.00  0.00     0.046 A 
ATOM     19  Cl  UNL A   1      33.709  16.092  25.368  1.00  0.00    -0.084 Cl
BRANCH  10  20
ATOM     20  C   UNL A   1      31.251  24.205  25.257  1.00  0.00     0.430 C 
ATOM     21  F   UNL A   1      31.704  25.458  25.071  1.00  0.00    -0.167 F 
ATOM     22  F   UNL A   1      30.309  24.018  24.286  1.00  0.00    -0.167 F 
ATOM     23  F   UNL A   1      30.556  24.171  26.417  1.00  0.00    -0.167 F 
ENDBRANCH  10  20
ENDBRANCH   6   8
ENDBRANCH   5   6
ENDBRANCH   4   5
ENDBRANCH   3   4
ENDBRANCH   2   3
ENDBRANCH   1   2
BRANCH   1  24
ATOM     24  C   UNL A   1      31.581  30.462  25.556  1.00  0.00     0.261 C 
BRANCH  24  25
ATOM     25  O   UNL A   1      32.851  30.284  26.169  1.00  0.00    -0.460 OA
BRANCH  25  26
ATOM     26  C   UNL A   1      33.170  31.281  27.023  1.00  0.00     0.338 C 
ATOM     27  O   UNL A   1      32.513  32.276  27.278  1.00  0.00    -0.246 OA
BRANCH  26  28
ATOM     28  C   UNL A   1      34.482  30.999  27.625  1.00  0.00     0.060 A 
ATOM     29  C   UNL A   1      34.807  29.654  27.830  1.00  0.00     0.016 A 
ATOM     30  C   UNL A   1      35.368  32.020  27.997  1.00  0.00     0.016 A 
ATOM     31  C   UNL A   1      36.013  29.329  28.427  1.00  0.00     0.010 A 
ATOM     32  C   UNL A   1      36.578  31.693  28.598  1.00  0.00     0.010 A 
ATOM     33  C   UNL A   1      36.884  30.347  28.832  1.00  0.00    -0.014 A 
BRANCH  33  34
ATOM     34  C   UNL A   1      37.979  29.984  29.743  1.00  0.00     0.031 A 
ATOM     35  C   UNL A   1      39.014  29.044  29.212  1.00  0.00     0.074 A 
ATOM     36  C   UNL A   1      38.069  30.524  30.967  1.00  0.00     0.049 A 
ATOM     37  N   UNL A   1      40.134  28.658  29.754  1.00  0.00    -0.248 NA
ATOM     38  C   UNL A   1      38.751  28.469  27.879  1.00  0.00     0.031 C 
ATOM     39  C   UNL A   1      37.111  31.457  31.553  1.00  0.00     0.029 A 
ATOM     40  N   UNL A   1      39.023  30.364  31.934  1.00  0.00    -0.354 N 
ATOM     41  C   UNL A   1      40.705  27.788  28.837  1.00  0.00     0.074 A 
ATOM     42  C   UNL A   1      39.807  27.691  27.710  1.00  0.00     0.031 C 
ATOM     43  C   UNL A   1      37.533  31.800  32.782  1.00  0.00     0.029 A 
ATOM     44  C   UNL A   1      38.768  31.079  33.078  1.00  0.00     0.049 A 
ATOM     45  H   UNL A   1      39.816  29.791  31.820  1.00  0.00     0.167 HD
ATOM     46  C   UNL A   1      41.880  27.128  28.930  1.00  0.00     0.034 A 
ATOM     47  C   UNL A   1      39.459  31.124  34.232  1.00  0.00     0.034 A 
ATOM     48  C   UNL A   1      42.733  27.201  30.081  1.00  0.00     0.049 A 
ATOM     49  C   UNL A   1      40.733  30.328  34.335  1.00  0.00     0.074 A 
ATOM     50  C   UNL A   1      43.947  26.578  30.294  1.00  0.00     0.029 A 
ATOM     51  N   UNL A   1      42.435  27.915  31.233  1.00  0.00    -0.354 N 
ATOM     52  N   UNL A   1      41.318  29.583  33.428  1.00  0.00    -0.248 NA
ATOM     53  C   UNL A   1      41.458  30.404  35.610  1.00  0.00     0.031 C 
ATOM     54  C   UNL A   1      44.355  26.868  31.599  1.00  0.00     0.029 A 
ATOM     55  C   UNL A   1      43.433  27.732  32.172  1.00  0.00     0.049 A 
ATOM     56  H   UNL A   1      41.633  28.471  31.362  1.00  0.00     0.167 HD
ATOM     57  C   UNL A   1      42.505  29.142  34.001  1.00  0.00     0.074 A 
ATOM     58  C   UNL A   1      42.555  29.712  35.333  1.00  0.00     0.031 C 
ATOM     59  C   UNL A   1      43.470  28.344  33.477  1.00  0.00     0.034 A 
BRANCH  46  60
ATOM     60  C   UNL A   1      42.255  26.239  27.777  1.00  0.00     0.023 A 
ATOM     61  C   UNL A   1      43.016  26.748  26.703  1.00  0.00     0.012 A 
ATOM     62  C   UNL A   1      41.824  24.900  27.747  1.00  0.00     0.148 A 
ATOM     63  C   UNL A   1      43.296  25.950  25.594  1.00  0.00     0.002 A 
ATOM     64  C   UNL A   1      42.154  24.097  26.665  1.00  0.00     0.091 A 
ATOM     65  F   UNL A   1      41.072  24.449  28.760  1.00  0.00    -0.205 F 
ATOM     66  C   UNL A   1      42.873  24.624  25.579  1.00  0.00     0.022 A 
BRANCH  64  67
ATOM     67  S   UNL A   1      41.719  22.359  26.590  1.00  0.00     0.127 S 
ATOM     68  O   UNL A   1      42.287  21.858  27.841  1.00  0.00    -0.237 OA
ATOM     69  O   UNL A   1      40.256  22.413  26.563  1.00  0.00    -0.237 OA
ATOM     70  O   UNL A   1      42.331  21.840  25.375  1.00  0.00    -0.744 OA
ENDBRANCH  64  67
ENDBRANCH  46  60
BRANCH  47  71
ATOM     71  C   UNL A   1      38.981  31.972  35.361  1.00  0.00     0.023 A 
ATOM     72  C   UNL A   1      39.177  33.366  35.320  1.00  0.00     0.012 A 
ATOM     73  C   UNL A   1      38.324  31.403  36.469  1.00  0.00     0.148 A 
ATOM     74  C   UNL A   1      38.759  34.174  36.379  1.00  0.00     0.002 A 
ATOM     75  C   UNL A   1      37.865  32.218  37.495  1.00  0.00     0.091 A 
ATOM     76  F   UNL A   1      38.153  30.074  36.489  1.00  0.00    -0.205 F 
ATOM     77  C   UNL A   1      38.097  33.601  37.461  1.00  0.00     0.022 A 
BRANCH  75  78
ATOM     78  S   UNL A   1      36.907  31.586  38.877  1.00  0.00     0.127 S 
ATOM     79  O   UNL A   1      36.722  30.188  38.498  1.00  0.00    -0.237 OA
ATOM     80  O   UNL A   1      37.821  31.808  39.998  1.00  0.00    -0.237 OA
ATOM     81  O   UNL A   1      35.692  32.389  38.920  1.00  0.00    -0.744 OA
ENDBRANCH  75  78
ENDBRANCH  47  71
BRANCH  59  82
ATOM     82  C   UNL A   1      44.696  28.094  34.315  1.00  0.00     0.023 A 
ATOM     83  C   UNL A   1      45.796  28.972  34.261  1.00  0.00     0.012 A 
ATOM     84  C   UNL A   1      44.717  27.013  35.220  1.00  0.00     0.148 A 
ATOM     85  C   UNL A   1      46.916  28.752  35.063  1.00  0.00     0.002 A 
ATOM     86  C   UNL A   1      45.807  26.837  36.059  1.00  0.00     0.091 A 
ATOM     87  F   UNL A   1      43.666  26.180  35.245  1.00  0.00    -0.205 F 
ATOM     88  C   UNL A   1      46.915  27.694  35.970  1.00  0.00     0.022 A 
BRANCH  86  89
ATOM     89  S   UNL A   1      45.842  25.572  37.333  1.00  0.00     0.127 S 
ATOM     90  O   UNL A   1      44.684  25.937  38.147  1.00  0.00    -0.237 OA
ATOM     91  O   UNL A   1      45.677  24.345  36.552  1.00  0.00    -0.237 OA
ATOM     92  O   UNL A   1      47.134  25.698  37.993  1.00  0.00    -0.744 OA
ENDBRANCH  86  89
ENDBRANCH  59  82
ENDBRANCH  33  34
ENDBRANCH  26  28
ENDBRANCH  25  26
ENDBRANCH  24  25
ENDBRANCH   1  24
TORSDOF 18
ENDMDL
MODEL 3
REMARK VINA RESULT:     -12.3      1.766      7.877
REMARK SMILES O=C(OCCOCCOC(=O)c1ccc(-c2c3nc(c(-c4cccc(S(=O)(=O)[O-])c4F)c4ccc([nH]4)c(-c4cccc(S(=O)(=O)[O-])c4F)c4nc(c(-c5cccc(S(=O)(=O)[O-])c5F)c5ccc2[nH]5)C=C4)C=C3)cc1)C1=Cc2c(Cl)cc(Cl)cc2O[C@@H]1C(F)(F)F
REMARK SMILES IDX 7 1 6 2 5 3 4 4 3 5 2 6 1 7 75 8 76 9 86 10 77 11 85 12
REMARK SMILES IDX 78 13 84 14 79 15 80 16 83 17 81 18 82 19 87 20 88 21 89 22
REMARK SMILES IDX 90 23 8 24 9 25 10 26 11 27 12 28 13 29 74 30 14 31 73 32
REMARK SMILES IDX 15 33 16 34 17 35 67 36 18 37 72 38 66 39 68 40 19 41 71 42
REMARK SMILES IDX 65 43 64 44 20 46 52 47 32 48 51 49 33 50 36 51 50 52 69 53
REMARK SMILES IDX 34 54 35 55 49 57 70 58 37 59 21 60 22 61 30 62 23 63 25 64
REMARK SMILES IDX 31 65 24 66 26 67 27 68 28 69 29 70 53 71 54 72 62 73 55 74
REMARK SMILES IDX 57 75 63 76 56 77 58 78 59 79 60 80 61 81 38 82 39 83 47 84
REMARK SMILES IDX 40 85 42 86 48 87 41 88 43 89 44 90 45 91 46 92
REMARK H PARENT 68 45 36 56
REMARK Flexibility Score: inf
ROOT
ATOM      1  C   UNL A   1      31.009  29.619  25.054  1.00  0.00     0.202 C 
ENDROOT
BRANCH   1   2
ATOM      2  O   UNL A   1      31.772  29.322  23.866  1.00  0.00    -0.374 OA
BRANCH   2   3
ATOM      3  C   UNL A   1      31.284  28.614  22.492  1.00  0.00     0.202 C 
BRANCH   3   4
ATOM      4  C   UNL A   1      31.758  26.621  21.728  1.00  0.00     0.261 C 
BRANCH   4   5
ATOM      5  O   UNL A   1      31.649  25.298  22.519  1.00  0.00    -0.460 OA
BRANCH   5   6
ATOM      6  C   UNL A   1      32.768  24.570  22.488  1.00  0.00     0.338 C 
ATOM      7  O   UNL A   1      33.361  24.086  21.559  1.00  0.00    -0.246 OA
BRANCH   6   8
ATOM      8  C   UNL A   1      32.790  24.296  23.903  1.00  0.00     0.087 C 
ATOM      9  C   UNL A   1      32.645  22.840  24.156  1.00  0.00     0.029 C 
ATOM     10  C   UNL A   1      34.371  25.340  24.318  1.00  0.00     0.316 C 
ATOM     11  C   UNL A   1      34.015  21.763  24.698  1.00  0.00     0.036 A 
ATOM     12  O   UNL A   1      35.849  24.221  24.842  1.00  0.00    -0.475 OA
ATOM     13  C   UNL A   1      33.878  20.397  24.705  1.00  0.00     0.053 A 
ATOM     14  C   UNL A   1      35.601  22.415  24.988  1.00  0.00     0.130 A 
ATOM     15  Cl  UNL A   1      32.385  19.594  24.463  1.00  0.00    -0.083 Cl
ATOM     16  C   UNL A   1      35.060  19.664  24.869  1.00  0.00     0.042 A 
ATOM     17  C   UNL A   1      36.711  21.621  25.053  1.00  0.00     0.067 A 
ATOM     18  C   UNL A   1      36.387  20.242  24.991  1.00  0.00     0.046 A 
ATOM     19  Cl  UNL A   1      37.666  19.074  24.974  1.00  0.00    -0.084 Cl
BRANCH  10  20
ATOM     20  C   UNL A   1      33.691  26.561  25.067  1.00  0.00     0.430 C 
ATOM     21  F   UNL A   1      32.366  26.442  25.270  1.00  0.00    -0.167 F 
ATOM     22  F   UNL A   1      34.239  26.633  26.316  1.00  0.00    -0.167 F 
ATOM     23  F   UNL A   1      33.930  27.775  24.520  1.00  0.00    -0.167 F 
ENDBRANCH  10  20
ENDBRANCH   6   8
ENDBRANCH   5   6
ENDBRANCH   4   5
ENDBRANCH   3   4
ENDBRANCH   2   3
ENDBRANCH   1   2
BRANCH   1  24
ATOM     24  C   UNL A   1      31.484  30.839  25.844  1.00  0.00     0.261 C 
BRANCH  24  25
ATOM     25  O   UNL A   1      32.800  30.646  26.345  1.00  0.00    -0.460 OA
BRANCH  25  26
ATOM     26  C   UNL A   1      33.223  31.665  27.125  1.00  0.00     0.338 C 
ATOM     27  O   UNL A   1      32.643  32.713  27.352  1.00  0.00    -0.246 OA
BRANCH  26  28
ATOM     28  C   UNL A   1      34.541  31.328  27.683  1.00  0.00     0.060 A 
ATOM     29  C   UNL A   1      34.783  29.981  27.967  1.00  0.00     0.016 A 
ATOM     30  C   UNL A   1      35.514  32.305  27.940  1.00  0.00     0.016 A 
ATOM     31  C   UNL A   1      35.993  29.610  28.529  1.00  0.00     0.010 A 
ATOM     32  C   UNL A   1      36.728  31.933  28.505  1.00  0.00     0.010 A 
ATOM     33  C   UNL A   1      36.952  30.587  28.819  1.00  0.00    -0.014 A 
BRANCH  33  34
ATOM     34  C   UNL A   1      38.064  30.207  29.702  1.00  0.00     0.031 A 
ATOM     35  C   UNL A   1      39.070  29.251  29.144  1.00  0.00     0.074 A 
ATOM     36  C   UNL A   1      38.196  30.747  30.922  1.00  0.00     0.049 A 
ATOM     37  N   UNL A   1      40.198  28.848  29.656  1.00  0.00    -0.248 NA
ATOM     38  C   UNL A   1      38.763  28.678  27.819  1.00  0.00     0.031 C 
ATOM     39  C   UNL A   1      37.268  31.695  31.533  1.00  0.00     0.029 A 
ATOM     40  N   UNL A   1      39.172  30.572  31.863  1.00  0.00    -0.354 N 
ATOM     41  C   UNL A   1      40.731  27.968  28.726  1.00  0.00     0.074 A 
ATOM     42  C   UNL A   1      39.801  27.884  27.624  1.00  0.00     0.031 C 
ATOM     43  C   UNL A   1      37.729  32.033  32.749  1.00  0.00     0.029 A 
ATOM     44  C   UNL A   1      38.959  31.292  33.013  1.00  0.00     0.049 A 
ATOM     45  H   UNL A   1      39.953  29.987  31.729  1.00  0.00     0.167 HD
ATOM     46  C   UNL A   1      41.897  27.289  28.788  1.00  0.00     0.034 A 
ATOM     47  C   UNL A   1      39.681  31.328  34.148  1.00  0.00     0.034 A 
ATOM     48  C   UNL A   1      42.781  27.350  29.916  1.00  0.00     0.049 A 
ATOM     49  C   UNL A   1      40.945  30.512  34.218  1.00  0.00     0.074 A 
ATOM     50  C   UNL A   1      43.991  26.708  30.097  1.00  0.00     0.029 A 
ATOM     51  N   UNL A   1      42.526  28.069  31.075  1.00  0.00    -0.354 N 
ATOM     52  N   UNL A   1      41.494  29.757  33.296  1.00  0.00    -0.248 NA
ATOM     53  C   UNL A   1      41.705  30.578  35.473  1.00  0.00     0.031 C 
ATOM     54  C   UNL A   1      44.438  26.993  31.391  1.00  0.00     0.029 A 
ATOM     55  C   UNL A   1      43.545  27.871  31.987  1.00  0.00     0.049 A 
ATOM     56  H   UNL A   1      41.736  28.638  31.225  1.00  0.00     0.167 HD
ATOM     57  C   UNL A   1      42.689  29.298  33.839  1.00  0.00     0.074 A 
ATOM     58  C   UNL A   1      42.784  29.868  35.168  1.00  0.00     0.031 C 
ATOM     59  C   UNL A   1      43.627  28.484  33.290  1.00  0.00     0.034 A 
BRANCH  46  60
ATOM     60  C   UNL A   1      42.228  26.394  27.627  1.00  0.00     0.023 A 
ATOM     61  C   UNL A   1      42.963  26.891  26.530  1.00  0.00     0.012 A 
ATOM     62  C   UNL A   1      41.779  25.060  27.613  1.00  0.00     0.148 A 
ATOM     63  C   UNL A   1      43.200  26.088  25.415  1.00  0.00     0.002 A 
ATOM     64  C   UNL A   1      42.067  24.251  26.523  1.00  0.00     0.091 A 
ATOM     65  F   UNL A   1      41.051  24.621  28.648  1.00  0.00    -0.205 F 
ATOM     66  C   UNL A   1      42.761  24.767  25.416  1.00  0.00     0.022 A 
BRANCH  64  67
ATOM     67  S   UNL A   1      41.609  22.518  26.465  1.00  0.00     0.127 S 
ATOM     68  O   UNL A   1      42.220  22.009  27.691  1.00  0.00    -0.237 OA
ATOM     69  O   UNL A   1      40.147  22.590  26.496  1.00  0.00    -0.237 OA
ATOM     70  O   UNL A   1      42.165  21.994  25.226  1.00  0.00    -0.744 OA
ENDBRANCH  64  67
ENDBRANCH  46  60
BRANCH  47  71
ATOM     71  C   UNL A   1      39.247  32.184  35.288  1.00  0.00     0.023 A 
ATOM     72  C   UNL A   1      38.368  31.664  36.258  1.00  0.00     0.012 A 
ATOM     73  C   UNL A   1      39.710  33.507  35.420  1.00  0.00     0.148 A 
ATOM     74  C   UNL A   1      37.930  32.458  37.319  1.00  0.00     0.002 A 
ATOM     75  C   UNL A   1      39.311  34.275  36.506  1.00  0.00     0.091 A 
ATOM     76  F   UNL A   1      40.541  33.983  34.483  1.00  0.00    -0.205 F 
ATOM     77  C   UNL A   1      38.407  33.759  37.447  1.00  0.00     0.022 A 
BRANCH  75  78
ATOM     78  S   UNL A   1      39.956  35.923  36.814  1.00  0.00     0.127 S 
ATOM     79  O   UNL A   1      39.100  36.379  37.907  1.00  0.00    -0.237 OA
ATOM     80  O   UNL A   1      41.340  35.634  37.193  1.00  0.00    -0.237 OA
ATOM     81  O   UNL A   1      39.811  36.649  35.560  1.00  0.00    -0.744 OA
ENDBRANCH  75  78
ENDBRANCH  47  71
BRANCH  59  82
ATOM     82  C   UNL A   1      44.871  28.215  34.095  1.00  0.00     0.023 A 
ATOM     83  C   UNL A   1      45.965  29.101  34.047  1.00  0.00     0.012 A 
ATOM     84  C   UNL A   1      44.915  27.107  34.966  1.00  0.00     0.148 A 
ATOM     85  C   UNL A   1      47.101  28.863  34.819  1.00  0.00     0.002 A 
ATOM     86  C   UNL A   1      46.023  26.912  35.777  1.00  0.00     0.091 A 
ATOM     87  F   UNL A   1      43.870  26.267  34.986  1.00  0.00    -0.205 F 
ATOM     88  C   UNL A   1      47.125  27.777  35.692  1.00  0.00     0.022 A 
BRANCH  86  89
ATOM     89  S   UNL A   1      46.090  25.608  37.010  1.00  0.00     0.127 S 
ATOM     90  O   UNL A   1      45.005  25.994  37.911  1.00  0.00    -0.237 OA
ATOM     91  O   UNL A   1      45.822  24.413  36.208  1.00  0.00    -0.237 OA
ATOM     92  O   UNL A   1      47.428  25.662  37.584  1.00  0.00    -0.744 OA
ENDBRANCH  86  89
ENDBRANCH  59  82
ENDBRANCH  33  34
ENDBRANCH  26  28
ENDBRANCH  25  26
ENDBRANCH  24  25
ENDBRANCH   1  24
TORSDOF 18
ENDMDL
