MODEL 1
REMARK VINA RESULT:     -10.2      0.000      0.000
REMARK SMILES CC[C@](C)([NH3+])C(=O)NC[C@](C)(O)C(=O)OCCOCCOC(=O)c1ccc(-c2c3nc(c(-c4cccc(S(=O)(=O)[O-])c4F)c4ccc([nH]4)c(-c4cccc(S(=O)(=O)[O-])c4F)c4nc(c(-c5cccc(S(=O)(=O)[O-])c5F)c5ccc2[nH]5)C=C4)C=C3)cc1
REMARK SMILES IDX 17 1 16 2 15 3 13 4 14 5 10 6 11 7 9 8 8 9 6 10 7 11 3 13
REMARK SMILES IDX 4 14 2 15 1 16 5 17 12 21 18 23 19 24 20 25 21 26 22 27
REMARK SMILES IDX 23 28 24 29 25 30 86 31 26 32 85 33 27 34 28 35 29 36 79 37
REMARK SMILES IDX 30 38 84 39 78 40 80 41 31 42 83 43 77 44 76 45 32 47 64 48
REMARK SMILES IDX 44 49 63 50 45 51 48 52 62 53 81 54 46 55 47 56 61 58 82 59
REMARK SMILES IDX 49 60 33 61 34 62 42 63 35 64 37 65 43 66 36 67 38 68 39 69
REMARK SMILES IDX 40 70 41 71 65 72 66 73 74 74 67 75 69 76 75 77 68 78 70 79
REMARK SMILES IDX 71 80 72 81 73 82 50 83 51 84 59 85 52 86 54 87 60 88 53 89
REMARK SMILES IDX 55 90 56 91 57 92 58 93
REMARK H PARENT 8 12 5 18 5 19 5 20 12 22 80 46 48 57
REMARK Flexibility Score: inf
ROOT
ATOM      1  C   UNL A   1      33.169  26.814  26.051  1.00  0.00     0.202 C 
ENDROOT
BRANCH   1   2
ATOM      2  C   UNL A   1      33.278  25.666  25.043  1.00  0.00     0.261 C 
BRANCH   2   3
ATOM      3  O   UNL A   1      34.129  24.616  25.515  1.00  0.00    -0.461 OA
BRANCH   3   4
ATOM      4  C   UNL A   1      33.473  23.562  26.076  1.00  0.00     0.339 C 
ATOM      5  O   UNL A   1      32.266  23.528  26.285  1.00  0.00    -0.249 OA
BRANCH   4   6
ATOM      6  C   UNL A   1      34.439  22.401  26.393  1.00  0.00     0.176 C 
ATOM      7  C   UNL A   1      35.793  22.715  25.751  1.00  0.00     0.057 C 
BRANCH   6   8
ATOM      8  C   UNL A   1      33.799  21.093  25.886  1.00  0.00     0.163 C 
BRANCH   8   9
ATOM      9  N   UNL A   1      34.719  20.148  25.272  1.00  0.00    -0.347 N 
ATOM     10  C   UNL A   1      34.603  18.844  24.899  1.00  0.00     0.281 C 
ATOM     11  O   UNL A   1      35.631  18.309  24.472  1.00  0.00    -0.268 OA
ATOM     12  H   UNL A   1      35.608  20.529  25.089  1.00  0.00     0.163 HD
BRANCH  10  13
ATOM     13  C   UNL A   1      33.241  18.086  24.952  1.00  0.00     0.170 C 
ATOM     14  C   UNL A   1      33.516  16.598  24.650  1.00  0.00     0.090 C 
BRANCH  13  15
ATOM     15  C   UNL A   1      32.281  18.665  23.881  1.00  0.00     0.075 C 
ATOM     16  C   UNL A   1      32.460  18.099  22.476  1.00  0.00     0.011 C 
ENDBRANCH  13  15
BRANCH  13  17
ATOM     17  N   UNL A   1      32.691  18.147  26.326  1.00  0.00    -0.345 N 
ATOM     18  H   UNL A   1      31.825  17.611  26.370  1.00  0.00     0.345 HD
ATOM     19  H   UNL A   1      32.502  19.119  26.573  1.00  0.00     0.345 HD
ATOM     20  H   UNL A   1      33.368  17.754  26.981  1.00  0.00     0.345 HD
ENDBRANCH  13  17
ENDBRANCH  10  13
ENDBRANCH   8   9
ENDBRANCH   6   8
BRANCH   6  21
ATOM     21  O   UNL A   1      34.710  22.268  27.800  1.00  0.00    -0.377 OA
ATOM     22  H   UNL A   1      34.016  21.730  28.213  1.00  0.00     0.212 HD
ENDBRANCH   6  21
ENDBRANCH   4   6
ENDBRANCH   3   4
ENDBRANCH   2   3
ENDBRANCH   1   2
BRANCH   1  23
ATOM     23  O   UNL A   1      31.881  27.373  26.304  1.00  0.00    -0.374 OA
BRANCH  23  24
ATOM     24  C   UNL A   1      31.773  28.408  27.281  1.00  0.00     0.202 C 
BRANCH  24  25
ATOM     25  C   UNL A   1      31.722  29.865  26.812  1.00  0.00     0.261 C 
BRANCH  25  26
ATOM     26  O   UNL A   1      33.010  30.373  26.429  1.00  0.00    -0.460 OA
BRANCH  26  27
ATOM     27  C   UNL A   1      33.461  31.407  27.175  1.00  0.00     0.338 C 
ATOM     28  O   UNL A   1      32.817  32.374  27.566  1.00  0.00    -0.246 OA
BRANCH  27  29
ATOM     29  C   UNL A   1      34.825  31.120  27.639  1.00  0.00     0.060 A 
ATOM     30  C   UNL A   1      35.162  29.787  27.916  1.00  0.00     0.016 A 
ATOM     31  C   UNL A   1      35.738  32.150  27.869  1.00  0.00     0.016 A 
ATOM     32  C   UNL A   1      36.401  29.480  28.471  1.00  0.00     0.010 A 
ATOM     33  C   UNL A   1      36.973  31.843  28.440  1.00  0.00     0.010 A 
ATOM     34  C   UNL A   1      37.294  30.514  28.777  1.00  0.00    -0.014 A 
BRANCH  34  35
ATOM     35  C   UNL A   1      38.491  30.250  29.602  1.00  0.00     0.031 A 
ATOM     36  C   UNL A   1      39.513  29.278  29.085  1.00  0.00     0.074 A 
ATOM     37  C   UNL A   1      38.637  30.824  30.809  1.00  0.00     0.049 A 
ATOM     38  N   UNL A   1      40.553  28.768  29.690  1.00  0.00    -0.248 NA
ATOM     39  C   UNL A   1      39.329  28.806  27.701  1.00  0.00     0.031 C 
ATOM     40  C   UNL A   1      37.720  31.798  31.397  1.00  0.00     0.029 A 
ATOM     41  N   UNL A   1      39.592  30.629  31.774  1.00  0.00    -0.354 N 
ATOM     42  C   UNL A   1      41.120  27.884  28.782  1.00  0.00     0.074 A 
ATOM     43  C   UNL A   1      40.312  27.925  27.583  1.00  0.00     0.031 C 
ATOM     44  C   UNL A   1      38.131  32.083  32.645  1.00  0.00     0.029 A 
ATOM     45  C   UNL A   1      39.314  31.281  32.953  1.00  0.00     0.049 A 
ATOM     46  H   UNL A   1      40.396  30.079  31.637  1.00  0.00     0.167 HD
ATOM     47  C   UNL A   1      42.220  27.110  28.933  1.00  0.00     0.034 A 
ATOM     48  C   UNL A   1      39.921  31.202  34.153  1.00  0.00     0.034 A 
ATOM     49  C   UNL A   1      43.026  27.093  30.122  1.00  0.00     0.049 A 
ATOM     50  C   UNL A   1      41.124  30.306  34.309  1.00  0.00     0.074 A 
ATOM     51  C   UNL A   1      44.188  26.382  30.362  1.00  0.00     0.029 A 
ATOM     52  N   UNL A   1      42.748  27.810  31.275  1.00  0.00    -0.354 N 
ATOM     53  N   UNL A   1      41.709  29.547  33.413  1.00  0.00    -0.248 NA
ATOM     54  C   UNL A   1      41.765  30.273  35.632  1.00  0.00     0.031 C 
ATOM     55  C   UNL A   1      44.594  26.643  31.673  1.00  0.00     0.029 A 
ATOM     56  C   UNL A   1      43.707  27.549  32.236  1.00  0.00     0.049 A 
ATOM     57  H   UNL A   1      41.982  28.416  31.392  1.00  0.00     0.167 HD
ATOM     58  C   UNL A   1      42.811  28.984  34.049  1.00  0.00     0.074 A 
ATOM     59  C   UNL A   1      42.814  29.494  35.405  1.00  0.00     0.031 C 
ATOM     60  C   UNL A   1      43.731  28.117  33.559  1.00  0.00     0.034 A 
BRANCH  47  61
ATOM     61  C   UNL A   1      42.621  26.226  27.784  1.00  0.00     0.023 A 
ATOM     62  C   UNL A   1      43.588  26.672  26.860  1.00  0.00     0.012 A 
ATOM     63  C   UNL A   1      42.081  24.932  27.649  1.00  0.00     0.148 A 
ATOM     64  C   UNL A   1      43.989  25.854  25.803  1.00  0.00     0.002 A 
ATOM     65  C   UNL A   1      42.518  24.107  26.621  1.00  0.00     0.091 A 
ATOM     66  F   UNL A   1      41.144  24.537  28.523  1.00  0.00    -0.205 F 
ATOM     67  C   UNL A   1      43.463  24.570  25.690  1.00  0.00     0.022 A 
BRANCH  65  68
ATOM     68  S   UNL A   1      41.959  22.410  26.437  1.00  0.00     0.127 S 
ATOM     69  O   UNL A   1      40.507  22.576  26.424  1.00  0.00    -0.237 OA
ATOM     70  O   UNL A   1      42.542  22.033  25.149  1.00  0.00    -0.237 OA
ATOM     71  O   UNL A   1      42.493  21.684  27.581  1.00  0.00    -0.744 OA
ENDBRANCH  65  68
ENDBRANCH  47  61
BRANCH  48  72
ATOM     72  C   UNL A   1      39.410  32.004  35.300  1.00  0.00     0.023 A 
ATOM     73  C   UNL A   1      38.481  31.429  36.189  1.00  0.00     0.012 A 
ATOM     74  C   UNL A   1      39.850  33.323  35.525  1.00  0.00     0.148 A 
ATOM     75  C   UNL A   1      37.978  32.162  37.263  1.00  0.00     0.002 A 
ATOM     76  C   UNL A   1      39.388  34.028  36.629  1.00  0.00     0.091 A 
ATOM     77  F   UNL A   1      40.723  33.858  34.660  1.00  0.00    -0.205 F 
ATOM     78  C   UNL A   1      38.437  33.456  37.490  1.00  0.00     0.022 A 
BRANCH  76  79
ATOM     79  S   UNL A   1      40.018  35.652  37.070  1.00  0.00     0.127 S 
ATOM     80  O   UNL A   1      39.599  36.457  35.925  1.00  0.00    -0.237 OA
ATOM     81  O   UNL A   1      39.299  35.926  38.315  1.00  0.00    -0.237 OA
ATOM     82  O   UNL A   1      41.456  35.486  37.234  1.00  0.00    -0.744 OA
ENDBRANCH  76  79
ENDBRANCH  48  72
BRANCH  60  83
ATOM     83  C   UNL A   1      44.864  27.701  34.460  1.00  0.00     0.023 A 
ATOM     84  C   UNL A   1      46.035  28.480  34.525  1.00  0.00     0.012 A 
ATOM     85  C   UNL A   1      44.712  26.601  35.327  1.00  0.00     0.148 A 
ATOM     86  C   UNL A   1      47.048  28.157  35.428  1.00  0.00     0.002 A 
ATOM     87  C   UNL A   1      45.701  26.316  36.259  1.00  0.00     0.091 A 
ATOM     88  F   UNL A   1      43.594  25.867  35.236  1.00  0.00    -0.205 F 
ATOM     89  C   UNL A   1      46.875  27.087  36.304  1.00  0.00     0.022 A 
BRANCH  87  90
ATOM     90  S   UNL A   1      45.523  25.025  37.495  1.00  0.00     0.127 S 
ATOM     91  O   UNL A   1      45.635  23.816  36.680  1.00  0.00    -0.237 OA
ATOM     92  O   UNL A   1      46.666  25.277  38.371  1.00  0.00    -0.237 OA
ATOM     93  O   UNL A   1      44.223  25.236  38.117  1.00  0.00    -0.744 OA
ENDBRANCH  87  90
ENDBRANCH  60  83
ENDBRANCH  34  35
ENDBRANCH  27  29
ENDBRANCH  26  27
ENDBRANCH  25  26
ENDBRANCH  24  25
ENDBRANCH  23  24
ENDBRANCH   1  23
TORSDOF 23
ENDMDL
MODEL 2
REMARK VINA RESULT:      -9.7      2.355      2.952
REMARK SMILES CC[C@](C)([NH3+])C(=O)NC[C@](C)(O)C(=O)OCCOCCOC(=O)c1ccc(-c2c3nc(c(-c4cccc(S(=O)(=O)[O-])c4F)c4ccc([nH]4)c(-c4cccc(S(=O)(=O)[O-])c4F)c4nc(c(-c5cccc(S(=O)(=O)[O-])c5F)c5ccc2[nH]5)C=C4)C=C3)cc1
REMARK SMILES IDX 17 1 16 2 15 3 13 4 14 5 10 6 11 7 9 8 8 9 6 10 7 11 3 13
REMARK SMILES IDX 4 14 2 15 1 16 5 17 12 21 18 23 19 24 20 25 21 26 22 27
REMARK SMILES IDX 23 28 24 29 25 30 86 31 26 32 85 33 27 34 28 35 29 36 79 37
REMARK SMILES IDX 30 38 84 39 78 40 80 41 31 42 83 43 77 44 76 45 32 47 64 48
REMARK SMILES IDX 44 49 63 50 45 51 48 52 62 53 81 54 46 55 47 56 61 58 82 59
REMARK SMILES IDX 49 60 33 61 34 62 42 63 35 64 37 65 43 66 36 67 38 68 39 69
REMARK SMILES IDX 40 70 41 71 65 72 66 73 74 74 67 75 69 76 75 77 68 78 70 79
REMARK SMILES IDX 71 80 72 81 73 82 50 83 51 84 59 85 52 86 54 87 60 88 53 89
REMARK SMILES IDX 55 90 56 91 57 92 58 93
REMARK H PARENT 8 12 5 18 5 19 5 20 12 22 80 46 48 57
REMARK Flexibility Score: inf
ROOT
ATOM      1  C   UNL A   1      33.239  28.559  23.583  1.00  0.00     0.202 C 
ENDROOT
BRANCH   1   2
ATOM      2  C   UNL A   1      33.343  27.647  22.357  1.00  0.00     0.261 C 
BRANCH   2   3
ATOM      3  O   UNL A   1      33.339  26.262  22.717  1.00  0.00    -0.461 OA
BRANCH   3   4
ATOM      4  C   UNL A   1      32.140  25.637  22.554  1.00  0.00     0.339 C 
ATOM      5  O   UNL A   1      31.105  26.198  22.214  1.00  0.00    -0.249 OA
BRANCH   4   6
ATOM      6  C   UNL A   1      32.252  24.121  22.828  1.00  0.00     0.176 C 
ATOM      7  C   UNL A   1      30.906  23.630  23.367  1.00  0.00     0.057 C 
BRANCH   6   8
ATOM      8  C   UNL A   1      33.430  23.896  23.798  1.00  0.00     0.163 C 
BRANCH   8   9
ATOM      9  N   UNL A   1      34.692  23.538  23.171  1.00  0.00    -0.347 N 
ATOM     10  C   UNL A   1      35.943  23.315  23.658  1.00  0.00     0.281 C 
ATOM     11  O   UNL A   1      36.823  23.106  22.816  1.00  0.00    -0.268 OA
ATOM     12  H   UNL A   1      34.630  23.438  22.194  1.00  0.00     0.163 HD
BRANCH  10  13
ATOM     13  C   UNL A   1      36.240  23.267  25.188  1.00  0.00     0.170 C 
ATOM     14  C   UNL A   1      35.529  24.467  25.846  1.00  0.00     0.090 C 
BRANCH  13  15
ATOM     15  C   UNL A   1      37.768  23.376  25.425  1.00  0.00     0.075 C 
ATOM     16  C   UNL A   1      38.181  24.260  26.597  1.00  0.00     0.011 C 
ENDBRANCH  13  15
BRANCH  13  17
ATOM     17  N   UNL A   1      35.643  22.044  25.772  1.00  0.00    -0.345 N 
ATOM     18  H   UNL A   1      35.402  22.215  26.748  1.00  0.00     0.345 HD
ATOM     19  H   UNL A   1      36.314  21.278  25.717  1.00  0.00     0.345 HD
ATOM     20  H   UNL A   1      34.800  21.796  25.253  1.00  0.00     0.345 HD
ENDBRANCH  13  17
ENDBRANCH  10  13
ENDBRANCH   8   9
ENDBRANCH   6   8
BRANCH   6  21
ATOM     21  O   UNL A   1      32.484  23.354  21.633  1.00  0.00    -0.377 OA
ATOM     22  H   UNL A   1      32.862  23.928  20.949  1.00  0.00     0.212 HD
ENDBRANCH   6  21
ENDBRANCH   4   6
ENDBRANCH   3   4
ENDBRANCH   2   3
ENDBRANCH   1   2
BRANCH   1  23
ATOM     23  O   UNL A   1      31.951  29.045  23.958  1.00  0.00    -0.374 OA
BRANCH  23  24
ATOM     24  C   UNL A   1      31.824  29.737  25.200  1.00  0.00     0.202 C 
BRANCH  24  25
ATOM     25  C   UNL A   1      33.068  29.918  26.076  1.00  0.00     0.261 C 
BRANCH  25  26
ATOM     26  O   UNL A   1      32.789  30.604  27.306  1.00  0.00    -0.460 OA
BRANCH  26  27
ATOM     27  C   UNL A   1      33.525  31.718  27.518  1.00  0.00     0.338 C 
ATOM     28  O   UNL A   1      33.122  32.874  27.568  1.00  0.00    -0.246 OA
BRANCH  27  29
ATOM     29  C   UNL A   1      34.897  31.338  27.887  1.00  0.00     0.060 A 
ATOM     30  C   UNL A   1      35.149  29.992  28.194  1.00  0.00     0.016 A 
ATOM     31  C   UNL A   1      35.903  32.298  28.001  1.00  0.00     0.016 A 
ATOM     32  C   UNL A   1      36.401  29.607  28.664  1.00  0.00     0.010 A 
ATOM     33  C   UNL A   1      37.152  31.912  28.487  1.00  0.00     0.010 A 
ATOM     34  C   UNL A   1      37.394  30.575  28.854  1.00  0.00    -0.014 A 
BRANCH  34  35
ATOM     35  C   UNL A   1      38.630  30.244  29.595  1.00  0.00     0.031 A 
ATOM     36  C   UNL A   1      39.552  29.209  29.017  1.00  0.00     0.074 A 
ATOM     37  C   UNL A   1      38.896  30.816  30.782  1.00  0.00     0.049 A 
ATOM     38  N   UNL A   1      40.600  28.642  29.552  1.00  0.00    -0.248 NA
ATOM     39  C   UNL A   1      39.241  28.740  27.655  1.00  0.00     0.031 C 
ATOM     40  C   UNL A   1      38.084  31.848  31.423  1.00  0.00     0.029 A 
ATOM     41  N   UNL A   1      39.905  30.571  31.679  1.00  0.00    -0.354 N 
ATOM     42  C   UNL A   1      41.047  27.718  28.615  1.00  0.00     0.074 A 
ATOM     43  C   UNL A   1      40.158  27.801  27.477  1.00  0.00     0.031 C 
ATOM     44  C   UNL A   1      38.600  32.116  32.635  1.00  0.00     0.029 A 
ATOM     45  C   UNL A   1      39.752  31.246  32.867  1.00  0.00     0.049 A 
ATOM     46  H   UNL A   1      40.663  29.972  31.490  1.00  0.00     0.167 HD
ATOM     47  C   UNL A   1      42.106  26.881  28.696  1.00  0.00     0.034 A 
ATOM     48  C   UNL A   1      40.437  31.139  34.021  1.00  0.00     0.034 A 
ATOM     49  C   UNL A   1      42.994  26.823  29.825  1.00  0.00     0.049 A 
ATOM     50  C   UNL A   1      41.593  30.173  34.101  1.00  0.00     0.074 A 
ATOM     51  C   UNL A   1      44.125  26.045  29.989  1.00  0.00     0.029 A 
ATOM     52  N   UNL A   1      42.842  27.564  30.987  1.00  0.00    -0.354 N 
ATOM     53  N   UNL A   1      42.066  29.375  33.174  1.00  0.00    -0.248 NA
ATOM     54  C   UNL A   1      42.324  30.111  35.375  1.00  0.00     0.031 C 
ATOM     55  C   UNL A   1      44.639  26.290  31.265  1.00  0.00     0.029 A 
ATOM     56  C   UNL A   1      43.851  27.251  31.879  1.00  0.00     0.049 A 
ATOM     57  H   UNL A   1      42.124  28.215  31.151  1.00  0.00     0.167 HD
ATOM     58  C   UNL A   1      43.175  28.751  33.736  1.00  0.00     0.074 A 
ATOM     59  C   UNL A   1      43.306  29.268  35.083  1.00  0.00     0.031 C 
ATOM     60  C   UNL A   1      44.004  27.826  33.192  1.00  0.00     0.034 A 
BRANCH  47  61
ATOM     61  C   UNL A   1      42.370  25.966  27.531  1.00  0.00     0.023 A 
ATOM     62  C   UNL A   1      43.026  26.461  26.385  1.00  0.00     0.012 A 
ATOM     63  C   UNL A   1      42.018  24.604  27.592  1.00  0.00     0.148 A 
ATOM     64  C   UNL A   1      43.299  25.620  25.307  1.00  0.00     0.002 A 
ATOM     65  C   UNL A   1      42.335  23.762  26.534  1.00  0.00     0.091 A 
ATOM     66  F   UNL A   1      41.373  24.159  28.680  1.00  0.00    -0.205 F 
ATOM     67  C   UNL A   1      42.965  24.271  25.385  1.00  0.00     0.022 A 
BRANCH  65  68
ATOM     68  S   UNL A   1      42.016  21.996  26.572  1.00  0.00     0.127 S 
ATOM     69  O   UNL A   1      42.586  21.564  25.297  1.00  0.00    -0.237 OA
ATOM     70  O   UNL A   1      42.771  21.573  27.752  1.00  0.00    -0.237 OA
ATOM     71  O   UNL A   1      40.572  21.850  26.691  1.00  0.00    -0.744 OA
ENDBRANCH  65  68
ENDBRANCH  47  61
BRANCH  48  72
ATOM     72  C   UNL A   1      40.059  31.978  35.193  1.00  0.00     0.023 A 
ATOM     73  C   UNL A   1      40.613  33.265  35.332  1.00  0.00     0.012 A 
ATOM     74  C   UNL A   1      39.142  31.517  36.159  1.00  0.00     0.148 A 
ATOM     75  C   UNL A   1      40.285  34.066  36.425  1.00  0.00     0.002 A 
ATOM     76  C   UNL A   1      38.776  32.342  37.215  1.00  0.00     0.091 A 
ATOM     77  F   UNL A   1      38.637  30.284  36.018  1.00  0.00    -0.205 F 
ATOM     78  C   UNL A   1      39.361  33.610  37.361  1.00  0.00     0.022 A 
BRANCH  76  79
ATOM     79  S   UNL A   1      37.501  31.888  38.397  1.00  0.00     0.127 S 
ATOM     80  O   UNL A   1      36.464  32.877  38.113  1.00  0.00    -0.237 OA
ATOM     81  O   UNL A   1      37.181  30.521  37.984  1.00  0.00    -0.237 OA
ATOM     82  O   UNL A   1      38.127  31.986  39.709  1.00  0.00    -0.744 OA
ENDBRANCH  76  79
ENDBRANCH  48  72
BRANCH  60  83
ATOM     83  C   UNL A   1      45.172  27.348  34.014  1.00  0.00     0.023 A 
ATOM     84  C   UNL A   1      46.380  28.071  34.007  1.00  0.00     0.012 A 
ATOM     85  C   UNL A   1      45.024  26.248  34.881  1.00  0.00     0.148 A 
ATOM     86  C   UNL A   1      47.433  27.692  34.840  1.00  0.00     0.002 A 
ATOM     87  C   UNL A   1      46.057  25.908  35.745  1.00  0.00     0.091 A 
ATOM     88  F   UNL A   1      43.869  25.568  34.859  1.00  0.00    -0.205 F 
ATOM     89  C   UNL A   1      47.266  26.622  35.719  1.00  0.00     0.022 A 
BRANCH  87  90
ATOM     90  S   UNL A   1      45.898  24.615  36.981  1.00  0.00     0.127 S 
ATOM     91  O   UNL A   1      44.896  25.186  37.881  1.00  0.00    -0.237 OA
ATOM     92  O   UNL A   1      45.427  23.483  36.184  1.00  0.00    -0.237 OA
ATOM     93  O   UNL A   1      47.223  24.441  37.559  1.00  0.00    -0.744 OA
ENDBRANCH  87  90
ENDBRANCH  60  83
ENDBRANCH  34  35
ENDBRANCH  27  29
ENDBRANCH  26  27
ENDBRANCH  25  26
ENDBRANCH  24  25
ENDBRANCH  23  24
ENDBRANCH   1  23
TORSDOF 23
ENDMDL
MODEL 3
REMARK VINA RESULT:      -9.6      4.763      7.540
REMARK SMILES CC[C@](C)([NH3+])C(=O)NC[C@](C)(O)C(=O)OCCOCCOC(=O)c1ccc(-c2c3nc(c(-c4cccc(S(=O)(=O)[O-])c4F)c4ccc([nH]4)c(-c4cccc(S(=O)(=O)[O-])c4F)c4nc(c(-c5cccc(S(=O)(=O)[O-])c5F)c5ccc2[nH]5)C=C4)C=C3)cc1
REMARK SMILES IDX 17 1 16 2 15 3 13 4 14 5 10 6 11 7 9 8 8 9 6 10 7 11 3 13
REMARK SMILES IDX 4 14 2 15 1 16 5 17 12 21 18 23 19 24 20 25 21 26 22 27
REMARK SMILES IDX 23 28 24 29 25 30 86 31 26 32 85 33 27 34 28 35 29 36 79 37
REMARK SMILES IDX 30 38 84 39 78 40 80 41 31 42 83 43 77 44 76 45 32 47 64 48
REMARK SMILES IDX 44 49 63 50 45 51 48 52 62 53 81 54 46 55 47 56 61 58 82 59
REMARK SMILES IDX 49 60 33 61 34 62 42 63 35 64 37 65 43 66 36 67 38 68 39 69
REMARK SMILES IDX 40 70 41 71 65 72 66 73 74 74 67 75 69 76 75 77 68 78 70 79
REMARK SMILES IDX 71 80 72 81 73 82 50 83 51 84 59 85 52 86 54 87 60 88 53 89
REMARK SMILES IDX 55 90 56 91 57 92 58 93
REMARK H PARENT 8 12 5 18 5 19 5 20 12 22 80 46 48 57
REMARK Flexibility Score: inf
ROOT
ATOM      1  C   UNL A   1      34.525  21.836  25.409  1.00  0.00     0.202 C 
ENDROOT
BRANCH   1   2
ATOM      2  C   UNL A   1      33.171  21.273  25.850  1.00  0.00     0.261 C 
BRANCH   2   3
ATOM      3  O   UNL A   1      32.186  21.372  24.816  1.00  0.00    -0.461 OA
BRANCH   3   4
ATOM      4  C   UNL A   1      31.431  22.505  24.858  1.00  0.00     0.339 C 
ATOM      5  O   UNL A   1      30.756  22.854  25.820  1.00  0.00    -0.249 OA
BRANCH   4   6
ATOM      6  C   UNL A   1      31.553  23.313  23.548  1.00  0.00     0.176 C 
ATOM      7  C   UNL A   1      32.168  22.404  22.481  1.00  0.00     0.057 C 
BRANCH   6   8
ATOM      8  C   UNL A   1      32.383  24.579  23.841  1.00  0.00     0.163 C 
BRANCH   8   9
ATOM      9  N   UNL A   1      31.641  25.829  23.811  1.00  0.00    -0.347 N 
ATOM     10  C   UNL A   1      31.352  26.762  24.758  1.00  0.00     0.281 C 
ATOM     11  O   UNL A   1      30.611  27.685  24.401  1.00  0.00    -0.268 OA
ATOM     12  H   UNL A   1      31.272  26.044  22.924  1.00  0.00     0.163 HD
BRANCH  10  13
ATOM     13  C   UNL A   1      31.963  26.706  26.191  1.00  0.00     0.170 C 
ATOM     14  C   UNL A   1      31.395  27.893  26.996  1.00  0.00     0.090 C 
BRANCH  13  15
ATOM     15  C   UNL A   1      33.506  26.829  26.104  1.00  0.00     0.075 C 
ATOM     16  C   UNL A   1      34.017  27.986  25.253  1.00  0.00     0.011 C 
ENDBRANCH  13  15
BRANCH  13  17
ATOM     17  N   UNL A   1      31.512  25.472  26.876  1.00  0.00    -0.345 N 
ATOM     18  H   UNL A   1      32.251  25.134  27.491  1.00  0.00     0.345 HD
ATOM     19  H   UNL A   1      31.295  24.757  26.180  1.00  0.00     0.345 HD
ATOM     20  H   UNL A   1      30.677  25.675  27.426  1.00  0.00     0.345 HD
ENDBRANCH  13  17
ENDBRANCH  10  13
ENDBRANCH   8   9
ENDBRANCH   6   8
BRANCH   6  21
ATOM     21  O   UNL A   1      30.276  23.709  23.016  1.00  0.00    -0.377 OA
ATOM     22  H   UNL A   1      30.256  24.673  22.908  1.00  0.00     0.212 HD
ENDBRANCH   6  21
ENDBRANCH   4   6
ENDBRANCH   3   4
ENDBRANCH   2   3
ENDBRANCH   1   2
BRANCH   1  23
ATOM     23  O   UNL A   1      35.710  21.184  25.865  1.00  0.00    -0.374 OA
BRANCH  23  24
ATOM     24  C   UNL A   1      36.362  20.271  24.982  1.00  0.00     0.202 C 
BRANCH  24  25
ATOM     25  C   UNL A   1      37.881  20.101  25.086  1.00  0.00     0.261 C 
BRANCH  25  26
ATOM     26  O   UNL A   1      38.567  21.341  25.319  1.00  0.00    -0.460 OA
BRANCH  26  27
ATOM     27  C   UNL A   1      39.631  21.258  26.149  1.00  0.00     0.338 C 
ATOM     28  O   UNL A   1      40.372  20.294  26.310  1.00  0.00    -0.246 OA
BRANCH  27  29
ATOM     29  C   UNL A   1      39.918  22.584  26.714  1.00  0.00     0.060 A 
ATOM     30  C   UNL A   1      39.170  23.676  26.250  1.00  0.00     0.016 A 
ATOM     31  C   UNL A   1      40.954  22.765  27.632  1.00  0.00     0.016 A 
ATOM     32  C   UNL A   1      39.486  24.966  26.666  1.00  0.00     0.010 A 
ATOM     33  C   UNL A   1      41.279  24.060  28.036  1.00  0.00     0.010 A 
ATOM     34  C   UNL A   1      40.571  25.166  27.527  1.00  0.00    -0.014 A 
BRANCH  34  35
ATOM     35  C   UNL A   1      41.092  26.528  27.771  1.00  0.00     0.031 A 
ATOM     36  C   UNL A   1      42.519  26.822  27.407  1.00  0.00     0.074 A 
ATOM     37  C   UNL A   1      40.323  27.465  28.353  1.00  0.00     0.049 A 
ATOM     38  N   UNL A   1      43.240  27.879  27.669  1.00  0.00    -0.248 NA
ATOM     39  C   UNL A   1      43.234  25.775  26.656  1.00  0.00     0.031 C 
ATOM     40  C   UNL A   1      38.920  27.295  28.725  1.00  0.00     0.029 A 
ATOM     41  N   UNL A   1      40.636  28.733  28.775  1.00  0.00    -0.354 N 
ATOM     42  C   UNL A   1      44.503  27.609  27.158  1.00  0.00     0.074 A 
ATOM     43  C   UNL A   1      44.452  26.289  26.570  1.00  0.00     0.031 C 
ATOM     44  C   UNL A   1      38.503  28.401  29.364  1.00  0.00     0.029 A 
ATOM     45  C   UNL A   1      39.621  29.337  29.479  1.00  0.00     0.049 A 
ATOM     46  H   UNL A   1      41.500  29.166  28.590  1.00  0.00     0.167 HD
ATOM     47  C   UNL A   1      45.605  28.394  27.175  1.00  0.00     0.034 A 
ATOM     48  C   UNL A   1      39.614  30.491  30.174  1.00  0.00     0.034 A 
ATOM     49  C   UNL A   1      45.637  29.712  27.746  1.00  0.00     0.049 A 
ATOM     50  C   UNL A   1      40.864  31.333  30.209  1.00  0.00     0.074 A 
ATOM     51  C   UNL A   1      46.687  30.611  27.775  1.00  0.00     0.029 A 
ATOM     52  N   UNL A   1      44.573  30.315  28.400  1.00  0.00    -0.354 N 
ATOM     53  N   UNL A   1      42.024  31.111  29.640  1.00  0.00    -0.248 NA
ATOM     54  C   UNL A   1      40.797  32.596  30.960  1.00  0.00     0.031 C 
ATOM     55  C   UNL A   1      46.270  31.746  28.475  1.00  0.00     0.029 A 
ATOM     56  C   UNL A   1      44.946  31.569  28.848  1.00  0.00     0.049 A 
ATOM     57  H   UNL A   1      43.685  29.912  28.526  1.00  0.00     0.167 HD
ATOM     58  C   UNL A   1      42.810  32.224  29.925  1.00  0.00     0.074 A 
ATOM     59  C   UNL A   1      41.990  33.121  30.713  1.00  0.00     0.031 C 
ATOM     60  C   UNL A   1      44.095  32.477  29.575  1.00  0.00     0.034 A 
BRANCH  47  61
ATOM     61  C   UNL A   1      46.863  27.854  26.552  1.00  0.00     0.023 A 
ATOM     62  C   UNL A   1      47.796  27.157  27.347  1.00  0.00     0.012 A 
ATOM     63  C   UNL A   1      47.096  27.989  25.170  1.00  0.00     0.148 A 
ATOM     64  C   UNL A   1      48.956  26.630  26.780  1.00  0.00     0.002 A 
ATOM     65  C   UNL A   1      48.230  27.420  24.604  1.00  0.00     0.091 A 
ATOM     66  F   UNL A   1      46.209  28.676  24.436  1.00  0.00    -0.205 F 
ATOM     67  C   UNL A   1      49.167  26.751  25.409  1.00  0.00     0.022 A 
BRANCH  65  68
ATOM     68  S   UNL A   1      48.553  27.456  22.838  1.00  0.00     0.127 S 
ATOM     69  O   UNL A   1      47.392  28.190  22.339  1.00  0.00    -0.237 OA
ATOM     70  O   UNL A   1      49.816  28.192  22.771  1.00  0.00    -0.237 OA
ATOM     71  O   UNL A   1      48.638  26.065  22.416  1.00  0.00    -0.744 OA
ENDBRANCH  65  68
ENDBRANCH  47  61
BRANCH  48  72
ATOM     72  C   UNL A   1      38.377  30.926  30.882  1.00  0.00     0.023 A 
ATOM     73  C   UNL A   1      38.244  30.677  32.262  1.00  0.00     0.012 A 
ATOM     74  C   UNL A   1      37.342  31.598  30.202  1.00  0.00     0.148 A 
ATOM     75  C   UNL A   1      37.092  31.063  32.946  1.00  0.00     0.002 A 
ATOM     76  C   UNL A   1      36.222  32.030  30.901  1.00  0.00     0.091 A 
ATOM     77  F   UNL A   1      37.480  31.812  28.886  1.00  0.00    -0.205 F 
ATOM     78  C   UNL A   1      36.086  31.747  32.269  1.00  0.00     0.022 A 
BRANCH  76  79
ATOM     79  S   UNL A   1      34.935  33.027  30.140  1.00  0.00     0.127 S 
ATOM     80  O   UNL A   1      34.033  33.262  31.265  1.00  0.00    -0.237 OA
ATOM     81  O   UNL A   1      35.687  34.202  29.697  1.00  0.00    -0.237 OA
ATOM     82  O   UNL A   1      34.397  32.216  29.056  1.00  0.00    -0.744 OA
ENDBRANCH  76  79
ENDBRANCH  48  72
BRANCH  60  83
ATOM     83  C   UNL A   1      44.693  33.799  29.977  1.00  0.00     0.023 A 
ATOM     84  C   UNL A   1      44.558  34.919  29.135  1.00  0.00     0.012 A 
ATOM     85  C   UNL A   1      45.287  33.951  31.246  1.00  0.00     0.148 A 
ATOM     86  C   UNL A   1      45.022  36.170  29.544  1.00  0.00     0.002 A 
ATOM     87  C   UNL A   1      45.699  35.208  31.668  1.00  0.00     0.091 A 
ATOM     88  F   UNL A   1      45.417  32.866  32.023  1.00  0.00    -0.205 F 
ATOM     89  C   UNL A   1      45.578  36.317  30.814  1.00  0.00     0.022 A 
BRANCH  87  90
ATOM     90  S   UNL A   1      46.330  35.514  33.321  1.00  0.00     0.127 S 
ATOM     91  O   UNL A   1      47.503  34.640  33.359  1.00  0.00    -0.237 OA
ATOM     92  O   UNL A   1      46.638  36.943  33.274  1.00  0.00    -0.237 OA
ATOM     93  O   UNL A   1      45.258  35.153  34.238  1.00  0.00    -0.744 OA
ENDBRANCH  87  90
ENDBRANCH  60  83
ENDBRANCH  34  35
ENDBRANCH  27  29
ENDBRANCH  26  27
ENDBRANCH  25  26
ENDBRANCH  24  25
ENDBRANCH  23  24
ENDBRANCH   1  23
TORSDOF 23
ENDMDL
