MODEL 1
REMARK VINA RESULT:     -11.7      0.000      0.000
REMARK SMILES COc1nc2c(cc1C(=O)NCc1ccc(C(=O)OCCOCCOC(=O)c3ccc(-c4c5nc(c(-c6cccc(S(=O)(=O)[O-])c6F)c6ccc([nH]6)c(-c6cccc(S(=O)(=O)[O-])c6F)c6nc(c(-c7cccc(S(=O)(=O)[O-])c7F)c7ccc4[nH]7)C=C6)C=C5)cc3)s1)CCC2
REMARK SMILES IDX 21 1 20 2 19 3 17 4 18 5 16 6 13 7 14 8 91 9 15 10 12 11
REMARK SMILES IDX 11 12 9 13 10 14 8 16 3 17 4 18 5 19 7 20 6 21 94 22 92 23
REMARK SMILES IDX 93 24 2 25 1 26 22 27 23 28 24 29 25 30 26 31 27 32 28 33
REMARK SMILES IDX 29 34 90 35 30 36 89 37 31 38 32 39 33 40 83 41 34 42 88 43
REMARK SMILES IDX 82 44 84 45 35 46 87 47 81 48 80 49 36 51 68 52 48 53 67 54
REMARK SMILES IDX 49 55 52 56 66 57 85 58 50 59 51 60 65 62 86 63 53 64 37 65
REMARK SMILES IDX 38 66 46 67 39 68 41 69 47 70 40 71 42 72 43 73 44 74 45 75
REMARK SMILES IDX 69 76 70 77 78 78 71 79 73 80 79 81 72 82 74 83 75 84 76 85
REMARK SMILES IDX 77 86 54 87 55 88 63 89 56 90 58 91 64 92 57 93 59 94 60 95
REMARK SMILES IDX 61 96 62 97
REMARK H PARENT 11 15 84 50 52 61
REMARK Flexibility Score: inf
ROOT
ATOM      1  C   UNL A   1      33.294  30.100  26.153  1.00  0.00     0.202 C 
ENDROOT
BRANCH   1   2
ATOM      2  C   UNL A   1      33.184  28.866  25.254  1.00  0.00     0.261 C 
BRANCH   2   3
ATOM      3  O   UNL A   1      32.725  29.267  23.956  1.00  0.00    -0.459 OA
BRANCH   3   4
ATOM      4  C   UNL A   1      31.499  28.793  23.603  1.00  0.00     0.348 C 
ATOM      5  O   UNL A   1      30.497  29.488  23.463  1.00  0.00    -0.245 OA
BRANCH   4   6
ATOM      6  C   UNL A   1      31.611  27.388  23.274  1.00  0.00     0.112 A 
ATOM      7  C   UNL A   1      31.111  24.977  23.112  1.00  0.00     0.025 A 
ATOM      8  C   UNL A   1      32.232  25.318  22.385  1.00  0.00     0.018 A 
ATOM      9  S   UNL A   1      30.380  26.344  23.831  1.00  0.00    -0.131 S 
ATOM     10  C   UNL A   1      32.526  26.713  22.486  1.00  0.00     0.028 A 
BRANCH   7  11
ATOM     11  C   UNL A   1      30.620  23.638  23.521  1.00  0.00     0.163 C 
BRANCH  11  12
ATOM     12  N   UNL A   1      30.585  23.425  24.942  1.00  0.00    -0.347 N 
ATOM     13  C   UNL A   1      31.616  23.189  25.820  1.00  0.00     0.257 C 
ATOM     14  O   UNL A   1      31.422  23.488  27.002  1.00  0.00    -0.269 OA
ATOM     15  H   UNL A   1      29.688  23.451  25.349  1.00  0.00     0.164 HD
BRANCH  13  16
ATOM     16  C   UNL A   1      32.882  22.481  25.481  1.00  0.00     0.102 A 
ATOM     17  C   UNL A   1      33.099  21.113  25.263  1.00  0.00     0.226 A 
ATOM     18  N   UNL A   1      34.323  20.548  25.083  1.00  0.00    -0.218 NA
ATOM     19  C   UNL A   1      35.359  21.396  25.048  1.00  0.00     0.048 A 
ATOM     20  C   UNL A   1      34.000  23.330  25.332  1.00  0.00     0.025 A 
ATOM     21  C   UNL A   1      35.243  22.772  25.107  1.00  0.00    -0.025 A 
ATOM     22  C   UNL A   1      36.795  20.980  24.892  1.00  0.00     0.057 C 
ATOM     23  C   UNL A   1      36.554  23.435  24.861  1.00  0.00     0.038 C 
ATOM     24  C   UNL A   1      37.526  22.297  25.199  1.00  0.00     0.011 C 
BRANCH  17  25
ATOM     25  O   UNL A   1      32.100  20.186  25.222  1.00  0.00    -0.480 OA
ATOM     26  C   UNL A   1      32.473  19.038  24.478  1.00  0.00     0.280 C 
ENDBRANCH  17  25
ENDBRANCH  13  16
ENDBRANCH  11  12
ENDBRANCH   7  11
ENDBRANCH   4   6
ENDBRANCH   3   4
ENDBRANCH   2   3
ENDBRANCH   1   2
BRANCH   1  27
ATOM     27  O   UNL A   1      32.082  30.464  26.818  1.00  0.00    -0.374 OA
BRANCH  27  28
ATOM     28  C   UNL A   1      31.373  31.590  26.290  1.00  0.00     0.202 C 
BRANCH  28  29
ATOM     29  C   UNL A   1      31.833  32.961  26.796  1.00  0.00     0.261 C 
BRANCH  29  30
ATOM     30  O   UNL A   1      32.673  32.819  27.957  1.00  0.00    -0.460 OA
BRANCH  30  31
ATOM     31  C   UNL A   1      33.713  33.683  28.026  1.00  0.00     0.338 C 
ATOM     32  O   UNL A   1      33.662  34.900  28.036  1.00  0.00    -0.246 OA
BRANCH  31  33
ATOM     33  C   UNL A   1      34.950  32.932  28.307  1.00  0.00     0.060 A 
ATOM     34  C   UNL A   1      34.812  31.627  28.796  1.00  0.00     0.016 A 
ATOM     35  C   UNL A   1      36.212  33.511  28.164  1.00  0.00     0.016 A 
ATOM     36  C   UNL A   1      35.938  30.908  29.187  1.00  0.00     0.010 A 
ATOM     37  C   UNL A   1      37.340  32.796  28.580  1.00  0.00     0.010 A 
ATOM     38  C   UNL A   1      37.202  31.509  29.125  1.00  0.00    -0.014 A 
BRANCH  38  39
ATOM     39  C   UNL A   1      38.342  30.850  29.800  1.00  0.00     0.031 A 
ATOM     40  C   UNL A   1      38.636  31.210  31.230  1.00  0.00     0.074 A 
ATOM     41  C   UNL A   1      39.082  29.926  29.164  1.00  0.00     0.049 A 
ATOM     42  N   UNL A   1      39.559  30.736  32.025  1.00  0.00    -0.248 NA
ATOM     43  C   UNL A   1      37.771  32.230  31.848  1.00  0.00     0.031 C 
ATOM     44  C   UNL A   1      38.880  29.482  27.786  1.00  0.00     0.029 A 
ATOM     45  N   UNL A   1      40.162  29.200  29.599  1.00  0.00    -0.354 N 
ATOM     46  C   UNL A   1      39.392  31.402  33.232  1.00  0.00     0.074 A 
ATOM     47  C   UNL A   1      38.287  32.320  33.067  1.00  0.00     0.031 C 
ATOM     48  C   UNL A   1      39.820  28.571  27.480  1.00  0.00     0.029 A 
ATOM     49  C   UNL A   1      40.694  28.376  28.636  1.00  0.00     0.049 A 
ATOM     50  H   UNL A   1      40.522  29.264  30.513  1.00  0.00     0.167 HD
ATOM     51  C   UNL A   1      40.084  31.248  34.383  1.00  0.00     0.034 A 
ATOM     52  C   UNL A   1      41.766  27.561  28.685  1.00  0.00     0.034 A 
ATOM     53  C   UNL A   1      41.173  30.328  34.555  1.00  0.00     0.049 A 
ATOM     54  C   UNL A   1      42.550  27.441  29.964  1.00  0.00     0.074 A 
ATOM     55  C   UNL A   1      41.915  30.083  35.696  1.00  0.00     0.029 A 
ATOM     56  N   UNL A   1      41.679  29.511  33.559  1.00  0.00    -0.354 N 
ATOM     57  N   UNL A   1      42.319  28.005  31.125  1.00  0.00    -0.248 NA
ATOM     58  C   UNL A   1      43.726  26.558  29.949  1.00  0.00     0.031 C 
ATOM     59  C   UNL A   1      42.879  29.118  35.386  1.00  0.00     0.029 A 
ATOM     60  C   UNL A   1      42.731  28.763  34.055  1.00  0.00     0.049 A 
ATOM     61  H   UNL A   1      41.340  29.468  32.635  1.00  0.00     0.167 HD
ATOM     62  C   UNL A   1      43.304  27.529  31.983  1.00  0.00     0.074 A 
ATOM     63  C   UNL A   1      44.129  26.622  31.212  1.00  0.00     0.031 C 
ATOM     64  C   UNL A   1      43.512  27.828  33.288  1.00  0.00     0.034 A 
BRANCH  51  65
ATOM     65  C   UNL A   1      39.656  32.060  35.571  1.00  0.00     0.023 A 
ATOM     66  C   UNL A   1      40.086  33.398  35.673  1.00  0.00     0.012 A 
ATOM     67  C   UNL A   1      38.774  31.534  36.532  1.00  0.00     0.148 A 
ATOM     68  C   UNL A   1      39.649  34.201  36.724  1.00  0.00     0.002 A 
ATOM     69  C   UNL A   1      38.323  32.349  37.564  1.00  0.00     0.091 A 
ATOM     70  F   UNL A   1      38.397  30.252  36.419  1.00  0.00    -0.205 F 
ATOM     71  C   UNL A   1      38.761  33.681  37.662  1.00  0.00     0.022 A 
BRANCH  69  72
ATOM     72  S   UNL A   1      37.146  31.791  38.800  1.00  0.00     0.127 S 
ATOM     73  O   UNL A   1      36.869  30.428  38.349  1.00  0.00    -0.237 OA
ATOM     74  O   UNL A   1      37.931  31.879  40.031  1.00  0.00    -0.237 OA
ATOM     75  O   UNL A   1      36.017  32.709  38.726  1.00  0.00    -0.744 OA
ENDBRANCH  69  72
ENDBRANCH  51  65
BRANCH  52  76
ATOM     76  C   UNL A   1      42.127  26.756  27.487  1.00  0.00     0.023 A 
ATOM     77  C   UNL A   1      42.772  27.383  26.405  1.00  0.00     0.012 A 
ATOM     78  C   UNL A   1      41.885  25.370  27.439  1.00  0.00     0.148 A 
ATOM     79  C   UNL A   1      43.166  26.644  25.289  1.00  0.00     0.002 A 
ATOM     80  C   UNL A   1      42.312  24.632  26.342  1.00  0.00     0.091 A 
ATOM     81  F   UNL A   1      41.261  24.800  28.480  1.00  0.00    -0.205 F 
ATOM     82  C   UNL A   1      42.945  25.269  25.262  1.00  0.00     0.022 A 
BRANCH  80  83
ATOM     83  S   UNL A   1      42.159  22.844  26.253  1.00  0.00     0.127 S 
ATOM     84  O   UNL A   1      40.718  22.660  26.405  1.00  0.00    -0.237 OA
ATOM     85  O   UNL A   1      42.679  22.567  24.915  1.00  0.00    -0.237 OA
ATOM     86  O   UNL A   1      42.974  22.321  27.341  1.00  0.00    -0.744 OA
ENDBRANCH  80  83
ENDBRANCH  52  76
BRANCH  64  87
ATOM     87  C   UNL A   1      44.670  27.179  33.992  1.00  0.00     0.023 A 
ATOM     88  C   UNL A   1      45.912  27.840  34.022  1.00  0.00     0.012 A 
ATOM     89  C   UNL A   1      44.488  26.000  34.742  1.00  0.00     0.148 A 
ATOM     90  C   UNL A   1      46.961  27.335  34.788  1.00  0.00     0.002 A 
ATOM     91  C   UNL A   1      45.528  25.520  35.529  1.00  0.00     0.091 A 
ATOM     92  F   UNL A   1      43.296  25.388  34.690  1.00  0.00    -0.205 F 
ATOM     93  C   UNL A   1      46.766  26.185  35.551  1.00  0.00     0.022 A 
BRANCH  91  94
ATOM     94  S   UNL A   1      45.351  24.093  36.605  1.00  0.00     0.127 S 
ATOM     95  O   UNL A   1      44.867  23.076  35.674  1.00  0.00    -0.237 OA
ATOM     96  O   UNL A   1      46.722  23.889  37.075  1.00  0.00    -0.237 OA
ATOM     97  O   UNL A   1      44.406  24.484  37.642  1.00  0.00    -0.744 OA
ENDBRANCH  91  94
ENDBRANCH  64  87
ENDBRANCH  38  39
ENDBRANCH  31  33
ENDBRANCH  30  31
ENDBRANCH  29  30
ENDBRANCH  28  29
ENDBRANCH  27  28
ENDBRANCH   1  27
TORSDOF 21
ENDMDL
MODEL 2
REMARK VINA RESULT:     -10.9      5.579     11.198
REMARK SMILES COc1nc2c(cc1C(=O)NCc1ccc(C(=O)OCCOCCOC(=O)c3ccc(-c4c5nc(c(-c6cccc(S(=O)(=O)[O-])c6F)c6ccc([nH]6)c(-c6cccc(S(=O)(=O)[O-])c6F)c6nc(c(-c7cccc(S(=O)(=O)[O-])c7F)c7ccc4[nH]7)C=C6)C=C5)cc3)s1)CCC2
REMARK SMILES IDX 21 1 20 2 19 3 17 4 18 5 16 6 13 7 14 8 91 9 15 10 12 11
REMARK SMILES IDX 11 12 9 13 10 14 8 16 3 17 4 18 5 19 7 20 6 21 94 22 92 23
REMARK SMILES IDX 93 24 2 25 1 26 22 27 23 28 24 29 25 30 26 31 27 32 28 33
REMARK SMILES IDX 29 34 90 35 30 36 89 37 31 38 32 39 33 40 83 41 34 42 88 43
REMARK SMILES IDX 82 44 84 45 35 46 87 47 81 48 80 49 36 51 68 52 48 53 67 54
REMARK SMILES IDX 49 55 52 56 66 57 85 58 50 59 51 60 65 62 86 63 53 64 37 65
REMARK SMILES IDX 38 66 46 67 39 68 41 69 47 70 40 71 42 72 43 73 44 74 45 75
REMARK SMILES IDX 69 76 70 77 78 78 71 79 73 80 79 81 72 82 74 83 75 84 76 85
REMARK SMILES IDX 77 86 54 87 55 88 63 89 56 90 58 91 64 92 57 93 59 94 60 95
REMARK SMILES IDX 61 96 62 97
REMARK H PARENT 11 15 84 50 52 61
REMARK Flexibility Score: inf
ROOT
ATOM      1  C   UNL A   1      37.510  21.496  24.798  1.00  0.00     0.202 C 
ENDROOT
BRANCH   1   2
ATOM      2  C   UNL A   1      36.248  20.653  25.001  1.00  0.00     0.261 C 
BRANCH   2   3
ATOM      3  O   UNL A   1      35.097  21.509  24.955  1.00  0.00    -0.459 OA
BRANCH   3   4
ATOM      4  C   UNL A   1      33.899  20.866  24.912  1.00  0.00     0.348 C 
ATOM      5  O   UNL A   1      33.747  19.661  25.084  1.00  0.00    -0.245 OA
BRANCH   4   6
ATOM      6  C   UNL A   1      32.840  21.846  24.790  1.00  0.00     0.112 A 
ATOM      7  C   UNL A   1      31.239  23.450  23.813  1.00  0.00     0.025 A 
ATOM      8  C   UNL A   1      31.029  23.275  25.164  1.00  0.00     0.018 A 
ATOM      9  S   UNL A   1      32.491  22.444  23.229  1.00  0.00    -0.131 S 
ATOM     10  C   UNL A   1      31.962  22.352  25.732  1.00  0.00     0.028 A 
BRANCH   7  11
ATOM     11  C   UNL A   1      30.716  24.497  22.902  1.00  0.00     0.163 C 
BRANCH  11  12
ATOM     12  N   UNL A   1      31.709  25.096  22.051  1.00  0.00    -0.347 N 
ATOM     13  C   UNL A   1      32.644  26.062  22.339  1.00  0.00     0.257 C 
ATOM     14  O   UNL A   1      33.653  26.092  21.628  1.00  0.00    -0.269 OA
ATOM     15  H   UNL A   1      31.720  24.767  21.123  1.00  0.00     0.164 HD
BRANCH  13  16
ATOM     16  C   UNL A   1      32.470  27.149  23.343  1.00  0.00     0.102 A 
ATOM     17  C   UNL A   1      31.522  28.182  23.371  1.00  0.00     0.226 A 
ATOM     18  N   UNL A   1      31.526  29.205  24.269  1.00  0.00    -0.218 NA
ATOM     19  C   UNL A   1      32.472  29.148  25.215  1.00  0.00     0.048 A 
ATOM     20  C   UNL A   1      33.374  27.092  24.424  1.00  0.00     0.025 A 
ATOM     21  C   UNL A   1      33.362  28.102  25.366  1.00  0.00    -0.025 A 
ATOM     22  C   UNL A   1      32.673  30.188  26.281  1.00  0.00     0.057 C 
ATOM     23  C   UNL A   1      34.161  28.248  26.614  1.00  0.00     0.038 C 
ATOM     24  C   UNL A   1      34.024  29.754  26.875  1.00  0.00     0.011 C 
BRANCH  17  25
ATOM     25  O   UNL A   1      30.491  28.287  22.485  1.00  0.00    -0.480 OA
ATOM     26  C   UNL A   1      29.230  28.152  23.122  1.00  0.00     0.280 C 
ENDBRANCH  17  25
ENDBRANCH  13  16
ENDBRANCH  11  12
ENDBRANCH   7  11
ENDBRANCH   4   6
ENDBRANCH   3   4
ENDBRANCH   2   3
ENDBRANCH   1   2
BRANCH   1  27
ATOM     27  O   UNL A   1      38.177  21.873  26.005  1.00  0.00    -0.374 OA
BRANCH  27  28
ATOM     28  C   UNL A   1      39.553  21.498  26.123  1.00  0.00     0.202 C 
BRANCH  28  29
ATOM     29  C   UNL A   1      39.822  19.997  26.270  1.00  0.00     0.261 C 
BRANCH  29  30
ATOM     30  O   UNL A   1      40.866  19.578  25.370  1.00  0.00    -0.460 OA
BRANCH  30  31
ATOM     31  C   UNL A   1      42.064  19.333  25.950  1.00  0.00     0.338 C 
ATOM     32  O   UNL A   1      42.604  18.251  26.099  1.00  0.00    -0.246 OA
BRANCH  31  33
ATOM     33  C   UNL A   1      42.752  20.612  26.202  1.00  0.00     0.060 A 
ATOM     34  C   UNL A   1      42.871  21.026  27.534  1.00  0.00     0.016 A 
ATOM     35  C   UNL A   1      43.208  21.421  25.159  1.00  0.00     0.016 A 
ATOM     36  C   UNL A   1      43.408  22.275  27.829  1.00  0.00     0.010 A 
ATOM     37  C   UNL A   1      43.725  22.687  25.456  1.00  0.00     0.010 A 
ATOM     38  C   UNL A   1      43.793  23.130  26.788  1.00  0.00    -0.014 A 
BRANCH  38  39
ATOM     39  C   UNL A   1      44.092  24.546  27.096  1.00  0.00     0.031 A 
ATOM     40  C   UNL A   1      45.493  25.047  26.884  1.00  0.00     0.074 A 
ATOM     41  C   UNL A   1      43.128  25.378  27.526  1.00  0.00     0.049 A 
ATOM     42  N   UNL A   1      45.971  26.251  27.055  1.00  0.00    -0.248 NA
ATOM     43  C   UNL A   1      46.483  24.066  26.407  1.00  0.00     0.031 C 
ATOM     44  C   UNL A   1      41.731  25.011  27.751  1.00  0.00     0.029 A 
ATOM     45  N   UNL A   1      43.187  26.708  27.859  1.00  0.00    -0.354 N 
ATOM     46  C   UNL A   1      47.316  26.173  26.715  1.00  0.00     0.074 A 
ATOM     47  C   UNL A   1      47.583  24.803  26.335  1.00  0.00     0.031 C 
ATOM     48  C   UNL A   1      41.066  26.088  28.204  1.00  0.00     0.029 A 
ATOM     49  C   UNL A   1      41.992  27.215  28.310  1.00  0.00     0.049 A 
ATOM     50  H   UNL A   1      44.007  27.247  27.783  1.00  0.00     0.167 HD
ATOM     51  C   UNL A   1      48.241  27.158  26.700  1.00  0.00     0.034 A 
ATOM     52  C   UNL A   1      41.684  28.447  28.760  1.00  0.00     0.034 A 
ATOM     53  C   UNL A   1      47.976  28.522  27.062  1.00  0.00     0.049 A 
ATOM     54  C   UNL A   1      42.744  29.516  28.778  1.00  0.00     0.074 A 
ATOM     55  C   UNL A   1      48.847  29.596  27.049  1.00  0.00     0.029 A 
ATOM     56  N   UNL A   1      46.755  28.995  27.511  1.00  0.00    -0.354 N 
ATOM     57  N   UNL A   1      43.984  29.450  28.360  1.00  0.00    -0.248 NA
ATOM     58  C   UNL A   1      42.356  30.834  29.305  1.00  0.00     0.031 C 
ATOM     59  C   UNL A   1      48.150  30.723  27.498  1.00  0.00     0.029 A 
ATOM     60  C   UNL A   1      46.848  30.347  27.785  1.00  0.00     0.049 A 
ATOM     61  H   UNL A   1      45.941  28.450  27.617  1.00  0.00     0.167 HD
ATOM     62  C   UNL A   1      44.520  30.719  28.553  1.00  0.00     0.074 A 
ATOM     63  C   UNL A   1      43.466  31.539  29.115  1.00  0.00     0.031 C 
ATOM     64  C   UNL A   1      45.776  31.159  28.299  1.00  0.00     0.034 A 
BRANCH  51  65
ATOM     65  C   UNL A   1      49.624  26.812  26.229  1.00  0.00     0.023 A 
ATOM     66  C   UNL A   1      50.471  26.079  27.083  1.00  0.00     0.012 A 
ATOM     67  C   UNL A   1      50.053  27.137  24.929  1.00  0.00     0.148 A 
ATOM     68  C   UNL A   1      51.733  25.678  26.651  1.00  0.00     0.002 A 
ATOM     69  C   UNL A   1      51.304  26.713  24.497  1.00  0.00     0.091 A 
ATOM     70  F   UNL A   1      49.232  27.852  24.146  1.00  0.00    -0.205 F 
ATOM     71  C   UNL A   1      52.145  25.987  25.357  1.00  0.00     0.022 A 
BRANCH  69  72
ATOM     72  S   UNL A   1      51.914  27.020  22.836  1.00  0.00     0.127 S 
ATOM     73  O   UNL A   1      52.267  28.437  22.909  1.00  0.00    -0.237 OA
ATOM     74  O   UNL A   1      53.055  26.110  22.757  1.00  0.00    -0.237 OA
ATOM     75  O   UNL A   1      50.813  26.703  21.936  1.00  0.00    -0.744 OA
ENDBRANCH  69  72
ENDBRANCH  51  65
BRANCH  52  76
ATOM     76  C   UNL A   1      40.290  28.743  29.185  1.00  0.00     0.023 A 
ATOM     77  C   UNL A   1      39.305  28.966  28.204  1.00  0.00     0.012 A 
ATOM     78  C   UNL A   1      39.926  28.750  30.545  1.00  0.00     0.148 A 
ATOM     79  C   UNL A   1      37.979  29.199  28.572  1.00  0.00     0.002 A 
ATOM     80  C   UNL A   1      38.598  28.946  30.903  1.00  0.00     0.091 A 
ATOM     81  F   UNL A   1      40.886  28.544  31.457  1.00  0.00    -0.205 F 
ATOM     82  C   UNL A   1      37.625  29.179  29.919  1.00  0.00     0.022 A 
BRANCH  80  83
ATOM     83  S   UNL A   1      38.025  28.845  32.603  1.00  0.00     0.127 S 
ATOM     84  O   UNL A   1      36.652  29.329  32.485  1.00  0.00    -0.237 OA
ATOM     85  O   UNL A   1      38.154  27.413  32.876  1.00  0.00    -0.237 OA
ATOM     86  O   UNL A   1      38.923  29.692  33.376  1.00  0.00    -0.744 OA
ENDBRANCH  80  83
ENDBRANCH  52  76
BRANCH  64  87
ATOM     87  C   UNL A   1      46.106  32.592  28.612  1.00  0.00     0.023 A 
ATOM     88  C   UNL A   1      46.780  32.892  29.811  1.00  0.00     0.012 A 
ATOM     89  C   UNL A   1      45.884  33.608  27.662  1.00  0.00     0.148 A 
ATOM     90  C   UNL A   1      47.228  34.189  30.062  1.00  0.00     0.002 A 
ATOM     91  C   UNL A   1      46.363  34.890  27.904  1.00  0.00     0.091 A 
ATOM     92  F   UNL A   1      45.235  33.293  26.532  1.00  0.00    -0.205 F 
ATOM     93  C   UNL A   1      47.032  35.182  29.105  1.00  0.00     0.022 A 
BRANCH  91  94
ATOM     94  S   UNL A   1      46.229  36.218  26.702  1.00  0.00     0.127 S 
ATOM     95  O   UNL A   1      46.939  37.303  27.376  1.00  0.00    -0.237 OA
ATOM     96  O   UNL A   1      46.927  35.657  25.544  1.00  0.00    -0.237 OA
ATOM     97  O   UNL A   1      44.803  36.439  26.502  1.00  0.00    -0.744 OA
ENDBRANCH  91  94
ENDBRANCH  64  87
ENDBRANCH  38  39
ENDBRANCH  31  33
ENDBRANCH  30  31
ENDBRANCH  29  30
ENDBRANCH  28  29
ENDBRANCH  27  28
ENDBRANCH   1  27
TORSDOF 21
ENDMDL
MODEL 3
REMARK VINA RESULT:     -10.7      2.310      8.056
REMARK SMILES COc1nc2c(cc1C(=O)NCc1ccc(C(=O)OCCOCCOC(=O)c3ccc(-c4c5nc(c(-c6cccc(S(=O)(=O)[O-])c6F)c6ccc([nH]6)c(-c6cccc(S(=O)(=O)[O-])c6F)c6nc(c(-c7cccc(S(=O)(=O)[O-])c7F)c7ccc4[nH]7)C=C6)C=C5)cc3)s1)CCC2
REMARK SMILES IDX 21 1 20 2 19 3 17 4 18 5 16 6 13 7 14 8 91 9 15 10 12 11
REMARK SMILES IDX 11 12 9 13 10 14 8 16 3 17 4 18 5 19 7 20 6 21 94 22 92 23
REMARK SMILES IDX 93 24 2 25 1 26 22 27 23 28 24 29 25 30 26 31 27 32 28 33
REMARK SMILES IDX 29 34 90 35 30 36 89 37 31 38 32 39 33 40 83 41 34 42 88 43
REMARK SMILES IDX 82 44 84 45 35 46 87 47 81 48 80 49 36 51 68 52 48 53 67 54
REMARK SMILES IDX 49 55 52 56 66 57 85 58 50 59 51 60 65 62 86 63 53 64 37 65
REMARK SMILES IDX 38 66 46 67 39 68 41 69 47 70 40 71 42 72 43 73 44 74 45 75
REMARK SMILES IDX 69 76 70 77 78 78 71 79 73 80 79 81 72 82 74 83 75 84 76 85
REMARK SMILES IDX 77 86 54 87 55 88 63 89 56 90 58 91 64 92 57 93 59 94 60 95
REMARK SMILES IDX 61 96 62 97
REMARK H PARENT 11 15 84 50 52 61
REMARK Flexibility Score: inf
ROOT
ATOM      1  C   UNL A   1      31.789  28.900  26.671  1.00  0.00     0.202 C 
ENDROOT
BRANCH   1   2
ATOM      2  C   UNL A   1      31.731  28.842  25.142  1.00  0.00     0.261 C 
BRANCH   2   3
ATOM      3  O   UNL A   1      31.261  27.550  24.736  1.00  0.00    -0.459 OA
BRANCH   3   4
ATOM      4  C   UNL A   1      31.849  27.044  23.617  1.00  0.00     0.348 C 
ATOM      5  O   UNL A   1      31.648  27.455  22.478  1.00  0.00    -0.245 OA
BRANCH   4   6
ATOM      6  C   UNL A   1      32.845  26.068  24.005  1.00  0.00     0.112 A 
ATOM      7  C   UNL A   1      34.521  24.262  23.881  1.00  0.00     0.025 A 
ATOM      8  C   UNL A   1      34.435  24.795  25.149  1.00  0.00     0.018 A 
ATOM      9  S   UNL A   1      33.496  25.072  22.780  1.00  0.00    -0.131 S 
ATOM     10  C   UNL A   1      33.458  25.836  25.223  1.00  0.00     0.028 A 
BRANCH   7  11
ATOM     11  C   UNL A   1      35.169  23.008  23.424  1.00  0.00     0.163 C 
BRANCH  11  12
ATOM     12  N   UNL A   1      36.078  22.426  24.375  1.00  0.00    -0.347 N 
ATOM     13  C   UNL A   1      36.174  21.128  24.816  1.00  0.00     0.257 C 
ATOM     14  O   UNL A   1      37.270  20.768  25.257  1.00  0.00    -0.269 OA
ATOM     15  H   UNL A   1      36.728  23.052  24.771  1.00  0.00     0.164 HD
BRANCH  13  16
ATOM     16  C   UNL A   1      35.034  20.176  24.929  1.00  0.00     0.102 A 
ATOM     17  C   UNL A   1      33.770  20.375  25.503  1.00  0.00     0.226 A 
ATOM     18  N   UNL A   1      32.839  19.397  25.669  1.00  0.00    -0.218 NA
ATOM     19  C   UNL A   1      33.160  18.194  25.176  1.00  0.00     0.048 A 
ATOM     20  C   UNL A   1      35.269  18.916  24.340  1.00  0.00     0.025 A 
ATOM     21  C   UNL A   1      34.314  17.926  24.466  1.00  0.00    -0.025 A 
ATOM     22  C   UNL A   1      32.291  16.972  25.281  1.00  0.00     0.057 C 
ATOM     23  C   UNL A   1      34.291  16.548  23.899  1.00  0.00     0.038 C 
ATOM     24  C   UNL A   1      33.259  15.873  24.812  1.00  0.00     0.011 C 
BRANCH  17  25
ATOM     25  O   UNL A   1      33.335  21.577  25.977  1.00  0.00    -0.480 OA
ATOM     26  C   UNL A   1      33.583  21.719  27.366  1.00  0.00     0.280 C 
ENDBRANCH  17  25
ENDBRANCH  13  16
ENDBRANCH  11  12
ENDBRANCH   7  11
ENDBRANCH   4   6
ENDBRANCH   3   4
ENDBRANCH   2   3
ENDBRANCH   1   2
BRANCH   1  27
ATOM     27  O   UNL A   1      32.858  29.688  27.199  1.00  0.00    -0.374 OA
BRANCH  27  28
ATOM     28  C   UNL A   1      32.758  31.105  27.025  1.00  0.00     0.202 C 
BRANCH  28  29
ATOM     29  C   UNL A   1      33.683  31.950  27.906  1.00  0.00     0.261 C 
BRANCH  29  30
ATOM     30  O   UNL A   1      33.601  33.342  27.543  1.00  0.00    -0.460 OA
BRANCH  30  31
ATOM     31  C   UNL A   1      33.497  34.204  28.581  1.00  0.00     0.338 C 
ATOM     32  O   UNL A   1      32.595  34.995  28.796  1.00  0.00    -0.246 OA
BRANCH  31  33
ATOM     33  C   UNL A   1      34.551  33.906  29.567  1.00  0.00     0.060 A 
ATOM     34  C   UNL A   1      35.871  34.206  29.206  1.00  0.00     0.016 A 
ATOM     35  C   UNL A   1      34.268  33.285  30.785  1.00  0.00     0.016 A 
ATOM     36  C   UNL A   1      36.921  33.846  30.045  1.00  0.00     0.010 A 
ATOM     37  C   UNL A   1      35.326  32.901  31.616  1.00  0.00     0.010 A 
ATOM     38  C   UNL A   1      36.655  33.148  31.231  1.00  0.00    -0.014 A 
BRANCH  38  39
ATOM     39  C   UNL A   1      37.779  32.526  31.965  1.00  0.00     0.031 A 
ATOM     40  C   UNL A   1      38.497  31.367  31.332  1.00  0.00     0.074 A 
ATOM     41  C   UNL A   1      38.176  33.005  33.157  1.00  0.00     0.049 A 
ATOM     42  N   UNL A   1      39.525  30.694  31.776  1.00  0.00    -0.248 NA
ATOM     43  C   UNL A   1      37.996  30.912  30.023  1.00  0.00     0.031 C 
ATOM     44  C   UNL A   1      37.569  34.135  33.859  1.00  0.00     0.029 A 
ATOM     45  N   UNL A   1      39.182  32.589  33.990  1.00  0.00    -0.354 N 
ATOM     46  C   UNL A   1      39.791  29.733  30.808  1.00  0.00     0.074 A 
ATOM     47  C   UNL A   1      38.813  29.902  29.756  1.00  0.00     0.031 C 
ATOM     48  C   UNL A   1      38.206  34.311  35.030  1.00  0.00     0.029 A 
ATOM     49  C   UNL A   1      39.256  33.301  35.163  1.00  0.00     0.049 A 
ATOM     50  H   UNL A   1      39.793  31.849  33.770  1.00  0.00     0.167 HD
ATOM     51  C   UNL A   1      40.775  28.807  30.788  1.00  0.00     0.034 A 
ATOM     52  C   UNL A   1      40.075  33.152  36.221  1.00  0.00     0.034 A 
ATOM     53  C   UNL A   1      41.756  28.646  31.824  1.00  0.00     0.049 A 
ATOM     54  C   UNL A   1      41.134  32.082  36.195  1.00  0.00     0.074 A 
ATOM     55  C   UNL A   1      42.810  27.751  31.874  1.00  0.00     0.029 A 
ATOM     56  N   UNL A   1      41.798  29.388  32.992  1.00  0.00    -0.354 N 
ATOM     57  N   UNL A   1      41.434  31.247  35.231  1.00  0.00    -0.248 NA
ATOM     58  C   UNL A   1      41.981  31.949  37.391  1.00  0.00     0.031 C 
ATOM     59  C   UNL A   1      43.487  27.949  33.081  1.00  0.00     0.029 A 
ATOM     60  C   UNL A   1      42.856  28.968  33.776  1.00  0.00     0.049 A 
ATOM     61  H   UNL A   1      41.168  30.108  33.228  1.00  0.00     0.167 HD
ATOM     62  C   UNL A   1      42.516  30.505  35.691  1.00  0.00     0.074 A 
ATOM     63  C   UNL A   1      42.827  30.996  37.018  1.00  0.00     0.031 C 
ATOM     64  C   UNL A   1      43.182  29.499  35.074  1.00  0.00     0.034 A 
BRANCH  51  65
ATOM     65  C   UNL A   1      40.875  27.920  29.580  1.00  0.00     0.023 A 
ATOM     66  C   UNL A   1      40.068  26.768  29.512  1.00  0.00     0.012 A 
ATOM     67  C   UNL A   1      41.698  28.263  28.492  1.00  0.00     0.148 A 
ATOM     68  C   UNL A   1      40.082  25.962  28.376  1.00  0.00     0.002 A 
ATOM     69  C   UNL A   1      41.689  27.467  27.352  1.00  0.00     0.091 A 
ATOM     70  F   UNL A   1      42.470  29.354  28.594  1.00  0.00    -0.205 F 
ATOM     71  C   UNL A   1      40.884  26.317  27.294  1.00  0.00     0.022 A 
BRANCH  69  72
ATOM     72  S   UNL A   1      42.652  27.856  25.887  1.00  0.00     0.127 S 
ATOM     73  O   UNL A   1      44.018  27.727  26.390  1.00  0.00    -0.237 OA
ATOM     74  O   UNL A   1      42.239  26.802  24.962  1.00  0.00    -0.237 OA
ATOM     75  O   UNL A   1      42.263  29.204  25.495  1.00  0.00    -0.744 OA
ENDBRANCH  69  72
ENDBRANCH  51  65
BRANCH  52  76
ATOM     76  C   UNL A   1      39.952  34.080  37.378  1.00  0.00     0.023 A 
ATOM     77  C   UNL A   1      40.469  35.384  37.271  1.00  0.00     0.012 A 
ATOM     78  C   UNL A   1      39.280  33.696  38.554  1.00  0.00     0.148 A 
ATOM     79  C   UNL A   1      40.326  36.291  38.321  1.00  0.00     0.002 A 
ATOM     80  C   UNL A   1      39.108  34.615  39.581  1.00  0.00     0.091 A 
ATOM     81  F   UNL A   1      38.805  32.445  38.631  1.00  0.00    -0.205 F 
ATOM     82  C   UNL A   1      39.638  35.910  39.471  1.00  0.00     0.022 A 
BRANCH  80  83
ATOM     83  S   UNL A   1      38.156  34.251  41.062  1.00  0.00     0.127 S 
ATOM     84  O   UNL A   1      37.851  35.591  41.558  1.00  0.00    -0.237 OA
ATOM     85  O   UNL A   1      37.014  33.523  40.509  1.00  0.00    -0.237 OA
ATOM     86  O   UNL A   1      39.030  33.454  41.910  1.00  0.00    -0.744 OA
ENDBRANCH  80  83
ENDBRANCH  52  76
BRANCH  64  87
ATOM     87  C   UNL A   1      44.322  28.847  35.804  1.00  0.00     0.023 A 
ATOM     88  C   UNL A   1      45.602  29.429  35.735  1.00  0.00     0.012 A 
ATOM     89  C   UNL A   1      44.096  27.756  36.667  1.00  0.00     0.148 A 
ATOM     90  C   UNL A   1      46.645  28.933  36.516  1.00  0.00     0.002 A 
ATOM     91  C   UNL A   1      45.132  27.288  37.466  1.00  0.00     0.091 A 
ATOM     92  F   UNL A   1      42.868  27.218  36.707  1.00  0.00    -0.205 F 
ATOM     93  C   UNL A   1      46.407  27.873  37.389  1.00  0.00     0.022 A 
BRANCH  91  94
ATOM     94  S   UNL A   1      44.907  25.980  38.677  1.00  0.00     0.127 S 
ATOM     95  O   UNL A   1      44.120  26.659  39.705  1.00  0.00    -0.237 OA
ATOM     96  O   UNL A   1      44.172  24.973  37.911  1.00  0.00    -0.237 OA
ATOM     97  O   UNL A   1      46.244  25.575  39.087  1.00  0.00    -0.744 OA
ENDBRANCH  91  94
ENDBRANCH  64  87
ENDBRANCH  38  39
ENDBRANCH  31  33
ENDBRANCH  30  31
ENDBRANCH  29  30
ENDBRANCH  28  29
ENDBRANCH  27  28
ENDBRANCH   1  27
TORSDOF 21
ENDMDL
