MODEL 1
REMARK VINA RESULT:     -11.0      0.000      0.000
REMARK SMILES Cc1cc(C(=O)N[C@H]2C=C[C@@H](C(=O)OCCOCCOC(=O)c3ccc(-c4c5nc(c(-c6cccc(S(=O)(=O)[O-])c6F)c6ccc([nH]6)c(-c6cccc(S(=O)(=O)[O-])c6F)c6nc(c(-c7cccc(S(=O)(=O)[O-])c7F)c7ccc4[nH]7)C=C6)C=C5)cc3)C2)no1
REMARK SMILES IDX 18 1 17 2 16 3 15 4 14 5 12 6 13 7 11 8 8 9 9 10 86 11 10 12
REMARK SMILES IDX 7 13 5 14 6 15 4 17 1 18 2 19 3 20 88 21 87 22 19 23 20 24
REMARK SMILES IDX 21 25 22 26 23 27 24 28 85 29 25 30 84 31 26 32 27 33 28 34
REMARK SMILES IDX 78 35 29 36 83 37 77 38 79 39 30 40 82 41 76 42 75 43 31 45
REMARK SMILES IDX 63 46 43 47 62 48 44 49 47 50 61 51 80 52 45 53 46 54 60 56
REMARK SMILES IDX 81 57 48 58 32 59 33 60 41 61 34 62 36 63 42 64 35 65 37 66
REMARK SMILES IDX 38 67 39 68 40 69 64 70 65 71 73 72 66 73 68 74 74 75 67 76
REMARK SMILES IDX 69 77 70 78 71 79 72 80 49 81 50 82 58 83 51 84 53 85 59 86
REMARK SMILES IDX 52 87 54 88 55 89 56 90 57 91
REMARK H PARENT 7 16 79 44 47 55
REMARK Flexibility Score: inf
ROOT
ATOM      1  C   UNL A   1      35.699  20.840  24.867  1.00  0.00     0.202 C 
ENDROOT
BRANCH   1   2
ATOM      2  O   UNL A   1      35.513  22.241  25.071  1.00  0.00    -0.374 OA
BRANCH   2   3
ATOM      3  C   UNL A   1      34.398  22.662  25.856  1.00  0.00     0.202 C 
BRANCH   3   4
ATOM      4  C   UNL A   1      33.298  21.628  26.095  1.00  0.00     0.261 C 
BRANCH   4   5
ATOM      5  O   UNL A   1      32.005  22.172  25.803  1.00  0.00    -0.463 OA
BRANCH   5   6
ATOM      6  C   UNL A   1      31.701  23.326  26.447  1.00  0.00     0.312 C 
ATOM      7  O   UNL A   1      31.781  23.505  27.658  1.00  0.00    -0.252 OA
BRANCH   6   8
ATOM      8  C   UNL A   1      31.217  24.409  25.506  1.00  0.00     0.124 C 
ATOM      9  C   UNL A   1      31.634  25.815  23.604  1.00  0.00     0.106 C 
ATOM     10  C   UNL A   1      31.040  24.509  23.184  1.00  0.00    -0.006 C 
ATOM     11  C   UNL A   1      32.227  25.440  24.967  1.00  0.00     0.048 C 
ATOM     12  C   UNL A   1      30.738  23.757  24.247  1.00  0.00    -0.014 C 
BRANCH   9  13
ATOM     13  N   UNL A   1      32.554  26.349  22.637  1.00  0.00    -0.344 N 
ATOM     14  C   UNL A   1      33.128  27.612  22.619  1.00  0.00     0.273 C 
ATOM     15  O   UNL A   1      34.017  27.847  21.804  1.00  0.00    -0.267 OA
ATOM     16  H   UNL A   1      32.807  25.746  21.899  1.00  0.00     0.164 HD
BRANCH  14  17
ATOM     17  C   UNL A   1      32.605  28.627  23.543  1.00  0.00     0.171 A 
ATOM     18  C   UNL A   1      31.796  30.086  26.798  1.00  0.00     0.091 C 
ATOM     19  C   UNL A   1      32.067  29.668  25.412  1.00  0.00     0.134 A 
ATOM     20  C   UNL A   1      33.131  29.065  24.791  1.00  0.00     0.082 A 
ATOM     21  O   UNL A   1      31.050  29.798  24.523  1.00  0.00    -0.361 OA
ATOM     22  N   UNL A   1      31.395  29.175  23.338  1.00  0.00    -0.074 NA
ENDBRANCH  14  17
ENDBRANCH   9  13
ENDBRANCH   6   8
ENDBRANCH   5   6
ENDBRANCH   4   5
ENDBRANCH   3   4
ENDBRANCH   2   3
ENDBRANCH   1   2
BRANCH   1  23
ATOM     23  C   UNL A   1      37.107  20.273  25.087  1.00  0.00     0.261 C 
BRANCH  23  24
ATOM     24  O   UNL A   1      38.117  21.297  25.104  1.00  0.00    -0.460 OA
BRANCH  24  25
ATOM     25  C   UNL A   1      39.140  21.062  25.960  1.00  0.00     0.338 C 
ATOM     26  O   UNL A   1      39.757  20.012  26.096  1.00  0.00    -0.246 OA
BRANCH  25  27
ATOM     27  C   UNL A   1      39.572  22.312  26.611  1.00  0.00     0.060 A 
ATOM     28  C   UNL A   1      38.937  23.495  26.212  1.00  0.00     0.016 A 
ATOM     29  C   UNL A   1      40.635  22.344  27.515  1.00  0.00     0.016 A 
ATOM     30  C   UNL A   1      39.402  24.725  26.672  1.00  0.00     0.010 A 
ATOM     31  C   UNL A   1      41.105  23.582  27.969  1.00  0.00     0.010 A 
ATOM     32  C   UNL A   1      40.517  24.779  27.516  1.00  0.00    -0.014 A 
BRANCH  32  33
ATOM     33  C   UNL A   1      41.142  26.091  27.808  1.00  0.00     0.031 A 
ATOM     34  C   UNL A   1      42.555  26.349  27.355  1.00  0.00     0.074 A 
ATOM     35  C   UNL A   1      40.455  27.049  28.455  1.00  0.00     0.049 A 
ATOM     36  N   UNL A   1      43.284  27.424  27.497  1.00  0.00    -0.248 NA
ATOM     37  C   UNL A   1      43.237  25.249  26.652  1.00  0.00     0.031 C 
ATOM     38  C   UNL A   1      39.086  26.915  28.952  1.00  0.00     0.029 A 
ATOM     39  N   UNL A   1      40.827  28.317  28.827  1.00  0.00    -0.354 N 
ATOM     40  C   UNL A   1      44.519  27.123  26.935  1.00  0.00     0.074 A 
ATOM     41  C   UNL A   1      44.443  25.762  26.451  1.00  0.00     0.031 C 
ATOM     42  C   UNL A   1      38.745  28.044  29.597  1.00  0.00     0.029 A 
ATOM     43  C   UNL A   1      39.875  28.971  29.572  1.00  0.00     0.049 A 
ATOM     44  H   UNL A   1      41.693  28.718  28.584  1.00  0.00     0.167 HD
ATOM     45  C   UNL A   1      45.613  27.912  26.820  1.00  0.00     0.034 A 
ATOM     46  C   UNL A   1      39.920  30.172  30.185  1.00  0.00     0.034 A 
ATOM     47  C   UNL A   1      45.675  29.277  27.270  1.00  0.00     0.049 A 
ATOM     48  C   UNL A   1      41.149  31.030  30.035  1.00  0.00     0.074 A 
ATOM     49  C   UNL A   1      46.713  30.182  27.124  1.00  0.00     0.029 A 
ATOM     50  N   UNL A   1      44.671  29.928  27.966  1.00  0.00    -0.354 N 
ATOM     51  N   UNL A   1      42.249  30.789  29.364  1.00  0.00    -0.248 NA
ATOM     52  C   UNL A   1      41.128  32.345  30.693  1.00  0.00     0.031 C 
ATOM     53  C   UNL A   1      46.346  31.372  27.758  1.00  0.00     0.029 A 
ATOM     54  C   UNL A   1      45.070  31.218  28.275  1.00  0.00     0.049 A 
ATOM     55  H   UNL A   1      43.802  29.533  28.207  1.00  0.00     0.167 HD
ATOM     56  C   UNL A   1      43.035  31.929  29.492  1.00  0.00     0.074 A 
ATOM     57  C   UNL A   1      42.273  32.873  30.284  1.00  0.00     0.031 C 
ATOM     58  C   UNL A   1      44.281  32.168  29.014  1.00  0.00     0.034 A 
BRANCH  45  59
ATOM     59  C   UNL A   1      46.834  27.334  26.159  1.00  0.00     0.023 A 
ATOM     60  C   UNL A   1      47.024  27.502  24.772  1.00  0.00     0.012 A 
ATOM     61  C   UNL A   1      47.834  26.701  26.923  1.00  0.00     0.148 A 
ATOM     62  C   UNL A   1      48.181  27.030  24.153  1.00  0.00     0.002 A 
ATOM     63  C   UNL A   1      49.002  26.269  26.306  1.00  0.00     0.091 A 
ATOM     64  F   UNL A   1      47.621  26.531  28.235  1.00  0.00    -0.205 F 
ATOM     65  C   UNL A   1      49.173  26.426  24.920  1.00  0.00     0.022 A 
BRANCH  63  66
ATOM     66  S   UNL A   1      50.371  25.549  27.219  1.00  0.00     0.127 S 
ATOM     67  O   UNL A   1      51.378  25.398  26.169  1.00  0.00    -0.237 OA
ATOM     68  O   UNL A   1      50.666  26.592  28.201  1.00  0.00    -0.237 OA
ATOM     69  O   UNL A   1      49.868  24.305  27.785  1.00  0.00    -0.744 OA
ENDBRANCH  63  66
ENDBRANCH  45  59
BRANCH  46  70
ATOM     70  C   UNL A   1      38.754  30.646  30.981  1.00  0.00     0.023 A 
ATOM     71  C   UNL A   1      38.728  30.447  32.375  1.00  0.00     0.012 A 
ATOM     72  C   UNL A   1      37.670  31.298  30.361  1.00  0.00     0.148 A 
ATOM     73  C   UNL A   1      37.630  30.858  33.132  1.00  0.00     0.002 A 
ATOM     74  C   UNL A   1      36.607  31.758  31.128  1.00  0.00     0.091 A 
ATOM     75  F   UNL A   1      37.701  31.458  29.030  1.00  0.00    -0.205 F 
ATOM     76  C   UNL A   1      36.575  31.523  32.511  1.00  0.00     0.022 A 
BRANCH  74  77
ATOM     77  S   UNL A   1      35.276  32.739  30.427  1.00  0.00     0.127 S 
ATOM     78  O   UNL A   1      34.522  33.117  31.619  1.00  0.00    -0.237 OA
ATOM     79  O   UNL A   1      36.011  33.833  29.789  1.00  0.00    -0.237 OA
ATOM     80  O   UNL A   1      34.595  31.854  29.492  1.00  0.00    -0.744 OA
ENDBRANCH  74  77
ENDBRANCH  46  70
BRANCH  58  81
ATOM     81  C   UNL A   1      44.896  33.515  29.298  1.00  0.00     0.023 A 
ATOM     82  C   UNL A   1      45.696  33.692  30.444  1.00  0.00     0.012 A 
ATOM     83  C   UNL A   1      44.742  34.583  28.390  1.00  0.00     0.148 A 
ATOM     84  C   UNL A   1      46.306  34.919  30.700  1.00  0.00     0.002 A 
ATOM     85  C   UNL A   1      45.392  35.787  28.628  1.00  0.00     0.091 A 
ATOM     86  F   UNL A   1      43.962  34.401  27.315  1.00  0.00    -0.205 F 
ATOM     87  C   UNL A   1      46.165  35.962  29.787  1.00  0.00     0.022 A 
BRANCH  85  88
ATOM     88  S   UNL A   1      45.345  37.150  27.457  1.00  0.00     0.127 S 
ATOM     89  O   UNL A   1      43.932  37.175  27.086  1.00  0.00    -0.237 OA
ATOM     90  O   UNL A   1      45.781  38.282  28.276  1.00  0.00    -0.237 OA
ATOM     91  O   UNL A   1      46.269  36.790  26.389  1.00  0.00    -0.744 OA
ENDBRANCH  85  88
ENDBRANCH  58  81
ENDBRANCH  32  33
ENDBRANCH  25  27
ENDBRANCH  24  25
ENDBRANCH  23  24
ENDBRANCH   1  23
TORSDOF 19
ENDMDL
MODEL 2
REMARK VINA RESULT:     -11.0      4.682     10.414
REMARK SMILES Cc1cc(C(=O)N[C@H]2C=C[C@@H](C(=O)OCCOCCOC(=O)c3ccc(-c4c5nc(c(-c6cccc(S(=O)(=O)[O-])c6F)c6ccc([nH]6)c(-c6cccc(S(=O)(=O)[O-])c6F)c6nc(c(-c7cccc(S(=O)(=O)[O-])c7F)c7ccc4[nH]7)C=C6)C=C5)cc3)C2)no1
REMARK SMILES IDX 18 1 17 2 16 3 15 4 14 5 12 6 13 7 11 8 8 9 9 10 86 11 10 12
REMARK SMILES IDX 7 13 5 14 6 15 4 17 1 18 2 19 3 20 88 21 87 22 19 23 20 24
REMARK SMILES IDX 21 25 22 26 23 27 24 28 85 29 25 30 84 31 26 32 27 33 28 34
REMARK SMILES IDX 78 35 29 36 83 37 77 38 79 39 30 40 82 41 76 42 75 43 31 45
REMARK SMILES IDX 63 46 43 47 62 48 44 49 47 50 61 51 80 52 45 53 46 54 60 56
REMARK SMILES IDX 81 57 48 58 32 59 33 60 41 61 34 62 36 63 42 64 35 65 37 66
REMARK SMILES IDX 38 67 39 68 40 69 64 70 65 71 73 72 66 73 68 74 74 75 67 76
REMARK SMILES IDX 69 77 70 78 71 79 72 80 49 81 50 82 58 83 51 84 53 85 59 86
REMARK SMILES IDX 52 87 54 88 55 89 56 90 57 91
REMARK H PARENT 7 16 79 44 47 55
REMARK Flexibility Score: inf
ROOT
ATOM      1  C   UNL A   1      31.680  30.381  26.083  1.00  0.00     0.202 C 
ENDROOT
BRANCH   1   2
ATOM      2  O   UNL A   1      31.019  30.040  24.865  1.00  0.00    -0.374 OA
BRANCH   2   3
ATOM      3  C   UNL A   1      31.405  28.833  24.209  1.00  0.00     0.202 C 
BRANCH   3   4
ATOM      4  C   UNL A   1      31.666  28.923  22.705  1.00  0.00     0.261 C 
BRANCH   4   5
ATOM      5  O   UNL A   1      32.761  28.083  22.320  1.00  0.00    -0.463 OA
BRANCH   5   6
ATOM      6  C   UNL A   1      32.436  26.798  22.034  1.00  0.00     0.312 C 
ATOM      7  O   UNL A   1      31.454  26.440  21.393  1.00  0.00    -0.252 OA
BRANCH   6   8
ATOM      8  C   UNL A   1      33.420  25.805  22.614  1.00  0.00     0.124 C 
ATOM      9  C   UNL A   1      33.999  24.274  24.372  1.00  0.00     0.106 C 
ATOM     10  C   UNL A   1      33.191  23.592  23.313  1.00  0.00    -0.006 C 
ATOM     11  C   UNL A   1      33.605  25.737  24.142  1.00  0.00     0.048 C 
ATOM     12  C   UNL A   1      32.934  24.424  22.300  1.00  0.00    -0.014 C 
BRANCH   9  13
ATOM     13  N   UNL A   1      33.753  23.748  25.688  1.00  0.00    -0.344 N 
ATOM     14  C   UNL A   1      34.577  22.921  26.438  1.00  0.00     0.273 C 
ATOM     15  O   UNL A   1      34.282  22.696  27.609  1.00  0.00    -0.267 OA
ATOM     16  H   UNL A   1      32.900  24.006  26.106  1.00  0.00     0.164 HD
BRANCH  14  17
ATOM     17  C   UNL A   1      35.738  22.310  25.776  1.00  0.00     0.171 A 
ATOM     18  C   UNL A   1      38.035  19.612  24.872  1.00  0.00     0.091 C 
ATOM     19  C   UNL A   1      37.207  20.807  25.109  1.00  0.00     0.134 A 
ATOM     20  C   UNL A   1      35.856  21.032  25.162  1.00  0.00     0.082 A 
ATOM     21  O   UNL A   1      37.860  21.950  25.438  1.00  0.00    -0.361 OA
ATOM     22  N   UNL A   1      36.941  22.906  25.828  1.00  0.00    -0.074 NA
ENDBRANCH  14  17
ENDBRANCH   9  13
ENDBRANCH   6   8
ENDBRANCH   5   6
ENDBRANCH   4   5
ENDBRANCH   3   4
ENDBRANCH   2   3
ENDBRANCH   1   2
BRANCH   1  23
ATOM     23  C   UNL A   1      31.702  31.861  26.487  1.00  0.00     0.261 C 
BRANCH  23  24
ATOM     24  O   UNL A   1      32.379  32.081  27.736  1.00  0.00    -0.460 OA
BRANCH  24  25
ATOM     25  C   UNL A   1      33.374  33.000  27.680  1.00  0.00     0.338 C 
ATOM     26  O   UNL A   1      33.250  34.208  27.520  1.00  0.00    -0.246 OA
BRANCH  25  27
ATOM     27  C   UNL A   1      34.667  32.387  28.031  1.00  0.00     0.060 A 
ATOM     28  C   UNL A   1      34.665  31.025  28.358  1.00  0.00     0.016 A 
ATOM     29  C   UNL A   1      35.838  33.142  28.135  1.00  0.00     0.016 A 
ATOM     30  C   UNL A   1      35.822  30.423  28.847  1.00  0.00     0.010 A 
ATOM     31  C   UNL A   1      36.996  32.535  28.634  1.00  0.00     0.010 A 
ATOM     32  C   UNL A   1      36.982  31.185  29.031  1.00  0.00    -0.014 A 
BRANCH  32  33
ATOM     33  C   UNL A   1      38.127  30.595  29.766  1.00  0.00     0.031 A 
ATOM     34  C   UNL A   1      38.370  31.001  31.195  1.00  0.00     0.074 A 
ATOM     35  C   UNL A   1      38.932  29.695  29.173  1.00  0.00     0.049 A 
ATOM     36  N   UNL A   1      39.302  30.603  32.019  1.00  0.00    -0.248 NA
ATOM     37  C   UNL A   1      37.442  31.990  31.771  1.00  0.00     0.031 C 
ATOM     38  C   UNL A   1      38.805  29.231  27.792  1.00  0.00     0.029 A 
ATOM     39  N   UNL A   1      40.033  29.033  29.652  1.00  0.00    -0.354 N 
ATOM     40  C   UNL A   1      39.098  31.313  33.196  1.00  0.00     0.074 A 
ATOM     41  C   UNL A   1      37.954  32.171  32.980  1.00  0.00     0.031 C 
ATOM     42  C   UNL A   1      39.813  28.384  27.524  1.00  0.00     0.029 A 
ATOM     43  C   UNL A   1      40.664  28.260  28.706  1.00  0.00     0.049 A 
ATOM     44  H   UNL A   1      40.343  29.104  30.584  1.00  0.00     0.167 HD
ATOM     45  C   UNL A   1      39.793  31.247  34.357  1.00  0.00     0.034 A 
ATOM     46  C   UNL A   1      41.810  27.553  28.778  1.00  0.00     0.034 A 
ATOM     47  C   UNL A   1      40.908  30.368  34.582  1.00  0.00     0.049 A 
ATOM     48  C   UNL A   1      42.557  27.494  30.086  1.00  0.00     0.074 A 
ATOM     49  C   UNL A   1      41.623  30.172  35.751  1.00  0.00     0.029 A 
ATOM     50  N   UNL A   1      41.482  29.554  33.620  1.00  0.00    -0.354 N 
ATOM     51  N   UNL A   1      42.259  28.049  31.234  1.00  0.00    -0.248 NA
ATOM     52  C   UNL A   1      43.780  26.677  30.117  1.00  0.00     0.031 C 
ATOM     53  C   UNL A   1      42.649  29.259  35.487  1.00  0.00     0.029 A 
ATOM     54  C   UNL A   1      42.555  28.866  34.162  1.00  0.00     0.049 A 
ATOM     55  H   UNL A   1      41.173  29.475  32.689  1.00  0.00     0.167 HD
ATOM     56  C   UNL A   1      43.235  27.625  32.130  1.00  0.00     0.074 A 
ATOM     57  C   UNL A   1      44.119  26.745  31.396  1.00  0.00     0.031 C 
ATOM     58  C   UNL A   1      43.395  27.949  33.437  1.00  0.00     0.034 A 
BRANCH  45  59
ATOM     59  C   UNL A   1      39.355  32.132  35.493  1.00  0.00     0.023 A 
ATOM     60  C   UNL A   1      38.524  31.611  36.505  1.00  0.00     0.012 A 
ATOM     61  C   UNL A   1      39.836  33.452  35.601  1.00  0.00     0.148 A 
ATOM     62  C   UNL A   1      38.162  32.397  37.598  1.00  0.00     0.002 A 
ATOM     63  C   UNL A   1      39.504  34.215  36.714  1.00  0.00     0.091 A 
ATOM     64  F   UNL A   1      40.605  33.933  34.616  1.00  0.00    -0.205 F 
ATOM     65  C   UNL A   1      38.660  33.692  37.709  1.00  0.00     0.022 A 
BRANCH  63  66
ATOM     66  S   UNL A   1      40.157  35.866  36.986  1.00  0.00     0.127 S 
ATOM     67  O   UNL A   1      39.482  36.249  38.226  1.00  0.00    -0.237 OA
ATOM     68  O   UNL A   1      41.590  35.609  37.127  1.00  0.00    -0.237 OA
ATOM     69  O   UNL A   1      39.790  36.643  35.810  1.00  0.00    -0.744 OA
ENDBRANCH  63  66
ENDBRANCH  45  59
BRANCH  46  70
ATOM     70  C   UNL A   1      42.311  26.822  27.581  1.00  0.00     0.023 A 
ATOM     71  C   UNL A   1      43.042  27.511  26.594  1.00  0.00     0.012 A 
ATOM     72  C   UNL A   1      42.070  25.445  27.419  1.00  0.00     0.148 A 
ATOM     73  C   UNL A   1      43.494  26.849  25.452  1.00  0.00     0.002 A 
ATOM     74  C   UNL A   1      42.574  24.778  26.308  1.00  0.00     0.091 A 
ATOM     75  F   UNL A   1      41.353  24.809  28.358  1.00  0.00    -0.205 F 
ATOM     76  C   UNL A   1      43.269  25.482  25.314  1.00  0.00     0.022 A 
BRANCH  74  77
ATOM     77  S   UNL A   1      42.445  22.996  26.122  1.00  0.00     0.127 S 
ATOM     78  O   UNL A   1      43.235  22.519  27.253  1.00  0.00    -0.237 OA
ATOM     79  O   UNL A   1      41.001  22.783  26.244  1.00  0.00    -0.237 OA
ATOM     80  O   UNL A   1      42.980  22.707  24.799  1.00  0.00    -0.744 OA
ENDBRANCH  74  77
ENDBRANCH  46  70
BRANCH  58  81
ATOM     81  C   UNL A   1      44.549  27.324  34.179  1.00  0.00     0.023 A 
ATOM     82  C   UNL A   1      45.809  27.955  34.171  1.00  0.00     0.012 A 
ATOM     83  C   UNL A   1      44.366  26.155  34.944  1.00  0.00     0.148 A 
ATOM     84  C   UNL A   1      46.877  27.413  34.885  1.00  0.00     0.002 A 
ATOM     85  C   UNL A   1      45.422  25.649  35.692  1.00  0.00     0.091 A 
ATOM     86  F   UNL A   1      43.165  25.559  34.924  1.00  0.00    -0.205 F 
ATOM     87  C   UNL A   1      46.681  26.269  35.655  1.00  0.00     0.022 A 
BRANCH  85  88
ATOM     88  S   UNL A   1      45.232  24.236  36.787  1.00  0.00     0.127 S 
ATOM     89  O   UNL A   1      44.209  24.714  37.714  1.00  0.00    -0.237 OA
ATOM     90  O   UNL A   1      44.783  23.188  35.870  1.00  0.00    -0.237 OA
ATOM     91  O   UNL A   1      46.548  24.003  37.369  1.00  0.00    -0.744 OA
ENDBRANCH  85  88
ENDBRANCH  58  81
ENDBRANCH  32  33
ENDBRANCH  25  27
ENDBRANCH  24  25
ENDBRANCH  23  24
ENDBRANCH   1  23
TORSDOF 19
ENDMDL
MODEL 3
REMARK VINA RESULT:     -10.9      1.116      7.903
REMARK SMILES Cc1cc(C(=O)N[C@H]2C=C[C@@H](C(=O)OCCOCCOC(=O)c3ccc(-c4c5nc(c(-c6cccc(S(=O)(=O)[O-])c6F)c6ccc([nH]6)c(-c6cccc(S(=O)(=O)[O-])c6F)c6nc(c(-c7cccc(S(=O)(=O)[O-])c7F)c7ccc4[nH]7)C=C6)C=C5)cc3)C2)no1
REMARK SMILES IDX 18 1 17 2 16 3 15 4 14 5 12 6 13 7 11 8 8 9 9 10 86 11 10 12
REMARK SMILES IDX 7 13 5 14 6 15 4 17 1 18 2 19 3 20 88 21 87 22 19 23 20 24
REMARK SMILES IDX 21 25 22 26 23 27 24 28 85 29 25 30 84 31 26 32 27 33 28 34
REMARK SMILES IDX 78 35 29 36 83 37 77 38 79 39 30 40 82 41 76 42 75 43 31 45
REMARK SMILES IDX 63 46 43 47 62 48 44 49 47 50 61 51 80 52 45 53 46 54 60 56
REMARK SMILES IDX 81 57 48 58 32 59 33 60 41 61 34 62 36 63 42 64 35 65 37 66
REMARK SMILES IDX 38 67 39 68 40 69 64 70 65 71 73 72 66 73 68 74 74 75 67 76
REMARK SMILES IDX 69 77 70 78 71 79 72 80 49 81 50 82 58 83 51 84 53 85 59 86
REMARK SMILES IDX 52 87 54 88 55 89 56 90 57 91
REMARK H PARENT 7 16 79 44 47 55
REMARK Flexibility Score: inf
ROOT
ATOM      1  C   UNL A   1      35.798  20.329  24.921  1.00  0.00     0.202 C 
ENDROOT
BRANCH   1   2
ATOM      2  O   UNL A   1      34.848  19.305  24.631  1.00  0.00    -0.374 OA
BRANCH   2   3
ATOM      3  C   UNL A   1      33.543  19.700  24.213  1.00  0.00     0.202 C 
BRANCH   3   4
ATOM      4  C   UNL A   1      32.466  19.768  25.296  1.00  0.00     0.261 C 
BRANCH   4   5
ATOM      5  O   UNL A   1      31.883  21.075  25.362  1.00  0.00    -0.463 OA
BRANCH   5   6
ATOM      6  C   UNL A   1      32.610  22.004  26.031  1.00  0.00     0.312 C 
ATOM      7  O   UNL A   1      33.392  21.768  26.947  1.00  0.00    -0.252 OA
BRANCH   6   8
ATOM      8  C   UNL A   1      32.350  23.412  25.542  1.00  0.00     0.124 C 
ATOM      9  C   UNL A   1      32.977  25.731  25.525  1.00  0.00     0.106 C 
ATOM     10  C   UNL A   1      33.700  24.973  24.456  1.00  0.00    -0.006 C 
ATOM     11  C   UNL A   1      32.614  24.597  26.490  1.00  0.00     0.048 C 
ATOM     12  C   UNL A   1      33.295  23.700  24.416  1.00  0.00    -0.014 C 
BRANCH   9  13
ATOM     13  N   UNL A   1      33.758  26.806  26.073  1.00  0.00    -0.344 N 
ATOM     14  C   UNL A   1      33.671  28.157  25.770  1.00  0.00     0.273 C 
ATOM     15  O   UNL A   1      34.308  28.959  26.450  1.00  0.00    -0.267 OA
ATOM     16  H   UNL A   1      34.435  26.554  26.743  1.00  0.00     0.164 HD
BRANCH  14  17
ATOM     17  C   UNL A   1      32.861  28.560  24.613  1.00  0.00     0.171 A 
ATOM     18  C   UNL A   1      29.875  28.692  22.504  1.00  0.00     0.091 C 
ATOM     19  C   UNL A   1      31.152  28.772  23.234  1.00  0.00     0.134 A 
ATOM     20  C   UNL A   1      31.484  28.916  24.557  1.00  0.00     0.082 A 
ATOM     21  O   UNL A   1      32.284  28.580  22.511  1.00  0.00    -0.361 OA
ATOM     22  N   UNL A   1      33.364  28.478  23.369  1.00  0.00    -0.074 NA
ENDBRANCH  14  17
ENDBRANCH   9  13
ENDBRANCH   6   8
ENDBRANCH   5   6
ENDBRANCH   4   5
ENDBRANCH   3   4
ENDBRANCH   2   3
ENDBRANCH   1   2
BRANCH   1  23
ATOM     23  C   UNL A   1      37.276  19.924  24.999  1.00  0.00     0.261 C 
BRANCH  23  24
ATOM     24  O   UNL A   1      38.149  21.055  25.160  1.00  0.00    -0.460 OA
BRANCH  24  25
ATOM     25  C   UNL A   1      39.211  20.833  25.972  1.00  0.00     0.338 C 
ATOM     26  O   UNL A   1      39.830  19.783  26.100  1.00  0.00    -0.246 OA
BRANCH  25  27
ATOM     27  C   UNL A   1      39.677  22.094  26.576  1.00  0.00     0.060 A 
ATOM     28  C   UNL A   1      39.110  23.282  26.098  1.00  0.00     0.016 A 
ATOM     29  C   UNL A   1      40.711  22.125  27.514  1.00  0.00     0.016 A 
ATOM     30  C   UNL A   1      39.614  24.512  26.513  1.00  0.00     0.010 A 
ATOM     31  C   UNL A   1      41.220  23.363  27.923  1.00  0.00     0.010 A 
ATOM     32  C   UNL A   1      40.702  24.560  27.393  1.00  0.00    -0.014 A 
BRANCH  32  33
ATOM     33  C   UNL A   1      41.376  25.857  27.642  1.00  0.00     0.031 A 
ATOM     34  C   UNL A   1      40.646  26.929  28.406  1.00  0.00     0.074 A 
ATOM     35  C   UNL A   1      42.629  26.073  27.205  1.00  0.00     0.049 A 
ATOM     36  N   UNL A   1      41.050  28.126  28.741  1.00  0.00    -0.248 NA
ATOM     37  C   UNL A   1      39.277  26.612  28.851  1.00  0.00     0.031 C 
ATOM     38  C   UNL A   1      43.434  25.118  26.445  1.00  0.00     0.029 A 
ATOM     39  N   UNL A   1      43.434  27.179  27.317  1.00  0.00    -0.354 N 
ATOM     40  C   UNL A   1      39.981  28.718  29.402  1.00  0.00     0.074 A 
ATOM     41  C   UNL A   1      38.906  27.750  29.420  1.00  0.00     0.031 C 
ATOM     42  C   UNL A   1      44.607  25.693  26.128  1.00  0.00     0.029 A 
ATOM     43  C   UNL A   1      44.628  27.059  26.647  1.00  0.00     0.049 A 
ATOM     44  H   UNL A   1      43.180  27.982  27.829  1.00  0.00     0.167 HD
ATOM     45  C   UNL A   1      39.905  29.951  29.956  1.00  0.00     0.034 A 
ATOM     46  C   UNL A   1      45.614  27.958  26.453  1.00  0.00     0.034 A 
ATOM     47  C   UNL A   1      40.987  30.899  29.969  1.00  0.00     0.049 A 
ATOM     48  C   UNL A   1      45.504  29.321  27.087  1.00  0.00     0.074 A 
ATOM     49  C   UNL A   1      41.031  32.142  30.576  1.00  0.00     0.029 A 
ATOM     50  N   UNL A   1      42.204  30.721  29.332  1.00  0.00    -0.354 N 
ATOM     51  N   UNL A   1      44.550  29.806  27.843  1.00  0.00    -0.248 NA
ATOM     52  C   UNL A   1      46.627  30.247  26.873  1.00  0.00     0.031 C 
ATOM     53  C   UNL A   1      42.266  32.727  30.283  1.00  0.00     0.029 A 
ATOM     54  C   UNL A   1      43.001  31.838  29.516  1.00  0.00     0.049 A 
ATOM     55  H   UNL A   1      42.464  29.919  28.825  1.00  0.00     0.167 HD
ATOM     56  C   UNL A   1      44.969  31.078  28.221  1.00  0.00     0.074 A 
ATOM     57  C   UNL A   1      46.277  31.277  27.631  1.00  0.00     0.031 C 
ATOM     58  C   UNL A   1      44.324  32.003  28.972  1.00  0.00     0.034 A 
BRANCH  45  59
ATOM     59  C   UNL A   1      38.616  30.348  30.623  1.00  0.00     0.023 A 
ATOM     60  C   UNL A   1      38.427  30.082  31.994  1.00  0.00     0.012 A 
ATOM     61  C   UNL A   1      37.629  31.058  29.912  1.00  0.00     0.148 A 
ATOM     62  C   UNL A   1      37.266  30.500  32.643  1.00  0.00     0.002 A 
ATOM     63  C   UNL A   1      36.493  31.507  30.575  1.00  0.00     0.091 A 
ATOM     64  F   UNL A   1      37.819  31.278  28.604  1.00  0.00    -0.205 F 
ATOM     65  C   UNL A   1      36.307  31.221  31.938  1.00  0.00     0.022 A 
BRANCH  63  66
ATOM     66  S   UNL A   1      35.236  32.509  29.775  1.00  0.00     0.127 S 
ATOM     67  O   UNL A   1      34.728  31.588  28.759  1.00  0.00    -0.237 OA
ATOM     68  O   UNL A   1      34.308  32.774  30.875  1.00  0.00    -0.237 OA
ATOM     69  O   UNL A   1      35.924  33.686  29.263  1.00  0.00    -0.744 OA
ENDBRANCH  63  66
ENDBRANCH  45  59
BRANCH  46  70
ATOM     70  C   UNL A   1      46.807  27.591  25.640  1.00  0.00     0.023 A 
ATOM     71  C   UNL A   1      46.806  27.821  24.251  1.00  0.00     0.012 A 
ATOM     72  C   UNL A   1      47.945  27.020  26.239  1.00  0.00     0.148 A 
ATOM     73  C   UNL A   1      47.903  27.456  23.469  1.00  0.00     0.002 A 
ATOM     74  C   UNL A   1      49.058  26.713  25.465  1.00  0.00     0.091 A 
ATOM     75  F   UNL A   1      47.920  26.787  27.560  1.00  0.00    -0.205 F 
ATOM     76  C   UNL A   1      49.032  26.913  24.076  1.00  0.00     0.022 A 
BRANCH  74  77
ATOM     77  S   UNL A   1      50.598  26.137  26.187  1.00  0.00     0.127 S 
ATOM     78  O   UNL A   1      51.448  25.997  25.009  1.00  0.00    -0.237 OA
ATOM     79  O   UNL A   1      50.950  27.248  27.074  1.00  0.00    -0.237 OA
ATOM     80  O   UNL A   1      50.259  24.903  26.884  1.00  0.00    -0.744 OA
ENDBRANCH  74  77
ENDBRANCH  46  70
BRANCH  58  81
ATOM     81  C   UNL A   1      45.029  33.309  29.237  1.00  0.00     0.023 A 
ATOM     82  C   UNL A   1      45.821  33.455  30.392  1.00  0.00     0.012 A 
ATOM     83  C   UNL A   1      44.967  34.363  28.303  1.00  0.00     0.148 A 
ATOM     84  C   UNL A   1      46.514  34.641  30.632  1.00  0.00     0.002 A 
ATOM     85  C   UNL A   1      45.698  35.524  28.525  1.00  0.00     0.091 A 
ATOM     86  F   UNL A   1      44.193  34.212  27.218  1.00  0.00    -0.205 F 
ATOM     87  C   UNL A   1      46.463  35.670  29.693  1.00  0.00     0.022 A 
BRANCH  85  88
ATOM     88  S   UNL A   1      45.768  36.859  27.323  1.00  0.00     0.127 S 
ATOM     89  O   UNL A   1      44.364  37.258  27.241  1.00  0.00    -0.237 OA
ATOM     90  O   UNL A   1      46.641  37.829  27.984  1.00  0.00    -0.237 OA
ATOM     91  O   UNL A   1      46.326  36.275  26.110  1.00  0.00    -0.744 OA
ENDBRANCH  85  88
ENDBRANCH  58  81
ENDBRANCH  32  33
ENDBRANCH  25  27
ENDBRANCH  24  25
ENDBRANCH  23  24
ENDBRANCH   1  23
TORSDOF 19
ENDMDL
