MODEL 1
REMARK VINA RESULT:     -11.2      0.000      0.000
REMARK SMILES CC[C@H](NC(=O)c1nn(C)cc1C(=O)OCCOCCOC(=O)c1ccc(-c2c3nc(c(-c4cccc(S(=O)(=O)[O-])c4F)c4ccc([nH]4)c(-c4cccc(S(=O)(=O)[O-])c4F)c4nc(c(-c5cccc(S(=O)(=O)[O-])c5F)c5ccc2[nH]5)C=C4)C=C3)cc1)c1ccccc1
REMARK SMILES IDX 18 1 17 2 16 3 15 4 13 5 14 6 12 7 7 8 8 9 9 10 11 11 10 12
REMARK SMILES IDX 5 13 4 14 6 16 3 17 2 18 1 19 87 20 88 21 92 22 89 23 91 24
REMARK SMILES IDX 90 25 19 26 20 27 21 28 22 29 23 30 24 31 25 32 86 33 26 34
REMARK SMILES IDX 85 35 27 36 28 37 29 38 79 39 30 40 84 41 78 42 80 43 31 44
REMARK SMILES IDX 83 45 77 46 76 47 32 49 64 50 44 51 63 52 45 53 48 54 62 55
REMARK SMILES IDX 81 56 46 57 47 58 61 60 82 61 49 62 33 63 34 64 42 65 35 66
REMARK SMILES IDX 37 67 43 68 36 69 38 70 39 71 40 72 41 73 65 74 66 75 74 76
REMARK SMILES IDX 67 77 69 78 75 79 68 80 70 81 71 82 72 83 73 84 50 85 51 86
REMARK SMILES IDX 59 87 52 88 54 89 60 90 53 91 55 92 56 93 57 94 58 95
REMARK H PARENT 4 15 80 48 48 59
REMARK Flexibility Score: inf
ROOT
ATOM      1  O   UNL A   1      35.673  21.789  26.207  1.00  0.00    -0.374 OA
ENDROOT
BRANCH   1   2
ATOM      2  C   UNL A   1      35.745  23.198  26.453  1.00  0.00     0.202 C 
BRANCH   2   3
ATOM      3  C   UNL A   1      35.823  24.061  25.186  1.00  0.00     0.261 C 
BRANCH   3   4
ATOM      4  O   UNL A   1      34.665  24.909  25.096  1.00  0.00    -0.460 OA
BRANCH   4   5
ATOM      5  C   UNL A   1      33.825  24.680  24.046  1.00  0.00     0.342 C 
ATOM      6  O   UNL A   1      33.746  25.372  23.042  1.00  0.00    -0.246 OA
BRANCH   5   7
ATOM      7  C   UNL A   1      33.126  23.420  24.200  1.00  0.00     0.111 A 
ATOM      8  C   UNL A   1      32.253  23.014  25.252  1.00  0.00     0.164 A 
ATOM      9  N   UNL A   1      31.738  21.791  25.000  1.00  0.00    -0.167 NA
ATOM     10  N   UNL A   1      32.340  21.401  23.865  1.00  0.00    -0.274 N 
ATOM     11  C   UNL A   1      33.121  22.363  23.307  1.00  0.00     0.125 A 
ATOM     12  C   UNL A   1      32.166  20.049  23.387  1.00  0.00     0.173 C 
BRANCH   8  13
ATOM     13  C   UNL A   1      31.974  23.697  26.520  1.00  0.00     0.273 C 
ATOM     14  N   UNL A   1      31.342  24.917  26.547  1.00  0.00    -0.344 N 
ATOM     15  H   UNL A   1      31.083  25.211  27.450  1.00  0.00     0.164 HD
ATOM     16  O   UNL A   1      32.256  23.178  27.602  1.00  0.00    -0.267 OA
BRANCH  14  17
ATOM     17  C   UNL A   1      30.981  25.862  25.492  1.00  0.00     0.112 C 
BRANCH  17  18
ATOM     18  C   UNL A   1      29.443  25.836  25.305  1.00  0.00     0.026 C 
ATOM     19  C   UNL A   1      29.026  26.411  23.956  1.00  0.00     0.006 C 
ENDBRANCH  17  18
BRANCH  17  20
ATOM     20  C   UNL A   1      31.517  27.268  25.792  1.00  0.00    -0.026 A 
ATOM     21  C   UNL A   1      32.192  28.011  24.805  1.00  0.00     0.006 A 
ATOM     22  C   UNL A   1      31.443  27.836  27.077  1.00  0.00     0.006 A 
ATOM     23  C   UNL A   1      32.733  29.273  25.080  1.00  0.00     0.000 A 
ATOM     24  C   UNL A   1      31.992  29.092  27.356  1.00  0.00     0.000 A 
ATOM     25  C   UNL A   1      32.631  29.814  26.356  1.00  0.00     0.000 A 
ENDBRANCH  17  20
ENDBRANCH  14  17
ENDBRANCH   8  13
ENDBRANCH   5   7
ENDBRANCH   4   5
ENDBRANCH   3   4
ENDBRANCH   2   3
ENDBRANCH   1   2
BRANCH   1  26
ATOM     26  C   UNL A   1      36.163  21.388  24.926  1.00  0.00     0.202 C 
BRANCH  26  27
ATOM     27  C   UNL A   1      37.489  20.638  25.041  1.00  0.00     0.261 C 
BRANCH  27  28
ATOM     28  O   UNL A   1      38.527  21.612  25.150  1.00  0.00    -0.460 OA
BRANCH  28  29
ATOM     29  C   UNL A   1      39.472  21.272  26.057  1.00  0.00     0.338 C 
ATOM     30  O   UNL A   1      40.034  20.194  26.151  1.00  0.00    -0.246 OA
BRANCH  29  31
ATOM     31  C   UNL A   1      39.853  22.490  26.805  1.00  0.00     0.060 A 
ATOM     32  C   UNL A   1      39.146  23.664  26.528  1.00  0.00     0.016 A 
ATOM     33  C   UNL A   1      40.869  22.483  27.772  1.00  0.00     0.016 A 
ATOM     34  C   UNL A   1      39.525  24.856  27.135  1.00  0.00     0.010 A 
ATOM     35  C   UNL A   1      41.235  23.672  28.394  1.00  0.00     0.010 A 
ATOM     36  C   UNL A   1      40.610  24.870  28.022  1.00  0.00    -0.014 A 
BRANCH  36  37
ATOM     37  C   UNL A   1      41.225  26.167  28.370  1.00  0.00     0.031 A 
ATOM     38  C   UNL A   1      42.630  26.433  27.904  1.00  0.00     0.074 A 
ATOM     39  C   UNL A   1      40.541  27.093  29.057  1.00  0.00     0.049 A 
ATOM     40  N   UNL A   1      43.337  27.526  27.996  1.00  0.00    -0.248 NA
ATOM     41  C   UNL A   1      43.334  25.314  27.254  1.00  0.00     0.031 C 
ATOM     42  C   UNL A   1      39.194  26.918  29.598  1.00  0.00     0.029 A 
ATOM     43  N   UNL A   1      40.898  28.361  29.429  1.00  0.00    -0.354 N 
ATOM     44  C   UNL A   1      44.570  27.225  27.431  1.00  0.00     0.074 A 
ATOM     45  C   UNL A   1      44.530  25.837  27.031  1.00  0.00     0.031 C 
ATOM     46  C   UNL A   1      38.846  28.037  30.258  1.00  0.00     0.029 A 
ATOM     47  C   UNL A   1      39.942  29.001  30.178  1.00  0.00     0.049 A 
ATOM     48  H   UNL A   1      41.757  28.774  29.183  1.00  0.00     0.167 HD
ATOM     49  C   UNL A   1      45.631  28.040  27.230  1.00  0.00     0.034 A 
ATOM     50  C   UNL A   1      39.955  30.230  30.731  1.00  0.00     0.034 A 
ATOM     51  C   UNL A   1      45.654  29.423  27.609  1.00  0.00     0.049 A 
ATOM     52  C   UNL A   1      41.127  31.137  30.463  1.00  0.00     0.074 A 
ATOM     53  C   UNL A   1      46.647  30.360  27.396  1.00  0.00     0.029 A 
ATOM     54  N   UNL A   1      44.635  30.066  28.296  1.00  0.00    -0.354 N 
ATOM     55  N   UNL A   1      42.217  30.894  29.774  1.00  0.00    -0.248 NA
ATOM     56  C   UNL A   1      41.048  32.502  30.999  1.00  0.00     0.031 C 
ATOM     57  C   UNL A   1      46.234  31.569  27.970  1.00  0.00     0.029 A 
ATOM     58  C   UNL A   1      44.977  31.386  28.524  1.00  0.00     0.049 A 
ATOM     59  H   UNL A   1      43.792  29.645  28.579  1.00  0.00     0.167 HD
ATOM     60  C   UNL A   1      42.942  32.080  29.770  1.00  0.00     0.074 A 
ATOM     61  C   UNL A   1      42.153  33.049  30.507  1.00  0.00     0.031 C 
ATOM     62  C   UNL A   1      44.155  32.344  29.220  1.00  0.00     0.034 A 
BRANCH  49  63
ATOM     63  C   UNL A   1      46.829  27.448  26.537  1.00  0.00     0.023 A 
ATOM     64  C   UNL A   1      46.913  27.497  25.130  1.00  0.00     0.012 A 
ATOM     65  C   UNL A   1      47.866  26.843  27.270  1.00  0.00     0.148 A 
ATOM     66  C   UNL A   1      47.991  26.919  24.462  1.00  0.00     0.002 A 
ATOM     67  C   UNL A   1      48.959  26.306  26.599  1.00  0.00     0.091 A 
ATOM     68  F   UNL A   1      47.753  26.772  28.604  1.00  0.00    -0.205 F 
ATOM     69  C   UNL A   1      49.018  26.333  25.196  1.00  0.00     0.022 A 
BRANCH  67  70
ATOM     70  S   UNL A   1      50.356  25.591  27.472  1.00  0.00     0.127 S 
ATOM     71  O   UNL A   1      50.481  26.490  28.617  1.00  0.00    -0.237 OA
ATOM     72  O   UNL A   1      49.867  24.250  27.800  1.00  0.00    -0.237 OA
ATOM     73  O   UNL A   1      51.462  25.609  26.525  1.00  0.00    -0.744 OA
ENDBRANCH  67  70
ENDBRANCH  49  63
BRANCH  50  74
ATOM     74  C   UNL A   1      38.783  30.679  31.531  1.00  0.00     0.023 A 
ATOM     75  C   UNL A   1      38.808  30.569  32.934  1.00  0.00     0.012 A 
ATOM     76  C   UNL A   1      37.674  31.282  30.906  1.00  0.00     0.148 A 
ATOM     77  C   UNL A   1      37.740  31.039  33.700  1.00  0.00     0.002 A 
ATOM     78  C   UNL A   1      36.639  31.796  31.677  1.00  0.00     0.091 A 
ATOM     79  F   UNL A   1      37.667  31.364  29.568  1.00  0.00    -0.205 F 
ATOM     80  C   UNL A   1      36.664  31.663  33.074  1.00  0.00     0.022 A 
BRANCH  78  81
ATOM     81  S   UNL A   1      35.286  32.739  30.968  1.00  0.00     0.127 S 
ATOM     82  O   UNL A   1      34.335  32.777  32.076  1.00  0.00    -0.237 OA
ATOM     83  O   UNL A   1      35.934  34.016  30.667  1.00  0.00    -0.237 OA
ATOM     84  O   UNL A   1      34.858  31.992  29.792  1.00  0.00    -0.744 OA
ENDBRANCH  78  81
ENDBRANCH  50  74
BRANCH  62  85
ATOM     85  C   UNL A   1      44.702  33.738  29.378  1.00  0.00     0.023 A 
ATOM     86  C   UNL A   1      45.401  34.082  30.552  1.00  0.00     0.012 A 
ATOM     87  C   UNL A   1      44.596  34.677  28.335  1.00  0.00     0.148 A 
ATOM     88  C   UNL A   1      45.959  35.353  30.697  1.00  0.00     0.002 A 
ATOM     89  C   UNL A   1      45.194  35.925  28.467  1.00  0.00     0.091 A 
ATOM     90  F   UNL A   1      43.909  34.339  27.233  1.00  0.00    -0.205 F 
ATOM     91  C   UNL A   1      45.866  36.268  29.651  1.00  0.00     0.022 A 
BRANCH  89  92
ATOM     92  S   UNL A   1      45.201  37.122  27.128  1.00  0.00     0.127 S 
ATOM     93  O   UNL A   1      45.989  38.210  27.703  1.00  0.00    -0.237 OA
ATOM     94  O   UNL A   1      45.869  36.389  26.051  1.00  0.00    -0.237 OA
ATOM     95  O   UNL A   1      43.801  37.426  26.866  1.00  0.00    -0.744 OA
ENDBRANCH  89  92
ENDBRANCH  62  85
ENDBRANCH  36  37
ENDBRANCH  29  31
ENDBRANCH  28  29
ENDBRANCH  27  28
ENDBRANCH  26  27
ENDBRANCH   1  26
TORSDOF 21
ENDMDL
MODEL 2
REMARK VINA RESULT:     -11.1      1.793      3.491
REMARK SMILES CC[C@H](NC(=O)c1nn(C)cc1C(=O)OCCOCCOC(=O)c1ccc(-c2c3nc(c(-c4cccc(S(=O)(=O)[O-])c4F)c4ccc([nH]4)c(-c4cccc(S(=O)(=O)[O-])c4F)c4nc(c(-c5cccc(S(=O)(=O)[O-])c5F)c5ccc2[nH]5)C=C4)C=C3)cc1)c1ccccc1
REMARK SMILES IDX 18 1 17 2 16 3 15 4 13 5 14 6 12 7 7 8 8 9 9 10 11 11 10 12
REMARK SMILES IDX 5 13 4 14 6 16 3 17 2 18 1 19 87 20 88 21 92 22 89 23 91 24
REMARK SMILES IDX 90 25 19 26 20 27 21 28 22 29 23 30 24 31 25 32 86 33 26 34
REMARK SMILES IDX 85 35 27 36 28 37 29 38 79 39 30 40 84 41 78 42 80 43 31 44
REMARK SMILES IDX 83 45 77 46 76 47 32 49 64 50 44 51 63 52 45 53 48 54 62 55
REMARK SMILES IDX 81 56 46 57 47 58 61 60 82 61 49 62 33 63 34 64 42 65 35 66
REMARK SMILES IDX 37 67 43 68 36 69 38 70 39 71 40 72 41 73 65 74 66 75 74 76
REMARK SMILES IDX 67 77 69 78 75 79 68 80 70 81 71 82 72 83 73 84 50 85 51 86
REMARK SMILES IDX 59 87 52 88 54 89 60 90 53 91 55 92 56 93 57 94 58 95
REMARK H PARENT 4 15 80 48 48 59
REMARK Flexibility Score: inf
ROOT
ATOM      1  O   UNL A   1      36.065  21.673  25.754  1.00  0.00    -0.374 OA
ENDROOT
BRANCH   1   2
ATOM      2  C   UNL A   1      34.905  21.554  26.585  1.00  0.00     0.202 C 
BRANCH   2   3
ATOM      3  C   UNL A   1      34.534  22.834  27.347  1.00  0.00     0.261 C 
BRANCH   3   4
ATOM      4  O   UNL A   1      34.551  23.960  26.453  1.00  0.00    -0.460 OA
BRANCH   4   5
ATOM      5  C   UNL A   1      33.337  24.469  26.094  1.00  0.00     0.342 C 
ATOM      6  O   UNL A   1      32.318  24.402  26.764  1.00  0.00    -0.246 OA
BRANCH   5   7
ATOM      7  C   UNL A   1      33.433  25.236  24.868  1.00  0.00     0.111 A 
ATOM      8  C   UNL A   1      33.964  24.830  23.609  1.00  0.00     0.164 A 
ATOM      9  N   UNL A   1      33.808  25.806  22.687  1.00  0.00    -0.167 NA
ATOM     10  N   UNL A   1      33.275  26.831  23.373  1.00  0.00    -0.274 N 
ATOM     11  C   UNL A   1      32.964  26.521  24.658  1.00  0.00     0.125 A 
ATOM     12  C   UNL A   1      33.138  28.123  22.741  1.00  0.00     0.173 C 
BRANCH   8  13
ATOM     13  C   UNL A   1      34.695  23.601  23.280  1.00  0.00     0.273 C 
ATOM     14  N   UNL A   1      34.065  22.380  23.272  1.00  0.00    -0.344 N 
ATOM     15  H   UNL A   1      34.614  21.651  22.903  1.00  0.00     0.164 HD
ATOM     16  O   UNL A   1      35.883  23.630  22.958  1.00  0.00    -0.267 OA
BRANCH  14  17
ATOM     17  C   UNL A   1      32.735  21.955  23.705  1.00  0.00     0.112 C 
BRANCH  17  18
ATOM     18  C   UNL A   1      31.683  22.525  22.720  1.00  0.00     0.026 C 
ATOM     19  C   UNL A   1      30.707  23.467  23.415  1.00  0.00     0.006 C 
ENDBRANCH  17  18
BRANCH  17  20
ATOM     20  C   UNL A   1      32.652  20.429  23.842  1.00  0.00    -0.026 A 
ATOM     21  C   UNL A   1      32.370  19.617  22.726  1.00  0.00     0.006 A 
ATOM     22  C   UNL A   1      32.762  19.784  25.087  1.00  0.00     0.006 A 
ATOM     23  C   UNL A   1      32.239  18.228  22.846  1.00  0.00     0.000 A 
ATOM     24  C   UNL A   1      32.622  18.397  25.210  1.00  0.00     0.000 A 
ATOM     25  C   UNL A   1      32.367  17.618  24.088  1.00  0.00     0.000 A 
ENDBRANCH  17  20
ENDBRANCH  14  17
ENDBRANCH   8  13
ENDBRANCH   5   7
ENDBRANCH   4   5
ENDBRANCH   3   4
ENDBRANCH   2   3
ENDBRANCH   1   2
BRANCH   1  26
ATOM     26  C   UNL A   1      36.450  20.462  25.102  1.00  0.00     0.202 C 
BRANCH  26  27
ATOM     27  C   UNL A   1      37.965  20.268  25.127  1.00  0.00     0.261 C 
BRANCH  27  28
ATOM     28  O   UNL A   1      38.553  21.512  25.509  1.00  0.00    -0.460 OA
BRANCH  28  29
ATOM     29  C   UNL A   1      39.732  21.358  26.156  1.00  0.00     0.338 C 
ATOM     30  O   UNL A   1      40.504  20.421  26.046  1.00  0.00    -0.246 OA
BRANCH  29  31
ATOM     31  C   UNL A   1      40.025  22.610  26.885  1.00  0.00     0.060 A 
ATOM     32  C   UNL A   1      39.310  23.754  26.516  1.00  0.00     0.016 A 
ATOM     33  C   UNL A   1      40.968  22.665  27.922  1.00  0.00     0.016 A 
ATOM     34  C   UNL A   1      39.613  24.976  27.106  1.00  0.00     0.010 A 
ATOM     35  C   UNL A   1      41.257  23.885  28.526  1.00  0.00     0.010 A 
ATOM     36  C   UNL A   1      40.629  25.052  28.067  1.00  0.00    -0.014 A 
BRANCH  36  37
ATOM     37  C   UNL A   1      41.183  26.376  28.412  1.00  0.00     0.031 A 
ATOM     38  C   UNL A   1      42.591  26.687  27.988  1.00  0.00     0.074 A 
ATOM     39  C   UNL A   1      40.441  27.287  29.058  1.00  0.00     0.049 A 
ATOM     40  N   UNL A   1      43.254  27.808  28.083  1.00  0.00    -0.248 NA
ATOM     41  C   UNL A   1      43.359  25.586  27.382  1.00  0.00     0.031 C 
ATOM     42  C   UNL A   1      39.085  27.071  29.558  1.00  0.00     0.029 A 
ATOM     43  N   UNL A   1      40.738  28.575  29.419  1.00  0.00    -0.354 N 
ATOM     44  C   UNL A   1      44.515  27.545  27.565  1.00  0.00     0.074 A 
ATOM     45  C   UNL A   1      44.541  26.150  27.190  1.00  0.00     0.031 C 
ATOM     46  C   UNL A   1      38.672  28.186  30.185  1.00  0.00     0.029 A 
ATOM     47  C   UNL A   1      39.734  29.190  30.124  1.00  0.00     0.049 A 
ATOM     48  H   UNL A   1      41.588  29.016  29.194  1.00  0.00     0.167 HD
ATOM     49  C   UNL A   1      45.551  28.396  27.385  1.00  0.00     0.034 A 
ATOM     50  C   UNL A   1      39.682  30.427  30.655  1.00  0.00     0.034 A 
ATOM     51  C   UNL A   1      45.509  29.786  27.739  1.00  0.00     0.049 A 
ATOM     52  C   UNL A   1      40.827  31.374  30.409  1.00  0.00     0.074 A 
ATOM     53  C   UNL A   1      46.474  30.756  27.542  1.00  0.00     0.029 A 
ATOM     54  N   UNL A   1      44.444  30.401  28.380  1.00  0.00    -0.354 N 
ATOM     55  N   UNL A   1      41.949  31.161  29.762  1.00  0.00    -0.248 NA
ATOM     56  C   UNL A   1      40.679  32.744  30.917  1.00  0.00     0.031 C 
ATOM     57  C   UNL A   1      45.996  31.958  28.080  1.00  0.00     0.029 A 
ATOM     58  C   UNL A   1      44.728  31.737  28.595  1.00  0.00     0.049 A 
ATOM     59  H   UNL A   1      43.608  29.953  28.642  1.00  0.00     0.167 HD
ATOM     60  C   UNL A   1      42.628  32.374  29.760  1.00  0.00     0.074 A 
ATOM     61  C   UNL A   1      41.778  33.324  30.452  1.00  0.00     0.031 C 
ATOM     62  C   UNL A   1      43.848  32.674  29.246  1.00  0.00     0.034 A 
BRANCH  49  63
ATOM     63  C   UNL A   1      46.793  27.839  26.743  1.00  0.00     0.023 A 
ATOM     64  C   UNL A   1      47.779  27.230  27.549  1.00  0.00     0.012 A 
ATOM     65  C   UNL A   1      46.990  27.917  25.353  1.00  0.00     0.148 A 
ATOM     66  C   UNL A   1      48.957  26.744  26.984  1.00  0.00     0.002 A 
ATOM     67  C   UNL A   1      48.149  27.392  24.792  1.00  0.00     0.091 A 
ATOM     68  F   UNL A   1      46.061  28.532  24.606  1.00  0.00    -0.205 F 
ATOM     69  C   UNL A   1      49.137  26.816  25.606  1.00  0.00     0.022 A 
BRANCH  67  70
ATOM     70  S   UNL A   1      48.431  27.385  23.018  1.00  0.00     0.127 S 
ATOM     71  O   UNL A   1      49.760  27.986  22.926  1.00  0.00    -0.237 OA
ATOM     72  O   UNL A   1      48.385  25.956  22.700  1.00  0.00    -0.237 OA
ATOM     73  O   UNL A   1      47.341  28.162  22.445  1.00  0.00    -0.744 OA
ENDBRANCH  67  70
ENDBRANCH  49  63
BRANCH  50  74
ATOM     74  C   UNL A   1      38.467  30.845  31.407  1.00  0.00     0.023 A 
ATOM     75  C   UNL A   1      38.439  30.734  32.809  1.00  0.00     0.012 A 
ATOM     76  C   UNL A   1      37.369  31.421  30.738  1.00  0.00     0.148 A 
ATOM     77  C   UNL A   1      37.329  31.174  33.532  1.00  0.00     0.002 A 
ATOM     78  C   UNL A   1      36.292  31.906  31.467  1.00  0.00     0.091 A 
ATOM     79  F   UNL A   1      37.414  31.505  29.401  1.00  0.00    -0.205 F 
ATOM     80  C   UNL A   1      36.263  31.772  32.864  1.00  0.00     0.022 A 
BRANCH  78  81
ATOM     81  S   UNL A   1      34.944  32.816  30.704  1.00  0.00     0.127 S 
ATOM     82  O   UNL A   1      34.015  32.967  31.821  1.00  0.00    -0.237 OA
ATOM     83  O   UNL A   1      35.612  34.050  30.287  1.00  0.00    -0.237 OA
ATOM     84  O   UNL A   1      34.479  31.983  29.603  1.00  0.00    -0.744 OA
ENDBRANCH  78  81
ENDBRANCH  50  74
BRANCH  62  85
ATOM     85  C   UNL A   1      44.337  34.091  29.397  1.00  0.00     0.023 A 
ATOM     86  C   UNL A   1      45.234  34.411  30.435  1.00  0.00     0.012 A 
ATOM     87  C   UNL A   1      43.975  35.082  28.465  1.00  0.00     0.148 A 
ATOM     88  C   UNL A   1      45.737  35.705  30.562  1.00  0.00     0.002 A 
ATOM     89  C   UNL A   1      44.516  36.358  28.570  1.00  0.00     0.091 A 
ATOM     90  F   UNL A   1      43.104  34.765  27.495  1.00  0.00    -0.205 F 
ATOM     91  C   UNL A   1      45.389  36.674  29.624  1.00  0.00     0.022 A 
BRANCH  89  92
ATOM     92  S   UNL A   1      44.192  37.631  27.346  1.00  0.00     0.127 S 
ATOM     93  O   UNL A   1      43.960  38.803  28.187  1.00  0.00    -0.237 OA
ATOM     94  O   UNL A   1      45.442  37.665  26.584  1.00  0.00    -0.237 OA
ATOM     95  O   UNL A   1      43.042  37.161  26.585  1.00  0.00    -0.744 OA
ENDBRANCH  89  92
ENDBRANCH  62  85
ENDBRANCH  36  37
ENDBRANCH  29  31
ENDBRANCH  28  29
ENDBRANCH  27  28
ENDBRANCH  26  27
ENDBRANCH   1  26
TORSDOF 21
ENDMDL
MODEL 3
REMARK VINA RESULT:     -11.0      1.249      8.207
REMARK SMILES CC[C@H](NC(=O)c1nn(C)cc1C(=O)OCCOCCOC(=O)c1ccc(-c2c3nc(c(-c4cccc(S(=O)(=O)[O-])c4F)c4ccc([nH]4)c(-c4cccc(S(=O)(=O)[O-])c4F)c4nc(c(-c5cccc(S(=O)(=O)[O-])c5F)c5ccc2[nH]5)C=C4)C=C3)cc1)c1ccccc1
REMARK SMILES IDX 18 1 17 2 16 3 15 4 13 5 14 6 12 7 7 8 8 9 9 10 11 11 10 12
REMARK SMILES IDX 5 13 4 14 6 16 3 17 2 18 1 19 87 20 88 21 92 22 89 23 91 24
REMARK SMILES IDX 90 25 19 26 20 27 21 28 22 29 23 30 24 31 25 32 86 33 26 34
REMARK SMILES IDX 85 35 27 36 28 37 29 38 79 39 30 40 84 41 78 42 80 43 31 44
REMARK SMILES IDX 83 45 77 46 76 47 32 49 64 50 44 51 63 52 45 53 48 54 62 55
REMARK SMILES IDX 81 56 46 57 47 58 61 60 82 61 49 62 33 63 34 64 42 65 35 66
REMARK SMILES IDX 37 67 43 68 36 69 38 70 39 71 40 72 41 73 65 74 66 75 74 76
REMARK SMILES IDX 67 77 69 78 75 79 68 80 70 81 71 82 72 83 73 84 50 85 51 86
REMARK SMILES IDX 59 87 52 88 54 89 60 90 53 91 55 92 56 93 57 94 58 95
REMARK H PARENT 4 15 80 48 48 59
REMARK Flexibility Score: inf
ROOT
ATOM      1  O   UNL A   1      36.235  22.186  24.839  1.00  0.00    -0.374 OA
ENDROOT
BRANCH   1   2
ATOM      2  C   UNL A   1      36.194  22.715  23.510  1.00  0.00     0.202 C 
BRANCH   2   3
ATOM      3  C   UNL A   1      34.847  23.337  23.114  1.00  0.00     0.261 C 
BRANCH   3   4
ATOM      4  O   UNL A   1      34.699  24.625  23.736  1.00  0.00    -0.460 OA
BRANCH   4   5
ATOM      5  C   UNL A   1      33.876  25.512  23.106  1.00  0.00     0.342 C 
ATOM      6  O   UNL A   1      33.790  25.659  21.896  1.00  0.00    -0.246 OA
BRANCH   5   7
ATOM      7  C   UNL A   1      32.996  26.171  24.050  1.00  0.00     0.111 A 
ATOM      8  C   UNL A   1      31.700  25.768  24.484  1.00  0.00     0.164 A 
ATOM      9  N   UNL A   1      31.229  26.609  25.431  1.00  0.00    -0.167 NA
ATOM     10  N   UNL A   1      32.167  27.566  25.525  1.00  0.00    -0.274 N 
ATOM     11  C   UNL A   1      33.274  27.315  24.778  1.00  0.00     0.125 A 
ATOM     12  C   UNL A   1      31.914  28.745  26.320  1.00  0.00     0.173 C 
BRANCH   8  13
ATOM     13  C   UNL A   1      30.860  24.683  23.965  1.00  0.00     0.273 C 
ATOM     14  N   UNL A   1      31.018  23.390  24.403  1.00  0.00    -0.344 N 
ATOM     15  H   UNL A   1      30.313  22.776  24.094  1.00  0.00     0.164 HD
ATOM     16  O   UNL A   1      29.960  24.903  23.153  1.00  0.00    -0.267 OA
BRANCH  14  17
ATOM     17  C   UNL A   1      32.031  22.751  25.242  1.00  0.00     0.112 C 
BRANCH  17  18
ATOM     18  C   UNL A   1      31.613  22.899  26.727  1.00  0.00     0.026 C 
ATOM     19  C   UNL A   1      30.097  22.911  26.891  1.00  0.00     0.006 C 
ENDBRANCH  17  18
BRANCH  17  20
ATOM     20  C   UNL A   1      32.255  21.289  24.832  1.00  0.00    -0.026 A 
ATOM     21  C   UNL A   1      32.645  20.324  25.780  1.00  0.00     0.006 A 
ATOM     22  C   UNL A   1      32.173  20.869  23.492  1.00  0.00     0.006 A 
ATOM     23  C   UNL A   1      32.904  18.998  25.411  1.00  0.00     0.000 A 
ATOM     24  C   UNL A   1      32.442  19.548  23.120  1.00  0.00     0.000 A 
ATOM     25  C   UNL A   1      32.801  18.610  24.081  1.00  0.00     0.000 A 
ENDBRANCH  17  20
ENDBRANCH  14  17
ENDBRANCH   8  13
ENDBRANCH   5   7
ENDBRANCH   4   5
ENDBRANCH   3   4
ENDBRANCH   2   3
ENDBRANCH   1   2
BRANCH   1  26
ATOM     26  C   UNL A   1      36.191  20.760  24.908  1.00  0.00     0.202 C 
BRANCH  26  27
ATOM     27  C   UNL A   1      37.590  20.160  25.035  1.00  0.00     0.261 C 
BRANCH  27  28
ATOM     28  O   UNL A   1      38.511  21.240  25.182  1.00  0.00    -0.460 OA
BRANCH  28  29
ATOM     29  C   UNL A   1      39.434  21.016  26.147  1.00  0.00     0.338 C 
ATOM     30  O   UNL A   1      39.947  19.946  26.426  1.00  0.00    -0.246 OA
BRANCH  29  31
ATOM     31  C   UNL A   1      39.862  22.323  26.689  1.00  0.00     0.060 A 
ATOM     32  C   UNL A   1      39.198  23.463  26.223  1.00  0.00     0.016 A 
ATOM     33  C   UNL A   1      40.880  22.435  27.647  1.00  0.00     0.016 A 
ATOM     34  C   UNL A   1      39.624  24.722  26.630  1.00  0.00     0.010 A 
ATOM     35  C   UNL A   1      41.293  23.695  28.070  1.00  0.00     0.010 A 
ATOM     36  C   UNL A   1      40.711  24.840  27.506  1.00  0.00    -0.014 A 
BRANCH  36  37
ATOM     37  C   UNL A   1      41.375  26.152  27.642  1.00  0.00     0.031 A 
ATOM     38  C   UNL A   1      40.669  27.226  28.421  1.00  0.00     0.074 A 
ATOM     39  C   UNL A   1      42.588  26.369  27.111  1.00  0.00     0.049 A 
ATOM     40  N   UNL A   1      41.092  28.413  28.761  1.00  0.00    -0.248 NA
ATOM     41  C   UNL A   1      39.298  26.926  28.868  1.00  0.00     0.031 C 
ATOM     42  C   UNL A   1      43.337  25.414  26.297  1.00  0.00     0.029 A 
ATOM     43  N   UNL A   1      43.392  27.476  27.168  1.00  0.00    -0.354 N 
ATOM     44  C   UNL A   1      40.040  29.005  29.448  1.00  0.00     0.074 A 
ATOM     45  C   UNL A   1      38.944  28.063  29.446  1.00  0.00     0.031 C 
ATOM     46  C   UNL A   1      44.489  25.989  25.908  1.00  0.00     0.029 A 
ATOM     47  C   UNL A   1      44.554  27.345  26.451  1.00  0.00     0.049 A 
ATOM     48  H   UNL A   1      43.159  28.288  27.674  1.00  0.00     0.167 HD
ATOM     49  C   UNL A   1      40.000  30.212  30.058  1.00  0.00     0.034 A 
ATOM     50  C   UNL A   1      45.557  28.224  26.260  1.00  0.00     0.034 A 
ATOM     51  C   UNL A   1      41.101  31.131  30.076  1.00  0.00     0.049 A 
ATOM     52  C   UNL A   1      45.514  29.546  26.979  1.00  0.00     0.074 A 
ATOM     53  C   UNL A   1      41.197  32.352  30.717  1.00  0.00     0.029 A 
ATOM     54  N   UNL A   1      42.299  30.934  29.405  1.00  0.00    -0.354 N 
ATOM     55  N   UNL A   1      44.583  30.024  27.771  1.00  0.00    -0.248 NA
ATOM     56  C   UNL A   1      46.679  30.427  26.824  1.00  0.00     0.031 C 
ATOM     57  C   UNL A   1      42.450  32.901  30.420  1.00  0.00     0.029 A 
ATOM     58  C   UNL A   1      43.140  32.013  29.609  1.00  0.00     0.049 A 
ATOM     59  H   UNL A   1      42.520  30.141  28.865  1.00  0.00     0.167 HD
ATOM     60  C   UNL A   1      45.060  31.246  28.231  1.00  0.00     0.074 A 
ATOM     61  C   UNL A   1      46.375  31.424  27.645  1.00  0.00     0.031 C 
ATOM     62  C   UNL A   1      44.462  32.147  29.052  1.00  0.00     0.034 A 
BRANCH  49  63
ATOM     63  C   UNL A   1      38.731  30.572  30.782  1.00  0.00     0.023 A 
ATOM     64  C   UNL A   1      38.568  30.195  32.131  1.00  0.00     0.012 A 
ATOM     65  C   UNL A   1      37.701  31.278  30.133  1.00  0.00     0.148 A 
ATOM     66  C   UNL A   1      37.385  30.480  32.811  1.00  0.00     0.002 A 
ATOM     67  C   UNL A   1      36.540  31.596  30.831  1.00  0.00     0.091 A 
ATOM     68  F   UNL A   1      37.856  31.597  28.840  1.00  0.00    -0.205 F 
ATOM     69  C   UNL A   1      36.376  31.188  32.165  1.00  0.00     0.022 A 
BRANCH  67  70
ATOM     70  S   UNL A   1      35.220  32.563  30.093  1.00  0.00     0.127 S 
ATOM     71  O   UNL A   1      34.300  32.718  31.218  1.00  0.00    -0.237 OA
ATOM     72  O   UNL A   1      35.913  33.791  29.699  1.00  0.00    -0.237 OA
ATOM     73  O   UNL A   1      34.729  31.768  28.976  1.00  0.00    -0.744 OA
ENDBRANCH  67  70
ENDBRANCH  49  63
BRANCH  50  74
ATOM     74  C   UNL A   1      46.710  27.836  25.402  1.00  0.00     0.023 A 
ATOM     75  C   UNL A   1      46.656  28.056  24.013  1.00  0.00     0.012 A 
ATOM     76  C   UNL A   1      47.889  27.317  25.972  1.00  0.00     0.148 A 
ATOM     77  C   UNL A   1      47.751  27.750  23.204  1.00  0.00     0.002 A 
ATOM     78  C   UNL A   1      48.994  27.065  25.169  1.00  0.00     0.091 A 
ATOM     79  F   UNL A   1      47.913  27.104  27.296  1.00  0.00    -0.205 F 
ATOM     80  C   UNL A   1      48.923  27.268  23.782  1.00  0.00     0.022 A 
BRANCH  78  81
ATOM     81  S   UNL A   1      50.586  26.579  25.845  1.00  0.00     0.127 S 
ATOM     82  O   UNL A   1      50.918  27.729  26.683  1.00  0.00    -0.237 OA
ATOM     83  O   UNL A   1      50.242  25.361  26.579  1.00  0.00    -0.237 OA
ATOM     84  O   UNL A   1      51.454  26.363  24.696  1.00  0.00    -0.744 OA
ENDBRANCH  78  81
ENDBRANCH  50  74
BRANCH  62  85
ATOM     85  C   UNL A   1      45.225  33.403  29.380  1.00  0.00     0.023 A 
ATOM     86  C   UNL A   1      46.088  33.421  30.494  1.00  0.00     0.012 A 
ATOM     87  C   UNL A   1      45.152  34.532  28.543  1.00  0.00     0.148 A 
ATOM     88  C   UNL A   1      46.842  34.558  30.787  1.00  0.00     0.002 A 
ATOM     89  C   UNL A   1      45.940  35.645  28.814  1.00  0.00     0.091 A 
ATOM     90  F   UNL A   1      44.309  34.505  27.499  1.00  0.00    -0.205 F 
ATOM     91  C   UNL A   1      46.777  35.663  29.942  1.00  0.00     0.022 A 
BRANCH  89  92
ATOM     92  S   UNL A   1      45.985  37.068  27.719  1.00  0.00     0.127 S 
ATOM     93  O   UNL A   1      46.918  37.951  28.415  1.00  0.00    -0.237 OA
ATOM     94  O   UNL A   1      46.501  36.494  26.475  1.00  0.00    -0.237 OA
ATOM     95  O   UNL A   1      44.610  37.541  27.634  1.00  0.00    -0.744 OA
ENDBRANCH  89  92
ENDBRANCH  62  85
ENDBRANCH  36  37
ENDBRANCH  29  31
ENDBRANCH  28  29
ENDBRANCH  27  28
ENDBRANCH  26  27
ENDBRANCH   1  26
TORSDOF 21
ENDMDL
