MODEL 1
REMARK VINA RESULT:     -10.2      0.000      0.000
REMARK SMILES O=C(OCCOCCOC(=O)[C@@]1([NH2+]C2CC2)CCC[C@H]1CCn1ccnc1)c1ccc(-c2c3nc(c(-c4cccc(S(=O)(=O)[O-])c4F)c4ccc([nH]4)c(-c4cccc(S(=O)(=O)[O-])c4F)c4nc(c(-c5cccc(S(=O)(=O)[O-])c5F)c5ccc2[nH]5)C=C4)C=C3)cc1
REMARK SMILES IDX 6 1 5 2 4 3 3 4 2 5 1 6 28 7 29 8 90 9 30 10 89 11 31 12
REMARK SMILES IDX 32 13 33 14 83 15 34 16 88 17 82 18 84 19 35 20 87 21 81 22
REMARK SMILES IDX 80 23 36 25 68 26 48 27 67 28 49 29 52 30 66 31 85 32 50 33
REMARK SMILES IDX 51 34 65 36 86 37 53 38 37 39 38 40 46 41 39 42 41 43 47 44
REMARK SMILES IDX 40 45 42 46 43 47 44 48 45 49 69 50 70 51 78 52 71 53 73 54
REMARK SMILES IDX 79 55 72 56 74 57 75 58 76 59 77 60 54 61 55 62 63 63 56 64
REMARK SMILES IDX 58 65 64 66 57 67 59 68 60 69 61 70 62 71 7 72 8 73 9 74
REMARK SMILES IDX 10 75 11 76 12 77 17 78 20 79 18 80 19 81 13 82 14 85 15 86
REMARK SMILES IDX 16 87 21 88 22 89 23 90 24 91 27 92 25 93 26 94
REMARK H PARENT 84 24 52 35 13 83 13 84
REMARK Flexibility Score: inf
ROOT
ATOM      1  O   UNL A   1      31.674  30.249  26.639  1.00  0.00    -0.374 OA
ENDROOT
BRANCH   1   2
ATOM      2  C   UNL A   1      31.565  31.665  26.634  1.00  0.00     0.202 C 
BRANCH   2   3
ATOM      3  C   UNL A   1      32.729  32.517  27.188  1.00  0.00     0.261 C 
BRANCH   3   4
ATOM      4  O   UNL A   1      32.330  33.715  27.852  1.00  0.00    -0.460 OA
BRANCH   4   5
ATOM      5  C   UNL A   1      33.073  34.506  28.652  1.00  0.00     0.338 C 
ATOM      6  O   UNL A   1      32.561  35.538  29.083  1.00  0.00    -0.246 OA
BRANCH   5   7
ATOM      7  C   UNL A   1      34.477  34.179  29.032  1.00  0.00     0.060 A 
ATOM      8  C   UNL A   1      35.616  34.508  28.298  1.00  0.00     0.016 A 
ATOM      9  C   UNL A   1      34.633  33.451  30.222  1.00  0.00     0.016 A 
ATOM     10  C   UNL A   1      36.805  33.875  28.535  1.00  0.00     0.010 A 
ATOM     11  C   UNL A   1      35.858  32.900  30.542  1.00  0.00     0.010 A 
ATOM     12  C   UNL A   1      36.891  33.027  29.625  1.00  0.00    -0.014 A 
BRANCH  12  13
ATOM     13  C   UNL A   1      38.150  32.341  29.762  1.00  0.00     0.031 A 
ATOM     14  C   UNL A   1      38.113  30.947  29.252  1.00  0.00     0.074 A 
ATOM     15  C   UNL A   1      39.187  32.972  30.337  1.00  0.00     0.049 A 
ATOM     16  N   UNL A   1      38.246  29.849  29.924  1.00  0.00    -0.248 NA
ATOM     17  C   UNL A   1      37.627  30.753  27.876  1.00  0.00     0.031 C 
ATOM     18  C   UNL A   1      39.305  34.399  30.650  1.00  0.00     0.029 A 
ATOM     19  N   UNL A   1      40.423  32.492  30.601  1.00  0.00    -0.354 N 
ATOM     20  C   UNL A   1      38.105  28.828  28.985  1.00  0.00     0.074 A 
ATOM     21  C   UNL A   1      37.495  29.428  27.832  1.00  0.00     0.031 C 
ATOM     22  C   UNL A   1      40.616  34.711  30.740  1.00  0.00     0.029 A 
ATOM     23  C   UNL A   1      41.390  33.488  30.625  1.00  0.00     0.049 A 
ATOM     24  H   UNL A   1      40.618  31.540  30.759  1.00  0.00     0.167 HD
ATOM     25  C   UNL A   1      38.785  27.657  29.121  1.00  0.00     0.034 A 
ATOM     26  C   UNL A   1      42.714  33.308  30.407  1.00  0.00     0.034 A 
ATOM     27  C   UNL A   1      39.175  27.450  30.495  1.00  0.00     0.049 A 
ATOM     28  C   UNL A   1      43.000  31.864  30.606  1.00  0.00     0.074 A 
ATOM     29  C   UNL A   1      38.501  27.323  31.693  1.00  0.00     0.029 A 
ATOM     30  N   UNL A   1      40.480  27.733  30.822  1.00  0.00    -0.354 N 
ATOM     31  N   UNL A   1      42.889  31.263  31.759  1.00  0.00    -0.248 NA
ATOM     32  C   UNL A   1      42.949  30.993  29.442  1.00  0.00     0.031 C 
ATOM     33  C   UNL A   1      39.324  27.984  32.652  1.00  0.00     0.029 A 
ATOM     34  C   UNL A   1      40.481  28.421  32.002  1.00  0.00     0.049 A 
ATOM     35  H   UNL A   1      41.275  27.485  30.296  1.00  0.00     0.167 HD
ATOM     36  C   UNL A   1      42.303  30.038  31.458  1.00  0.00     0.074 A 
ATOM     37  C   UNL A   1      42.469  29.884  30.012  1.00  0.00     0.031 C 
ATOM     38  C   UNL A   1      41.476  29.413  32.348  1.00  0.00     0.034 A 
BRANCH  25  39
ATOM     39  C   UNL A   1      39.514  26.963  27.977  1.00  0.00     0.023 A 
ATOM     40  C   UNL A   1      39.320  25.566  27.864  1.00  0.00     0.012 A 
ATOM     41  C   UNL A   1      40.591  27.510  27.240  1.00  0.00     0.148 A 
ATOM     42  C   UNL A   1      40.230  24.748  27.185  1.00  0.00     0.002 A 
ATOM     43  C   UNL A   1      41.470  26.699  26.531  1.00  0.00     0.091 A 
ATOM     44  F   UNL A   1      40.852  28.814  27.276  1.00  0.00    -0.205 F 
ATOM     45  C   UNL A   1      41.317  25.314  26.534  1.00  0.00     0.022 A 
BRANCH  43  46
ATOM     46  S   UNL A   1      42.883  27.392  25.656  1.00  0.00     0.127 S 
ATOM     47  O   UNL A   1      43.485  26.183  25.087  1.00  0.00    -0.237 OA
ATOM     48  O   UNL A   1      42.221  28.267  24.682  1.00  0.00    -0.237 OA
ATOM     49  O   UNL A   1      43.673  28.090  26.646  1.00  0.00    -0.744 OA
ENDBRANCH  43  46
ENDBRANCH  25  39
BRANCH  26  50
ATOM     50  C   UNL A   1      43.646  34.221  29.705  1.00  0.00     0.023 A 
ATOM     51  C   UNL A   1      44.467  35.080  30.456  1.00  0.00     0.012 A 
ATOM     52  C   UNL A   1      43.910  34.083  28.321  1.00  0.00     0.148 A 
ATOM     53  C   UNL A   1      45.528  35.767  29.853  1.00  0.00     0.002 A 
ATOM     54  C   UNL A   1      44.954  34.781  27.724  1.00  0.00     0.091 A 
ATOM     55  F   UNL A   1      43.200  33.199  27.607  1.00  0.00    -0.205 F 
ATOM     56  C   UNL A   1      45.774  35.615  28.490  1.00  0.00     0.022 A 
BRANCH  54  57
ATOM     57  S   UNL A   1      45.330  34.626  25.971  1.00  0.00     0.127 S 
ATOM     58  O   UNL A   1      45.971  33.310  25.916  1.00  0.00    -0.237 OA
ATOM     59  O   UNL A   1      44.001  34.684  25.370  1.00  0.00    -0.237 OA
ATOM     60  O   UNL A   1      46.219  35.736  25.655  1.00  0.00    -0.744 OA
ENDBRANCH  54  57
ENDBRANCH  26  50
BRANCH  38  61
ATOM     61  C   UNL A   1      41.399  29.959  33.751  1.00  0.00     0.023 A 
ATOM     62  C   UNL A   1      42.358  29.644  34.737  1.00  0.00     0.012 A 
ATOM     63  C   UNL A   1      40.453  30.961  34.019  1.00  0.00     0.148 A 
ATOM     64  C   UNL A   1      42.357  30.299  35.972  1.00  0.00     0.002 A 
ATOM     65  C   UNL A   1      40.485  31.643  35.228  1.00  0.00     0.091 A 
ATOM     66  F   UNL A   1      39.556  31.255  33.067  1.00  0.00    -0.205 F 
ATOM     67  C   UNL A   1      41.429  31.309  36.212  1.00  0.00     0.022 A 
BRANCH  65  68
ATOM     68  S   UNL A   1      39.407  33.042  35.539  1.00  0.00     0.127 S 
ATOM     69  O   UNL A   1      39.850  33.484  36.858  1.00  0.00    -0.237 OA
ATOM     70  O   UNL A   1      39.745  33.951  34.442  1.00  0.00    -0.237 OA
ATOM     71  O   UNL A   1      38.047  32.518  35.475  1.00  0.00    -0.744 OA
ENDBRANCH  65  68
ENDBRANCH  38  61
ENDBRANCH  12  13
ENDBRANCH   5   7
ENDBRANCH   4   5
ENDBRANCH   3   4
ENDBRANCH   2   3
ENDBRANCH   1   2
BRANCH   1  72
ATOM     72  C   UNL A   1      32.796  29.611  27.238  1.00  0.00     0.202 C 
BRANCH  72  73
ATOM     73  C   UNL A   1      33.950  29.075  26.391  1.00  0.00     0.261 C 
BRANCH  73  74
ATOM     74  O   UNL A   1      33.744  27.766  25.818  1.00  0.00    -0.459 OA
BRANCH  74  75
ATOM     75  C   UNL A   1      33.128  27.736  24.600  1.00  0.00     0.368 C 
ATOM     76  O   UNL A   1      33.171  28.667  23.801  1.00  0.00    -0.245 OA
BRANCH  75  77
ATOM     77  C   UNL A   1      32.291  26.456  24.378  1.00  0.00     0.197 C 
ATOM     78  C   UNL A   1      31.597  25.790  25.575  1.00  0.00     0.081 C 
ATOM     79  C   UNL A   1      31.043  26.789  23.482  1.00  0.00     0.064 C 
ATOM     80  C   UNL A   1      30.542  24.871  24.960  1.00  0.00     0.008 C 
ATOM     81  C   UNL A   1      30.158  25.516  23.628  1.00  0.00     0.011 C 
BRANCH  77  82
ATOM     82  N   UNL A   1      33.099  25.432  23.641  1.00  0.00    -0.329 N 
ATOM     83  H   UNL A   1      33.915  25.924  23.276  1.00  0.00     0.347 HD
ATOM     84  H   UNL A   1      32.411  25.049  22.993  1.00  0.00     0.347 HD
BRANCH  82  85
ATOM     85  C   UNL A   1      33.611  24.221  24.285  1.00  0.00     0.183 C 
ATOM     86  C   UNL A   1      34.272  23.049  23.633  1.00  0.00     0.071 C 
ATOM     87  C   UNL A   1      35.119  24.056  24.326  1.00  0.00     0.071 C 
ENDBRANCH  82  85
ENDBRANCH  77  82
BRANCH  79  88
ATOM     88  C   UNL A   1      30.129  27.997  23.845  1.00  0.00     0.032 C 
BRANCH  88  89
ATOM     89  C   UNL A   1      28.931  28.401  22.978  1.00  0.00     0.123 C 
BRANCH  89  90
ATOM     90  N   UNL A   1      28.703  29.784  22.639  1.00  0.00    -0.337 N 
ATOM     91  C   UNL A   1      27.846  30.608  23.326  1.00  0.00     0.107 A 
ATOM     92  C   UNL A   1      29.161  30.485  21.564  1.00  0.00     0.199 A 
ATOM     93  C   UNL A   1      27.867  31.799  22.642  1.00  0.00     0.130 A 
ATOM     94  N   UNL A   1      28.679  31.710  21.542  1.00  0.00    -0.245 NA
ENDBRANCH  89  90
ENDBRANCH  88  89
ENDBRANCH  79  88
ENDBRANCH  75  77
ENDBRANCH  74  75
ENDBRANCH  73  74
ENDBRANCH  72  73
ENDBRANCH   1  72
TORSDOF 22
ENDMDL
MODEL 2
REMARK VINA RESULT:     -10.0      3.562      7.270
REMARK SMILES O=C(OCCOCCOC(=O)[C@@]1([NH2+]C2CC2)CCC[C@H]1CCn1ccnc1)c1ccc(-c2c3nc(c(-c4cccc(S(=O)(=O)[O-])c4F)c4ccc([nH]4)c(-c4cccc(S(=O)(=O)[O-])c4F)c4nc(c(-c5cccc(S(=O)(=O)[O-])c5F)c5ccc2[nH]5)C=C4)C=C3)cc1
REMARK SMILES IDX 6 1 5 2 4 3 3 4 2 5 1 6 28 7 29 8 90 9 30 10 89 11 31 12
REMARK SMILES IDX 32 13 33 14 83 15 34 16 88 17 82 18 84 19 35 20 87 21 81 22
REMARK SMILES IDX 80 23 36 25 68 26 48 27 67 28 49 29 52 30 66 31 85 32 50 33
REMARK SMILES IDX 51 34 65 36 86 37 53 38 37 39 38 40 46 41 39 42 41 43 47 44
REMARK SMILES IDX 40 45 42 46 43 47 44 48 45 49 69 50 70 51 78 52 71 53 73 54
REMARK SMILES IDX 79 55 72 56 74 57 75 58 76 59 77 60 54 61 55 62 63 63 56 64
REMARK SMILES IDX 58 65 64 66 57 67 59 68 60 69 61 70 62 71 7 72 8 73 9 74
REMARK SMILES IDX 10 75 11 76 12 77 17 78 20 79 18 80 19 81 13 82 14 85 15 86
REMARK SMILES IDX 16 87 21 88 22 89 23 90 24 91 27 92 25 93 26 94
REMARK H PARENT 84 24 52 35 13 83 13 84
REMARK Flexibility Score: inf
ROOT
ATOM      1  O   UNL A   1      33.365  29.912  27.662  1.00  0.00    -0.374 OA
ENDROOT
BRANCH   1   2
ATOM      2  C   UNL A   1      33.137  31.242  27.219  1.00  0.00     0.202 C 
BRANCH   2   3
ATOM      3  C   UNL A   1      34.112  32.362  27.646  1.00  0.00     0.261 C 
BRANCH   3   4
ATOM      4  O   UNL A   1      35.432  31.919  27.957  1.00  0.00    -0.460 OA
BRANCH   4   5
ATOM      5  C   UNL A   1      36.235  32.344  28.953  1.00  0.00     0.338 C 
ATOM      6  O   UNL A   1      36.020  33.455  29.437  1.00  0.00    -0.246 OA
BRANCH   5   7
ATOM      7  C   UNL A   1      37.361  31.526  29.488  1.00  0.00     0.060 A 
ATOM      8  C   UNL A   1      38.565  32.026  29.985  1.00  0.00     0.016 A 
ATOM      9  C   UNL A   1      37.178  30.135  29.449  1.00  0.00     0.016 A 
ATOM     10  C   UNL A   1      39.655  31.211  30.120  1.00  0.00     0.010 A 
ATOM     11  C   UNL A   1      38.240  29.289  29.698  1.00  0.00     0.010 A 
ATOM     12  C   UNL A   1      39.489  29.854  29.913  1.00  0.00    -0.014 A 
BRANCH  12  13
ATOM     13  C   UNL A   1      40.697  29.075  29.999  1.00  0.00     0.031 A 
ATOM     14  C   UNL A   1      41.126  28.816  31.398  1.00  0.00     0.074 A 
ATOM     15  C   UNL A   1      41.320  28.695  28.872  1.00  0.00     0.049 A 
ATOM     16  N   UNL A   1      42.194  29.238  31.994  1.00  0.00    -0.248 NA
ATOM     17  C   UNL A   1      40.127  28.224  32.302  1.00  0.00     0.031 C 
ATOM     18  C   UNL A   1      40.807  28.757  27.500  1.00  0.00     0.029 A 
ATOM     19  N   UNL A   1      42.479  28.010  28.739  1.00  0.00    -0.354 N 
ATOM     20  C   UNL A   1      42.105  28.739  33.294  1.00  0.00     0.074 A 
ATOM     21  C   UNL A   1      40.736  28.353  33.480  1.00  0.00     0.031 C 
ATOM     22  C   UNL A   1      41.481  27.860  26.750  1.00  0.00     0.029 A 
ATOM     23  C   UNL A   1      42.538  27.282  27.559  1.00  0.00     0.049 A 
ATOM     24  H   UNL A   1      43.202  28.024  29.407  1.00  0.00     0.167 HD
ATOM     25  C   UNL A   1      43.226  28.400  33.988  1.00  0.00     0.034 A 
ATOM     26  C   UNL A   1      43.304  26.186  27.346  1.00  0.00     0.034 A 
ATOM     27  C   UNL A   1      44.382  29.079  33.454  1.00  0.00     0.049 A 
ATOM     28  C   UNL A   1      44.370  26.187  28.379  1.00  0.00     0.074 A 
ATOM     29  C   UNL A   1      44.751  30.400  33.293  1.00  0.00     0.029 A 
ATOM     30  N   UNL A   1      45.208  28.351  32.630  1.00  0.00    -0.354 N 
ATOM     31  N   UNL A   1      45.307  27.093  28.441  1.00  0.00    -0.248 NA
ATOM     32  C   UNL A   1      44.124  25.460  29.615  1.00  0.00     0.031 C 
ATOM     33  C   UNL A   1      45.455  30.438  32.053  1.00  0.00     0.029 A 
ATOM     34  C   UNL A   1      45.533  29.134  31.558  1.00  0.00     0.049 A 
ATOM     35  H   UNL A   1      45.510  27.427  32.785  1.00  0.00     0.167 HD
ATOM     36  C   UNL A   1      45.438  27.366  29.799  1.00  0.00     0.074 A 
ATOM     37  C   UNL A   1      44.769  26.254  30.475  1.00  0.00     0.031 C 
ATOM     38  C   UNL A   1      45.801  28.608  30.237  1.00  0.00     0.034 A 
BRANCH  25  39
ATOM     39  C   UNL A   1      43.364  27.117  34.798  1.00  0.00     0.023 A 
ATOM     40  C   UNL A   1      43.569  27.272  36.189  1.00  0.00     0.012 A 
ATOM     41  C   UNL A   1      43.628  25.834  34.262  1.00  0.00     0.148 A 
ATOM     42  C   UNL A   1      44.144  26.260  36.967  1.00  0.00     0.002 A 
ATOM     43  C   UNL A   1      44.159  24.816  35.047  1.00  0.00     0.091 A 
ATOM     44  F   UNL A   1      43.460  25.586  32.966  1.00  0.00    -0.205 F 
ATOM     45  C   UNL A   1      44.456  25.037  36.390  1.00  0.00     0.022 A 
BRANCH  43  46
ATOM     46  S   UNL A   1      44.563  23.209  34.343  1.00  0.00     0.127 S 
ATOM     47  O   UNL A   1      45.742  23.539  33.537  1.00  0.00    -0.237 OA
ATOM     48  O   UNL A   1      44.845  22.425  35.552  1.00  0.00    -0.237 OA
ATOM     49  O   UNL A   1      43.393  22.778  33.611  1.00  0.00    -0.744 OA
ENDBRANCH  43  46
ENDBRANCH  25  39
BRANCH  26  50
ATOM     50  C   UNL A   1      42.959  24.985  26.550  1.00  0.00     0.023 A 
ATOM     51  C   UNL A   1      43.777  24.613  25.470  1.00  0.00     0.012 A 
ATOM     52  C   UNL A   1      41.976  24.065  26.991  1.00  0.00     0.148 A 
ATOM     53  C   UNL A   1      43.636  23.362  24.858  1.00  0.00     0.002 A 
ATOM     54  C   UNL A   1      41.827  22.831  26.369  1.00  0.00     0.091 A 
ATOM     55  F   UNL A   1      41.249  24.360  28.077  1.00  0.00    -0.205 F 
ATOM     56  C   UNL A   1      42.665  22.470  25.309  1.00  0.00     0.022 A 
BRANCH  54  57
ATOM     57  S   UNL A   1      40.599  21.630  26.905  1.00  0.00     0.127 S 
ATOM     58  O   UNL A   1      39.347  22.314  26.578  1.00  0.00    -0.237 OA
ATOM     59  O   UNL A   1      40.909  20.482  26.057  1.00  0.00    -0.237 OA
ATOM     60  O   UNL A   1      40.822  21.443  28.332  1.00  0.00    -0.744 OA
ENDBRANCH  54  57
ENDBRANCH  26  50
BRANCH  38  61
ATOM     61  C   UNL A   1      46.288  29.607  29.219  1.00  0.00     0.023 A 
ATOM     62  C   UNL A   1      47.629  29.648  28.782  1.00  0.00     0.012 A 
ATOM     63  C   UNL A   1      45.332  30.387  28.549  1.00  0.00     0.148 A 
ATOM     64  C   UNL A   1      48.010  30.467  27.716  1.00  0.00     0.002 A 
ATOM     65  C   UNL A   1      45.704  31.163  27.460  1.00  0.00     0.091 A 
ATOM     66  F   UNL A   1      44.060  30.329  28.971  1.00  0.00    -0.205 F 
ATOM     67  C   UNL A   1      47.045  31.214  27.045  1.00  0.00     0.022 A 
BRANCH  65  68
ATOM     68  S   UNL A   1      44.486  32.035  26.475  1.00  0.00     0.127 S 
ATOM     69  O   UNL A   1      45.258  32.407  25.292  1.00  0.00    -0.237 OA
ATOM     70  O   UNL A   1      43.470  31.007  26.246  1.00  0.00    -0.237 OA
ATOM     71  O   UNL A   1      44.027  33.146  27.301  1.00  0.00    -0.744 OA
ENDBRANCH  65  68
ENDBRANCH  38  61
ENDBRANCH  12  13
ENDBRANCH   5   7
ENDBRANCH   4   5
ENDBRANCH   3   4
ENDBRANCH   2   3
ENDBRANCH   1   2
BRANCH   1  72
ATOM     72  C   UNL A   1      33.911  28.940  26.777  1.00  0.00     0.202 C 
BRANCH  72  73
ATOM     73  C   UNL A   1      33.175  27.632  26.484  1.00  0.00     0.261 C 
BRANCH  73  74
ATOM     74  O   UNL A   1      33.907  26.671  25.693  1.00  0.00    -0.459 OA
BRANCH  74  75
ATOM     75  C   UNL A   1      33.525  26.556  24.387  1.00  0.00     0.368 C 
ATOM     76  O   UNL A   1      33.698  27.442  23.555  1.00  0.00    -0.245 OA
BRANCH  75  77
ATOM     77  C   UNL A   1      32.768  25.241  24.093  1.00  0.00     0.197 C 
ATOM     78  C   UNL A   1      32.014  24.534  25.229  1.00  0.00     0.081 C 
ATOM     79  C   UNL A   1      31.579  25.526  23.106  1.00  0.00     0.064 C 
ATOM     80  C   UNL A   1      31.053  23.574  24.528  1.00  0.00     0.008 C 
ATOM     81  C   UNL A   1      30.744  24.213  23.175  1.00  0.00     0.011 C 
BRANCH  77  82
ATOM     82  N   UNL A   1      33.676  24.262  23.416  1.00  0.00    -0.329 N 
ATOM     83  H   UNL A   1      34.057  24.745  22.603  1.00  0.00     0.347 HD
ATOM     84  H   UNL A   1      33.058  23.462  23.282  1.00  0.00     0.347 HD
BRANCH  82  85
ATOM     85  C   UNL A   1      34.817  23.648  24.096  1.00  0.00     0.183 C 
ATOM     86  C   UNL A   1      35.101  22.190  24.272  1.00  0.00     0.071 C 
ATOM     87  C   UNL A   1      35.834  22.940  23.218  1.00  0.00     0.071 C 
ENDBRANCH  82  85
ENDBRANCH  77  82
BRANCH  79  88
ATOM     88  C   UNL A   1      30.586  26.689  23.403  1.00  0.00     0.032 C 
BRANCH  88  89
ATOM     89  C   UNL A   1      30.360  27.840  22.415  1.00  0.00     0.123 C 
BRANCH  89  90
ATOM     90  N   UNL A   1      29.220  28.712  22.552  1.00  0.00    -0.337 N 
ATOM     91  C   UNL A   1      29.223  30.036  22.189  1.00  0.00     0.107 A 
ATOM     92  C   UNL A   1      28.019  28.460  23.144  1.00  0.00     0.199 A 
ATOM     93  C   UNL A   1      27.985  30.511  22.548  1.00  0.00     0.130 A 
ATOM     94  N   UNL A   1      27.248  29.527  23.151  1.00  0.00    -0.245 NA
ENDBRANCH  89  90
ENDBRANCH  88  89
ENDBRANCH  79  88
ENDBRANCH  75  77
ENDBRANCH  74  75
ENDBRANCH  73  74
ENDBRANCH  72  73
ENDBRANCH   1  72
TORSDOF 22
ENDMDL
MODEL 3
REMARK VINA RESULT:      -9.9      1.872      2.212
REMARK SMILES O=C(OCCOCCOC(=O)[C@@]1([NH2+]C2CC2)CCC[C@H]1CCn1ccnc1)c1ccc(-c2c3nc(c(-c4cccc(S(=O)(=O)[O-])c4F)c4ccc([nH]4)c(-c4cccc(S(=O)(=O)[O-])c4F)c4nc(c(-c5cccc(S(=O)(=O)[O-])c5F)c5ccc2[nH]5)C=C4)C=C3)cc1
REMARK SMILES IDX 6 1 5 2 4 3 3 4 2 5 1 6 28 7 29 8 90 9 30 10 89 11 31 12
REMARK SMILES IDX 32 13 33 14 83 15 34 16 88 17 82 18 84 19 35 20 87 21 81 22
REMARK SMILES IDX 80 23 36 25 68 26 48 27 67 28 49 29 52 30 66 31 85 32 50 33
REMARK SMILES IDX 51 34 65 36 86 37 53 38 37 39 38 40 46 41 39 42 41 43 47 44
REMARK SMILES IDX 40 45 42 46 43 47 44 48 45 49 69 50 70 51 78 52 71 53 73 54
REMARK SMILES IDX 79 55 72 56 74 57 75 58 76 59 77 60 54 61 55 62 63 63 56 64
REMARK SMILES IDX 58 65 64 66 57 67 59 68 60 69 61 70 62 71 7 72 8 73 9 74
REMARK SMILES IDX 10 75 11 76 12 77 17 78 20 79 18 80 19 81 13 82 14 85 15 86
REMARK SMILES IDX 16 87 21 88 22 89 23 90 24 91 27 92 25 93 26 94
REMARK H PARENT 84 24 52 35 13 83 13 84
REMARK Flexibility Score: inf
ROOT
ATOM      1  O   UNL A   1      31.378  30.968  26.104  1.00  0.00    -0.374 OA
ENDROOT
BRANCH   1   2
ATOM      2  C   UNL A   1      31.557  32.322  26.494  1.00  0.00     0.202 C 
BRANCH   2   3
ATOM      3  C   UNL A   1      32.501  32.654  27.671  1.00  0.00     0.261 C 
BRANCH   3   4
ATOM      4  O   UNL A   1      32.437  34.005  28.126  1.00  0.00    -0.460 OA
BRANCH   4   5
ATOM      5  C   UNL A   1      33.180  34.591  29.086  1.00  0.00     0.338 C 
ATOM      6  O   UNL A   1      32.634  35.416  29.818  1.00  0.00    -0.246 OA
BRANCH   5   7
ATOM      7  C   UNL A   1      34.623  34.280  29.294  1.00  0.00     0.060 A 
ATOM      8  C   UNL A   1      35.645  34.502  28.371  1.00  0.00     0.016 A 
ATOM      9  C   UNL A   1      34.948  33.687  30.524  1.00  0.00     0.016 A 
ATOM     10  C   UNL A   1      36.853  33.875  28.504  1.00  0.00     0.010 A 
ATOM     11  C   UNL A   1      36.204  33.150  30.724  1.00  0.00     0.010 A 
ATOM     12  C   UNL A   1      37.093  33.152  29.658  1.00  0.00    -0.014 A 
BRANCH  12  13
ATOM     13  C   UNL A   1      38.356  32.460  29.689  1.00  0.00     0.031 A 
ATOM     14  C   UNL A   1      38.251  31.037  29.279  1.00  0.00     0.074 A 
ATOM     15  C   UNL A   1      39.457  33.113  30.096  1.00  0.00     0.049 A 
ATOM     16  N   UNL A   1      38.458  29.982  29.999  1.00  0.00    -0.248 NA
ATOM     17  C   UNL A   1      37.604  30.762  27.986  1.00  0.00     0.031 C 
ATOM     18  C   UNL A   1      39.620  34.555  30.299  1.00  0.00     0.029 A 
ATOM     19  N   UNL A   1      40.714  32.635  30.241  1.00  0.00    -0.354 N 
ATOM     20  C   UNL A   1      38.200  28.906  29.151  1.00  0.00     0.074 A 
ATOM     21  C   UNL A   1      37.460  29.439  28.043  1.00  0.00     0.031 C 
ATOM     22  C   UNL A   1      40.933  34.855  30.213  1.00  0.00     0.029 A 
ATOM     23  C   UNL A   1      41.682  33.618  30.086  1.00  0.00     0.049 A 
ATOM     24  H   UNL A   1      40.921  31.692  30.436  1.00  0.00     0.167 HD
ATOM     25  C   UNL A   1      38.885  27.737  29.281  1.00  0.00     0.034 A 
ATOM     26  C   UNL A   1      42.969  33.407  29.725  1.00  0.00     0.034 A 
ATOM     27  C   UNL A   1      39.435  27.613  30.610  1.00  0.00     0.049 A 
ATOM     28  C   UNL A   1      43.269  31.975  29.981  1.00  0.00     0.074 A 
ATOM     29  C   UNL A   1      38.908  27.571  31.885  1.00  0.00     0.029 A 
ATOM     30  N   UNL A   1      40.772  27.899  30.761  1.00  0.00    -0.354 N 
ATOM     31  N   UNL A   1      43.293  31.449  31.176  1.00  0.00    -0.248 NA
ATOM     32  C   UNL A   1      43.076  31.032  28.890  1.00  0.00     0.031 C 
ATOM     33  C   UNL A   1      39.843  28.281  32.695  1.00  0.00     0.029 A 
ATOM     34  C   UNL A   1      40.916  28.661  31.886  1.00  0.00     0.049 A 
ATOM     35  H   UNL A   1      41.496  27.607  30.161  1.00  0.00     0.167 HD
ATOM     36  C   UNL A   1      42.670  30.215  31.026  1.00  0.00     0.074 A 
ATOM     37  C   UNL A   1      42.661  29.968  29.584  1.00  0.00     0.031 C 
ATOM     38  C   UNL A   1      41.951  29.660  32.046  1.00  0.00     0.034 A 
BRANCH  25  39
ATOM     39  C   UNL A   1      39.468  26.962  28.106  1.00  0.00     0.023 A 
ATOM     40  C   UNL A   1      39.163  25.582  28.050  1.00  0.00     0.012 A 
ATOM     41  C   UNL A   1      40.523  27.408  27.274  1.00  0.00     0.148 A 
ATOM     42  C   UNL A   1      39.954  24.681  27.328  1.00  0.00     0.002 A 
ATOM     43  C   UNL A   1      41.281  26.515  26.524  1.00  0.00     0.091 A 
ATOM     44  F   UNL A   1      40.882  28.688  27.251  1.00  0.00    -0.205 F 
ATOM     45  C   UNL A   1      41.026  25.146  26.579  1.00  0.00     0.022 A 
BRANCH  43  46
ATOM     46  S   UNL A   1      42.669  27.078  25.524  1.00  0.00     0.127 S 
ATOM     47  O   UNL A   1      43.630  27.460  26.563  1.00  0.00    -0.237 OA
ATOM     48  O   UNL A   1      43.011  25.856  24.788  1.00  0.00    -0.237 OA
ATOM     49  O   UNL A   1      42.166  28.153  24.698  1.00  0.00    -0.744 OA
ENDBRANCH  43  46
ENDBRANCH  25  39
BRANCH  26  50
ATOM     50  C   UNL A   1      43.815  34.261  28.860  1.00  0.00     0.023 A 
ATOM     51  C   UNL A   1      43.277  34.791  27.675  1.00  0.00     0.012 A 
ATOM     52  C   UNL A   1      45.063  34.758  29.308  1.00  0.00     0.148 A 
ATOM     53  C   UNL A   1      43.949  35.795  26.967  1.00  0.00     0.002 A 
ATOM     54  C   UNL A   1      45.735  35.743  28.592  1.00  0.00     0.091 A 
ATOM     55  F   UNL A   1      45.549  34.335  30.483  1.00  0.00    -0.205 F 
ATOM     56  C   UNL A   1      45.174  36.274  27.426  1.00  0.00     0.022 A 
BRANCH  54  57
ATOM     57  S   UNL A   1      47.316  36.410  29.133  1.00  0.00     0.127 S 
ATOM     58  O   UNL A   1      48.222  35.919  28.093  1.00  0.00    -0.237 OA
ATOM     59  O   UNL A   1      47.066  37.848  29.098  1.00  0.00    -0.237 OA
ATOM     60  O   UNL A   1      47.558  35.840  30.452  1.00  0.00    -0.744 OA
ENDBRANCH  54  57
ENDBRANCH  26  50
BRANCH  38  61
ATOM     61  C   UNL A   1      42.045  30.295  33.410  1.00  0.00     0.023 A 
ATOM     62  C   UNL A   1      41.084  31.213  33.883  1.00  0.00     0.012 A 
ATOM     63  C   UNL A   1      43.013  29.805  34.302  1.00  0.00     0.148 A 
ATOM     64  C   UNL A   1      41.104  31.650  35.210  1.00  0.00     0.002 A 
ATOM     65  C   UNL A   1      43.000  30.204  35.631  1.00  0.00     0.091 A 
ATOM     66  F   UNL A   1      43.913  28.925  33.838  1.00  0.00    -0.205 F 
ATOM     67  C   UNL A   1      42.054  31.135  36.089  1.00  0.00     0.022 A 
BRANCH  65  68
ATOM     68  S   UNL A   1      44.109  29.473  36.836  1.00  0.00     0.127 S 
ATOM     69  O   UNL A   1      45.418  29.880  36.334  1.00  0.00    -0.237 OA
ATOM     70  O   UNL A   1      43.699  30.126  38.080  1.00  0.00    -0.237 OA
ATOM     71  O   UNL A   1      43.841  28.039  36.805  1.00  0.00    -0.744 OA
ENDBRANCH  65  68
ENDBRANCH  38  61
ENDBRANCH  12  13
ENDBRANCH   5   7
ENDBRANCH   4   5
ENDBRANCH   3   4
ENDBRANCH   2   3
ENDBRANCH   1   2
BRANCH   1  72
ATOM     72  C   UNL A   1      32.491  30.084  26.029  1.00  0.00     0.202 C 
BRANCH  72  73
ATOM     73  C   UNL A   1      32.907  29.443  24.704  1.00  0.00     0.261 C 
BRANCH  73  74
ATOM     74  O   UNL A   1      33.391  28.086  24.795  1.00  0.00    -0.459 OA
BRANCH  74  75
ATOM     75  C   UNL A   1      33.017  27.249  23.784  1.00  0.00     0.368 C 
ATOM     76  O   UNL A   1      33.555  27.243  22.681  1.00  0.00    -0.245 OA
BRANCH  75  77
ATOM     77  C   UNL A   1      31.786  26.385  24.140  1.00  0.00     0.197 C 
ATOM     78  C   UNL A   1      30.992  26.693  25.418  1.00  0.00     0.081 C 
ATOM     79  C   UNL A   1      30.664  26.592  23.059  1.00  0.00     0.064 C 
ATOM     80  C   UNL A   1      29.650  25.986  25.230  1.00  0.00     0.008 C 
ATOM     81  C   UNL A   1      29.415  25.939  23.721  1.00  0.00     0.011 C 
BRANCH  77  82
ATOM     82  N   UNL A   1      32.151  24.933  24.122  1.00  0.00    -0.329 N 
ATOM     83  H   UNL A   1      31.388  24.443  24.590  1.00  0.00     0.347 HD
ATOM     84  H   UNL A   1      33.077  24.945  24.550  1.00  0.00     0.347 HD
BRANCH  82  85
ATOM     85  C   UNL A   1      32.404  24.200  22.881  1.00  0.00     0.183 C 
ATOM     86  C   UNL A   1      33.669  23.522  22.460  1.00  0.00     0.071 C 
ATOM     87  C   UNL A   1      32.556  22.694  22.996  1.00  0.00     0.071 C 
ENDBRANCH  82  85
ENDBRANCH  77  82
BRANCH  79  88
ATOM     88  C   UNL A   1      30.236  28.033  22.651  1.00  0.00     0.032 C 
BRANCH  88  89
ATOM     89  C   UNL A   1      28.875  28.619  23.041  1.00  0.00     0.123 C 
BRANCH  89  90
ATOM     90  N   UNL A   1      28.552  29.992  22.739  1.00  0.00    -0.337 N 
ATOM     91  C   UNL A   1      29.182  30.729  21.767  1.00  0.00     0.107 A 
ATOM     92  C   UNL A   1      27.698  30.831  23.389  1.00  0.00     0.199 A 
ATOM     93  C   UNL A   1      28.634  31.985  21.855  1.00  0.00     0.130 A 
ATOM     94  N   UNL A   1      27.721  32.042  22.875  1.00  0.00    -0.245 NA
ENDBRANCH  89  90
ENDBRANCH  88  89
ENDBRANCH  79  88
ENDBRANCH  75  77
ENDBRANCH  74  75
ENDBRANCH  73  74
ENDBRANCH  72  73
ENDBRANCH   1  72
TORSDOF 22
ENDMDL
