MODEL 1
REMARK VINA RESULT:     -11.3      0.000      0.000
REMARK SMILES O=C(C[C@H](C(=O)Nc1ccc([N+](=O)[O-])cc1)[C@H]1CCCO1)OCCOCCOC(=O)c1ccc(-c2c3nc(c(-c4cccc(S(=O)(=O)[O-])c4F)c4ccc([nH]4)c(-c4cccc(S(=O)(=O)[O-])c4F)c4nc(c(-c5cccc(S(=O)(=O)[O-])c5F)c5ccc2[nH]5)C=C4)C=C3)cc1
REMARK SMILES IDX 24 1 23 2 22 3 2 4 1 5 3 6 4 7 5 8 6 9 7 10 8 12 9 13 16 14
REMARK SMILES IDX 10 15 15 16 11 17 12 18 13 19 14 20 17 21 18 22 21 23 19 24
REMARK SMILES IDX 20 25 25 26 26 27 27 28 28 29 29 30 30 31 31 32 32 33 93 34
REMARK SMILES IDX 33 35 92 36 34 37 35 38 36 39 86 40 37 41 91 42 85 43 87 44
REMARK SMILES IDX 38 45 90 46 84 47 83 48 39 50 71 51 51 52 70 53 52 54 55 55
REMARK SMILES IDX 69 56 88 57 53 58 54 59 68 61 89 62 56 63 40 64 41 65 49 66
REMARK SMILES IDX 42 67 44 68 50 69 43 70 45 71 46 72 47 73 48 74 72 75 73 76
REMARK SMILES IDX 81 77 74 78 76 79 82 80 75 81 77 82 78 83 79 84 80 85 57 86
REMARK SMILES IDX 58 87 66 88 59 89 61 90 67 91 60 92 62 93 63 94 64 95 65 96
REMARK H PARENT 7 11 87 49 55 60
REMARK Flexibility Score: inf
ROOT
ATOM      1  C   UNL A   1      32.245  29.680  25.856  1.00  0.00     0.202 C 
ENDROOT
BRANCH   1   2
ATOM      2  C   UNL A   1      32.776  28.343  26.361  1.00  0.00     0.261 C 
BRANCH   2   3
ATOM      3  O   UNL A   1      31.795  27.329  26.557  1.00  0.00    -0.463 OA
BRANCH   3   4
ATOM      4  C   UNL A   1      31.781  26.154  25.899  1.00  0.00     0.306 C 
ATOM      5  O   UNL A   1      32.734  25.385  26.046  1.00  0.00    -0.252 OA
BRANCH   4   6
ATOM      6  C   UNL A   1      30.714  25.829  24.873  1.00  0.00     0.139 C 
BRANCH   6   7
ATOM      7  C   UNL A   1      30.292  26.844  23.786  1.00  0.00     0.119 C 
BRANCH   7   8
ATOM      8  C   UNL A   1      28.741  26.884  23.687  1.00  0.00     0.230 C 
ATOM      9  O   UNL A   1      28.100  25.937  24.172  1.00  0.00    -0.274 OA
ATOM     10  N   UNL A   1      27.950  27.893  23.223  1.00  0.00    -0.326 N 
ATOM     11  H   UNL A   1      26.995  27.670  23.145  1.00  0.00     0.169 HD
BRANCH  10  12
ATOM     12  C   UNL A   1      28.284  29.188  22.843  1.00  0.00     0.041 A 
ATOM     13  C   UNL A   1      27.841  29.622  21.593  1.00  0.00     0.033 A 
ATOM     14  C   UNL A   1      28.980  30.052  23.687  1.00  0.00     0.033 A 
ATOM     15  C   UNL A   1      27.877  30.982  21.291  1.00  0.00     0.088 A 
ATOM     16  C   UNL A   1      29.015  31.417  23.400  1.00  0.00     0.088 A 
ATOM     17  C   UNL A   1      28.400  31.879  22.233  1.00  0.00     0.269 A 
BRANCH  17  18
ATOM     18  N   UNL A   1      28.185  33.313  22.049  1.00  0.00     0.062 N 
ATOM     19  O   UNL A   1      27.543  33.673  21.050  1.00  0.00    -0.258 OA
ATOM     20  O   UNL A   1      28.599  34.072  22.935  1.00  0.00    -0.258 OA
ENDBRANCH  17  18
ENDBRANCH  10  12
ENDBRANCH   7   8
BRANCH   7  21
ATOM     21  C   UNL A   1      31.221  26.894  22.568  1.00  0.00     0.131 C 
ATOM     22  C   UNL A   1      32.327  27.951  22.627  1.00  0.00     0.035 C 
ATOM     23  O   UNL A   1      31.871  25.637  22.367  1.00  0.00    -0.377 OA
ATOM     24  C   UNL A   1      33.613  27.176  22.742  1.00  0.00     0.031 C 
ATOM     25  C   UNL A   1      33.269  25.837  22.138  1.00  0.00     0.160 C 
ENDBRANCH   7  21
ENDBRANCH   6   7
ENDBRANCH   4   6
ENDBRANCH   3   4
ENDBRANCH   2   3
ENDBRANCH   1   2
BRANCH   1  26
ATOM     26  O   UNL A   1      31.405  30.457  26.695  1.00  0.00    -0.374 OA
BRANCH  26  27
ATOM     27  C   UNL A   1      31.051  31.775  26.274  1.00  0.00     0.202 C 
BRANCH  27  28
ATOM     28  C   UNL A   1      31.822  32.955  26.870  1.00  0.00     0.261 C 
BRANCH  28  29
ATOM     29  O   UNL A   1      32.841  32.530  27.782  1.00  0.00    -0.460 OA
BRANCH  29  30
ATOM     30  C   UNL A   1      33.806  33.449  28.012  1.00  0.00     0.338 C 
ATOM     31  O   UNL A   1      33.652  34.637  28.267  1.00  0.00    -0.246 OA
BRANCH  30  32
ATOM     32  C   UNL A   1      35.102  32.764  28.147  1.00  0.00     0.060 A 
ATOM     33  C   UNL A   1      35.098  31.361  28.172  1.00  0.00     0.016 A 
ATOM     34  C   UNL A   1      36.286  33.485  28.304  1.00  0.00     0.016 A 
ATOM     35  C   UNL A   1      36.267  30.672  28.461  1.00  0.00     0.010 A 
ATOM     36  C   UNL A   1      37.455  32.795  28.610  1.00  0.00     0.010 A 
ATOM     37  C   UNL A   1      37.425  31.398  28.761  1.00  0.00    -0.014 A 
BRANCH  37  38
ATOM     38  C   UNL A   1      38.503  30.730  29.516  1.00  0.00     0.031 A 
ATOM     39  C   UNL A   1      38.698  31.132  30.951  1.00  0.00     0.074 A 
ATOM     40  C   UNL A   1      39.272  29.793  28.941  1.00  0.00     0.049 A 
ATOM     41  N   UNL A   1      39.595  30.732  31.811  1.00  0.00    -0.248 NA
ATOM     42  C   UNL A   1      37.756  32.132  31.487  1.00  0.00     0.031 C 
ATOM     43  C   UNL A   1      39.143  29.320  27.565  1.00  0.00     0.029 A 
ATOM     44  N   UNL A   1      40.331  29.089  29.447  1.00  0.00    -0.354 N 
ATOM     45  C   UNL A   1      39.356  31.464  32.969  1.00  0.00     0.074 A 
ATOM     46  C   UNL A   1      38.240  32.339  32.701  1.00  0.00     0.031 C 
ATOM     47  C   UNL A   1      40.109  28.417  27.327  1.00  0.00     0.029 A 
ATOM     48  C   UNL A   1      40.935  28.274  28.523  1.00  0.00     0.049 A 
ATOM     49  H   UNL A   1      40.631  29.161  30.383  1.00  0.00     0.167 HD
ATOM     50  C   UNL A   1      40.007  31.405  34.153  1.00  0.00     0.034 A 
ATOM     51  C   UNL A   1      42.042  27.517  28.636  1.00  0.00     0.034 A 
ATOM     52  C   UNL A   1      41.107  30.516  34.406  1.00  0.00     0.049 A 
ATOM     53  C   UNL A   1      42.761  27.478  29.960  1.00  0.00     0.074 A 
ATOM     54  C   UNL A   1      41.814  30.330  35.579  1.00  0.00     0.029 A 
ATOM     55  N   UNL A   1      41.670  29.674  33.458  1.00  0.00    -0.354 N 
ATOM     56  N   UNL A   1      42.471  28.100  31.078  1.00  0.00    -0.248 NA
ATOM     57  C   UNL A   1      43.939  26.605  30.046  1.00  0.00     0.031 C 
ATOM     58  C   UNL A   1      42.832  29.405  35.328  1.00  0.00     0.029 A 
ATOM     59  C   UNL A   1      42.726  28.975  34.013  1.00  0.00     0.049 A 
ATOM     60  H   UNL A   1      41.364  29.587  32.527  1.00  0.00     0.167 HD
ATOM     61  C   UNL A   1      43.397  27.657  32.014  1.00  0.00     0.074 A 
ATOM     62  C   UNL A   1      44.253  26.708  31.330  1.00  0.00     0.031 C 
ATOM     63  C   UNL A   1      43.531  28.000  33.320  1.00  0.00     0.034 A 
BRANCH  50  64
ATOM     64  C   UNL A   1      39.548  32.334  35.247  1.00  0.00     0.023 A 
ATOM     65  C   UNL A   1      38.607  31.896  36.204  1.00  0.00     0.012 A 
ATOM     66  C   UNL A   1      40.057  33.644  35.332  1.00  0.00     0.148 A 
ATOM     67  C   UNL A   1      38.145  32.762  37.194  1.00  0.00     0.002 A 
ATOM     68  C   UNL A   1      39.631  34.484  36.355  1.00  0.00     0.091 A 
ATOM     69  F   UNL A   1      40.927  34.055  34.399  1.00  0.00    -0.205 F 
ATOM     70  C   UNL A   1      38.663  34.051  37.276  1.00  0.00     0.022 A 
BRANCH  68  71
ATOM     71  S   UNL A   1      40.304  36.132  36.592  1.00  0.00     0.127 S 
ATOM     72  O   UNL A   1      39.635  36.551  37.822  1.00  0.00    -0.237 OA
ATOM     73  O   UNL A   1      41.735  35.861  36.737  1.00  0.00    -0.237 OA
ATOM     74  O   UNL A   1      39.949  36.886  35.398  1.00  0.00    -0.744 OA
ENDBRANCH  68  71
ENDBRANCH  50  64
BRANCH  51  75
ATOM     75  C   UNL A   1      42.500  26.697  27.482  1.00  0.00     0.023 A 
ATOM     76  C   UNL A   1      43.356  27.270  26.523  1.00  0.00     0.012 A 
ATOM     77  C   UNL A   1      42.125  25.345  27.351  1.00  0.00     0.148 A 
ATOM     78  C   UNL A   1      43.812  26.519  25.439  1.00  0.00     0.002 A 
ATOM     79  C   UNL A   1      42.625  24.588  26.298  1.00  0.00     0.091 A 
ATOM     80  F   UNL A   1      41.304  24.823  28.274  1.00  0.00    -0.205 F 
ATOM     81  C   UNL A   1      43.454  25.178  25.332  1.00  0.00     0.022 A 
BRANCH  79  82
ATOM     82  S   UNL A   1      42.323  22.825  26.145  1.00  0.00     0.127 S 
ATOM     83  O   UNL A   1      42.902  22.535  24.835  1.00  0.00    -0.237 OA
ATOM     84  O   UNL A   1      43.074  22.296  27.283  1.00  0.00    -0.237 OA
ATOM     85  O   UNL A   1      40.879  22.659  26.245  1.00  0.00    -0.744 OA
ENDBRANCH  79  82
ENDBRANCH  51  75
BRANCH  63  86
ATOM     86  C   UNL A   1      44.601  27.300  34.119  1.00  0.00     0.023 A 
ATOM     87  C   UNL A   1      45.896  27.846  34.209  1.00  0.00     0.012 A 
ATOM     88  C   UNL A   1      44.293  26.127  34.836  1.00  0.00     0.148 A 
ATOM     89  C   UNL A   1      46.878  27.213  34.969  1.00  0.00     0.002 A 
ATOM     90  C   UNL A   1      45.259  25.534  35.636  1.00  0.00     0.091 A 
ATOM     91  F   UNL A   1      43.059  25.612  34.723  1.00  0.00    -0.205 F 
ATOM     92  C   UNL A   1      46.558  26.065  35.690  1.00  0.00     0.022 A 
BRANCH  90  93
ATOM     93  S   UNL A   1      44.903  24.118  36.682  1.00  0.00     0.127 S 
ATOM     94  O   UNL A   1      46.236  23.757  37.158  1.00  0.00    -0.237 OA
ATOM     95  O   UNL A   1      44.027  24.698  37.700  1.00  0.00    -0.237 OA
ATOM     96  O   UNL A   1      44.258  23.135  35.820  1.00  0.00    -0.744 OA
ENDBRANCH  90  93
ENDBRANCH  63  86
ENDBRANCH  37  38
ENDBRANCH  30  32
ENDBRANCH  29  30
ENDBRANCH  28  29
ENDBRANCH  27  28
ENDBRANCH  26  27
ENDBRANCH   1  26
TORSDOF 22
ENDMDL
MODEL 2
REMARK VINA RESULT:     -11.1      1.572      2.209
REMARK SMILES O=C(C[C@H](C(=O)Nc1ccc([N+](=O)[O-])cc1)[C@H]1CCCO1)OCCOCCOC(=O)c1ccc(-c2c3nc(c(-c4cccc(S(=O)(=O)[O-])c4F)c4ccc([nH]4)c(-c4cccc(S(=O)(=O)[O-])c4F)c4nc(c(-c5cccc(S(=O)(=O)[O-])c5F)c5ccc2[nH]5)C=C4)C=C3)cc1
REMARK SMILES IDX 24 1 23 2 22 3 2 4 1 5 3 6 4 7 5 8 6 9 7 10 8 12 9 13 16 14
REMARK SMILES IDX 10 15 15 16 11 17 12 18 13 19 14 20 17 21 18 22 21 23 19 24
REMARK SMILES IDX 20 25 25 26 26 27 27 28 28 29 29 30 30 31 31 32 32 33 93 34
REMARK SMILES IDX 33 35 92 36 34 37 35 38 36 39 86 40 37 41 91 42 85 43 87 44
REMARK SMILES IDX 38 45 90 46 84 47 83 48 39 50 71 51 51 52 70 53 52 54 55 55
REMARK SMILES IDX 69 56 88 57 53 58 54 59 68 61 89 62 56 63 40 64 41 65 49 66
REMARK SMILES IDX 42 67 44 68 50 69 43 70 45 71 46 72 47 73 48 74 72 75 73 76
REMARK SMILES IDX 81 77 74 78 76 79 82 80 75 81 77 82 78 83 79 84 80 85 57 86
REMARK SMILES IDX 58 87 66 88 59 89 61 90 67 91 60 92 62 93 63 94 64 95 65 96
REMARK H PARENT 7 11 87 49 55 60
REMARK Flexibility Score: inf
ROOT
ATOM      1  C   UNL A   1      32.455  28.399  26.794  1.00  0.00     0.202 C 
ENDROOT
BRANCH   1   2
ATOM      2  C   UNL A   1      31.681  27.086  26.788  1.00  0.00     0.261 C 
BRANCH   2   3
ATOM      3  O   UNL A   1      32.339  25.990  26.160  1.00  0.00    -0.463 OA
BRANCH   3   4
ATOM      4  C   UNL A   1      32.044  24.697  26.395  1.00  0.00     0.306 C 
ATOM      5  O   UNL A   1      31.443  24.408  27.433  1.00  0.00    -0.252 OA
BRANCH   4   6
ATOM      6  C   UNL A   1      32.566  23.586  25.505  1.00  0.00     0.139 C 
BRANCH   6   7
ATOM      7  C   UNL A   1      33.304  23.883  24.180  1.00  0.00     0.119 C 
BRANCH   7   8
ATOM      8  C   UNL A   1      32.363  23.574  22.981  1.00  0.00     0.230 C 
ATOM      9  O   UNL A   1      32.326  22.408  22.554  1.00  0.00    -0.274 OA
ATOM     10  N   UNL A   1      31.464  24.402  22.377  1.00  0.00    -0.326 N 
ATOM     11  H   UNL A   1      31.048  24.040  21.562  1.00  0.00     0.169 HD
BRANCH  10  12
ATOM     12  C   UNL A   1      31.045  25.678  22.734  1.00  0.00     0.041 A 
ATOM     13  C   UNL A   1      31.770  26.756  22.223  1.00  0.00     0.033 A 
ATOM     14  C   UNL A   1      29.914  25.895  23.519  1.00  0.00     0.033 A 
ATOM     15  C   UNL A   1      31.226  28.037  22.291  1.00  0.00     0.088 A 
ATOM     16  C   UNL A   1      29.355  27.171  23.587  1.00  0.00     0.088 A 
ATOM     17  C   UNL A   1      29.983  28.222  22.911  1.00  0.00     0.269 A 
BRANCH  17  18
ATOM     18  N   UNL A   1      29.281  29.493  22.739  1.00  0.00     0.062 N 
ATOM     19  O   UNL A   1      28.636  29.654  21.692  1.00  0.00    -0.258 OA
ATOM     20  O   UNL A   1      29.320  30.300  23.678  1.00  0.00    -0.258 OA
ENDBRANCH  17  18
ENDBRANCH  10  12
ENDBRANCH   7   8
BRANCH   7  21
ATOM     21  C   UNL A   1      34.798  23.543  24.194  1.00  0.00     0.131 C 
ATOM     22  C   UNL A   1      35.612  24.204  25.310  1.00  0.00     0.035 C 
ATOM     23  O   UNL A   1      35.002  22.134  24.323  1.00  0.00    -0.377 OA
ATOM     24  C   UNL A   1      36.027  23.078  26.221  1.00  0.00     0.031 C 
ATOM     25  C   UNL A   1      35.996  21.870  25.319  1.00  0.00     0.160 C 
ENDBRANCH   7  21
ENDBRANCH   6   7
ENDBRANCH   4   6
ENDBRANCH   3   4
ENDBRANCH   2   3
ENDBRANCH   1   2
BRANCH   1  26
ATOM     26  O   UNL A   1      31.778  29.605  27.113  1.00  0.00    -0.374 OA
BRANCH  26  27
ATOM     27  C   UNL A   1      31.810  30.675  26.169  1.00  0.00     0.202 C 
BRANCH  27  28
ATOM     28  C   UNL A   1      31.917  32.105  26.703  1.00  0.00     0.261 C 
BRANCH  28  29
ATOM     29  O   UNL A   1      32.679  32.176  27.913  1.00  0.00    -0.460 OA
BRANCH  29  30
ATOM     30  C   UNL A   1      33.658  33.108  27.905  1.00  0.00     0.338 C 
ATOM     31  O   UNL A   1      33.524  34.324  27.969  1.00  0.00    -0.246 OA
BRANCH  30  32
ATOM     32  C   UNL A   1      34.962  32.440  28.047  1.00  0.00     0.060 A 
ATOM     33  C   UNL A   1      34.972  31.038  28.116  1.00  0.00     0.016 A 
ATOM     34  C   UNL A   1      36.141  33.176  28.169  1.00  0.00     0.016 A 
ATOM     35  C   UNL A   1      36.150  30.369  28.414  1.00  0.00     0.010 A 
ATOM     36  C   UNL A   1      37.320  32.507  28.483  1.00  0.00     0.010 A 
ATOM     37  C   UNL A   1      37.304  31.114  28.678  1.00  0.00    -0.014 A 
BRANCH  37  38
ATOM     38  C   UNL A   1      38.397  30.480  29.441  1.00  0.00     0.031 A 
ATOM     39  C   UNL A   1      38.552  30.869  30.885  1.00  0.00     0.074 A 
ATOM     40  C   UNL A   1      39.213  29.583  28.866  1.00  0.00     0.049 A 
ATOM     41  N   UNL A   1      39.451  30.494  31.754  1.00  0.00    -0.248 NA
ATOM     42  C   UNL A   1      37.561  31.822  31.419  1.00  0.00     0.031 C 
ATOM     43  C   UNL A   1      39.125  29.126  27.482  1.00  0.00     0.029 A 
ATOM     44  N   UNL A   1      40.292  28.917  29.380  1.00  0.00    -0.354 N 
ATOM     45  C   UNL A   1      39.164  31.198  32.918  1.00  0.00     0.074 A 
ATOM     46  C   UNL A   1      38.017  32.032  32.644  1.00  0.00     0.031 C 
ATOM     47  C   UNL A   1      40.131  28.266  27.247  1.00  0.00     0.029 A 
ATOM     48  C   UNL A   1      40.943  28.140  28.455  1.00  0.00     0.049 A 
ATOM     49  H   UNL A   1      40.574  28.988  30.322  1.00  0.00     0.167 HD
ATOM     50  C   UNL A   1      39.798  31.149  34.112  1.00  0.00     0.034 A 
ATOM     51  C   UNL A   1      42.079  27.427  28.576  1.00  0.00     0.034 A 
ATOM     52  C   UNL A   1      40.930  30.303  34.370  1.00  0.00     0.049 A 
ATOM     53  C   UNL A   1      42.778  27.399  29.911  1.00  0.00     0.074 A 
ATOM     54  C   UNL A   1      41.625  30.129  35.552  1.00  0.00     0.029 A 
ATOM     55  N   UNL A   1      41.541  29.498  33.420  1.00  0.00    -0.354 N 
ATOM     56  N   UNL A   1      42.444  27.992  31.032  1.00  0.00    -0.248 NA
ATOM     57  C   UNL A   1      43.989  26.573  30.005  1.00  0.00     0.031 C 
ATOM     58  C   UNL A   1      42.683  29.249  35.305  1.00  0.00     0.029 A 
ATOM     59  C   UNL A   1      42.616  28.834  33.983  1.00  0.00     0.049 A 
ATOM     60  H   UNL A   1      41.253  29.412  32.483  1.00  0.00     0.167 HD
ATOM     61  C   UNL A   1      43.373  27.574  31.978  1.00  0.00     0.074 A 
ATOM     62  C   UNL A   1      44.278  26.671  31.295  1.00  0.00     0.031 C 
ATOM     63  C   UNL A   1      43.472  27.904  33.290  1.00  0.00     0.034 A 
BRANCH  50  64
ATOM     64  C   UNL A   1      39.284  32.043  35.211  1.00  0.00     0.023 A 
ATOM     65  C   UNL A   1      38.253  31.598  36.065  1.00  0.00     0.012 A 
ATOM     66  C   UNL A   1      39.830  33.327  35.402  1.00  0.00     0.148 A 
ATOM     67  C   UNL A   1      37.742  32.433  37.058  1.00  0.00     0.002 A 
ATOM     68  C   UNL A   1      39.351  34.133  36.427  1.00  0.00     0.091 A 
ATOM     69  F   UNL A   1      40.787  33.747  34.563  1.00  0.00    -0.205 F 
ATOM     70  C   UNL A   1      38.297  33.695  37.245  1.00  0.00     0.022 A 
BRANCH  68  71
ATOM     71  S   UNL A   1      40.060  35.741  36.800  1.00  0.00     0.127 S 
ATOM     72  O   UNL A   1      39.459  36.036  38.100  1.00  0.00    -0.237 OA
ATOM     73  O   UNL A   1      41.492  35.442  36.844  1.00  0.00    -0.237 OA
ATOM     74  O   UNL A   1      39.658  36.619  35.711  1.00  0.00    -0.744 OA
ENDBRANCH  68  71
ENDBRANCH  50  64
BRANCH  51  75
ATOM     75  C   UNL A   1      42.587  26.643  27.418  1.00  0.00     0.023 A 
ATOM     76  C   UNL A   1      43.461  27.255  26.500  1.00  0.00     0.012 A 
ATOM     77  C   UNL A   1      42.245  25.288  27.246  1.00  0.00     0.148 A 
ATOM     78  C   UNL A   1      43.965  26.538  25.413  1.00  0.00     0.002 A 
ATOM     79  C   UNL A   1      42.791  24.566  26.192  1.00  0.00     0.091 A 
ATOM     80  F   UNL A   1      41.406  24.728  28.130  1.00  0.00    -0.205 F 
ATOM     81  C   UNL A   1      43.637  25.193  25.265  1.00  0.00     0.022 A 
BRANCH  79  82
ATOM     82  S   UNL A   1      42.530  22.800  25.990  1.00  0.00     0.127 S 
ATOM     83  O   UNL A   1      43.193  22.545  24.713  1.00  0.00    -0.237 OA
ATOM     84  O   UNL A   1      43.220  22.263  27.163  1.00  0.00    -0.237 OA
ATOM     85  O   UNL A   1      41.086  22.610  25.998  1.00  0.00    -0.744 OA
ENDBRANCH  79  82
ENDBRANCH  51  75
BRANCH  63  86
ATOM     86  C   UNL A   1      44.556  27.236  34.096  1.00  0.00     0.023 A 
ATOM     87  C   UNL A   1      45.814  27.851  34.245  1.00  0.00     0.012 A 
ATOM     88  C   UNL A   1      44.295  26.023  34.764  1.00  0.00     0.148 A 
ATOM     89  C   UNL A   1      46.810  27.247  35.012  1.00  0.00     0.002 A 
ATOM     90  C   UNL A   1      45.271  25.456  35.571  1.00  0.00     0.091 A 
ATOM     91  F   UNL A   1      43.097  25.444  34.594  1.00  0.00    -0.205 F 
ATOM     92  C   UNL A   1      46.535  26.058  35.684  1.00  0.00     0.022 A 
BRANCH  90  93
ATOM     93  S   UNL A   1      44.966  23.986  36.556  1.00  0.00     0.127 S 
ATOM     94  O   UNL A   1      46.322  23.487  36.774  1.00  0.00    -0.237 OA
ATOM     95  O   UNL A   1      44.321  24.539  37.748  1.00  0.00    -0.237 OA
ATOM     96  O   UNL A   1      44.107  23.131  35.747  1.00  0.00    -0.744 OA
ENDBRANCH  90  93
ENDBRANCH  63  86
ENDBRANCH  37  38
ENDBRANCH  30  32
ENDBRANCH  29  30
ENDBRANCH  28  29
ENDBRANCH  27  28
ENDBRANCH  26  27
ENDBRANCH   1  26
TORSDOF 22
ENDMDL
MODEL 3
REMARK VINA RESULT:     -11.0      2.093      4.180
REMARK SMILES O=C(C[C@H](C(=O)Nc1ccc([N+](=O)[O-])cc1)[C@H]1CCCO1)OCCOCCOC(=O)c1ccc(-c2c3nc(c(-c4cccc(S(=O)(=O)[O-])c4F)c4ccc([nH]4)c(-c4cccc(S(=O)(=O)[O-])c4F)c4nc(c(-c5cccc(S(=O)(=O)[O-])c5F)c5ccc2[nH]5)C=C4)C=C3)cc1
REMARK SMILES IDX 24 1 23 2 22 3 2 4 1 5 3 6 4 7 5 8 6 9 7 10 8 12 9 13 16 14
REMARK SMILES IDX 10 15 15 16 11 17 12 18 13 19 14 20 17 21 18 22 21 23 19 24
REMARK SMILES IDX 20 25 25 26 26 27 27 28 28 29 29 30 30 31 31 32 32 33 93 34
REMARK SMILES IDX 33 35 92 36 34 37 35 38 36 39 86 40 37 41 91 42 85 43 87 44
REMARK SMILES IDX 38 45 90 46 84 47 83 48 39 50 71 51 51 52 70 53 52 54 55 55
REMARK SMILES IDX 69 56 88 57 53 58 54 59 68 61 89 62 56 63 40 64 41 65 49 66
REMARK SMILES IDX 42 67 44 68 50 69 43 70 45 71 46 72 47 73 48 74 72 75 73 76
REMARK SMILES IDX 81 77 74 78 76 79 82 80 75 81 77 82 78 83 79 84 80 85 57 86
REMARK SMILES IDX 58 87 66 88 59 89 61 90 67 91 60 92 62 93 63 94 64 95 65 96
REMARK H PARENT 7 11 87 49 55 60
REMARK Flexibility Score: inf
ROOT
ATOM      1  C   UNL A   1      32.904  29.750  25.482  1.00  0.00     0.202 C 
ENDROOT
BRANCH   1   2
ATOM      2  C   UNL A   1      33.876  28.651  25.895  1.00  0.00     0.261 C 
BRANCH   2   3
ATOM      3  O   UNL A   1      33.335  27.334  25.927  1.00  0.00    -0.463 OA
BRANCH   3   4
ATOM      4  C   UNL A   1      33.577  26.395  24.991  1.00  0.00     0.306 C 
ATOM      5  O   UNL A   1      34.146  25.356  25.332  1.00  0.00    -0.252 OA
BRANCH   4   6
ATOM      6  C   UNL A   1      33.313  26.651  23.520  1.00  0.00     0.139 C 
BRANCH   6   7
ATOM      7  C   UNL A   1      32.210  25.893  22.746  1.00  0.00     0.119 C 
BRANCH   7   8
ATOM      8  C   UNL A   1      32.856  25.065  21.600  1.00  0.00     0.230 C 
ATOM      9  O   UNL A   1      33.226  25.669  20.580  1.00  0.00    -0.274 OA
ATOM     10  N   UNL A   1      33.182  23.741  21.594  1.00  0.00    -0.326 N 
ATOM     11  H   UNL A   1      33.481  23.390  20.725  1.00  0.00     0.169 HD
BRANCH  10  12
ATOM     12  C   UNL A   1      33.156  22.811  22.626  1.00  0.00     0.041 A 
ATOM     13  C   UNL A   1      32.017  22.012  22.739  1.00  0.00     0.033 A 
ATOM     14  C   UNL A   1      34.238  22.625  23.484  1.00  0.00     0.033 A 
ATOM     15  C   UNL A   1      32.059  20.874  23.543  1.00  0.00     0.088 A 
ATOM     16  C   UNL A   1      34.296  21.485  24.287  1.00  0.00     0.088 A 
ATOM     17  C   UNL A   1      33.229  20.582  24.256  1.00  0.00     0.269 A 
BRANCH  17  18
ATOM     18  N   UNL A   1      33.383  19.262  24.867  1.00  0.00     0.062 N 
ATOM     19  O   UNL A   1      32.411  18.800  25.483  1.00  0.00    -0.258 OA
ATOM     20  O   UNL A   1      34.449  18.663  24.674  1.00  0.00    -0.258 OA
ENDBRANCH  17  18
ENDBRANCH  10  12
ENDBRANCH   7   8
BRANCH   7  21
ATOM     21  C   UNL A   1      30.894  26.664  22.598  1.00  0.00     0.131 C 
ATOM     22  C   UNL A   1      30.019  26.720  23.853  1.00  0.00     0.035 C 
ATOM     23  O   UNL A   1      31.134  28.019  22.210  1.00  0.00    -0.377 OA
ATOM     24  C   UNL A   1      30.042  28.161  24.290  1.00  0.00     0.031 C 
ATOM     25  C   UNL A   1      30.356  28.907  23.018  1.00  0.00     0.160 C 
ENDBRANCH   7  21
ENDBRANCH   6   7
ENDBRANCH   4   6
ENDBRANCH   3   4
ENDBRANCH   2   3
ENDBRANCH   1   2
BRANCH   1  26
ATOM     26  O   UNL A   1      32.053  30.330  26.459  1.00  0.00    -0.374 OA
BRANCH  26  27
ATOM     27  C   UNL A   1      31.376  31.545  26.137  1.00  0.00     0.202 C 
BRANCH  27  28
ATOM     28  C   UNL A   1      31.818  32.827  26.846  1.00  0.00     0.261 C 
BRANCH  28  29
ATOM     29  O   UNL A   1      32.738  32.566  27.912  1.00  0.00    -0.460 OA
BRANCH  29  30
ATOM     30  C   UNL A   1      33.739  33.468  28.021  1.00  0.00     0.338 C 
ATOM     31  O   UNL A   1      33.633  34.676  28.192  1.00  0.00    -0.246 OA
BRANCH  30  32
ATOM     32  C   UNL A   1      35.021  32.753  28.143  1.00  0.00     0.060 A 
ATOM     33  C   UNL A   1      34.981  31.353  28.225  1.00  0.00     0.016 A 
ATOM     34  C   UNL A   1      36.228  33.447  28.234  1.00  0.00     0.016 A 
ATOM     35  C   UNL A   1      36.140  30.644  28.504  1.00  0.00     0.010 A 
ATOM     36  C   UNL A   1      37.388  32.737  28.530  1.00  0.00     0.010 A 
ATOM     37  C   UNL A   1      37.326  31.348  28.738  1.00  0.00    -0.014 A 
BRANCH  37  38
ATOM     38  C   UNL A   1      38.410  30.681  29.484  1.00  0.00     0.031 A 
ATOM     39  C   UNL A   1      38.612  31.079  30.920  1.00  0.00     0.074 A 
ATOM     40  C   UNL A   1      39.178  29.747  28.903  1.00  0.00     0.049 A 
ATOM     41  N   UNL A   1      39.514  30.679  31.774  1.00  0.00    -0.248 NA
ATOM     42  C   UNL A   1      37.670  32.075  31.464  1.00  0.00     0.031 C 
ATOM     43  C   UNL A   1      39.042  29.278  27.526  1.00  0.00     0.029 A 
ATOM     44  N   UNL A   1      40.242  29.045  29.401  1.00  0.00    -0.354 N 
ATOM     45  C   UNL A   1      39.281  31.407  32.935  1.00  0.00     0.074 A 
ATOM     46  C   UNL A   1      38.161  32.280  32.676  1.00  0.00     0.031 C 
ATOM     47  C   UNL A   1      40.009  28.378  27.280  1.00  0.00     0.029 A 
ATOM     48  C   UNL A   1      40.842  28.234  28.471  1.00  0.00     0.049 A 
ATOM     49  H   UNL A   1      40.547  29.115  30.335  1.00  0.00     0.167 HD
ATOM     50  C   UNL A   1      39.939  31.346  34.116  1.00  0.00     0.034 A 
ATOM     51  C   UNL A   1      41.952  27.480  28.576  1.00  0.00     0.034 A 
ATOM     52  C   UNL A   1      41.043  30.460  34.359  1.00  0.00     0.049 A 
ATOM     53  C   UNL A   1      42.679  27.439  29.895  1.00  0.00     0.074 A 
ATOM     54  C   UNL A   1      41.757  30.272  35.527  1.00  0.00     0.029 A 
ATOM     55  N   UNL A   1      41.602  29.621  33.405  1.00  0.00    -0.354 N 
ATOM     56  N   UNL A   1      42.393  28.056  31.016  1.00  0.00    -0.248 NA
ATOM     57  C   UNL A   1      43.860  26.569  29.972  1.00  0.00     0.031 C 
ATOM     58  C   UNL A   1      42.775  29.350  35.268  1.00  0.00     0.029 A 
ATOM     59  C   UNL A   1      42.663  28.923  33.952  1.00  0.00     0.049 A 
ATOM     60  H   UNL A   1      41.290  29.537  32.476  1.00  0.00     0.167 HD
ATOM     61  C   UNL A   1      43.326  27.613  31.946  1.00  0.00     0.074 A 
ATOM     62  C   UNL A   1      44.181  26.669  31.255  1.00  0.00     0.031 C 
ATOM     63  C   UNL A   1      43.467  27.953  33.252  1.00  0.00     0.034 A 
BRANCH  50  64
ATOM     64  C   UNL A   1      39.483  32.271  35.215  1.00  0.00     0.023 A 
ATOM     65  C   UNL A   1      38.416  31.900  36.059  1.00  0.00     0.012 A 
ATOM     66  C   UNL A   1      40.122  33.510  35.417  1.00  0.00     0.148 A 
ATOM     67  C   UNL A   1      37.960  32.766  37.052  1.00  0.00     0.002 A 
ATOM     68  C   UNL A   1      39.696  34.345  36.442  1.00  0.00     0.091 A 
ATOM     69  F   UNL A   1      41.115  33.861  34.587  1.00  0.00    -0.205 F 
ATOM     70  C   UNL A   1      38.606  33.983  37.250  1.00  0.00     0.022 A 
BRANCH  68  71
ATOM     71  S   UNL A   1      40.520  35.894  36.828  1.00  0.00     0.127 S 
ATOM     72  O   UNL A   1      41.735  35.426  37.493  1.00  0.00    -0.237 OA
ATOM     73  O   UNL A   1      40.734  36.467  35.499  1.00  0.00    -0.237 OA
ATOM     74  O   UNL A   1      39.595  36.642  37.667  1.00  0.00    -0.744 OA
ENDBRANCH  68  71
ENDBRANCH  50  64
BRANCH  51  75
ATOM     75  C   UNL A   1      42.405  26.664  27.416  1.00  0.00     0.023 A 
ATOM     76  C   UNL A   1      43.229  27.251  26.437  1.00  0.00     0.012 A 
ATOM     77  C   UNL A   1      42.059  25.303  27.300  1.00  0.00     0.148 A 
ATOM     78  C   UNL A   1      43.680  26.505  25.348  1.00  0.00     0.002 A 
ATOM     79  C   UNL A   1      42.555  24.553  26.241  1.00  0.00     0.091 A 
ATOM     80  F   UNL A   1      41.269  24.767  28.241  1.00  0.00    -0.205 F 
ATOM     81  C   UNL A   1      43.350  25.156  25.255  1.00  0.00     0.022 A 
BRANCH  79  82
ATOM     82  S   UNL A   1      42.290  22.782  26.102  1.00  0.00     0.127 S 
ATOM     83  O   UNL A   1      42.908  22.487  24.812  1.00  0.00    -0.237 OA
ATOM     84  O   UNL A   1      43.023  22.281  27.266  1.00  0.00    -0.237 OA
ATOM     85  O   UNL A   1      40.848  22.590  26.167  1.00  0.00    -0.744 OA
ENDBRANCH  79  82
ENDBRANCH  51  75
BRANCH  63  86
ATOM     86  C   UNL A   1      44.543  27.254  34.042  1.00  0.00     0.023 A 
ATOM     87  C   UNL A   1      45.857  27.758  34.060  1.00  0.00     0.012 A 
ATOM     88  C   UNL A   1      44.224  26.125  34.825  1.00  0.00     0.148 A 
ATOM     89  C   UNL A   1      46.847  27.127  34.811  1.00  0.00     0.002 A 
ATOM     90  C   UNL A   1      45.201  25.536  35.615  1.00  0.00     0.091 A 
ATOM     91  F   UNL A   1      42.971  25.649  34.781  1.00  0.00    -0.205 F 
ATOM     92  C   UNL A   1      46.517  26.025  35.597  1.00  0.00     0.022 A 
BRANCH  90  93
ATOM     93  S   UNL A   1      44.839  24.183  36.738  1.00  0.00     0.127 S 
ATOM     94  O   UNL A   1      43.858  24.793  37.633  1.00  0.00    -0.237 OA
ATOM     95  O   UNL A   1      44.293  23.168  35.836  1.00  0.00    -0.237 OA
ATOM     96  O   UNL A   1      46.109  23.822  37.355  1.00  0.00    -0.744 OA
ENDBRANCH  90  93
ENDBRANCH  63  86
ENDBRANCH  37  38
ENDBRANCH  30  32
ENDBRANCH  29  30
ENDBRANCH  28  29
ENDBRANCH  27  28
ENDBRANCH  26  27
ENDBRANCH   1  26
TORSDOF 22
ENDMDL
