MODEL 1
REMARK VINA RESULT:     -12.4      0.000      0.000
REMARK SMILES O=C(OCCOCCOC(=O)c1ccc(-c2c3nc(c(-c4cccc(S(=O)(=O)[O-])c4F)c4ccc([nH]4)c(-c4cccc(S(=O)(=O)[O-])c4F)c4nc(c(-c5cccc(S(=O)(=O)[O-])c5F)c5ccc2[nH]5)C=C4)C=C3)cc1)C1=Cc2cc(Cl)c(Cl)cc2O[C@@H]1C(F)(F)F
REMARK SMILES IDX 7 1 6 2 5 3 4 4 3 5 2 6 1 7 75 8 76 9 86 10 77 11 85 12
REMARK SMILES IDX 78 13 84 14 79 15 83 16 80 17 81 18 82 19 87 20 88 21 89 22
REMARK SMILES IDX 90 23 8 24 9 25 10 26 11 27 12 28 13 29 74 30 14 31 73 32
REMARK SMILES IDX 15 33 16 34 17 35 67 36 18 37 72 38 66 39 68 40 19 41 71 42
REMARK SMILES IDX 65 43 64 44 20 46 52 47 32 48 51 49 33 50 36 51 50 52 69 53
REMARK SMILES IDX 34 54 35 55 49 57 70 58 37 59 21 60 22 61 30 62 23 63 25 64
REMARK SMILES IDX 31 65 24 66 26 67 27 68 28 69 29 70 53 71 54 72 62 73 55 74
REMARK SMILES IDX 57 75 63 76 56 77 58 78 59 79 60 80 61 81 38 82 39 83 47 84
REMARK SMILES IDX 40 85 42 86 48 87 41 88 43 89 44 90 45 91 46 92
REMARK H PARENT 68 45 36 56
REMARK Flexibility Score: inf
ROOT
ATOM      1  C   UNL A   1      32.116  29.714  25.362  1.00  0.00     0.202 C 
ENDROOT
BRANCH   1   2
ATOM      2  O   UNL A   1      33.466  29.642  24.851  1.00  0.00    -0.374 OA
BRANCH   2   3
ATOM      3  C   UNL A   1      34.213  28.474  23.981  1.00  0.00     0.202 C 
BRANCH   3   4
ATOM      4  C   UNL A   1      33.680  27.635  22.054  1.00  0.00     0.261 C 
BRANCH   4   5
ATOM      5  O   UNL A   1      33.008  26.258  21.808  1.00  0.00    -0.460 OA
BRANCH   5   6
ATOM      6  C   UNL A   1      31.674  26.332  21.772  1.00  0.00     0.338 C 
ATOM      7  O   UNL A   1      30.951  27.203  21.363  1.00  0.00    -0.246 OA
BRANCH   6   8
ATOM      8  C   UNL A   1      31.452  25.230  22.676  1.00  0.00     0.087 C 
ATOM      9  C   UNL A   1      32.479  24.183  22.501  1.00  0.00     0.027 C 
ATOM     10  C   UNL A   1      31.211  26.295  24.277  1.00  0.00     0.316 C 
ATOM     11  C   UNL A   1      33.809  23.886  23.687  1.00  0.00     0.019 A 
ATOM     12  O   UNL A   1      32.664  26.043  25.525  1.00  0.00    -0.475 OA
ATOM     13  C   UNL A   1      34.795  23.000  23.355  1.00  0.00     0.034 A 
ATOM     14  C   UNL A   1      33.970  24.825  25.136  1.00  0.00     0.129 A 
ATOM     15  C   UNL A   1      35.900  22.984  24.221  1.00  0.00     0.060 A 
ATOM     16  C   UNL A   1      35.125  24.818  25.868  1.00  0.00     0.069 A 
ATOM     17  Cl  UNL A   1      37.119  21.808  23.796  1.00  0.00    -0.083 Cl
ATOM     18  C   UNL A   1      36.075  23.872  25.376  1.00  0.00     0.063 A 
ATOM     19  Cl  UNL A   1      37.614  23.810  26.179  1.00  0.00    -0.083 Cl
BRANCH  10  20
ATOM     20  C   UNL A   1      29.636  26.089  24.431  1.00  0.00     0.430 C 
ATOM     21  F   UNL A   1      28.869  27.041  23.869  1.00  0.00    -0.167 F 
ATOM     22  F   UNL A   1      29.308  24.939  23.768  1.00  0.00    -0.167 F 
ATOM     23  F   UNL A   1      29.203  25.884  25.696  1.00  0.00    -0.167 F 
ENDBRANCH  10  20
ENDBRANCH   6   8
ENDBRANCH   5   6
ENDBRANCH   4   5
ENDBRANCH   3   4
ENDBRANCH   2   3
ENDBRANCH   1   2
BRANCH   1  24
ATOM     24  C   UNL A   1      31.870  30.738  26.470  1.00  0.00     0.261 C 
BRANCH  24  25
ATOM     25  O   UNL A   1      32.817  30.614  27.521  1.00  0.00    -0.460 OA
BRANCH  25  26
ATOM     26  C   UNL A   1      33.540  31.739  27.702  1.00  0.00     0.338 C 
ATOM     27  O   UNL A   1      33.163  32.891  27.560  1.00  0.00    -0.246 OA
BRANCH  26  28
ATOM     28  C   UNL A   1      34.909  31.380  28.096  1.00  0.00     0.060 A 
ATOM     29  C   UNL A   1      35.135  30.038  28.404  1.00  0.00     0.016 A 
ATOM     30  C   UNL A   1      35.943  32.325  28.181  1.00  0.00     0.016 A 
ATOM     31  C   UNL A   1      36.395  29.637  28.808  1.00  0.00     0.010 A 
ATOM     32  C   UNL A   1      37.211  31.920  28.586  1.00  0.00     0.010 A 
ATOM     33  C   UNL A   1      37.427  30.576  28.911  1.00  0.00    -0.014 A 
BRANCH  33  34
ATOM     34  C   UNL A   1      38.678  30.132  29.540  1.00  0.00     0.031 A 
ATOM     35  C   UNL A   1      38.998  30.664  30.898  1.00  0.00     0.074 A 
ATOM     36  C   UNL A   1      39.428  29.186  28.955  1.00  0.00     0.049 A 
ATOM     37  N   UNL A   1      39.938  30.298  31.721  1.00  0.00    -0.248 NA
ATOM     38  C   UNL A   1      38.133  31.748  31.398  1.00  0.00     0.031 C 
ATOM     39  C   UNL A   1      39.191  28.625  27.628  1.00  0.00     0.029 A 
ATOM     40  N   UNL A   1      40.531  28.519  29.412  1.00  0.00    -0.354 N 
ATOM     41  C   UNL A   1      39.778  31.099  32.842  1.00  0.00     0.074 A 
ATOM     42  C   UNL A   1      38.669  31.991  32.584  1.00  0.00     0.031 C 
ATOM     43  C   UNL A   1      40.106  27.674  27.384  1.00  0.00     0.029 A 
ATOM     44  C   UNL A   1      41.023  27.601  28.517  1.00  0.00     0.049 A 
ATOM     45  H   UNL A   1      40.933  28.681  30.295  1.00  0.00     0.167 HD
ATOM     46  C   UNL A   1      40.489  31.077  33.990  1.00  0.00     0.034 A 
ATOM     47  C   UNL A   1      42.111  26.814  28.604  1.00  0.00     0.034 A 
ATOM     48  C   UNL A   1      41.613  30.210  34.209  1.00  0.00     0.049 A 
ATOM     49  C   UNL A   1      42.920  26.854  29.873  1.00  0.00     0.074 A 
ATOM     50  C   UNL A   1      42.421  30.115  35.326  1.00  0.00     0.029 A 
ATOM     51  N   UNL A   1      42.104  29.305  33.279  1.00  0.00    -0.354 N 
ATOM     52  N   UNL A   1      42.710  27.550  30.965  1.00  0.00    -0.248 NA
ATOM     53  C   UNL A   1      44.094  25.976  29.935  1.00  0.00     0.031 C 
ATOM     54  C   UNL A   1      43.428  29.184  35.053  1.00  0.00     0.029 A 
ATOM     55  C   UNL A   1      43.212  28.655  33.790  1.00  0.00     0.049 A 
ATOM     56  H   UNL A   1      41.719  29.149  32.386  1.00  0.00     0.167 HD
ATOM     57  C   UNL A   1      43.708  27.174  31.856  1.00  0.00     0.074 A 
ATOM     58  C   UNL A   1      44.499  26.162  31.184  1.00  0.00     0.031 C 
ATOM     59  C   UNL A   1      43.962  27.630  33.108  1.00  0.00     0.034 A 
BRANCH  46  60
ATOM     60  C   UNL A   1      40.070  32.027  35.076  1.00  0.00     0.023 A 
ATOM     61  C   UNL A   1      40.601  33.334  35.109  1.00  0.00     0.012 A 
ATOM     62  C   UNL A   1      39.140  31.632  36.054  1.00  0.00     0.148 A 
ATOM     63  C   UNL A   1      40.234  34.222  36.117  1.00  0.00     0.002 A 
ATOM     64  C   UNL A   1      38.741  32.538  37.026  1.00  0.00     0.091 A 
ATOM     65  F   UNL A   1      38.674  30.375  36.021  1.00  0.00    -0.205 F 
ATOM     66  C   UNL A   1      39.295  33.829  37.068  1.00  0.00     0.022 A 
BRANCH  64  67
ATOM     67  S   UNL A   1      37.489  32.154  38.252  1.00  0.00     0.127 S 
ATOM     68  O   UNL A   1      38.109  32.658  39.476  1.00  0.00    -0.237 OA
ATOM     69  O   UNL A   1      36.348  32.937  37.777  1.00  0.00    -0.237 OA
ATOM     70  O   UNL A   1      37.303  30.710  38.202  1.00  0.00    -0.744 OA
ENDBRANCH  64  67
ENDBRANCH  46  60
BRANCH  47  71
ATOM     71  C   UNL A   1      42.509  25.948  27.459  1.00  0.00     0.023 A 
ATOM     72  C   UNL A   1      43.239  26.481  26.379  1.00  0.00     0.012 A 
ATOM     73  C   UNL A   1      42.140  24.589  27.433  1.00  0.00     0.148 A 
ATOM     74  C   UNL A   1      43.551  25.687  25.273  1.00  0.00     0.002 A 
ATOM     75  C   UNL A   1      42.509  23.789  26.360  1.00  0.00     0.091 A 
ATOM     76  F   UNL A   1      41.434  24.103  28.464  1.00  0.00    -0.205 F 
ATOM     77  C   UNL A   1      43.193  24.340  25.267  1.00  0.00     0.022 A 
BRANCH  75  78
ATOM     78  S   UNL A   1      42.197  22.021  26.331  1.00  0.00     0.127 S 
ATOM     79  O   UNL A   1      40.804  21.970  25.896  1.00  0.00    -0.237 OA
ATOM     80  O   UNL A   1      43.171  21.562  25.341  1.00  0.00    -0.237 OA
ATOM     81  O   UNL A   1      42.453  21.551  27.686  1.00  0.00    -0.744 OA
ENDBRANCH  75  78
ENDBRANCH  47  71
BRANCH  59  82
ATOM     82  C   UNL A   1      45.117  27.002  33.845  1.00  0.00     0.023 A 
ATOM     83  C   UNL A   1      46.415  27.540  33.724  1.00  0.00     0.012 A 
ATOM     84  C   UNL A   1      44.904  25.894  34.688  1.00  0.00     0.148 A 
ATOM     85  C   UNL A   1      47.490  26.946  34.381  1.00  0.00     0.002 A 
ATOM     86  C   UNL A   1      45.970  25.347  35.390  1.00  0.00     0.091 A 
ATOM     87  F   UNL A   1      43.665  25.390  34.783  1.00  0.00    -0.205 F 
ATOM     88  C   UNL A   1      47.267  25.858  35.221  1.00  0.00     0.022 A 
BRANCH  86  89
ATOM     89  S   UNL A   1      45.759  24.014  36.573  1.00  0.00     0.127 S 
ATOM     90  O   UNL A   1      44.707  24.548  37.436  1.00  0.00    -0.237 OA
ATOM     91  O   UNL A   1      45.340  22.905  35.716  1.00  0.00    -0.237 OA
ATOM     92  O   UNL A   1      47.056  23.830  37.210  1.00  0.00    -0.744 OA
ENDBRANCH  86  89
ENDBRANCH  59  82
ENDBRANCH  33  34
ENDBRANCH  26  28
ENDBRANCH  25  26
ENDBRANCH  24  25
ENDBRANCH   1  24
TORSDOF 18
ENDMDL
MODEL 2
REMARK VINA RESULT:     -12.4      2.323      3.253
REMARK SMILES O=C(OCCOCCOC(=O)c1ccc(-c2c3nc(c(-c4cccc(S(=O)(=O)[O-])c4F)c4ccc([nH]4)c(-c4cccc(S(=O)(=O)[O-])c4F)c4nc(c(-c5cccc(S(=O)(=O)[O-])c5F)c5ccc2[nH]5)C=C4)C=C3)cc1)C1=Cc2cc(Cl)c(Cl)cc2O[C@@H]1C(F)(F)F
REMARK SMILES IDX 7 1 6 2 5 3 4 4 3 5 2 6 1 7 75 8 76 9 86 10 77 11 85 12
REMARK SMILES IDX 78 13 84 14 79 15 83 16 80 17 81 18 82 19 87 20 88 21 89 22
REMARK SMILES IDX 90 23 8 24 9 25 10 26 11 27 12 28 13 29 74 30 14 31 73 32
REMARK SMILES IDX 15 33 16 34 17 35 67 36 18 37 72 38 66 39 68 40 19 41 71 42
REMARK SMILES IDX 65 43 64 44 20 46 52 47 32 48 51 49 33 50 36 51 50 52 69 53
REMARK SMILES IDX 34 54 35 55 49 57 70 58 37 59 21 60 22 61 30 62 23 63 25 64
REMARK SMILES IDX 31 65 24 66 26 67 27 68 28 69 29 70 53 71 54 72 62 73 55 74
REMARK SMILES IDX 57 75 63 76 56 77 58 78 59 79 60 80 61 81 38 82 39 83 47 84
REMARK SMILES IDX 40 85 42 86 48 87 41 88 43 89 44 90 45 91 46 92
REMARK H PARENT 68 45 36 56
REMARK Flexibility Score: inf
ROOT
ATOM      1  C   UNL A   1      32.353  30.926  26.604  1.00  0.00     0.202 C 
ENDROOT
BRANCH   1   2
ATOM      2  O   UNL A   1      32.463  29.829  27.538  1.00  0.00    -0.374 OA
BRANCH   2   3
ATOM      3  C   UNL A   1      31.841  28.317  27.481  1.00  0.00     0.202 C 
BRANCH   3   4
ATOM      4  C   UNL A   1      32.571  26.561  26.437  1.00  0.00     0.261 C 
BRANCH   4   5
ATOM      5  O   UNL A   1      31.797  25.234  26.225  1.00  0.00    -0.460 OA
BRANCH   5   6
ATOM      6  C   UNL A   1      32.593  24.218  25.879  1.00  0.00     0.338 C 
ATOM      7  O   UNL A   1      33.641  23.854  26.346  1.00  0.00    -0.246 OA
BRANCH   6   8
ATOM      8  C   UNL A   1      31.961  23.977  24.606  1.00  0.00     0.087 C 
ATOM      9  C   UNL A   1      30.591  24.531  24.577  1.00  0.00     0.027 C 
ATOM     10  C   UNL A   1      33.431  24.588  23.502  1.00  0.00     0.316 C 
ATOM     11  C   UNL A   1      30.139  26.016  23.654  1.00  0.00     0.019 A 
ATOM     12  O   UNL A   1      32.987  26.217  22.563  1.00  0.00    -0.475 OA
ATOM     13  C   UNL A   1      28.884  26.532  23.819  1.00  0.00     0.034 A 
ATOM     14  C   UNL A   1      31.301  26.904  22.720  1.00  0.00     0.129 A 
ATOM     15  C   UNL A   1      28.678  27.797  23.246  1.00  0.00     0.060 A 
ATOM     16  C   UNL A   1      31.046  28.173  22.282  1.00  0.00     0.069 A 
ATOM     17  Cl  UNL A   1      27.051  28.406  23.434  1.00  0.00    -0.083 Cl
ATOM     18  C   UNL A   1      29.708  28.588  22.564  1.00  0.00     0.063 A 
ATOM     19  Cl  UNL A   1      29.275  30.209  22.115  1.00  0.00    -0.083 Cl
BRANCH  10  20
ATOM     20  C   UNL A   1      33.908  23.159  22.975  1.00  0.00     0.430 C 
ATOM     21  F   UNL A   1      33.494  22.106  23.702  1.00  0.00    -0.167 F 
ATOM     22  F   UNL A   1      33.348  22.973  21.741  1.00  0.00    -0.167 F 
ATOM     23  F   UNL A   1      35.238  23.037  22.764  1.00  0.00    -0.167 F 
ENDBRANCH  10  20
ENDBRANCH   6   8
ENDBRANCH   5   6
ENDBRANCH   4   5
ENDBRANCH   3   4
ENDBRANCH   2   3
ENDBRANCH   1   2
BRANCH   1  24
ATOM     24  C   UNL A   1      32.190  32.317  27.216  1.00  0.00     0.261 C 
BRANCH  24  25
ATOM     25  O   UNL A   1      33.408  33.045  27.198  1.00  0.00    -0.460 OA
BRANCH  25  26
ATOM     26  C   UNL A   1      33.798  33.433  28.431  1.00  0.00     0.338 C 
ATOM     27  O   UNL A   1      33.209  34.186  29.190  1.00  0.00    -0.246 OA
BRANCH  26  28
ATOM     28  C   UNL A   1      35.090  32.813  28.751  1.00  0.00     0.060 A 
ATOM     29  C   UNL A   1      35.044  31.599  29.437  1.00  0.00     0.016 A 
ATOM     30  C   UNL A   1      36.317  33.404  28.409  1.00  0.00     0.016 A 
ATOM     31  C   UNL A   1      36.226  30.975  29.792  1.00  0.00     0.010 A 
ATOM     32  C   UNL A   1      37.505  32.775  28.766  1.00  0.00     0.010 A 
ATOM     33  C   UNL A   1      37.452  31.566  29.470  1.00  0.00    -0.014 A 
BRANCH  33  34
ATOM     34  C   UNL A   1      38.660  30.966  30.053  1.00  0.00     0.031 A 
ATOM     35  C   UNL A   1      39.033  31.368  31.441  1.00  0.00     0.074 A 
ATOM     36  C   UNL A   1      39.318  29.999  29.394  1.00  0.00     0.049 A 
ATOM     37  N   UNL A   1      39.939  30.861  32.227  1.00  0.00    -0.248 NA
ATOM     38  C   UNL A   1      38.273  32.488  32.026  1.00  0.00     0.031 C 
ATOM     39  C   UNL A   1      39.025  29.559  28.033  1.00  0.00     0.029 A 
ATOM     40  N   UNL A   1      40.357  29.204  29.790  1.00  0.00    -0.354 N 
ATOM     41  C   UNL A   1      39.858  31.591  33.402  1.00  0.00     0.074 A 
ATOM     42  C   UNL A   1      38.835  32.595  33.220  1.00  0.00     0.031 C 
ATOM     43  C   UNL A   1      39.848  28.548  27.713  1.00  0.00     0.029 A 
ATOM     44  C   UNL A   1      40.759  28.311  28.828  1.00  0.00     0.049 A 
ATOM     45  H   UNL A   1      40.776  29.266  30.679  1.00  0.00     0.167 HD
ATOM     46  C   UNL A   1      40.569  31.421  34.538  1.00  0.00     0.034 A 
ATOM     47  C   UNL A   1      41.771  27.424  28.847  1.00  0.00     0.034 A 
ATOM     48  C   UNL A   1      41.610  30.443  34.683  1.00  0.00     0.049 A 
ATOM     49  C   UNL A   1      42.585  27.300  30.107  1.00  0.00     0.074 A 
ATOM     50  C   UNL A   1      42.410  30.195  35.782  1.00  0.00     0.029 A 
ATOM     51  N   UNL A   1      42.011  29.566  33.686  1.00  0.00    -0.354 N 
ATOM     52  N   UNL A   1      42.444  27.933  31.248  1.00  0.00    -0.248 NA
ATOM     53  C   UNL A   1      43.674  26.317  30.094  1.00  0.00     0.031 C 
ATOM     54  C   UNL A   1      43.327  29.198  35.433  1.00  0.00     0.029 A 
ATOM     55  C   UNL A   1      43.058  28.782  34.138  1.00  0.00     0.049 A 
ATOM     56  H   UNL A   1      41.610  29.509  32.789  1.00  0.00     0.167 HD
ATOM     57  C   UNL A   1      43.408  27.405  32.099  1.00  0.00     0.074 A 
ATOM     58  C   UNL A   1      44.100  26.375  31.349  1.00  0.00     0.031 C 
ATOM     59  C   UNL A   1      43.708  27.745  33.378  1.00  0.00     0.034 A 
BRANCH  46  60
ATOM     60  C   UNL A   1      40.244  32.326  35.693  1.00  0.00     0.023 A 
ATOM     61  C   UNL A   1      40.990  33.507  35.893  1.00  0.00     0.012 A 
ATOM     62  C   UNL A   1      39.189  32.016  36.571  1.00  0.00     0.148 A 
ATOM     63  C   UNL A   1      40.710  34.349  36.967  1.00  0.00     0.002 A 
ATOM     64  C   UNL A   1      38.884  32.885  37.609  1.00  0.00     0.091 A 
ATOM     65  F   UNL A   1      38.516  30.873  36.380  1.00  0.00    -0.205 F 
ATOM     66  C   UNL A   1      39.650  34.044  37.817  1.00  0.00     0.022 A 
BRANCH  64  67
ATOM     67  S   UNL A   1      37.497  32.619  38.716  1.00  0.00     0.127 S 
ATOM     68  O   UNL A   1      37.714  31.235  39.135  1.00  0.00    -0.237 OA
ATOM     69  O   UNL A   1      37.745  33.618  39.757  1.00  0.00    -0.237 OA
ATOM     70  O   UNL A   1      36.297  32.846  37.924  1.00  0.00    -0.744 OA
ENDBRANCH  64  67
ENDBRANCH  46  60
BRANCH  47  71
ATOM     71  C   UNL A   1      42.083  26.610  27.639  1.00  0.00     0.023 A 
ATOM     72  C   UNL A   1      42.726  27.192  26.530  1.00  0.00     0.012 A 
ATOM     73  C   UNL A   1      41.718  25.250  27.585  1.00  0.00     0.148 A 
ATOM     74  C   UNL A   1      42.955  26.447  25.372  1.00  0.00     0.002 A 
ATOM     75  C   UNL A   1      42.006  24.499  26.454  1.00  0.00     0.091 A 
ATOM     76  F   UNL A   1      41.094  24.717  28.645  1.00  0.00    -0.205 F 
ATOM     77  C   UNL A   1      42.603  25.100  25.336  1.00  0.00     0.022 A 
BRANCH  75  78
ATOM     78  S   UNL A   1      41.699  22.731  26.373  1.00  0.00     0.127 S 
ATOM     79  O   UNL A   1      42.414  22.359  25.156  1.00  0.00    -0.237 OA
ATOM     80  O   UNL A   1      42.311  22.265  27.617  1.00  0.00    -0.237 OA
ATOM     81  O   UNL A   1      40.250  22.582  26.325  1.00  0.00    -0.744 OA
ENDBRANCH  75  78
ENDBRANCH  47  71
BRANCH  59  82
ATOM     82  C   UNL A   1      44.803  26.963  34.056  1.00  0.00     0.023 A 
ATOM     83  C   UNL A   1      46.146  27.380  33.947  1.00  0.00     0.012 A 
ATOM     84  C   UNL A   1      44.492  25.830  34.832  1.00  0.00     0.148 A 
ATOM     85  C   UNL A   1      47.165  26.645  34.550  1.00  0.00     0.002 A 
ATOM     86  C   UNL A   1      45.507  25.139  35.481  1.00  0.00     0.091 A 
ATOM     87  F   UNL A   1      43.211  25.442  34.915  1.00  0.00    -0.205 F 
ATOM     88  C   UNL A   1      46.845  25.533  35.324  1.00  0.00     0.022 A 
BRANCH  86  89
ATOM     89  S   UNL A   1      45.179  23.761  36.583  1.00  0.00     0.127 S 
ATOM     90  O   UNL A   1      44.384  24.401  37.630  1.00  0.00    -0.237 OA
ATOM     91  O   UNL A   1      44.429  22.849  35.719  1.00  0.00    -0.237 OA
ATOM     92  O   UNL A   1      46.481  23.262  37.004  1.00  0.00    -0.744 OA
ENDBRANCH  86  89
ENDBRANCH  59  82
ENDBRANCH  33  34
ENDBRANCH  26  28
ENDBRANCH  25  26
ENDBRANCH  24  25
ENDBRANCH   1  24
TORSDOF 18
ENDMDL
MODEL 3
REMARK VINA RESULT:     -12.2      1.715      2.076
REMARK SMILES O=C(OCCOCCOC(=O)c1ccc(-c2c3nc(c(-c4cccc(S(=O)(=O)[O-])c4F)c4ccc([nH]4)c(-c4cccc(S(=O)(=O)[O-])c4F)c4nc(c(-c5cccc(S(=O)(=O)[O-])c5F)c5ccc2[nH]5)C=C4)C=C3)cc1)C1=Cc2cc(Cl)c(Cl)cc2O[C@@H]1C(F)(F)F
REMARK SMILES IDX 7 1 6 2 5 3 4 4 3 5 2 6 1 7 75 8 76 9 86 10 77 11 85 12
REMARK SMILES IDX 78 13 84 14 79 15 83 16 80 17 81 18 82 19 87 20 88 21 89 22
REMARK SMILES IDX 90 23 8 24 9 25 10 26 11 27 12 28 13 29 74 30 14 31 73 32
REMARK SMILES IDX 15 33 16 34 17 35 67 36 18 37 72 38 66 39 68 40 19 41 71 42
REMARK SMILES IDX 65 43 64 44 20 46 52 47 32 48 51 49 33 50 36 51 50 52 69 53
REMARK SMILES IDX 34 54 35 55 49 57 70 58 37 59 21 60 22 61 30 62 23 63 25 64
REMARK SMILES IDX 31 65 24 66 26 67 27 68 28 69 29 70 53 71 54 72 62 73 55 74
REMARK SMILES IDX 57 75 63 76 56 77 58 78 59 79 60 80 61 81 38 82 39 83 47 84
REMARK SMILES IDX 40 85 42 86 48 87 41 88 43 89 44 90 45 91 46 92
REMARK H PARENT 68 45 36 56
REMARK Flexibility Score: inf
ROOT
ATOM      1  C   UNL A   1      31.825  29.588  25.352  1.00  0.00     0.202 C 
ENDROOT
BRANCH   1   2
ATOM      2  O   UNL A   1      32.679  29.688  24.192  1.00  0.00    -0.374 OA
BRANCH   2   3
ATOM      3  C   UNL A   1      33.832  28.673  23.628  1.00  0.00     0.202 C 
BRANCH   3   4
ATOM      4  C   UNL A   1      33.788  27.351  21.909  1.00  0.00     0.261 C 
BRANCH   4   5
ATOM      5  O   UNL A   1      33.169  25.930  21.863  1.00  0.00    -0.460 OA
BRANCH   5   6
ATOM      6  C   UNL A   1      31.837  25.947  21.763  1.00  0.00     0.338 C 
ATOM      7  O   UNL A   1      31.103  26.747  21.243  1.00  0.00    -0.246 OA
BRANCH   6   8
ATOM      8  C   UNL A   1      31.612  24.927  22.757  1.00  0.00     0.087 C 
ATOM      9  C   UNL A   1      32.625  23.855  22.659  1.00  0.00     0.027 C 
ATOM     10  C   UNL A   1      31.402  26.122  24.267  1.00  0.00     0.316 C 
ATOM     11  C   UNL A   1      33.965  23.642  23.851  1.00  0.00     0.019 A 
ATOM     12  O   UNL A   1      32.866  25.956  25.516  1.00  0.00    -0.475 OA
ATOM     13  C   UNL A   1      34.937  22.719  23.583  1.00  0.00     0.034 A 
ATOM     14  C   UNL A   1      34.154  24.695  25.216  1.00  0.00     0.129 A 
ATOM     15  C   UNL A   1      36.052  22.761  24.436  1.00  0.00     0.060 A 
ATOM     16  C   UNL A   1      35.317  24.734  25.934  1.00  0.00     0.069 A 
ATOM     17  Cl  UNL A   1      37.252  21.538  24.097  1.00  0.00    -0.083 Cl
ATOM     18  C   UNL A   1      36.250  23.738  25.511  1.00  0.00     0.063 A 
ATOM     19  Cl  UNL A   1      37.797  23.724  26.301  1.00  0.00    -0.083 Cl
BRANCH  10  20
ATOM     20  C   UNL A   1      29.827  25.950  24.454  1.00  0.00     0.430 C 
ATOM     21  F   UNL A   1      29.422  25.638  25.699  1.00  0.00    -0.167 F 
ATOM     22  F   UNL A   1      29.250  27.162  24.193  1.00  0.00    -0.167 F 
ATOM     23  F   UNL A   1      29.233  25.100  23.586  1.00  0.00    -0.167 F 
ENDBRANCH  10  20
ENDBRANCH   6   8
ENDBRANCH   5   6
ENDBRANCH   4   5
ENDBRANCH   3   4
ENDBRANCH   2   3
ENDBRANCH   1   2
BRANCH   1  24
ATOM     24  C   UNL A   1      31.726  30.838  26.226  1.00  0.00     0.261 C 
BRANCH  24  25
ATOM     25  O   UNL A   1      32.586  30.761  27.353  1.00  0.00    -0.460 OA
BRANCH  25  26
ATOM     26  C   UNL A   1      33.299  31.893  27.537  1.00  0.00     0.338 C 
ATOM     27  O   UNL A   1      32.923  33.041  27.364  1.00  0.00    -0.246 OA
BRANCH  26  28
ATOM     28  C   UNL A   1      34.656  31.546  27.980  1.00  0.00     0.060 A 
ATOM     29  C   UNL A   1      34.871  30.214  28.340  1.00  0.00     0.016 A 
ATOM     30  C   UNL A   1      35.690  32.492  28.060  1.00  0.00     0.016 A 
ATOM     31  C   UNL A   1      36.119  29.826  28.791  1.00  0.00     0.010 A 
ATOM     32  C   UNL A   1      36.945  32.100  28.513  1.00  0.00     0.010 A 
ATOM     33  C   UNL A   1      37.150  30.768  28.889  1.00  0.00    -0.014 A 
BRANCH  33  34
ATOM     34  C   UNL A   1      38.383  30.343  29.567  1.00  0.00     0.031 A 
ATOM     35  C   UNL A   1      38.597  30.808  30.970  1.00  0.00     0.074 A 
ATOM     36  C   UNL A   1      39.211  29.468  28.976  1.00  0.00     0.049 A 
ATOM     37  N   UNL A   1      39.505  30.437  31.826  1.00  0.00    -0.248 NA
ATOM     38  C   UNL A   1      37.654  31.821  31.477  1.00  0.00     0.031 C 
ATOM     39  C   UNL A   1      39.078  28.977  27.607  1.00  0.00     0.029 A 
ATOM     40  N   UNL A   1      40.316  28.826  29.460  1.00  0.00    -0.354 N 
ATOM     41  C   UNL A   1      39.243  31.162  32.979  1.00  0.00     0.074 A 
ATOM     42  C   UNL A   1      38.108  32.016  32.705  1.00  0.00     0.031 C 
ATOM     43  C   UNL A   1      40.051  28.084  27.366  1.00  0.00     0.029 A 
ATOM     44  C   UNL A   1      40.903  27.986  28.546  1.00  0.00     0.049 A 
ATOM     45  H   UNL A   1      40.658  28.954  30.374  1.00  0.00     0.167 HD
ATOM     46  C   UNL A   1      39.886  31.104  34.164  1.00  0.00     0.034 A 
ATOM     47  C   UNL A   1      42.021  27.245  28.654  1.00  0.00     0.034 A 
ATOM     48  C   UNL A   1      41.037  30.278  34.402  1.00  0.00     0.049 A 
ATOM     49  C   UNL A   1      42.752  27.246  29.970  1.00  0.00     0.074 A 
ATOM     50  C   UNL A   1      41.782  30.153  35.558  1.00  0.00     0.029 A 
ATOM     51  N   UNL A   1      41.623  29.452  33.453  1.00  0.00    -0.354 N 
ATOM     52  N   UNL A   1      42.446  27.866  31.085  1.00  0.00    -0.248 NA
ATOM     53  C   UNL A   1      43.962  26.420  30.053  1.00  0.00     0.031 C 
ATOM     54  C   UNL A   1      42.848  29.286  35.294  1.00  0.00     0.029 A 
ATOM     55  C   UNL A   1      42.731  28.823  33.993  1.00  0.00     0.049 A 
ATOM     56  H   UNL A   1      41.299  29.332  32.531  1.00  0.00     0.167 HD
ATOM     57  C   UNL A   1      43.408  27.484  32.011  1.00  0.00     0.074 A 
ATOM     58  C   UNL A   1      44.285  26.550  31.332  1.00  0.00     0.031 C 
ATOM     59  C   UNL A   1      43.567  27.875  33.301  1.00  0.00     0.034 A 
BRANCH  46  60
ATOM     60  C   UNL A   1      39.360  31.968  35.275  1.00  0.00     0.023 A 
ATOM     61  C   UNL A   1      38.360  31.472  36.138  1.00  0.00     0.012 A 
ATOM     62  C   UNL A   1      39.866  33.265  35.474  1.00  0.00     0.148 A 
ATOM     63  C   UNL A   1      37.852  32.266  37.163  1.00  0.00     0.002 A 
ATOM     64  C   UNL A   1      39.391  34.032  36.528  1.00  0.00     0.091 A 
ATOM     65  F   UNL A   1      40.792  33.727  34.621  1.00  0.00    -0.205 F 
ATOM     66  C   UNL A   1      38.375  33.541  37.366  1.00  0.00     0.022 A 
BRANCH  64  67
ATOM     67  S   UNL A   1      40.047  35.657  36.916  1.00  0.00     0.127 S 
ATOM     68  O   UNL A   1      41.476  35.377  37.035  1.00  0.00    -0.237 OA
ATOM     69  O   UNL A   1      39.672  36.426  35.729  1.00  0.00    -0.237 OA
ATOM     70  O   UNL A   1      39.393  36.074  38.148  1.00  0.00    -0.744 OA
ENDBRANCH  64  67
ENDBRANCH  46  60
BRANCH  47  71
ATOM     71  C   UNL A   1      42.526  26.468  27.488  1.00  0.00     0.023 A 
ATOM     72  C   UNL A   1      43.298  27.093  26.490  1.00  0.00     0.012 A 
ATOM     73  C   UNL A   1      42.218  25.098  27.358  1.00  0.00     0.148 A 
ATOM     74  C   UNL A   1      43.711  26.382  25.363  1.00  0.00     0.002 A 
ATOM     75  C   UNL A   1      42.686  24.381  26.266  1.00  0.00     0.091 A 
ATOM     76  F   UNL A   1      41.471  24.523  28.311  1.00  0.00    -0.205 F 
ATOM     77  C   UNL A   1      43.413  25.025  25.254  1.00  0.00     0.022 A 
BRANCH  75  78
ATOM     78  S   UNL A   1      42.453  22.608  26.113  1.00  0.00     0.127 S 
ATOM     79  O   UNL A   1      43.072  22.118  27.341  1.00  0.00    -0.237 OA
ATOM     80  O   UNL A   1      40.995  22.500  26.069  1.00  0.00    -0.237 OA
ATOM     81  O   UNL A   1      43.121  22.226  24.875  1.00  0.00    -0.744 OA
ENDBRANCH  75  78
ENDBRANCH  47  71
BRANCH  59  82
ATOM     82  C   UNL A   1      44.707  27.257  34.069  1.00  0.00     0.023 A 
ATOM     83  C   UNL A   1      44.505  26.078  34.815  1.00  0.00     0.012 A 
ATOM     84  C   UNL A   1      45.992  27.832  34.019  1.00  0.00     0.148 A 
ATOM     85  C   UNL A   1      45.549  25.518  35.549  1.00  0.00     0.002 A 
ATOM     86  C   UNL A   1      47.042  27.233  34.702  1.00  0.00     0.091 A 
ATOM     87  F   UNL A   1      46.163  28.959  33.313  1.00  0.00    -0.205 F 
ATOM     88  C   UNL A   1      46.818  26.088  35.484  1.00  0.00     0.022 A 
BRANCH  86  89
ATOM     89  S   UNL A   1      48.729  27.835  34.590  1.00  0.00     0.127 S 
ATOM     90  O   UNL A   1      48.569  29.237  34.974  1.00  0.00    -0.237 OA
ATOM     91  O   UNL A   1      49.417  27.007  35.580  1.00  0.00    -0.237 OA
ATOM     92  O   UNL A   1      49.149  27.608  33.215  1.00  0.00    -0.744 OA
ENDBRANCH  86  89
ENDBRANCH  59  82
ENDBRANCH  33  34
ENDBRANCH  26  28
ENDBRANCH  25  26
ENDBRANCH  24  25
ENDBRANCH   1  24
TORSDOF 18
ENDMDL
