MODEL 1
REMARK VINA RESULT:      -9.3      0.000      0.000
REMARK SMILES CCCCCCCNC(=O)Oc1cccc(-c2ccc([C@@H](C)C(=O)OCCOCCOC(=O)c3ccc(-c4c5nc(c(-c6cccc(S(=O)(=O)[O-])c6F)c6ccc([nH]6)c(-c6cccc(S(=O)(=O)[O-])c6F)c6nc(c(-c7cccc(S(=O)(=O)[O-])c7F)c7ccc4[nH]7)C=C6)C=C5)cc3)cc2F)c1
REMARK SMILES IDX 23 1 24 2 21 3 22 4 20 5 17 6 18 7 98 8 19 9 97 10 99 11
REMARK SMILES IDX 16 12 12 13 13 14 100 15 14 16 15 17 11 18 9 19 8 20 10 22
REMARK SMILES IDX 7 23 6 24 5 25 4 26 3 27 2 28 1 29 25 30 26 31 27 32 28 33
REMARK SMILES IDX 29 34 30 35 31 36 32 37 33 38 34 39 35 40 96 41 36 42 95 43
REMARK SMILES IDX 37 44 38 45 39 46 89 47 40 48 94 49 88 50 90 51 41 52 93 53
REMARK SMILES IDX 87 54 86 55 42 57 74 58 54 59 73 60 55 61 58 62 72 63 91 64
REMARK SMILES IDX 56 65 57 66 71 68 92 69 59 70 43 71 44 72 52 73 45 74 47 75
REMARK SMILES IDX 53 76 46 77 48 78 49 79 50 80 51 81 75 82 76 83 84 84 77 85
REMARK SMILES IDX 79 86 85 87 78 88 80 89 81 90 82 91 83 92 60 93 61 94 69 95
REMARK SMILES IDX 62 96 64 97 70 98 63 99 65 100 66 101 67 102 68 103
REMARK H PARENT 8 21 90 56 58 67
REMARK Flexibility Score: inf
ROOT
ATOM      1  C   UNL A   1      33.211  31.468  27.462  1.00  0.00     0.313 C 
ATOM      2  O   UNL A   1      32.144  31.602  26.868  1.00  0.00    -0.252 OA
ENDROOT
BRANCH   1   3
ATOM      3  C   UNL A   1      33.834  30.100  27.684  1.00  0.00     0.126 C 
ATOM      4  C   UNL A   1      35.354  30.230  27.675  1.00  0.00     0.025 C 
BRANCH   3   5
ATOM      5  C   UNL A   1      33.353  28.944  26.814  1.00  0.00    -0.031 A 
ATOM      6  C   UNL A   1      32.508  26.622  25.376  1.00  0.00     0.018 A 
ATOM      7  C   UNL A   1      33.649  27.346  24.992  1.00  0.00     0.012 A 
ATOM      8  C   UNL A   1      31.780  27.115  26.466  1.00  0.00     0.131 A 
ATOM      9  C   UNL A   1      34.067  28.486  25.698  1.00  0.00     0.005 A 
ATOM     10  C   UNL A   1      32.186  28.250  27.172  1.00  0.00     0.044 A 
ATOM     11  F   UNL A   1      30.679  26.475  26.893  1.00  0.00    -0.206 F 
BRANCH   6  12
ATOM     12  C   UNL A   1      32.129  25.372  24.694  1.00  0.00    -0.012 A 
ATOM     13  C   UNL A   1      32.545  23.048  24.113  1.00  0.00     0.133 A 
ATOM     14  C   UNL A   1      31.405  23.011  23.314  1.00  0.00     0.047 A 
ATOM     15  C   UNL A   1      32.921  24.215  24.786  1.00  0.00     0.056 A 
ATOM     16  C   UNL A   1      30.610  24.147  23.212  1.00  0.00     0.004 A 
ATOM     17  C   UNL A   1      30.968  25.314  23.897  1.00  0.00     0.009 A 
BRANCH  13  18
ATOM     18  O   UNL A   1      33.353  21.900  24.119  1.00  0.00    -0.410 OA
BRANCH  18  19
ATOM     19  C   UNL A   1      33.065  20.916  25.048  1.00  0.00     0.412 C 
ATOM     20  N   UNL A   1      34.001  20.808  26.035  1.00  0.00    -0.321 N 
ATOM     21  H   UNL A   1      33.844  20.115  26.715  1.00  0.00     0.167 HD
ATOM     22  O   UNL A   1      32.079  20.175  25.040  1.00  0.00    -0.224 OA
BRANCH  20  23
ATOM     23  C   UNL A   1      35.202  21.606  26.190  1.00  0.00     0.119 C 
BRANCH  23  24
ATOM     24  C   UNL A   1      36.389  21.000  25.439  1.00  0.00     0.021 C 
BRANCH  24  25
ATOM     25  C   UNL A   1      37.165  21.988  24.559  1.00  0.00     0.002 C 
BRANCH  25  26
ATOM     26  C   UNL A   1      36.877  23.469  24.822  1.00  0.00     0.000 C 
BRANCH  26  27
ATOM     27  C   UNL A   1      37.372  24.001  26.172  1.00  0.00    -0.000 C 
BRANCH  27  28
ATOM     28  C   UNL A   1      38.893  24.094  26.322  1.00  0.00    -0.003 C 
ATOM     29  C   UNL A   1      39.335  25.097  27.378  1.00  0.00     0.004 C 
ENDBRANCH  27  28
ENDBRANCH  26  27
ENDBRANCH  25  26
ENDBRANCH  24  25
ENDBRANCH  23  24
ENDBRANCH  20  23
ENDBRANCH  18  19
ENDBRANCH  13  18
ENDBRANCH   6  12
ENDBRANCH   3   5
ENDBRANCH   1   3
BRANCH   1  30
ATOM     30  O   UNL A   1      33.928  32.491  27.993  1.00  0.00    -0.463 OA
BRANCH  30  31
ATOM     31  C   UNL A   1      33.295  33.782  27.979  1.00  0.00     0.261 C 
BRANCH  31  32
ATOM     32  C   UNL A   1      33.915  34.720  29.018  1.00  0.00     0.202 C 
BRANCH  32  33
ATOM     33  O   UNL A   1      33.174  34.918  30.222  1.00  0.00    -0.374 OA
BRANCH  33  34
ATOM     34  C   UNL A   1      33.892  35.368  31.371  1.00  0.00     0.202 C 
BRANCH  34  35
ATOM     35  C   UNL A   1      34.084  34.368  32.518  1.00  0.00     0.261 C 
BRANCH  35  36
ATOM     36  O   UNL A   1      35.352  33.695  32.460  1.00  0.00    -0.460 OA
BRANCH  36  37
ATOM     37  C   UNL A   1      35.374  32.596  31.665  1.00  0.00     0.338 C 
ATOM     38  O   UNL A   1      34.412  31.983  31.232  1.00  0.00    -0.246 OA
BRANCH  37  39
ATOM     39  C   UNL A   1      36.750  32.334  31.202  1.00  0.00     0.060 A 
ATOM     40  C   UNL A   1      37.771  32.388  32.161  1.00  0.00     0.016 A 
ATOM     41  C   UNL A   1      37.051  32.124  29.856  1.00  0.00     0.016 A 
ATOM     42  C   UNL A   1      39.105  32.299  31.769  1.00  0.00     0.010 A 
ATOM     43  C   UNL A   1      38.391  32.039  29.463  1.00  0.00     0.010 A 
ATOM     44  C   UNL A   1      39.424  32.170  30.412  1.00  0.00    -0.014 A 
BRANCH  44  45
ATOM     45  C   UNL A   1      40.830  32.347  29.971  1.00  0.00     0.031 A 
ATOM     46  C   UNL A   1      41.314  33.731  29.630  1.00  0.00     0.074 A 
ATOM     47  C   UNL A   1      41.665  31.297  29.882  1.00  0.00     0.049 A 
ATOM     48  N   UNL A   1      42.480  34.113  29.179  1.00  0.00    -0.248 NA
ATOM     49  C   UNL A   1      40.354  34.831  29.819  1.00  0.00     0.031 C 
ATOM     50  C   UNL A   1      41.320  29.913  30.201  1.00  0.00     0.029 A 
ATOM     51  N   UNL A   1      42.973  31.232  29.470  1.00  0.00    -0.354 N 
ATOM     52  C   UNL A   1      42.384  35.487  28.995  1.00  0.00     0.074 A 
ATOM     53  C   UNL A   1      41.042  35.872  29.376  1.00  0.00     0.031 C 
ATOM     54  C   UNL A   1      42.381  29.129  29.941  1.00  0.00     0.029 A 
ATOM     55  C   UNL A   1      43.467  29.951  29.412  1.00  0.00     0.049 A 
ATOM     56  H   UNL A   1      43.506  32.027  29.238  1.00  0.00     0.167 HD
ATOM     57  C   UNL A   1      43.329  36.353  28.561  1.00  0.00     0.034 A 
ATOM     58  C   UNL A   1      44.652  29.493  28.959  1.00  0.00     0.034 A 
ATOM     59  C   UNL A   1      44.670  35.973  28.209  1.00  0.00     0.049 A 
ATOM     60  C   UNL A   1      45.681  30.474  28.460  1.00  0.00     0.074 A 
ATOM     61  C   UNL A   1      45.716  36.783  27.804  1.00  0.00     0.029 A 
ATOM     62  N   UNL A   1      45.148  34.672  28.208  1.00  0.00    -0.354 N 
ATOM     63  N   UNL A   1      45.612  31.782  28.395  1.00  0.00    -0.248 NA
ATOM     64  C   UNL A   1      46.963  29.921  28.001  1.00  0.00     0.031 C 
ATOM     65  C   UNL A   1      46.819  35.969  27.531  1.00  0.00     0.029 A 
ATOM     66  C   UNL A   1      46.470  34.654  27.798  1.00  0.00     0.049 A 
ATOM     67  H   UNL A   1      44.625  33.877  28.461  1.00  0.00     0.167 HD
ATOM     68  C   UNL A   1      46.852  32.209  27.931  1.00  0.00     0.074 A 
ATOM     69  C   UNL A   1      47.658  31.021  27.743  1.00  0.00     0.031 C 
ATOM     70  C   UNL A   1      47.281  33.470  27.674  1.00  0.00     0.034 A 
BRANCH  57  71
ATOM     71  C   UNL A   1      42.954  37.809  28.462  1.00  0.00     0.023 A 
ATOM     72  C   UNL A   1      42.338  38.294  27.291  1.00  0.00     0.012 A 
ATOM     73  C   UNL A   1      43.161  38.681  29.548  1.00  0.00     0.148 A 
ATOM     74  C   UNL A   1      41.961  39.633  27.190  1.00  0.00     0.002 A 
ATOM     75  C   UNL A   1      42.743  40.004  29.457  1.00  0.00     0.091 A 
ATOM     76  F   UNL A   1      43.769  38.206  30.644  1.00  0.00    -0.205 F 
ATOM     77  C   UNL A   1      42.154  40.484  28.276  1.00  0.00     0.022 A 
BRANCH  75  78
ATOM     78  S   UNL A   1      42.874  41.156  30.829  1.00  0.00     0.127 S 
ATOM     79  O   UNL A   1      43.822  40.469  31.703  1.00  0.00    -0.237 OA
ATOM     80  O   UNL A   1      43.404  42.354  30.176  1.00  0.00    -0.237 OA
ATOM     81  O   UNL A   1      41.526  41.303  31.362  1.00  0.00    -0.744 OA
ENDBRANCH  75  78
ENDBRANCH  57  71
BRANCH  58  82
ATOM     82  C   UNL A   1      44.942  28.031  28.982  1.00  0.00     0.023 A 
ATOM     83  C   UNL A   1      45.570  27.462  30.106  1.00  0.00     0.012 A 
ATOM     84  C   UNL A   1      44.586  27.200  27.900  1.00  0.00     0.148 A 
ATOM     85  C   UNL A   1      45.868  26.099  30.141  1.00  0.00     0.002 A 
ATOM     86  C   UNL A   1      44.835  25.835  27.965  1.00  0.00     0.091 A 
ATOM     87  F   UNL A   1      44.006  27.764  26.831  1.00  0.00    -0.205 F 
ATOM     88  C   UNL A   1      45.491  25.285  29.077  1.00  0.00     0.022 A 
BRANCH  86  89
ATOM     89  S   UNL A   1      44.269  24.693  26.699  1.00  0.00     0.127 S 
ATOM     90  O   UNL A   1      44.713  23.408  27.235  1.00  0.00    -0.237 OA
ATOM     91  O   UNL A   1      42.822  24.905  26.727  1.00  0.00    -0.237 OA
ATOM     92  O   UNL A   1      44.914  25.121  25.465  1.00  0.00    -0.744 OA
ENDBRANCH  86  89
ENDBRANCH  58  82
BRANCH  70  93
ATOM     93  C   UNL A   1      48.704  33.650  27.211  1.00  0.00     0.023 A 
ATOM     94  C   UNL A   1      48.987  33.772  25.836  1.00  0.00     0.012 A 
ATOM     95  C   UNL A   1      49.748  33.788  28.147  1.00  0.00     0.148 A 
ATOM     96  C   UNL A   1      50.292  34.000  25.399  1.00  0.00     0.002 A 
ATOM     97  C   UNL A   1      51.038  34.064  27.707  1.00  0.00     0.091 A 
ATOM     98  F   UNL A   1      49.461  33.652  29.450  1.00  0.00    -0.205 F 
ATOM     99  C   UNL A   1      51.314  34.158  26.334  1.00  0.00     0.022 A 
BRANCH  97 100
ATOM    100  S   UNL A   1      52.395  34.382  28.841  1.00  0.00     0.127 S 
ATOM    101  O   UNL A   1      52.528  33.092  29.515  1.00  0.00    -0.237 OA
ATOM    102  O   UNL A   1      53.491  34.710  27.928  1.00  0.00    -0.237 OA
ATOM    103  O   UNL A   1      51.963  35.487  29.686  1.00  0.00    -0.744 OA
ENDBRANCH  97 100
ENDBRANCH  70  93
ENDBRANCH  44  45
ENDBRANCH  37  39
ENDBRANCH  36  37
ENDBRANCH  35  36
ENDBRANCH  34  35
ENDBRANCH  33  34
ENDBRANCH  32  33
ENDBRANCH  31  32
ENDBRANCH  30  31
ENDBRANCH   1  30
TORSDOF 27
ENDMDL
MODEL 2
REMARK VINA RESULT:      -9.2      1.819      7.341
REMARK SMILES CCCCCCCNC(=O)Oc1cccc(-c2ccc([C@@H](C)C(=O)OCCOCCOC(=O)c3ccc(-c4c5nc(c(-c6cccc(S(=O)(=O)[O-])c6F)c6ccc([nH]6)c(-c6cccc(S(=O)(=O)[O-])c6F)c6nc(c(-c7cccc(S(=O)(=O)[O-])c7F)c7ccc4[nH]7)C=C6)C=C5)cc3)cc2F)c1
REMARK SMILES IDX 23 1 24 2 21 3 22 4 20 5 17 6 18 7 98 8 19 9 97 10 99 11
REMARK SMILES IDX 16 12 12 13 13 14 100 15 14 16 15 17 11 18 9 19 8 20 10 22
REMARK SMILES IDX 7 23 6 24 5 25 4 26 3 27 2 28 1 29 25 30 26 31 27 32 28 33
REMARK SMILES IDX 29 34 30 35 31 36 32 37 33 38 34 39 35 40 96 41 36 42 95 43
REMARK SMILES IDX 37 44 38 45 39 46 89 47 40 48 94 49 88 50 90 51 41 52 93 53
REMARK SMILES IDX 87 54 86 55 42 57 74 58 54 59 73 60 55 61 58 62 72 63 91 64
REMARK SMILES IDX 56 65 57 66 71 68 92 69 59 70 43 71 44 72 52 73 45 74 47 75
REMARK SMILES IDX 53 76 46 77 48 78 49 79 50 80 51 81 75 82 76 83 84 84 77 85
REMARK SMILES IDX 79 86 85 87 78 88 80 89 81 90 82 91 83 92 60 93 61 94 69 95
REMARK SMILES IDX 62 96 64 97 70 98 63 99 65 100 66 101 67 102 68 103
REMARK H PARENT 8 21 90 56 58 67
REMARK Flexibility Score: inf
ROOT
ATOM      1  C   UNL A   1      32.970  31.847  27.403  1.00  0.00     0.313 C 
ATOM      2  O   UNL A   1      31.881  31.931  26.842  1.00  0.00    -0.252 OA
ENDROOT
BRANCH   1   3
ATOM      3  C   UNL A   1      33.645  30.506  27.640  1.00  0.00     0.126 C 
ATOM      4  C   UNL A   1      35.159  30.693  27.625  1.00  0.00     0.025 C 
BRANCH   3   5
ATOM      5  C   UNL A   1      33.205  29.323  26.784  1.00  0.00    -0.031 A 
ATOM      6  C   UNL A   1      32.442  26.954  25.376  1.00  0.00     0.018 A 
ATOM      7  C   UNL A   1      33.563  27.708  24.987  1.00  0.00     0.012 A 
ATOM      8  C   UNL A   1      31.692  27.441  26.454  1.00  0.00     0.131 A 
ATOM      9  C   UNL A   1      33.940  28.871  25.679  1.00  0.00     0.005 A 
ATOM     10  C   UNL A   1      32.059  28.597  27.146  1.00  0.00     0.044 A 
ATOM     11  F   UNL A   1      30.609  26.772  26.885  1.00  0.00    -0.206 F 
BRANCH   6  12
ATOM     12  C   UNL A   1      32.106  25.683  24.710  1.00  0.00    -0.012 A 
ATOM     13  C   UNL A   1      32.654  23.405  24.064  1.00  0.00     0.133 A 
ATOM     14  C   UNL A   1      31.457  23.283  23.363  1.00  0.00     0.047 A 
ATOM     15  C   UNL A   1      32.992  24.593  24.719  1.00  0.00     0.056 A 
ATOM     16  C   UNL A   1      30.569  24.352  23.344  1.00  0.00     0.004 A 
ATOM     17  C   UNL A   1      30.891  25.539  24.013  1.00  0.00     0.009 A 
BRANCH  13  18
ATOM     18  O   UNL A   1      33.548  22.325  23.985  1.00  0.00    -0.410 OA
BRANCH  18  19
ATOM     19  C   UNL A   1      33.210  21.161  24.652  1.00  0.00     0.412 C 
ATOM     20  N   UNL A   1      33.932  20.957  25.793  1.00  0.00    -0.321 N 
ATOM     21  H   UNL A   1      33.732  20.137  26.297  1.00  0.00     0.167 HD
ATOM     22  O   UNL A   1      32.353  20.346  24.302  1.00  0.00    -0.224 OA
BRANCH  20  23
ATOM     23  C   UNL A   1      34.960  21.820  26.341  1.00  0.00     0.119 C 
BRANCH  23  24
ATOM     24  C   UNL A   1      36.309  21.608  25.652  1.00  0.00     0.021 C 
BRANCH  24  25
ATOM     25  C   UNL A   1      36.913  22.868  25.018  1.00  0.00     0.002 C 
BRANCH  25  26
ATOM     26  C   UNL A   1      37.662  23.793  25.982  1.00  0.00     0.000 C 
BRANCH  26  27
ATOM     27  C   UNL A   1      39.002  23.255  26.495  1.00  0.00    -0.000 C 
BRANCH  27  28
ATOM     28  C   UNL A   1      39.663  24.085  27.598  1.00  0.00    -0.003 C 
ATOM     29  C   UNL A   1      39.396  25.579  27.472  1.00  0.00     0.004 C 
ENDBRANCH  27  28
ENDBRANCH  26  27
ENDBRANCH  25  26
ENDBRANCH  24  25
ENDBRANCH  23  24
ENDBRANCH  20  23
ENDBRANCH  18  19
ENDBRANCH  13  18
ENDBRANCH   6  12
ENDBRANCH   3   5
ENDBRANCH   1   3
BRANCH   1  30
ATOM     30  O   UNL A   1      33.671  32.906  27.884  1.00  0.00    -0.463 OA
BRANCH  30  31
ATOM     31  C   UNL A   1      32.928  34.123  28.071  1.00  0.00     0.261 C 
BRANCH  31  32
ATOM     32  C   UNL A   1      33.579  35.017  29.130  1.00  0.00     0.202 C 
BRANCH  32  33
ATOM     33  O   UNL A   1      32.878  35.156  30.366  1.00  0.00    -0.374 OA
BRANCH  33  34
ATOM     34  C   UNL A   1      33.629  35.582  31.504  1.00  0.00     0.202 C 
BRANCH  34  35
ATOM     35  C   UNL A   1      34.123  34.497  32.468  1.00  0.00     0.261 C 
BRANCH  35  36
ATOM     36  O   UNL A   1      35.414  33.980  32.106  1.00  0.00    -0.460 OA
BRANCH  36  37
ATOM     37  C   UNL A   1      35.385  32.799  31.440  1.00  0.00     0.338 C 
ATOM     38  O   UNL A   1      34.399  32.217  31.020  1.00  0.00    -0.246 OA
BRANCH  37  39
ATOM     39  C   UNL A   1      36.756  32.380  31.093  1.00  0.00     0.060 A 
ATOM     40  C   UNL A   1      37.671  32.244  32.146  1.00  0.00     0.016 A 
ATOM     41  C   UNL A   1      37.164  32.205  29.770  1.00  0.00     0.016 A 
ATOM     42  C   UNL A   1      39.016  31.998  31.877  1.00  0.00     0.010 A 
ATOM     43  C   UNL A   1      38.516  31.962  29.502  1.00  0.00     0.010 A 
ATOM     44  C   UNL A   1      39.454  31.901  30.551  1.00  0.00    -0.014 A 
BRANCH  44  45
ATOM     45  C   UNL A   1      40.908  31.911  30.258  1.00  0.00     0.031 A 
ATOM     46  C   UNL A   1      41.572  30.626  29.838  1.00  0.00     0.074 A 
ATOM     47  C   UNL A   1      41.627  33.043  30.357  1.00  0.00     0.049 A 
ATOM     48  N   UNL A   1      42.832  30.390  29.582  1.00  0.00    -0.248 NA
ATOM     49  C   UNL A   1      40.698  29.450  29.691  1.00  0.00     0.031 C 
ATOM     50  C   UNL A   1      41.097  34.350  30.737  1.00  0.00     0.029 A 
ATOM     51  N   UNL A   1      42.969  33.264  30.170  1.00  0.00    -0.354 N 
ATOM     52  C   UNL A   1      42.910  29.036  29.280  1.00  0.00     0.074 A 
ATOM     53  C   UNL A   1      41.571  28.499  29.392  1.00  0.00     0.031 C 
ATOM     54  C   UNL A   1      42.110  35.233  30.788  1.00  0.00     0.029 A 
ATOM     55  C   UNL A   1      43.361  34.547  30.471  1.00  0.00     0.049 A 
ATOM     56  H   UNL A   1      43.591  32.571  29.850  1.00  0.00     0.167 HD
ATOM     57  C   UNL A   1      43.994  28.306  28.928  1.00  0.00     0.034 A 
ATOM     58  C   UNL A   1      44.592  35.096  30.511  1.00  0.00     0.034 A 
ATOM     59  C   UNL A   1      45.319  28.846  28.790  1.00  0.00     0.049 A 
ATOM     60  C   UNL A   1      45.787  34.258  30.137  1.00  0.00     0.074 A 
ATOM     61  C   UNL A   1      46.475  28.199  28.392  1.00  0.00     0.029 A 
ATOM     62  N   UNL A   1      45.669  30.161  29.058  1.00  0.00    -0.354 N 
ATOM     63  N   UNL A   1      45.829  33.006  29.748  1.00  0.00    -0.248 NA
ATOM     64  C   UNL A   1      47.102  34.915  30.175  1.00  0.00     0.031 C 
ATOM     65  C   UNL A   1      47.530  29.115  28.446  1.00  0.00     0.029 A 
ATOM     66  C   UNL A   1      47.025  30.342  28.845  1.00  0.00     0.049 A 
ATOM     67  H   UNL A   1      45.045  30.862  29.355  1.00  0.00     0.167 HD
ATOM     68  C   UNL A   1      47.162  32.740  29.455  1.00  0.00     0.074 A 
ATOM     69  C   UNL A   1      47.895  33.965  29.698  1.00  0.00     0.031 C 
ATOM     70  C   UNL A   1      47.731  31.584  29.032  1.00  0.00     0.034 A 
BRANCH  57  71
ATOM     71  C   UNL A   1      43.791  26.840  28.645  1.00  0.00     0.023 A 
ATOM     72  C   UNL A   1      43.752  25.921  29.711  1.00  0.00     0.012 A 
ATOM     73  C   UNL A   1      43.584  26.384  27.329  1.00  0.00     0.148 A 
ATOM     74  C   UNL A   1      43.541  24.563  29.470  1.00  0.00     0.002 A 
ATOM     75  C   UNL A   1      43.330  25.036  27.100  1.00  0.00     0.091 A 
ATOM     76  F   UNL A   1      43.648  27.271  26.326  1.00  0.00    -0.205 F 
ATOM     77  C   UNL A   1      43.319  24.123  28.167  1.00  0.00     0.022 A 
BRANCH  75  78
ATOM     78  S   UNL A   1      42.953  24.386  25.469  1.00  0.00     0.127 S 
ATOM     79  O   UNL A   1      41.956  25.343  24.992  1.00  0.00    -0.237 OA
ATOM     80  O   UNL A   1      44.250  24.471  24.796  1.00  0.00    -0.237 OA
ATOM     81  O   UNL A   1      42.466  23.029  25.678  1.00  0.00    -0.744 OA
ENDBRANCH  75  78
ENDBRANCH  57  71
BRANCH  58  82
ATOM     82  C   UNL A   1      44.756  36.527  30.896  1.00  0.00     0.023 A 
ATOM     83  C   UNL A   1      45.012  36.862  32.239  1.00  0.00     0.012 A 
ATOM     84  C   UNL A   1      44.674  37.554  29.935  1.00  0.00     0.148 A 
ATOM     85  C   UNL A   1      45.152  38.195  32.625  1.00  0.00     0.002 A 
ATOM     86  C   UNL A   1      44.870  38.876  30.317  1.00  0.00     0.091 A 
ATOM     87  F   UNL A   1      44.412  37.217  28.665  1.00  0.00    -0.205 F 
ATOM     88  C   UNL A   1      45.092  39.200  31.664  1.00  0.00     0.022 A 
BRANCH  86  89
ATOM     89  S   UNL A   1      44.938  40.221  29.128  1.00  0.00     0.127 S 
ATOM     90  O   UNL A   1      45.355  41.342  29.968  1.00  0.00    -0.237 OA
ATOM     91  O   UNL A   1      45.954  39.742  28.190  1.00  0.00    -0.237 OA
ATOM     92  O   UNL A   1      43.599  40.317  28.564  1.00  0.00    -0.744 OA
ENDBRANCH  86  89
ENDBRANCH  58  82
BRANCH  70  93
ATOM     93  C   UNL A   1      49.212  31.587  28.750  1.00  0.00     0.023 A 
ATOM     94  C   UNL A   1      50.124  31.268  29.774  1.00  0.00     0.012 A 
ATOM     95  C   UNL A   1      49.690  31.819  27.445  1.00  0.00     0.148 A 
ATOM     96  C   UNL A   1      51.493  31.208  29.510  1.00  0.00     0.002 A 
ATOM     97  C   UNL A   1      51.050  31.710  27.178  1.00  0.00     0.091 A 
ATOM     98  F   UNL A   1      48.807  32.138  26.487  1.00  0.00    -0.205 F 
ATOM     99  C   UNL A   1      51.954  31.417  28.212  1.00  0.00     0.022 A 
BRANCH  97 100
ATOM    100  S   UNL A   1      51.721  31.863  25.519  1.00  0.00     0.127 S 
ATOM    101  O   UNL A   1      51.366  30.572  24.933  1.00  0.00    -0.237 OA
ATOM    102  O   UNL A   1      50.973  33.002  24.985  1.00  0.00    -0.237 OA
ATOM    103  O   UNL A   1      53.149  32.103  25.683  1.00  0.00    -0.744 OA
ENDBRANCH  97 100
ENDBRANCH  70  93
ENDBRANCH  44  45
ENDBRANCH  37  39
ENDBRANCH  36  37
ENDBRANCH  35  36
ENDBRANCH  34  35
ENDBRANCH  33  34
ENDBRANCH  32  33
ENDBRANCH  31  32
ENDBRANCH  30  31
ENDBRANCH   1  30
TORSDOF 27
ENDMDL
MODEL 3
REMARK VINA RESULT:      -8.8      3.986      9.139
REMARK SMILES CCCCCCCNC(=O)Oc1cccc(-c2ccc([C@@H](C)C(=O)OCCOCCOC(=O)c3ccc(-c4c5nc(c(-c6cccc(S(=O)(=O)[O-])c6F)c6ccc([nH]6)c(-c6cccc(S(=O)(=O)[O-])c6F)c6nc(c(-c7cccc(S(=O)(=O)[O-])c7F)c7ccc4[nH]7)C=C6)C=C5)cc3)cc2F)c1
REMARK SMILES IDX 23 1 24 2 21 3 22 4 20 5 17 6 18 7 98 8 19 9 97 10 99 11
REMARK SMILES IDX 16 12 12 13 13 14 100 15 14 16 15 17 11 18 9 19 8 20 10 22
REMARK SMILES IDX 7 23 6 24 5 25 4 26 3 27 2 28 1 29 25 30 26 31 27 32 28 33
REMARK SMILES IDX 29 34 30 35 31 36 32 37 33 38 34 39 35 40 96 41 36 42 95 43
REMARK SMILES IDX 37 44 38 45 39 46 89 47 40 48 94 49 88 50 90 51 41 52 93 53
REMARK SMILES IDX 87 54 86 55 42 57 74 58 54 59 73 60 55 61 58 62 72 63 91 64
REMARK SMILES IDX 56 65 57 66 71 68 92 69 59 70 43 71 44 72 52 73 45 74 47 75
REMARK SMILES IDX 53 76 46 77 48 78 49 79 50 80 51 81 75 82 76 83 84 84 77 85
REMARK SMILES IDX 79 86 85 87 78 88 80 89 81 90 82 91 83 92 60 93 61 94 69 95
REMARK SMILES IDX 62 96 64 97 70 98 63 99 65 100 66 101 67 102 68 103
REMARK H PARENT 8 21 90 56 58 67
REMARK Flexibility Score: inf
ROOT
ATOM      1  C   UNL A   1      31.244  26.602  24.235  1.00  0.00     0.313 C 
ATOM      2  O   UNL A   1      31.343  27.534  25.028  1.00  0.00    -0.252 OA
ENDROOT
BRANCH   1   3
ATOM      3  C   UNL A   1      30.357  25.401  24.520  1.00  0.00     0.126 C 
ATOM      4  C   UNL A   1      29.579  25.644  25.810  1.00  0.00     0.025 C 
BRANCH   3   5
ATOM      5  C   UNL A   1      30.994  24.016  24.488  1.00  0.00    -0.031 A 
ATOM      6  C   UNL A   1      32.410  21.533  24.491  1.00  0.00     0.018 A 
ATOM      7  C   UNL A   1      31.919  22.094  23.300  1.00  0.00     0.012 A 
ATOM      8  C   UNL A   1      32.135  22.222  25.678  1.00  0.00     0.131 A 
ATOM      9  C   UNL A   1      31.225  23.315  23.296  1.00  0.00     0.005 A 
ATOM     10  C   UNL A   1      31.443  23.435  25.684  1.00  0.00     0.044 A 
ATOM     11  F   UNL A   1      32.574  21.747  26.856  1.00  0.00    -0.206 F 
BRANCH   6  12
ATOM     12  C   UNL A   1      33.222  20.302  24.479  1.00  0.00    -0.012 A 
ATOM     13  C   UNL A   1      35.334  19.139  24.783  1.00  0.00     0.133 A 
ATOM     14  C   UNL A   1      34.764  17.934  24.381  1.00  0.00     0.047 A 
ATOM     15  C   UNL A   1      34.585  20.318  24.819  1.00  0.00     0.056 A 
ATOM     16  C   UNL A   1      33.416  17.900  24.040  1.00  0.00     0.004 A 
ATOM     17  C   UNL A   1      32.653  19.072  24.092  1.00  0.00     0.009 A 
BRANCH  13  18
ATOM     18  O   UNL A   1      36.715  19.133  25.039  1.00  0.00    -0.410 OA
BRANCH  18  19
ATOM     19  C   UNL A   1      37.461  20.199  24.569  1.00  0.00     0.412 C 
ATOM     20  N   UNL A   1      38.763  20.173  24.977  1.00  0.00    -0.321 N 
ATOM     21  H   UNL A   1      39.332  20.917  24.675  1.00  0.00     0.167 HD
ATOM     22  O   UNL A   1      37.049  21.114  23.852  1.00  0.00    -0.224 OA
BRANCH  20  23
ATOM     23  C   UNL A   1      39.399  19.169  25.807  1.00  0.00     0.119 C 
BRANCH  23  24
ATOM     24  C   UNL A   1      40.880  19.476  26.039  1.00  0.00     0.021 C 
BRANCH  24  25
ATOM     25  C   UNL A   1      41.201  20.105  27.400  1.00  0.00     0.002 C 
BRANCH  25  26
ATOM     26  C   UNL A   1      42.213  21.255  27.371  1.00  0.00     0.000 C 
BRANCH  26  27
ATOM     27  C   UNL A   1      41.878  22.394  26.402  1.00  0.00    -0.000 C 
BRANCH  27  28
ATOM     28  C   UNL A   1      43.083  23.163  25.853  1.00  0.00    -0.003 C 
ATOM     29  C   UNL A   1      43.533  24.304  26.755  1.00  0.00     0.004 C 
ENDBRANCH  27  28
ENDBRANCH  26  27
ENDBRANCH  25  26
ENDBRANCH  24  25
ENDBRANCH  23  24
ENDBRANCH  20  23
ENDBRANCH  18  19
ENDBRANCH  13  18
ENDBRANCH   6  12
ENDBRANCH   3   5
ENDBRANCH   1   3
BRANCH   1  30
ATOM     30  O   UNL A   1      31.911  26.523  23.055  1.00  0.00    -0.463 OA
BRANCH  30  31
ATOM     31  C   UNL A   1      33.290  26.927  23.079  1.00  0.00     0.261 C 
BRANCH  31  32
ATOM     32  C   UNL A   1      33.990  26.451  24.355  1.00  0.00     0.202 C 
BRANCH  32  33
ATOM     33  O   UNL A   1      34.389  25.081  24.391  1.00  0.00    -0.374 OA
BRANCH  33  34
ATOM     34  C   UNL A   1      35.005  24.606  25.588  1.00  0.00     0.202 C 
BRANCH  34  35
ATOM     35  C   UNL A   1      36.162  23.610  25.438  1.00  0.00     0.261 C 
BRANCH  35  36
ATOM     36  O   UNL A   1      37.450  24.244  25.490  1.00  0.00    -0.460 OA
BRANCH  36  37
ATOM     37  C   UNL A   1      38.327  23.673  26.351  1.00  0.00     0.338 C 
ATOM     38  O   UNL A   1      38.567  22.483  26.475  1.00  0.00    -0.246 OA
BRANCH  37  39
ATOM     39  C   UNL A   1      39.138  24.714  27.012  1.00  0.00     0.060 A 
ATOM     40  C   UNL A   1      38.977  24.872  28.395  1.00  0.00     0.016 A 
ATOM     41  C   UNL A   1      39.972  25.571  26.291  1.00  0.00     0.016 A 
ATOM     42  C   UNL A   1      39.597  25.930  29.055  1.00  0.00     0.010 A 
ATOM     43  C   UNL A   1      40.591  26.635  26.955  1.00  0.00     0.010 A 
ATOM     44  C   UNL A   1      40.370  26.845  28.330  1.00  0.00    -0.014 A 
BRANCH  44  45
ATOM     45  C   UNL A   1      40.802  28.110  28.975  1.00  0.00     0.031 A 
ATOM     46  C   UNL A   1      42.199  28.201  29.531  1.00  0.00     0.074 A 
ATOM     47  C   UNL A   1      39.971  29.164  29.060  1.00  0.00     0.049 A 
ATOM     48  N   UNL A   1      42.772  29.183  30.176  1.00  0.00    -0.248 NA
ATOM     49  C   UNL A   1      43.064  27.025  29.336  1.00  0.00     0.031 C 
ATOM     50  C   UNL A   1      38.604  29.204  28.545  1.00  0.00     0.029 A 
ATOM     51  N   UNL A   1      40.152  30.396  29.636  1.00  0.00    -0.354 N 
ATOM     52  C   UNL A   1      44.047  28.733  30.496  1.00  0.00     0.074 A 
ATOM     53  C   UNL A   1      44.163  27.386  29.981  1.00  0.00     0.031 C 
ATOM     54  C   UNL A   1      38.056  30.392  28.859  1.00  0.00     0.029 A 
ATOM     55  C   UNL A   1      39.024  31.181  29.619  1.00  0.00     0.049 A 
ATOM     56  H   UNL A   1      41.008  30.690  30.025  1.00  0.00     0.167 HD
ATOM     57  C   UNL A   1      45.037  29.386  31.148  1.00  0.00     0.034 A 
ATOM     58  C   UNL A   1      38.792  32.387  30.175  1.00  0.00     0.034 A 
ATOM     59  C   UNL A   1      44.931  30.734  31.635  1.00  0.00     0.049 A 
ATOM     60  C   UNL A   1      39.904  33.085  30.915  1.00  0.00     0.074 A 
ATOM     61  C   UNL A   1      45.895  31.500  32.265  1.00  0.00     0.029 A 
ATOM     62  N   UNL A   1      43.788  31.514  31.556  1.00  0.00    -0.354 N 
ATOM     63  N   UNL A   1      41.138  32.690  31.114  1.00  0.00    -0.248 NA
ATOM     64  C   UNL A   1      39.602  34.409  31.480  1.00  0.00     0.031 C 
ATOM     65  C   UNL A   1      45.326  32.734  32.594  1.00  0.00     0.029 A 
ATOM     66  C   UNL A   1      44.018  32.749  32.138  1.00  0.00     0.049 A 
ATOM     67  H   UNL A   1      42.938  31.232  31.148  1.00  0.00     0.167 HD
ATOM     68  C   UNL A   1      41.770  33.732  31.787  1.00  0.00     0.074 A 
ATOM     69  C   UNL A   1      40.785  34.781  31.950  1.00  0.00     0.031 C 
ATOM     70  C   UNL A   1      43.047  33.809  32.238  1.00  0.00     0.034 A 
BRANCH  57  71
ATOM     71  C   UNL A   1      46.339  28.656  31.356  1.00  0.00     0.023 A 
ATOM     72  C   UNL A   1      46.550  27.925  32.542  1.00  0.00     0.012 A 
ATOM     73  C   UNL A   1      47.328  28.649  30.353  1.00  0.00     0.148 A 
ATOM     74  C   UNL A   1      47.738  27.224  32.742  1.00  0.00     0.002 A 
ATOM     75  C   UNL A   1      48.493  27.911  30.541  1.00  0.00     0.091 A 
ATOM     76  F   UNL A   1      47.119  29.368  29.242  1.00  0.00    -0.205 F 
ATOM     77  C   UNL A   1      48.704  27.208  31.738  1.00  0.00     0.022 A 
BRANCH  75  78
ATOM     78  S   UNL A   1      49.758  27.763  29.275  1.00  0.00     0.127 S 
ATOM     79  O   UNL A   1      48.991  27.230  28.150  1.00  0.00    -0.237 OA
ATOM     80  O   UNL A   1      50.194  29.150  29.111  1.00  0.00    -0.237 OA
ATOM     81  O   UNL A   1      50.770  26.869  29.820  1.00  0.00    -0.744 OA
ENDBRANCH  75  78
ENDBRANCH  57  71
BRANCH  58  82
ATOM     82  C   UNL A   1      37.454  33.029  30.030  1.00  0.00     0.023 A 
ATOM     83  C   UNL A   1      36.987  33.386  28.751  1.00  0.00     0.012 A 
ATOM     84  C   UNL A   1      36.638  33.274  31.153  1.00  0.00     0.148 A 
ATOM     85  C   UNL A   1      35.745  34.003  28.594  1.00  0.00     0.002 A 
ATOM     86  C   UNL A   1      35.380  33.839  30.984  1.00  0.00     0.091 A 
ATOM     87  F   UNL A   1      37.108  32.944  32.364  1.00  0.00    -0.205 F 
ATOM     88  C   UNL A   1      34.938  34.219  29.708  1.00  0.00     0.022 A 
BRANCH  86  89
ATOM     89  S   UNL A   1      34.223  34.035  32.344  1.00  0.00     0.127 S 
ATOM     90  O   UNL A   1      35.012  34.809  33.299  1.00  0.00    -0.237 OA
ATOM     91  O   UNL A   1      33.131  34.771  31.707  1.00  0.00    -0.237 OA
ATOM     92  O   UNL A   1      33.872  32.684  32.761  1.00  0.00    -0.744 OA
ENDBRANCH  86  89
ENDBRANCH  58  82
BRANCH  70  93
ATOM     93  C   UNL A   1      43.483  35.086  32.908  1.00  0.00     0.023 A 
ATOM     94  C   UNL A   1      43.923  36.175  32.130  1.00  0.00     0.012 A 
ATOM     95  C   UNL A   1      43.370  35.235  34.305  1.00  0.00     0.148 A 
ATOM     96  C   UNL A   1      44.272  37.383  32.735  1.00  0.00     0.002 A 
ATOM     97  C   UNL A   1      43.672  36.457  34.896  1.00  0.00     0.091 A 
ATOM     98  F   UNL A   1      42.965  34.182  35.030  1.00  0.00    -0.205 F 
ATOM     99  C   UNL A   1      44.135  37.527  34.114  1.00  0.00     0.022 A 
BRANCH  97 100
ATOM    100  S   UNL A   1      43.431  36.765  36.649  1.00  0.00     0.127 S 
ATOM    101  O   UNL A   1      41.974  36.719  36.762  1.00  0.00    -0.237 OA
ATOM    102  O   UNL A   1      44.126  35.632  37.262  1.00  0.00    -0.237 OA
ATOM    103  O   UNL A   1      44.038  38.062  36.917  1.00  0.00    -0.744 OA
ENDBRANCH  97 100
ENDBRANCH  70  93
ENDBRANCH  44  45
ENDBRANCH  37  39
ENDBRANCH  36  37
ENDBRANCH  35  36
ENDBRANCH  34  35
ENDBRANCH  33  34
ENDBRANCH  32  33
ENDBRANCH  31  32
ENDBRANCH  30  31
ENDBRANCH   1  30
TORSDOF 27
ENDMDL
