MODEL 1
REMARK VINA RESULT:     -11.0      0.000      0.000
REMARK SMILES CO[C@H]1C[C@H](C(=O)OCCOCCOC(=O)c2ccc(-c3c4nc(c(-c5cccc(S(=O)(=O)[O-])c5F)c5ccc([nH]5)c(-c5cccc(S(=O)(=O)[O-])c5F)c5nc(c(-c6cccc(S(=O)(=O)[O-])c6F)c6ccc3[nH]6)C=C5)C=C4)cc2)N(C(=O)[C@H]2C=C[C@@H]([NH3+])C2)C1
REMARK SMILES IDX 11 1 10 2 9 3 8 4 6 5 7 6 5 7 3 8 4 9 89 10 80 11 2 12 1 13
REMARK SMILES IDX 81 14 82 15 83 16 84 17 88 18 85 19 86 20 87 21 12 25 13 26
REMARK SMILES IDX 14 27 15 28 16 29 17 30 18 31 79 32 19 33 78 34 20 35 21 36
REMARK SMILES IDX 22 37 72 38 23 39 77 40 71 41 73 42 24 43 76 44 70 45 69 46
REMARK SMILES IDX 25 48 57 49 37 50 56 51 38 52 41 53 55 54 74 55 39 56 40 57
REMARK SMILES IDX 54 59 75 60 42 61 26 62 27 63 35 64 28 65 30 66 36 67 29 68
REMARK SMILES IDX 31 69 32 70 33 71 34 72 58 73 59 74 67 75 60 76 62 77 68 78
REMARK SMILES IDX 61 79 63 80 64 81 65 82 66 83 43 84 44 85 52 86 45 87 47 88
REMARK SMILES IDX 53 89 46 90 48 91 49 92 50 93 51 94
REMARK H PARENT 87 22 87 23 87 24 73 47 41 58
REMARK Flexibility Score: inf
ROOT
ATOM      1  O   UNL A   1      35.632  22.088  26.293  1.00  0.00    -0.374 OA
ENDROOT
BRANCH   1   2
ATOM      2  C   UNL A   1      34.342  22.483  26.748  1.00  0.00     0.202 C 
BRANCH   2   3
ATOM      3  C   UNL A   1      33.433  23.275  25.797  1.00  0.00     0.261 C 
BRANCH   3   4
ATOM      4  O   UNL A   1      33.330  24.665  26.133  1.00  0.00    -0.462 OA
BRANCH   4   5
ATOM      5  C   UNL A   1      32.079  25.032  26.524  1.00  0.00     0.329 C 
ATOM      6  O   UNL A   1      31.346  24.314  27.193  1.00  0.00    -0.250 OA
BRANCH   5   7
ATOM      7  C   UNL A   1      31.684  26.444  26.058  1.00  0.00     0.197 C 
ATOM      8  C   UNL A   1      33.297  28.068  26.855  1.00  0.00     0.140 C 
ATOM      9  C   UNL A   1      31.867  27.570  27.070  1.00  0.00     0.071 C 
ATOM     10  C   UNL A   1      33.640  27.636  25.418  1.00  0.00     0.152 C 
ATOM     11  N   UNL A   1      32.482  26.889  24.926  1.00  0.00    -0.326 N 
BRANCH   8  12
ATOM     12  O   UNL A   1      33.384  29.491  26.970  1.00  0.00    -0.380 OA
ATOM     13  C   UNL A   1      32.145  30.168  26.799  1.00  0.00     0.195 C 
ENDBRANCH   8  12
BRANCH  11  14
ATOM     14  C   UNL A   1      32.308  26.695  23.577  1.00  0.00     0.230 C 
ATOM     15  O   UNL A   1      33.009  25.868  22.979  1.00  0.00    -0.274 OA
BRANCH  14  16
ATOM     16  C   UNL A   1      31.285  27.495  22.745  1.00  0.00     0.107 C 
ATOM     17  C   UNL A   1      29.856  27.273  23.106  1.00  0.00    -0.012 C 
ATOM     18  C   UNL A   1      31.440  29.021  22.768  1.00  0.00     0.087 C 
ATOM     19  C   UNL A   1      29.171  28.419  23.186  1.00  0.00     0.033 C 
ATOM     20  C   UNL A   1      30.013  29.598  22.849  1.00  0.00     0.205 C 
BRANCH  20  21
ATOM     21  N   UNL A   1      29.893  30.650  23.845  1.00  0.00    -0.352 N 
ATOM     22  H   UNL A   1      28.911  30.901  23.959  1.00  0.00     0.345 HD
ATOM     23  H   UNL A   1      30.420  31.469  23.540  1.00  0.00     0.345 HD
ATOM     24  H   UNL A   1      30.266  30.320  24.735  1.00  0.00     0.345 HD
ENDBRANCH  20  21
ENDBRANCH  14  16
ENDBRANCH  11  14
ENDBRANCH   5   7
ENDBRANCH   4   5
ENDBRANCH   3   4
ENDBRANCH   2   3
ENDBRANCH   1   2
BRANCH   1  25
ATOM     25  C   UNL A   1      35.736  21.062  25.306  1.00  0.00     0.202 C 
BRANCH  25  26
ATOM     26  C   UNL A   1      37.108  20.441  25.011  1.00  0.00     0.261 C 
BRANCH  26  27
ATOM     27  O   UNL A   1      38.167  21.415  25.001  1.00  0.00    -0.460 OA
BRANCH  27  28
ATOM     28  C   UNL A   1      39.149  21.178  25.904  1.00  0.00     0.338 C 
ATOM     29  O   UNL A   1      39.793  20.144  26.038  1.00  0.00    -0.246 OA
BRANCH  28  30
ATOM     30  C   UNL A   1      39.519  22.421  26.597  1.00  0.00     0.060 A 
ATOM     31  C   UNL A   1      38.833  23.590  26.239  1.00  0.00     0.016 A 
ATOM     32  C   UNL A   1      40.587  22.467  27.493  1.00  0.00     0.016 A 
ATOM     33  C   UNL A   1      39.250  24.822  26.733  1.00  0.00     0.010 A 
ATOM     34  C   UNL A   1      41.013  23.707  27.977  1.00  0.00     0.010 A 
ATOM     35  C   UNL A   1      40.375  24.891  27.562  1.00  0.00    -0.014 A 
BRANCH  35  36
ATOM     36  C   UNL A   1      40.983  26.212  27.840  1.00  0.00     0.031 A 
ATOM     37  C   UNL A   1      42.387  26.477  27.368  1.00  0.00     0.074 A 
ATOM     38  C   UNL A   1      40.288  27.171  28.476  1.00  0.00     0.049 A 
ATOM     39  N   UNL A   1      43.117  27.553  27.501  1.00  0.00    -0.248 NA
ATOM     40  C   UNL A   1      43.058  25.381  26.648  1.00  0.00     0.031 C 
ATOM     41  C   UNL A   1      38.916  27.037  28.963  1.00  0.00     0.029 A 
ATOM     42  N   UNL A   1      40.653  28.444  28.835  1.00  0.00    -0.354 N 
ATOM     43  C   UNL A   1      44.338  27.257  26.910  1.00  0.00     0.074 A 
ATOM     44  C   UNL A   1      44.257  25.896  26.426  1.00  0.00     0.031 C 
ATOM     45  C   UNL A   1      38.563  28.175  29.584  1.00  0.00     0.029 A 
ATOM     46  C   UNL A   1      39.689  29.108  29.554  1.00  0.00     0.049 A 
ATOM     47  H   UNL A   1      41.522  28.842  28.600  1.00  0.00     0.167 HD
ATOM     48  C   UNL A   1      45.425  28.052  26.764  1.00  0.00     0.034 A 
ATOM     49  C   UNL A   1      39.721  30.323  30.137  1.00  0.00     0.034 A 
ATOM     50  C   UNL A   1      45.495  29.411  27.226  1.00  0.00     0.049 A 
ATOM     51  C   UNL A   1      40.953  31.177  29.988  1.00  0.00     0.074 A 
ATOM     52  C   UNL A   1      46.535  30.313  27.092  1.00  0.00     0.029 A 
ATOM     53  N   UNL A   1      44.488  30.061  27.923  1.00  0.00    -0.354 N 
ATOM     54  N   UNL A   1      42.058  30.925  29.328  1.00  0.00    -0.248 NA
ATOM     55  C   UNL A   1      40.929  32.497  30.636  1.00  0.00     0.031 C 
ATOM     56  C   UNL A   1      46.165  31.503  27.729  1.00  0.00     0.029 A 
ATOM     57  C   UNL A   1      44.885  31.349  28.237  1.00  0.00     0.049 A 
ATOM     58  H   UNL A   1      43.618  29.664  28.160  1.00  0.00     0.167 HD
ATOM     59  C   UNL A   1      42.844  32.067  29.449  1.00  0.00     0.074 A 
ATOM     60  C   UNL A   1      42.080  33.017  30.232  1.00  0.00     0.031 C 
ATOM     61  C   UNL A   1      44.090  32.303  28.969  1.00  0.00     0.034 A 
BRANCH  48  62
ATOM     62  C   UNL A   1      46.620  27.474  26.053  1.00  0.00     0.023 A 
ATOM     63  C   UNL A   1      46.713  27.575  24.650  1.00  0.00     0.012 A 
ATOM     64  C   UNL A   1      47.667  26.868  26.774  1.00  0.00     0.148 A 
ATOM     65  C   UNL A   1      47.814  27.054  23.972  1.00  0.00     0.002 A 
ATOM     66  C   UNL A   1      48.781  26.389  26.095  1.00  0.00     0.091 A 
ATOM     67  F   UNL A   1      47.547  26.756  28.104  1.00  0.00    -0.205 F 
ATOM     68  C   UNL A   1      48.852  26.471  24.694  1.00  0.00     0.022 A 
BRANCH  66  69
ATOM     69  S   UNL A   1      50.199  25.685  26.944  1.00  0.00     0.127 S 
ATOM     70  O   UNL A   1      51.145  25.510  25.844  1.00  0.00    -0.237 OA
ATOM     71  O   UNL A   1      50.552  26.745  27.889  1.00  0.00    -0.237 OA
ATOM     72  O   UNL A   1      49.723  24.456  27.565  1.00  0.00    -0.744 OA
ENDBRANCH  66  69
ENDBRANCH  48  62
BRANCH  49  73
ATOM     73  C   UNL A   1      38.532  30.819  30.884  1.00  0.00     0.023 A 
ATOM     74  C   UNL A   1      38.475  30.667  32.283  1.00  0.00     0.012 A 
ATOM     75  C   UNL A   1      37.470  31.460  30.219  1.00  0.00     0.148 A 
ATOM     76  C   UNL A   1      37.370  31.121  33.003  1.00  0.00     0.002 A 
ATOM     77  C   UNL A   1      36.397  31.960  30.948  1.00  0.00     0.091 A 
ATOM     78  F   UNL A   1      37.535  31.579  28.885  1.00  0.00    -0.205 F 
ATOM     79  C   UNL A   1      36.337  31.778  32.338  1.00  0.00     0.022 A 
BRANCH  77  80
ATOM     80  S   UNL A   1      35.087  32.928  30.191  1.00  0.00     0.127 S 
ATOM     81  O   UNL A   1      34.529  31.978  29.234  1.00  0.00    -0.237 OA
ATOM     82  O   UNL A   1      34.231  33.223  31.341  1.00  0.00    -0.237 OA
ATOM     83  O   UNL A   1      35.744  34.095  29.618  1.00  0.00    -0.744 OA
ENDBRANCH  77  80
ENDBRANCH  49  73
BRANCH  61  84
ATOM     84  C   UNL A   1      44.701  33.654  29.237  1.00  0.00     0.023 A 
ATOM     85  C   UNL A   1      45.416  33.875  30.430  1.00  0.00     0.012 A 
ATOM     86  C   UNL A   1      44.635  34.676  28.271  1.00  0.00     0.148 A 
ATOM     87  C   UNL A   1      46.030  35.105  30.670  1.00  0.00     0.002 A 
ATOM     88  C   UNL A   1      45.289  35.882  28.495  1.00  0.00     0.091 A 
ATOM     89  F   UNL A   1      43.934  34.453  27.149  1.00  0.00    -0.205 F 
ATOM     90  C   UNL A   1      45.978  36.101  29.700  1.00  0.00     0.022 A 
BRANCH  88  91
ATOM     91  S   UNL A   1      45.356  37.185  27.260  1.00  0.00     0.127 S 
ATOM     92  O   UNL A   1      46.046  36.516  26.159  1.00  0.00    -0.237 OA
ATOM     93  O   UNL A   1      43.938  37.456  27.017  1.00  0.00    -0.237 OA
ATOM     94  O   UNL A   1      46.082  38.285  27.879  1.00  0.00    -0.744 OA
ENDBRANCH  88  91
ENDBRANCH  61  84
ENDBRANCH  35  36
ENDBRANCH  28  30
ENDBRANCH  27  28
ENDBRANCH  26  27
ENDBRANCH  25  26
ENDBRANCH   1  25
TORSDOF 21
ENDMDL
MODEL 2
REMARK VINA RESULT:     -10.8      1.763      7.875
REMARK SMILES CO[C@H]1C[C@H](C(=O)OCCOCCOC(=O)c2ccc(-c3c4nc(c(-c5cccc(S(=O)(=O)[O-])c5F)c5ccc([nH]5)c(-c5cccc(S(=O)(=O)[O-])c5F)c5nc(c(-c6cccc(S(=O)(=O)[O-])c6F)c6ccc3[nH]6)C=C5)C=C4)cc2)N(C(=O)[C@H]2C=C[C@@H]([NH3+])C2)C1
REMARK SMILES IDX 11 1 10 2 9 3 8 4 6 5 7 6 5 7 3 8 4 9 89 10 80 11 2 12 1 13
REMARK SMILES IDX 81 14 82 15 83 16 84 17 88 18 85 19 86 20 87 21 12 25 13 26
REMARK SMILES IDX 14 27 15 28 16 29 17 30 18 31 79 32 19 33 78 34 20 35 21 36
REMARK SMILES IDX 22 37 72 38 23 39 77 40 71 41 73 42 24 43 76 44 70 45 69 46
REMARK SMILES IDX 25 48 57 49 37 50 56 51 38 52 41 53 55 54 74 55 39 56 40 57
REMARK SMILES IDX 54 59 75 60 42 61 26 62 27 63 35 64 28 65 30 66 36 67 29 68
REMARK SMILES IDX 31 69 32 70 33 71 34 72 58 73 59 74 67 75 60 76 62 77 68 78
REMARK SMILES IDX 61 79 63 80 64 81 65 82 66 83 43 84 44 85 52 86 45 87 47 88
REMARK SMILES IDX 53 89 46 90 48 91 49 92 50 93 51 94
REMARK H PARENT 87 22 87 23 87 24 73 47 41 58
REMARK Flexibility Score: inf
ROOT
ATOM      1  O   UNL A   1      34.647  20.056  24.823  1.00  0.00    -0.374 OA
ENDROOT
BRANCH   1   2
ATOM      2  C   UNL A   1      33.375  20.599  25.162  1.00  0.00     0.202 C 
BRANCH   2   3
ATOM      3  C   UNL A   1      33.125  21.050  26.608  1.00  0.00     0.261 C 
BRANCH   3   4
ATOM      4  O   UNL A   1      33.594  22.377  26.879  1.00  0.00    -0.462 OA
BRANCH   4   5
ATOM      5  C   UNL A   1      32.593  23.296  26.951  1.00  0.00     0.329 C 
ATOM      6  O   UNL A   1      31.584  23.141  27.627  1.00  0.00    -0.250 OA
BRANCH   5   7
ATOM      7  C   UNL A   1      32.863  24.559  26.113  1.00  0.00     0.197 C 
ATOM      8  C   UNL A   1      32.774  24.029  23.750  1.00  0.00     0.140 C 
ATOM      9  C   UNL A   1      33.742  24.382  24.880  1.00  0.00     0.071 C 
ATOM     10  C   UNL A   1      31.415  24.574  24.227  1.00  0.00     0.152 C 
ATOM     11  N   UNL A   1      31.639  25.122  25.565  1.00  0.00    -0.326 N 
BRANCH   8  12
ATOM     12  O   UNL A   1      33.146  24.655  22.520  1.00  0.00    -0.380 OA
ATOM     13  C   UNL A   1      33.552  26.012  22.654  1.00  0.00     0.195 C 
ENDBRANCH   8  12
BRANCH  11  14
ATOM     14  C   UNL A   1      30.740  26.009  26.107  1.00  0.00     0.230 C 
ATOM     15  O   UNL A   1      29.634  25.605  26.492  1.00  0.00    -0.274 OA
BRANCH  14  16
ATOM     16  C   UNL A   1      31.031  27.518  26.233  1.00  0.00     0.107 C 
ATOM     17  C   UNL A   1      31.986  27.896  27.313  1.00  0.00    -0.012 C 
ATOM     18  C   UNL A   1      31.596  28.205  24.983  1.00  0.00     0.087 C 
ATOM     19  C   UNL A   1      32.896  28.783  26.897  1.00  0.00     0.033 C 
ATOM     20  C   UNL A   1      32.678  29.183  25.480  1.00  0.00     0.205 C 
BRANCH  20  21
ATOM     21  N   UNL A   1      33.903  29.102  24.702  1.00  0.00    -0.352 N 
ATOM     22  H   UNL A   1      34.675  28.827  25.310  1.00  0.00     0.345 HD
ATOM     23  H   UNL A   1      34.104  30.013  24.288  1.00  0.00     0.345 HD
ATOM     24  H   UNL A   1      33.790  28.410  23.961  1.00  0.00     0.345 HD
ENDBRANCH  20  21
ENDBRANCH  14  16
ENDBRANCH  11  14
ENDBRANCH   5   7
ENDBRANCH   4   5
ENDBRANCH   3   4
ENDBRANCH   2   3
ENDBRANCH   1   2
BRANCH   1  25
ATOM     25  C   UNL A   1      35.761  20.937  24.674  1.00  0.00     0.202 C 
BRANCH  25  26
ATOM     26  C   UNL A   1      36.880  20.915  25.723  1.00  0.00     0.261 C 
BRANCH  26  27
ATOM     27  O   UNL A   1      38.174  21.192  25.158  1.00  0.00    -0.460 OA
BRANCH  27  28
ATOM     28  C   UNL A   1      39.210  20.959  26.000  1.00  0.00     0.338 C 
ATOM     29  O   UNL A   1      39.839  19.913  26.123  1.00  0.00    -0.246 OA
BRANCH  28  30
ATOM     30  C   UNL A   1      39.654  22.213  26.627  1.00  0.00     0.060 A 
ATOM     31  C   UNL A   1      39.093  23.406  26.152  1.00  0.00     0.016 A 
ATOM     32  C   UNL A   1      40.677  22.232  27.576  1.00  0.00     0.016 A 
ATOM     33  C   UNL A   1      39.594  24.631  26.584  1.00  0.00     0.010 A 
ATOM     34  C   UNL A   1      41.187  23.464  27.998  1.00  0.00     0.010 A 
ATOM     35  C   UNL A   1      40.677  24.664  27.468  1.00  0.00    -0.014 A 
BRANCH  35  36
ATOM     36  C   UNL A   1      41.386  25.946  27.689  1.00  0.00     0.031 A 
ATOM     37  C   UNL A   1      40.679  27.044  28.435  1.00  0.00     0.074 A 
ATOM     38  C   UNL A   1      42.648  26.119  27.259  1.00  0.00     0.049 A 
ATOM     39  N   UNL A   1      41.102  28.243  28.741  1.00  0.00    -0.248 NA
ATOM     40  C   UNL A   1      39.313  26.752  28.901  1.00  0.00     0.031 C 
ATOM     41  C   UNL A   1      43.440  25.121  26.542  1.00  0.00     0.029 A 
ATOM     42  N   UNL A   1      43.477  27.208  27.351  1.00  0.00    -0.354 N 
ATOM     43  C   UNL A   1      40.048  28.856  29.407  1.00  0.00     0.074 A 
ATOM     44  C   UNL A   1      38.962  27.904  29.452  1.00  0.00     0.031 C 
ATOM     45  C   UNL A   1      44.634  25.655  26.234  1.00  0.00     0.029 A 
ATOM     46  C   UNL A   1      44.682  27.035  26.714  1.00  0.00     0.049 A 
ATOM     47  H   UNL A   1      43.232  28.034  27.828  1.00  0.00     0.167 HD
ATOM     48  C   UNL A   1      39.996  30.096  29.950  1.00  0.00     0.034 A 
ATOM     49  C   UNL A   1      45.698  27.900  26.524  1.00  0.00     0.034 A 
ATOM     50  C   UNL A   1      41.085  31.033  29.923  1.00  0.00     0.049 A 
ATOM     51  C   UNL A   1      45.604  29.284  27.112  1.00  0.00     0.074 A 
ATOM     52  C   UNL A   1      41.146  32.299  30.480  1.00  0.00     0.029 A 
ATOM     53  N   UNL A   1      42.301  30.813  29.295  1.00  0.00    -0.354 N 
ATOM     54  N   UNL A   1      44.645  29.811  27.836  1.00  0.00    -0.248 NA
ATOM     55  C   UNL A   1      46.745  30.182  26.883  1.00  0.00     0.031 C 
ATOM     56  C   UNL A   1      42.393  32.852  30.168  1.00  0.00     0.029 A 
ATOM     57  C   UNL A   1      43.117  31.921  29.440  1.00  0.00     0.049 A 
ATOM     58  H   UNL A   1      42.548  29.988  28.818  1.00  0.00     0.167 HD
ATOM     59  C   UNL A   1      45.083  31.086  28.181  1.00  0.00     0.074 A 
ATOM     60  C   UNL A   1      46.401  31.245  27.600  1.00  0.00     0.031 C 
ATOM     61  C   UNL A   1      44.448  32.043  28.902  1.00  0.00     0.034 A 
BRANCH  48  62
ATOM     62  C   UNL A   1      38.721  30.499  30.642  1.00  0.00     0.023 A 
ATOM     63  C   UNL A   1      38.562  30.241  32.019  1.00  0.00     0.012 A 
ATOM     64  C   UNL A   1      37.697  31.166  29.941  1.00  0.00     0.148 A 
ATOM     65  C   UNL A   1      37.393  30.612  32.681  1.00  0.00     0.002 A 
ATOM     66  C   UNL A   1      36.553  31.572  30.618  1.00  0.00     0.091 A 
ATOM     67  F   UNL A   1      37.855  31.379  28.627  1.00  0.00    -0.205 F 
ATOM     68  C   UNL A   1      36.394  31.286  31.984  1.00  0.00     0.022 A 
BRANCH  66  69
ATOM     69  S   UNL A   1      35.243  32.508  29.822  1.00  0.00     0.127 S 
ATOM     70  O   UNL A   1      34.375  32.824  30.955  1.00  0.00    -0.237 OA
ATOM     71  O   UNL A   1      35.970  33.653  29.272  1.00  0.00    -0.237 OA
ATOM     72  O   UNL A   1      34.669  31.619  28.820  1.00  0.00    -0.744 OA
ENDBRANCH  66  69
ENDBRANCH  48  62
BRANCH  49  73
ATOM     73  C   UNL A   1      46.910  27.468  25.776  1.00  0.00     0.023 A 
ATOM     74  C   UNL A   1      47.874  26.666  26.415  1.00  0.00     0.012 A 
ATOM     75  C   UNL A   1      47.100  27.828  24.427  1.00  0.00     0.148 A 
ATOM     76  C   UNL A   1      49.019  26.251  25.734  1.00  0.00     0.002 A 
ATOM     77  C   UNL A   1      48.214  27.366  23.738  1.00  0.00     0.091 A 
ATOM     78  F   UNL A   1      46.179  28.606  23.842  1.00  0.00    -0.205 F 
ATOM     79  C   UNL A   1      49.184  26.590  24.393  1.00  0.00     0.022 A 
BRANCH  77  80
ATOM     80  S   UNL A   1      48.443  27.648  21.979  1.00  0.00     0.127 S 
ATOM     81  O   UNL A   1      49.592  28.548  21.968  1.00  0.00    -0.237 OA
ATOM     82  O   UNL A   1      48.713  26.295  21.491  1.00  0.00    -0.237 OA
ATOM     83  O   UNL A   1      47.187  28.216  21.507  1.00  0.00    -0.744 OA
ENDBRANCH  77  80
ENDBRANCH  49  73
BRANCH  61  84
ATOM     84  C   UNL A   1      45.177  33.340  29.142  1.00  0.00     0.023 A 
ATOM     85  C   UNL A   1      46.087  33.445  30.211  1.00  0.00     0.012 A 
ATOM     86  C   UNL A   1      45.021  34.425  28.257  1.00  0.00     0.148 A 
ATOM     87  C   UNL A   1      46.808  34.622  30.416  1.00  0.00     0.002 A 
ATOM     88  C   UNL A   1      45.777  35.578  28.439  1.00  0.00     0.091 A 
ATOM     89  F   UNL A   1      44.136  34.313  27.256  1.00  0.00    -0.205 F 
ATOM     90  C   UNL A   1      46.663  35.681  29.524  1.00  0.00     0.022 A 
BRANCH  88  91
ATOM     91  S   UNL A   1      45.725  36.953  27.284  1.00  0.00     0.127 S 
ATOM     92  O   UNL A   1      46.266  38.043  28.094  1.00  0.00    -0.237 OA
ATOM     93  O   UNL A   1      46.610  36.493  26.212  1.00  0.00    -0.237 OA
ATOM     94  O   UNL A   1      44.330  37.095  26.893  1.00  0.00    -0.744 OA
ENDBRANCH  88  91
ENDBRANCH  61  84
ENDBRANCH  35  36
ENDBRANCH  28  30
ENDBRANCH  27  28
ENDBRANCH  26  27
ENDBRANCH  25  26
ENDBRANCH   1  25
TORSDOF 21
ENDMDL
MODEL 3
REMARK VINA RESULT:     -10.8      1.197      7.918
REMARK SMILES CO[C@H]1C[C@H](C(=O)OCCOCCOC(=O)c2ccc(-c3c4nc(c(-c5cccc(S(=O)(=O)[O-])c5F)c5ccc([nH]5)c(-c5cccc(S(=O)(=O)[O-])c5F)c5nc(c(-c6cccc(S(=O)(=O)[O-])c6F)c6ccc3[nH]6)C=C5)C=C4)cc2)N(C(=O)[C@H]2C=C[C@@H]([NH3+])C2)C1
REMARK SMILES IDX 11 1 10 2 9 3 8 4 6 5 7 6 5 7 3 8 4 9 89 10 80 11 2 12 1 13
REMARK SMILES IDX 81 14 82 15 83 16 84 17 88 18 85 19 86 20 87 21 12 25 13 26
REMARK SMILES IDX 14 27 15 28 16 29 17 30 18 31 79 32 19 33 78 34 20 35 21 36
REMARK SMILES IDX 22 37 72 38 23 39 77 40 71 41 73 42 24 43 76 44 70 45 69 46
REMARK SMILES IDX 25 48 57 49 37 50 56 51 38 52 41 53 55 54 74 55 39 56 40 57
REMARK SMILES IDX 54 59 75 60 42 61 26 62 27 63 35 64 28 65 30 66 36 67 29 68
REMARK SMILES IDX 31 69 32 70 33 71 34 72 58 73 59 74 67 75 60 76 62 77 68 78
REMARK SMILES IDX 61 79 63 80 64 81 65 82 66 83 43 84 44 85 52 86 45 87 47 88
REMARK SMILES IDX 53 89 46 90 48 91 49 92 50 93 51 94
REMARK H PARENT 87 22 87 23 87 24 73 47 41 58
REMARK Flexibility Score: inf
ROOT
ATOM      1  O   UNL A   1      34.840  19.398  24.956  1.00  0.00    -0.374 OA
ENDROOT
BRANCH   1   2
ATOM      2  C   UNL A   1      33.469  19.778  25.016  1.00  0.00     0.202 C 
BRANCH   2   3
ATOM      3  C   UNL A   1      33.119  21.235  25.349  1.00  0.00     0.261 C 
BRANCH   3   4
ATOM      4  O   UNL A   1      31.818  21.626  24.891  1.00  0.00    -0.462 OA
BRANCH   4   5
ATOM      5  C   UNL A   1      31.846  22.300  23.708  1.00  0.00     0.329 C 
ATOM      6  O   UNL A   1      32.181  21.785  22.648  1.00  0.00    -0.250 OA
BRANCH   5   7
ATOM      7  C   UNL A   1      31.395  23.766  23.830  1.00  0.00     0.197 C 
ATOM      8  C   UNL A   1      32.028  24.658  25.992  1.00  0.00     0.140 C 
ATOM      9  C   UNL A   1      30.821  24.192  25.177  1.00  0.00     0.071 C 
ATOM     10  C   UNL A   1      33.087  25.018  24.936  1.00  0.00     0.152 C 
ATOM     11  N   UNL A   1      32.498  24.694  23.636  1.00  0.00    -0.326 N 
BRANCH   8  12
ATOM     12  O   UNL A   1      31.718  25.807  26.784  1.00  0.00    -0.380 OA
ATOM     13  C   UNL A   1      30.961  26.800  26.103  1.00  0.00     0.195 C 
ENDBRANCH   8  12
BRANCH  11  14
ATOM     14  C   UNL A   1      33.019  25.238  22.486  1.00  0.00     0.230 C 
ATOM     15  O   UNL A   1      33.761  24.558  21.766  1.00  0.00    -0.274 OA
BRANCH  14  16
ATOM     16  C   UNL A   1      32.748  26.694  22.057  1.00  0.00     0.107 C 
ATOM     17  C   UNL A   1      31.399  27.222  22.407  1.00  0.00    -0.012 C 
ATOM     18  C   UNL A   1      33.713  27.753  22.605  1.00  0.00     0.087 C 
ATOM     19  C   UNL A   1      31.457  28.452  22.928  1.00  0.00     0.033 C 
ATOM     20  C   UNL A   1      32.849  28.974  22.975  1.00  0.00     0.205 C 
BRANCH  20  21
ATOM     21  N   UNL A   1      33.179  29.515  24.284  1.00  0.00    -0.352 N 
ATOM     22  H   UNL A   1      34.104  29.944  24.251  1.00  0.00     0.345 HD
ATOM     23  H   UNL A   1      33.177  28.763  24.973  1.00  0.00     0.345 HD
ATOM     24  H   UNL A   1      32.488  30.218  24.546  1.00  0.00     0.345 HD
ENDBRANCH  20  21
ENDBRANCH  14  16
ENDBRANCH  11  14
ENDBRANCH   5   7
ENDBRANCH   4   5
ENDBRANCH   3   4
ENDBRANCH   2   3
ENDBRANCH   1   2
BRANCH   1  25
ATOM     25  C   UNL A   1      35.843  20.413  24.963  1.00  0.00     0.202 C 
BRANCH  25  26
ATOM     26  C   UNL A   1      37.323  20.007  24.958  1.00  0.00     0.261 C 
BRANCH  26  27
ATOM     27  O   UNL A   1      38.205  21.127  25.153  1.00  0.00    -0.460 OA
BRANCH  27  28
ATOM     28  C   UNL A   1      39.236  20.881  25.998  1.00  0.00     0.338 C 
ATOM     29  O   UNL A   1      39.864  19.834  26.109  1.00  0.00    -0.246 OA
BRANCH  28  30
ATOM     30  C   UNL A   1      39.677  22.126  26.645  1.00  0.00     0.060 A 
ATOM     31  C   UNL A   1      39.103  23.324  26.199  1.00  0.00     0.016 A 
ATOM     32  C   UNL A   1      40.708  22.134  27.585  1.00  0.00     0.016 A 
ATOM     33  C   UNL A   1      39.598  24.544  26.650  1.00  0.00     0.010 A 
ATOM     34  C   UNL A   1      41.212  23.361  28.027  1.00  0.00     0.010 A 
ATOM     35  C   UNL A   1      40.689  24.568  27.525  1.00  0.00    -0.014 A 
BRANCH  35  36
ATOM     36  C   UNL A   1      41.391  25.850  27.765  1.00  0.00     0.031 A 
ATOM     37  C   UNL A   1      40.676  26.934  28.526  1.00  0.00     0.074 A 
ATOM     38  C   UNL A   1      42.652  26.037  27.340  1.00  0.00     0.049 A 
ATOM     39  N   UNL A   1      41.091  28.131  28.849  1.00  0.00    -0.248 NA
ATOM     40  C   UNL A   1      39.311  26.627  28.985  1.00  0.00     0.031 C 
ATOM     41  C   UNL A   1      43.450  25.053  26.610  1.00  0.00     0.029 A 
ATOM     42  N   UNL A   1      43.474  27.129  27.448  1.00  0.00    -0.354 N 
ATOM     43  C   UNL A   1      40.034  28.729  29.522  1.00  0.00     0.074 A 
ATOM     44  C   UNL A   1      38.952  27.770  29.552  1.00  0.00     0.031 C 
ATOM     45  C   UNL A   1      44.642  25.598  26.311  1.00  0.00     0.029 A 
ATOM     46  C   UNL A   1      44.681  26.971  26.810  1.00  0.00     0.049 A 
ATOM     47  H   UNL A   1      43.224  27.946  27.936  1.00  0.00     0.167 HD
ATOM     48  C   UNL A   1      39.973  29.961  30.082  1.00  0.00     0.034 A 
ATOM     49  C   UNL A   1      45.692  27.845  26.635  1.00  0.00     0.034 A 
ATOM     50  C   UNL A   1      41.057  30.904  30.070  1.00  0.00     0.049 A 
ATOM     51  C   UNL A   1      45.589  29.220  27.241  1.00  0.00     0.074 A 
ATOM     52  C   UNL A   1      41.110  32.162  30.644  1.00  0.00     0.029 A 
ATOM     53  N   UNL A   1      42.275  30.699  29.441  1.00  0.00    -0.354 N 
ATOM     54  N   UNL A   1      44.627  29.731  27.972  1.00  0.00    -0.248 NA
ATOM     55  C   UNL A   1      46.726  30.128  27.027  1.00  0.00     0.031 C 
ATOM     56  C   UNL A   1      42.354  32.727  30.342  1.00  0.00     0.029 A 
ATOM     57  C   UNL A   1      43.084  31.810  29.603  1.00  0.00     0.049 A 
ATOM     58  H   UNL A   1      42.528  29.882  28.952  1.00  0.00     0.167 HD
ATOM     59  C   UNL A   1      45.057  31.003  28.335  1.00  0.00     0.074 A 
ATOM     60  C   UNL A   1      46.375  31.178  27.758  1.00  0.00     0.031 C 
ATOM     61  C   UNL A   1      44.416  31.947  29.068  1.00  0.00     0.034 A 
BRANCH  48  62
ATOM     62  C   UNL A   1      38.695  30.346  30.778  1.00  0.00     0.023 A 
ATOM     63  C   UNL A   1      38.508  30.007  32.133  1.00  0.00     0.012 A 
ATOM     64  C   UNL A   1      37.697  31.077  30.104  1.00  0.00     0.148 A 
ATOM     65  C   UNL A   1      37.335  30.361  32.799  1.00  0.00     0.002 A 
ATOM     66  C   UNL A   1      36.549  31.464  30.787  1.00  0.00     0.091 A 
ATOM     67  F   UNL A   1      37.881  31.367  28.808  1.00  0.00    -0.205 F 
ATOM     68  C   UNL A   1      36.361  31.097  32.130  1.00  0.00     0.022 A 
BRANCH  66  69
ATOM     69  S   UNL A   1      35.272  32.475  30.030  1.00  0.00     0.127 S 
ATOM     70  O   UNL A   1      34.322  32.623  31.131  1.00  0.00    -0.237 OA
ATOM     71  O   UNL A   1      36.004  33.695  29.688  1.00  0.00    -0.237 OA
ATOM     72  O   UNL A   1      34.791  31.717  28.883  1.00  0.00    -0.744 OA
ENDBRANCH  66  69
ENDBRANCH  48  62
BRANCH  49  73
ATOM     73  C   UNL A   1      46.908  27.430  25.882  1.00  0.00     0.023 A 
ATOM     74  C   UNL A   1      46.997  27.694  24.502  1.00  0.00     0.012 A 
ATOM     75  C   UNL A   1      47.986  26.797  26.531  1.00  0.00     0.148 A 
ATOM     76  C   UNL A   1      48.125  27.313  23.776  1.00  0.00     0.002 A 
ATOM     77  C   UNL A   1      49.130  26.469  25.813  1.00  0.00     0.091 A 
ATOM     78  F   UNL A   1      47.875  26.539  27.841  1.00  0.00    -0.205 F 
ATOM     79  C   UNL A   1      49.196  26.711  24.432  1.00  0.00     0.022 A 
BRANCH  77  80
ATOM     80  S   UNL A   1      50.603  25.808  26.600  1.00  0.00     0.127 S 
ATOM     81  O   UNL A   1      51.513  25.674  25.466  1.00  0.00    -0.237 OA
ATOM     82  O   UNL A   1      50.943  26.875  27.543  1.00  0.00    -0.237 OA
ATOM     83  O   UNL A   1      50.185  24.562  27.229  1.00  0.00    -0.744 OA
ENDBRANCH  77  80
ENDBRANCH  49  73
BRANCH  61  84
ATOM     84  C   UNL A   1      45.137  33.245  29.327  1.00  0.00     0.023 A 
ATOM     85  C   UNL A   1      45.991  33.361  30.441  1.00  0.00     0.012 A 
ATOM     86  C   UNL A   1      45.032  34.318  28.421  1.00  0.00     0.148 A 
ATOM     87  C   UNL A   1      46.705  34.539  30.666  1.00  0.00     0.002 A 
ATOM     88  C   UNL A   1      45.782  35.470  28.625  1.00  0.00     0.091 A 
ATOM     89  F   UNL A   1      44.200  34.194  27.376  1.00  0.00    -0.205 F 
ATOM     90  C   UNL A   1      46.611  35.586  29.753  1.00  0.00     0.022 A 
BRANCH  88  91
ATOM     91  S   UNL A   1      45.797  36.829  27.449  1.00  0.00     0.127 S 
ATOM     92  O   UNL A   1      46.290  36.172  26.241  1.00  0.00    -0.237 OA
ATOM     93  O   UNL A   1      44.385  37.214  27.402  1.00  0.00    -0.237 OA
ATOM     94  O   UNL A   1      46.678  37.839  28.018  1.00  0.00    -0.744 OA
ENDBRANCH  88  91
ENDBRANCH  61  84
ENDBRANCH  35  36
ENDBRANCH  28  30
ENDBRANCH  27  28
ENDBRANCH  26  27
ENDBRANCH  25  26
ENDBRANCH   1  25
TORSDOF 21
ENDMDL
