MODEL 1
REMARK VINA RESULT:      -8.4      0.000      0.000
REMARK SMILES Cc1ccc(S(=O)(=O)n2cc(C(=O)C(=O)N[C@H](Cc3c[nH]c4ccccc34)C(=O)NCC(=O)OCCOCCOC(=O)c3ccc(-c4c5nc(c(-c6cccc(S(=O)(=O)[O-])c6F)c6ccc([nH]6)c(-c6cccc(S(=O)(=O)[O-])c6F)c6nc(c(-c7cccc(S(=O)(=O)[O-])c7F)c7ccc4[nH]7)C=C6)C=C5)cc3)c3ccccc32)cc1
REMARK SMILES IDX 35 1 34 2 32 3 33 4 31 5 30 6 28 7 29 8 17 10 16 11 14 12
REMARK SMILES IDX 15 13 12 15 13 16 11 17 9 18 10 19 111 20 106 21 110 22
REMARK SMILES IDX 107 23 109 24 108 25 6 26 7 27 8 28 5 29 1 30 2 31 3 32
REMARK SMILES IDX 113 33 4 34 112 35 18 36 19 37 20 38 27 39 21 40 22 41 26 42
REMARK SMILES IDX 23 44 25 45 24 46 36 47 37 48 38 49 39 50 40 51 41 52 42 53
REMARK SMILES IDX 43 54 44 55 105 56 45 57 104 58 46 59 47 60 48 61 98 62
REMARK SMILES IDX 49 63 103 64 97 65 99 66 50 67 102 68 96 69 95 70 51 72
REMARK SMILES IDX 83 73 63 74 82 75 64 76 67 77 81 78 100 79 65 80 66 81 80 83
REMARK SMILES IDX 101 84 68 85 52 86 53 87 61 88 54 89 56 90 62 91 55 92 57 93
REMARK SMILES IDX 58 94 59 95 60 96 84 97 85 98 93 99 86 100 88 101 94 102
REMARK SMILES IDX 87 103 89 104 90 105 91 106 92 107 69 108 70 109 78 110
REMARK SMILES IDX 71 111 73 112 79 113 72 114 74 115 75 116 76 117 77 118
REMARK H PARENT 30 9 16 14 21 43 99 71 67 82
REMARK Flexibility Score: inf
ROOT
ATOM      1  C   UNL A   1      43.773  27.869  36.946  1.00  0.00     0.261 C 
ENDROOT
BRANCH   1   2
ATOM      2  O   UNL A   1      43.595  26.866  37.952  1.00  0.00    -0.462 OA
BRANCH   2   3
ATOM      3  C   UNL A   1      44.177  25.660  37.707  1.00  0.00     0.325 C 
ATOM      4  O   UNL A   1      43.862  24.837  36.882  1.00  0.00    -0.250 OA
BRANCH   3   5
ATOM      5  C   UNL A   1      45.290  25.401  38.698  1.00  0.00     0.238 C 
BRANCH   5   6
ATOM      6  N   UNL A   1      45.073  24.231  39.514  1.00  0.00    -0.343 N 
ATOM      7  C   UNL A   1      45.411  22.937  39.347  1.00  0.00     0.243 C 
ATOM      8  O   UNL A   1      45.042  22.196  40.269  1.00  0.00    -0.273 OA
ATOM      9  H   UNL A   1      44.586  24.412  40.349  1.00  0.00     0.164 HD
BRANCH   7  10
ATOM     10  C   UNL A   1      46.163  22.353  38.116  1.00  0.00     0.176 C 
BRANCH  10  11
ATOM     11  N   UNL A   1      45.465  22.386  36.766  1.00  0.00    -0.337 N 
ATOM     12  C   UNL A   1      45.665  22.109  35.412  1.00  0.00     0.293 C 
ATOM     13  O   UNL A   1      44.699  22.246  34.662  1.00  0.00    -0.265 OA
ATOM     14  H   UNL A   1      44.547  22.722  36.889  1.00  0.00     0.164 HD
BRANCH  12  15
ATOM     15  C   UNL A   1      46.987  21.626  34.816  1.00  0.00     0.252 C 
ATOM     16  O   UNL A   1      46.888  20.570  34.193  1.00  0.00    -0.283 OA
BRANCH  15  17
ATOM     17  C   UNL A   1      48.335  22.240  35.016  1.00  0.00     0.054 A 
ATOM     18  N   UNL A   1      50.091  22.844  36.352  1.00  0.00    -0.240 N 
ATOM     19  C   UNL A   1      48.808  23.273  35.855  1.00  0.00     0.117 A 
ATOM     20  C   UNL A   1      50.129  21.557  35.910  1.00  0.00     0.065 A 
ATOM     21  C   UNL A   1      49.557  21.617  34.642  1.00  0.00     0.012 A 
ATOM     22  C   UNL A   1      50.346  20.337  36.446  1.00  0.00     0.028 A 
ATOM     23  C   UNL A   1      50.101  20.776  33.669  1.00  0.00     0.011 A 
ATOM     24  C   UNL A   1      50.972  19.550  35.491  1.00  0.00     0.002 A 
ATOM     25  C   UNL A   1      51.019  19.848  34.126  1.00  0.00     0.001 A 
BRANCH  18  26
ATOM     26  S   UNL A   1      51.619  23.780  35.985  1.00  0.00     0.268 S 
ATOM     27  O   UNL A   1      52.607  22.719  35.875  1.00  0.00    -0.201 OA
ATOM     28  O   UNL A   1      51.726  24.773  37.039  1.00  0.00    -0.201 OA
BRANCH  26  29
ATOM     29  C   UNL A   1      51.694  24.713  34.408  1.00  0.00     0.088 A 
ATOM     30  C   UNL A   1      53.733  26.720  31.086  1.00  0.00     0.044 C 
ATOM     31  C   UNL A   1      52.865  26.041  32.111  1.00  0.00    -0.051 A 
ATOM     32  C   UNL A   1      52.437  26.770  33.200  1.00  0.00     0.005 A 
ATOM     33  C   UNL A   1      52.627  24.660  32.135  1.00  0.00     0.005 A 
ATOM     34  C   UNL A   1      51.956  26.074  34.328  1.00  0.00     0.022 A 
ATOM     35  C   UNL A   1      52.025  24.014  33.251  1.00  0.00     0.022 A 
ENDBRANCH  26  29
ENDBRANCH  18  26
ENDBRANCH  15  17
ENDBRANCH  12  15
ENDBRANCH  10  11
BRANCH  10  36
ATOM     36  C   UNL A   1      47.186  21.219  38.429  1.00  0.00     0.072 C 
BRANCH  36  37
ATOM     37  C   UNL A   1      46.652  19.789  38.547  1.00  0.00    -0.020 A 
ATOM     38  C   UNL A   1      45.948  19.136  37.550  1.00  0.00     0.087 A 
ATOM     39  C   UNL A   1      46.789  18.815  39.609  1.00  0.00     0.003 A 
ATOM     40  N   UNL A   1      45.546  17.909  37.995  1.00  0.00    -0.361 N 
ATOM     41  C   UNL A   1      46.079  17.666  39.234  1.00  0.00     0.046 A 
ATOM     42  C   UNL A   1      47.433  18.787  40.866  1.00  0.00     0.010 A 
ATOM     43  H   UNL A   1      44.960  17.292  37.500  1.00  0.00     0.166 HD
ATOM     44  C   UNL A   1      45.970  16.520  40.034  1.00  0.00     0.026 A 
ATOM     45  C   UNL A   1      47.333  17.647  41.683  1.00  0.00     0.001 A 
ATOM     46  C   UNL A   1      46.610  16.532  41.271  1.00  0.00     0.002 A 
ENDBRANCH  36  37
ENDBRANCH  10  36
ENDBRANCH   7  10
ENDBRANCH   5   6
ENDBRANCH   3   5
ENDBRANCH   2   3
ENDBRANCH   1   2
BRANCH   1  47
ATOM     47  C   UNL A   1      42.399  28.372  36.568  1.00  0.00     0.202 C 
BRANCH  47  48
ATOM     48  O   UNL A   1      42.398  29.755  36.906  1.00  0.00    -0.374 OA
BRANCH  48  49
ATOM     49  C   UNL A   1      42.390  30.693  35.849  1.00  0.00     0.202 C 
BRANCH  49  50
ATOM     50  C   UNL A   1      40.976  31.026  35.374  1.00  0.00     0.261 C 
BRANCH  50  51
ATOM     51  O   UNL A   1      40.962  31.083  33.936  1.00  0.00    -0.460 OA
BRANCH  51  52
ATOM     52  C   UNL A   1      39.956  30.368  33.360  1.00  0.00     0.338 C 
ATOM     53  O   UNL A   1      38.775  30.486  33.651  1.00  0.00    -0.246 OA
BRANCH  52  54
ATOM     54  C   UNL A   1      40.517  29.255  32.544  1.00  0.00     0.060 A 
ATOM     55  C   UNL A   1      41.192  28.211  33.191  1.00  0.00     0.016 A 
ATOM     56  C   UNL A   1      40.721  29.468  31.184  1.00  0.00     0.016 A 
ATOM     57  C   UNL A   1      42.225  27.542  32.539  1.00  0.00     0.010 A 
ATOM     58  C   UNL A   1      41.867  28.949  30.619  1.00  0.00     0.010 A 
ATOM     59  C   UNL A   1      42.658  28.022  31.320  1.00  0.00    -0.014 A 
BRANCH  59  60
ATOM     60  C   UNL A   1      43.879  27.562  30.644  1.00  0.00     0.031 A 
ATOM     61  C   UNL A   1      45.129  28.233  31.190  1.00  0.00     0.074 A 
ATOM     62  C   UNL A   1      43.766  26.287  30.175  1.00  0.00     0.049 A 
ATOM     63  N   UNL A   1      46.364  27.994  30.887  1.00  0.00    -0.248 NA
ATOM     64  C   UNL A   1      45.025  29.344  32.165  1.00  0.00     0.031 C 
ATOM     65  C   UNL A   1      44.533  25.126  30.544  1.00  0.00     0.029 A 
ATOM     66  N   UNL A   1      42.993  25.751  29.141  1.00  0.00    -0.354 N 
ATOM     67  C   UNL A   1      47.148  28.623  31.855  1.00  0.00     0.074 A 
ATOM     68  C   UNL A   1      46.276  29.486  32.595  1.00  0.00     0.031 C 
ATOM     69  C   UNL A   1      44.553  24.189  29.599  1.00  0.00     0.029 A 
ATOM     70  C   UNL A   1      43.745  24.713  28.544  1.00  0.00     0.049 A 
ATOM     71  H   UNL A   1      42.091  26.044  28.877  1.00  0.00     0.167 HD
ATOM     72  C   UNL A   1      48.429  28.246  32.112  1.00  0.00     0.034 A 
ATOM     73  C   UNL A   1      44.036  24.492  27.242  1.00  0.00     0.034 A 
ATOM     74  C   UNL A   1      48.939  27.257  31.101  1.00  0.00     0.049 A 
ATOM     75  C   UNL A   1      45.532  24.644  26.989  1.00  0.00     0.074 A 
ATOM     76  C   UNL A   1      49.444  25.974  31.166  1.00  0.00     0.029 A 
ATOM     77  N   UNL A   1      48.646  27.375  29.712  1.00  0.00    -0.354 N 
ATOM     78  N   UNL A   1      46.387  25.278  27.760  1.00  0.00    -0.248 NA
ATOM     79  C   UNL A   1      46.176  24.026  25.831  1.00  0.00     0.031 C 
ATOM     80  C   UNL A   1      49.398  25.303  29.939  1.00  0.00     0.029 A 
ATOM     81  C   UNL A   1      48.821  26.161  29.047  1.00  0.00     0.049 A 
ATOM     82  H   UNL A   1      48.356  28.210  29.276  1.00  0.00     0.167 HD
ATOM     83  C   UNL A   1      47.633  25.266  27.160  1.00  0.00     0.074 A 
ATOM     84  C   UNL A   1      47.451  24.415  25.992  1.00  0.00     0.031 C 
ATOM     85  C   UNL A   1      48.750  25.919  27.625  1.00  0.00     0.034 A 
BRANCH  72  86
ATOM     86  C   UNL A   1      48.979  28.524  33.562  1.00  0.00     0.023 A 
ATOM     87  C   UNL A   1      48.658  27.594  34.565  1.00  0.00     0.012 A 
ATOM     88  C   UNL A   1      49.642  29.681  34.067  1.00  0.00     0.148 A 
ATOM     89  C   UNL A   1      49.210  27.602  35.864  1.00  0.00     0.002 A 
ATOM     90  C   UNL A   1      50.083  29.763  35.422  1.00  0.00     0.091 A 
ATOM     91  F   UNL A   1      49.815  30.733  33.253  1.00  0.00    -0.205 F 
ATOM     92  C   UNL A   1      49.964  28.674  36.284  1.00  0.00     0.022 A 
BRANCH  90  93
ATOM     93  S   UNL A   1      50.597  31.311  36.221  1.00  0.00     0.127 S 
ATOM     94  O   UNL A   1      50.463  31.015  37.653  1.00  0.00    -0.237 OA
ATOM     95  O   UNL A   1      51.978  31.468  35.777  1.00  0.00    -0.237 OA
ATOM     96  O   UNL A   1      49.641  32.304  35.745  1.00  0.00    -0.744 OA
ENDBRANCH  90  93
ENDBRANCH  72  86
BRANCH  73  97
ATOM     97  C   UNL A   1      42.890  24.794  26.345  1.00  0.00     0.023 A 
ATOM     98  C   UNL A   1      41.683  24.124  26.686  1.00  0.00     0.012 A 
ATOM     99  C   UNL A   1      42.831  26.083  25.809  1.00  0.00     0.148 A 
ATOM    100  C   UNL A   1      40.472  24.817  26.712  1.00  0.00     0.002 A 
ATOM    101  C   UNL A   1      41.648  26.800  25.967  1.00  0.00     0.091 A 
ATOM    102  F   UNL A   1      43.977  26.661  25.427  1.00  0.00    -0.205 F 
ATOM    103  C   UNL A   1      40.472  26.174  26.423  1.00  0.00     0.022 A 
BRANCH 101 104
ATOM    104  S   UNL A   1      41.701  28.594  26.140  1.00  0.00     0.127 S 
ATOM    105  O   UNL A   1      42.683  28.781  27.199  1.00  0.00    -0.237 OA
ATOM    106  O   UNL A   1      42.143  28.990  24.803  1.00  0.00    -0.237 OA
ATOM    107  O   UNL A   1      40.331  28.980  26.443  1.00  0.00    -0.744 OA
ENDBRANCH 101 104
ENDBRANCH  73  97
BRANCH  85 108
ATOM    108  C   UNL A   1      50.069  26.112  26.874  1.00  0.00     0.023 A 
ATOM    109  C   UNL A   1      51.047  25.108  26.830  1.00  0.00     0.012 A 
ATOM    110  C   UNL A   1      50.303  27.261  26.054  1.00  0.00     0.148 A 
ATOM    111  C   UNL A   1      52.205  25.251  26.056  1.00  0.00     0.002 A 
ATOM    112  C   UNL A   1      51.410  27.366  25.231  1.00  0.00     0.091 A 
ATOM    113  F   UNL A   1      49.457  28.295  26.059  1.00  0.00    -0.205 F 
ATOM    114  C   UNL A   1      52.378  26.367  25.242  1.00  0.00     0.022 A 
BRANCH 112 115
ATOM    115  S   UNL A   1      51.595  28.719  24.055  1.00  0.00     0.127 S 
ATOM    116  O   UNL A   1      51.405  29.885  24.917  1.00  0.00    -0.237 OA
ATOM    117  O   UNL A   1      52.966  28.518  23.587  1.00  0.00    -0.237 OA
ATOM    118  O   UNL A   1      50.573  28.536  23.033  1.00  0.00    -0.744 OA
ENDBRANCH 112 115
ENDBRANCH  85 108
ENDBRANCH  59  60
ENDBRANCH  52  54
ENDBRANCH  51  52
ENDBRANCH  50  51
ENDBRANCH  49  50
ENDBRANCH  48  49
ENDBRANCH  47  48
ENDBRANCH   1  47
TORSDOF 26
ENDMDL
MODEL 2
REMARK VINA RESULT:      -8.2      6.968     13.134
REMARK SMILES Cc1ccc(S(=O)(=O)n2cc(C(=O)C(=O)N[C@H](Cc3c[nH]c4ccccc34)C(=O)NCC(=O)OCCOCCOC(=O)c3ccc(-c4c5nc(c(-c6cccc(S(=O)(=O)[O-])c6F)c6ccc([nH]6)c(-c6cccc(S(=O)(=O)[O-])c6F)c6nc(c(-c7cccc(S(=O)(=O)[O-])c7F)c7ccc4[nH]7)C=C6)C=C5)cc3)c3ccccc32)cc1
REMARK SMILES IDX 35 1 34 2 32 3 33 4 31 5 30 6 28 7 29 8 17 10 16 11 14 12
REMARK SMILES IDX 15 13 12 15 13 16 11 17 9 18 10 19 111 20 106 21 110 22
REMARK SMILES IDX 107 23 109 24 108 25 6 26 7 27 8 28 5 29 1 30 2 31 3 32
REMARK SMILES IDX 113 33 4 34 112 35 18 36 19 37 20 38 27 39 21 40 22 41 26 42
REMARK SMILES IDX 23 44 25 45 24 46 36 47 37 48 38 49 39 50 40 51 41 52 42 53
REMARK SMILES IDX 43 54 44 55 105 56 45 57 104 58 46 59 47 60 48 61 98 62
REMARK SMILES IDX 49 63 103 64 97 65 99 66 50 67 102 68 96 69 95 70 51 72
REMARK SMILES IDX 83 73 63 74 82 75 64 76 67 77 81 78 100 79 65 80 66 81 80 83
REMARK SMILES IDX 101 84 68 85 52 86 53 87 61 88 54 89 56 90 62 91 55 92 57 93
REMARK SMILES IDX 58 94 59 95 60 96 84 97 85 98 93 99 86 100 88 101 94 102
REMARK SMILES IDX 87 103 89 104 90 105 91 106 92 107 69 108 70 109 78 110
REMARK SMILES IDX 71 111 73 112 79 113 72 114 74 115 75 116 76 117 77 118
REMARK H PARENT 30 9 16 14 21 43 99 71 67 82
REMARK Flexibility Score: inf
ROOT
ATOM      1  C   UNL A   1      40.367  30.359  35.383  1.00  0.00     0.261 C 
ENDROOT
BRANCH   1   2
ATOM      2  O   UNL A   1      40.310  29.291  34.431  1.00  0.00    -0.462 OA
BRANCH   2   3
ATOM      3  C   UNL A   1      41.466  28.601  34.233  1.00  0.00     0.325 C 
ATOM      4  O   UNL A   1      42.207  28.139  35.067  1.00  0.00    -0.250 OA
BRANCH   3   5
ATOM      5  C   UNL A   1      41.795  28.535  32.758  1.00  0.00     0.238 C 
BRANCH   5   6
ATOM      6  N   UNL A   1      42.138  29.814  32.187  1.00  0.00    -0.343 N 
ATOM      7  C   UNL A   1      41.895  30.358  30.977  1.00  0.00     0.243 C 
ATOM      8  O   UNL A   1      42.359  31.498  30.835  1.00  0.00    -0.273 OA
ATOM      9  H   UNL A   1      42.644  30.399  32.794  1.00  0.00     0.164 HD
BRANCH   7  10
ATOM     10  C   UNL A   1      41.141  29.660  29.809  1.00  0.00     0.176 C 
BRANCH  10  11
ATOM     11  N   UNL A   1      39.743  29.123  30.075  1.00  0.00    -0.337 N 
ATOM     12  C   UNL A   1      38.445  29.124  29.563  1.00  0.00     0.293 C 
ATOM     13  O   UNL A   1      37.611  28.432  30.146  1.00  0.00    -0.265 OA
ATOM     14  H   UNL A   1      39.760  28.586  30.901  1.00  0.00     0.164 HD
BRANCH  12  15
ATOM     15  C   UNL A   1      38.006  29.901  28.322  1.00  0.00     0.252 C 
ATOM     16  O   UNL A   1      38.653  29.621  27.314  1.00  0.00    -0.283 OA
BRANCH  15  17
ATOM     17  C   UNL A   1      36.988  30.994  28.265  1.00  0.00     0.054 A 
ATOM     18  N   UNL A   1      34.995  31.920  28.900  1.00  0.00    -0.240 N 
ATOM     19  C   UNL A   1      35.608  31.010  27.965  1.00  0.00     0.117 A 
ATOM     20  C   UNL A   1      36.034  32.174  29.741  1.00  0.00     0.065 A 
ATOM     21  C   UNL A   1      37.140  32.257  28.901  1.00  0.00     0.012 A 
ATOM     22  C   UNL A   1      36.257  32.131  31.073  1.00  0.00     0.028 A 
ATOM     23  C   UNL A   1      38.113  33.200  29.235  1.00  0.00     0.011 A 
ATOM     24  C   UNL A   1      37.154  33.138  31.394  1.00  0.00     0.002 A 
ATOM     25  C   UNL A   1      37.955  33.810  30.466  1.00  0.00     0.001 A 
BRANCH  18  26
ATOM     26  S   UNL A   1      34.134  33.432  28.337  1.00  0.00     0.268 S 
ATOM     27  O   UNL A   1      32.957  32.886  27.680  1.00  0.00    -0.201 OA
ATOM     28  O   UNL A   1      35.119  34.176  27.572  1.00  0.00    -0.201 OA
BRANCH  26  29
ATOM     29  C   UNL A   1      33.514  34.591  29.616  1.00  0.00     0.088 A 
ATOM     30  C   UNL A   1      33.844  37.953  32.409  1.00  0.00     0.044 C 
ATOM     31  C   UNL A   1      33.529  36.811  31.482  1.00  0.00    -0.051 A 
ATOM     32  C   UNL A   1      33.753  35.524  31.921  1.00  0.00     0.005 A 
ATOM     33  C   UNL A   1      33.211  36.976  30.127  1.00  0.00     0.005 A 
ATOM     34  C   UNL A   1      33.823  34.489  30.965  1.00  0.00     0.022 A 
ATOM     35  C   UNL A   1      33.176  35.881  29.218  1.00  0.00     0.022 A 
ENDBRANCH  26  29
ENDBRANCH  18  26
ENDBRANCH  15  17
ENDBRANCH  12  15
ENDBRANCH  10  11
BRANCH  10  36
ATOM     36  C   UNL A   1      42.044  28.968  28.745  1.00  0.00     0.072 C 
BRANCH  36  37
ATOM     37  C   UNL A   1      42.142  27.440  28.777  1.00  0.00    -0.020 A 
ATOM     38  C   UNL A   1      43.101  26.735  29.484  1.00  0.00     0.087 A 
ATOM     39  C   UNL A   1      41.295  26.427  28.184  1.00  0.00     0.003 A 
ATOM     40  N   UNL A   1      42.965  25.398  29.243  1.00  0.00    -0.361 N 
ATOM     41  C   UNL A   1      41.846  25.174  28.485  1.00  0.00     0.046 A 
ATOM     42  C   UNL A   1      40.117  26.437  27.404  1.00  0.00     0.010 A 
ATOM     43  H   UNL A   1      43.580  24.700  29.565  1.00  0.00     0.166 HD
ATOM     44  C   UNL A   1      41.302  23.957  28.050  1.00  0.00     0.026 A 
ATOM     45  C   UNL A   1      39.558  25.227  26.957  1.00  0.00     0.001 A 
ATOM     46  C   UNL A   1      40.145  24.006  27.276  1.00  0.00     0.002 A 
ENDBRANCH  36  37
ENDBRANCH  10  36
ENDBRANCH   7  10
ENDBRANCH   5   6
ENDBRANCH   3   5
ENDBRANCH   2   3
ENDBRANCH   1   2
BRANCH   1  47
ATOM     47  C   UNL A   1      38.961  30.892  35.541  1.00  0.00     0.202 C 
BRANCH  47  48
ATOM     48  O   UNL A   1      38.960  32.151  34.876  1.00  0.00    -0.374 OA
BRANCH  48  49
ATOM     49  C   UNL A   1      37.836  32.989  35.052  1.00  0.00     0.202 C 
BRANCH  49  50
ATOM     50  C   UNL A   1      38.226  34.414  35.445  1.00  0.00     0.261 C 
BRANCH  50  51
ATOM     51  O   UNL A   1      39.630  34.447  35.764  1.00  0.00    -0.460 OA
BRANCH  51  52
ATOM     52  C   UNL A   1      40.321  35.435  35.133  1.00  0.00     0.338 C 
ATOM     53  O   UNL A   1      39.962  36.602  35.084  1.00  0.00    -0.246 OA
BRANCH  52  54
ATOM     54  C   UNL A   1      41.407  34.851  34.296  1.00  0.00     0.060 A 
ATOM     55  C   UNL A   1      42.741  35.063  34.669  1.00  0.00     0.016 A 
ATOM     56  C   UNL A   1      41.108  34.477  32.989  1.00  0.00     0.016 A 
ATOM     57  C   UNL A   1      43.733  35.126  33.694  1.00  0.00     0.010 A 
ATOM     58  C   UNL A   1      42.049  34.741  32.017  1.00  0.00     0.010 A 
ATOM     59  C   UNL A   1      43.356  35.123  32.366  1.00  0.00    -0.014 A 
BRANCH  59  60
ATOM     60  C   UNL A   1      44.270  35.420  31.254  1.00  0.00     0.031 A 
ATOM     61  C   UNL A   1      45.141  34.229  30.888  1.00  0.00     0.074 A 
ATOM     62  C   UNL A   1      43.772  36.367  30.409  1.00  0.00     0.049 A 
ATOM     63  N   UNL A   1      45.980  34.120  29.909  1.00  0.00    -0.248 NA
ATOM     64  C   UNL A   1      45.136  33.006  31.724  1.00  0.00     0.031 C 
ATOM     65  C   UNL A   1      43.450  36.240  29.012  1.00  0.00     0.029 A 
ATOM     66  N   UNL A   1      43.548  37.735  30.588  1.00  0.00    -0.354 N 
ATOM     67  C   UNL A   1      46.297  32.766  29.796  1.00  0.00     0.074 A 
ATOM     68  C   UNL A   1      45.790  32.124  30.972  1.00  0.00     0.031 C 
ATOM     69  C   UNL A   1      43.477  37.400  28.360  1.00  0.00     0.029 A 
ATOM     70  C   UNL A   1      43.806  38.373  29.353  1.00  0.00     0.049 A 
ATOM     71  H   UNL A   1      43.262  38.174  31.423  1.00  0.00     0.167 HD
ATOM     72  C   UNL A   1      46.786  32.227  28.647  1.00  0.00     0.034 A 
ATOM     73  C   UNL A   1      44.585  39.443  29.077  1.00  0.00     0.034 A 
ATOM     74  C   UNL A   1      47.140  33.281  27.636  1.00  0.00     0.049 A 
ATOM     75  C   UNL A   1      45.774  39.039  28.212  1.00  0.00     0.074 A 
ATOM     76  C   UNL A   1      46.749  33.555  26.341  1.00  0.00     0.029 A 
ATOM     77  N   UNL A   1      47.768  34.505  28.006  1.00  0.00    -0.354 N 
ATOM     78  N   UNL A   1      46.247  37.820  28.068  1.00  0.00    -0.248 NA
ATOM     79  C   UNL A   1      46.491  40.017  27.397  1.00  0.00     0.031 C 
ATOM     80  C   UNL A   1      47.028  34.869  25.949  1.00  0.00     0.029 A 
ATOM     81  C   UNL A   1      47.596  35.485  27.027  1.00  0.00     0.049 A 
ATOM     82  H   UNL A   1      48.262  34.642  28.847  1.00  0.00     0.167 HD
ATOM     83  C   UNL A   1      47.375  37.865  27.268  1.00  0.00     0.074 A 
ATOM     84  C   UNL A   1      47.438  39.252  26.829  1.00  0.00     0.031 C 
ATOM     85  C   UNL A   1      48.194  36.798  26.983  1.00  0.00     0.034 A 
BRANCH  72  86
ATOM     86  C   UNL A   1      46.503  30.698  28.398  1.00  0.00     0.023 A 
ATOM     87  C   UNL A   1      47.300  29.771  29.091  1.00  0.00     0.012 A 
ATOM     88  C   UNL A   1      45.644  30.085  27.439  1.00  0.00     0.148 A 
ATOM     89  C   UNL A   1      47.065  28.379  29.115  1.00  0.00     0.002 A 
ATOM     90  C   UNL A   1      45.501  28.668  27.355  1.00  0.00     0.091 A 
ATOM     91  F   UNL A   1      44.988  30.866  26.568  1.00  0.00    -0.205 F 
ATOM     92  C   UNL A   1      46.129  27.826  28.272  1.00  0.00     0.022 A 
BRANCH  90  93
ATOM     93  S   UNL A   1      44.724  27.816  25.951  1.00  0.00     0.127 S 
ATOM     94  O   UNL A   1      45.689  28.007  24.860  1.00  0.00    -0.237 OA
ATOM     95  O   UNL A   1      44.625  26.437  26.417  1.00  0.00    -0.237 OA
ATOM     96  O   UNL A   1      43.468  28.527  25.741  1.00  0.00    -0.744 OA
ENDBRANCH  90  93
ENDBRANCH  72  86
BRANCH  73  97
ATOM     97  C   UNL A   1      44.490  40.498  30.120  1.00  0.00     0.023 A 
ATOM     98  C   UNL A   1      43.374  41.367  29.978  1.00  0.00     0.012 A 
ATOM     99  C   UNL A   1      44.940  40.163  31.399  1.00  0.00     0.148 A 
ATOM    100  C   UNL A   1      42.588  41.696  31.085  1.00  0.00     0.002 A 
ATOM    101  C   UNL A   1      44.079  40.382  32.470  1.00  0.00     0.091 A 
ATOM    102  F   UNL A   1      46.039  39.404  31.503  1.00  0.00    -0.205 F 
ATOM    103  C   UNL A   1      42.902  41.140  32.317  1.00  0.00     0.022 A 
BRANCH 101 104
ATOM    104  S   UNL A   1      44.124  39.283  33.899  1.00  0.00     0.127 S 
ATOM    105  O   UNL A   1      42.887  38.528  33.757  1.00  0.00    -0.237 OA
ATOM    106  O   UNL A   1      45.349  38.528  33.633  1.00  0.00    -0.237 OA
ATOM    107  O   UNL A   1      44.219  40.170  35.049  1.00  0.00    -0.744 OA
ENDBRANCH 101 104
ENDBRANCH  73  97
BRANCH  85 108
ATOM    108  C   UNL A   1      49.560  36.860  26.297  1.00  0.00     0.023 A 
ATOM    109  C   UNL A   1      49.714  36.578  24.933  1.00  0.00     0.012 A 
ATOM    110  C   UNL A   1      50.717  37.357  26.977  1.00  0.00     0.148 A 
ATOM    111  C   UNL A   1      50.949  36.736  24.290  1.00  0.00     0.002 A 
ATOM    112  C   UNL A   1      51.915  37.586  26.322  1.00  0.00     0.091 A 
ATOM    113  F   UNL A   1      50.691  37.611  28.287  1.00  0.00    -0.205 F 
ATOM    114  C   UNL A   1      52.041  37.259  24.976  1.00  0.00     0.022 A 
BRANCH 112 115
ATOM    115  S   UNL A   1      53.303  38.398  27.137  1.00  0.00     0.127 S 
ATOM    116  O   UNL A   1      54.298  38.424  26.065  1.00  0.00    -0.237 OA
ATOM    117  O   UNL A   1      52.727  39.701  27.471  1.00  0.00    -0.237 OA
ATOM    118  O   UNL A   1      53.657  37.579  28.288  1.00  0.00    -0.744 OA
ENDBRANCH 112 115
ENDBRANCH  85 108
ENDBRANCH  59  60
ENDBRANCH  52  54
ENDBRANCH  51  52
ENDBRANCH  50  51
ENDBRANCH  49  50
ENDBRANCH  48  49
ENDBRANCH  47  48
ENDBRANCH   1  47
TORSDOF 26
ENDMDL
MODEL 3
REMARK VINA RESULT:      -8.0      6.849     12.409
REMARK SMILES Cc1ccc(S(=O)(=O)n2cc(C(=O)C(=O)N[C@H](Cc3c[nH]c4ccccc34)C(=O)NCC(=O)OCCOCCOC(=O)c3ccc(-c4c5nc(c(-c6cccc(S(=O)(=O)[O-])c6F)c6ccc([nH]6)c(-c6cccc(S(=O)(=O)[O-])c6F)c6nc(c(-c7cccc(S(=O)(=O)[O-])c7F)c7ccc4[nH]7)C=C6)C=C5)cc3)c3ccccc32)cc1
REMARK SMILES IDX 35 1 34 2 32 3 33 4 31 5 30 6 28 7 29 8 17 10 16 11 14 12
REMARK SMILES IDX 15 13 12 15 13 16 11 17 9 18 10 19 111 20 106 21 110 22
REMARK SMILES IDX 107 23 109 24 108 25 6 26 7 27 8 28 5 29 1 30 2 31 3 32
REMARK SMILES IDX 113 33 4 34 112 35 18 36 19 37 20 38 27 39 21 40 22 41 26 42
REMARK SMILES IDX 23 44 25 45 24 46 36 47 37 48 38 49 39 50 40 51 41 52 42 53
REMARK SMILES IDX 43 54 44 55 105 56 45 57 104 58 46 59 47 60 48 61 98 62
REMARK SMILES IDX 49 63 103 64 97 65 99 66 50 67 102 68 96 69 95 70 51 72
REMARK SMILES IDX 83 73 63 74 82 75 64 76 67 77 81 78 100 79 65 80 66 81 80 83
REMARK SMILES IDX 101 84 68 85 52 86 53 87 61 88 54 89 56 90 62 91 55 92 57 93
REMARK SMILES IDX 58 94 59 95 60 96 84 97 85 98 93 99 86 100 88 101 94 102
REMARK SMILES IDX 87 103 89 104 90 105 91 106 92 107 69 108 70 109 78 110
REMARK SMILES IDX 71 111 73 112 79 113 72 114 74 115 75 116 76 117 77 118
REMARK H PARENT 30 9 16 14 21 43 99 71 67 82
REMARK Flexibility Score: inf
ROOT
ATOM      1  C   UNL A   1      42.105  29.352  26.686  1.00  0.00     0.261 C 
ENDROOT
BRANCH   1   2
ATOM      2  O   UNL A   1      42.102  28.261  25.759  1.00  0.00    -0.462 OA
BRANCH   2   3
ATOM      3  C   UNL A   1      43.293  27.629  25.572  1.00  0.00     0.325 C 
ATOM      4  O   UNL A   1      44.231  27.995  24.906  1.00  0.00    -0.250 OA
BRANCH   3   5
ATOM      5  C   UNL A   1      43.292  26.286  26.267  1.00  0.00     0.238 C 
BRANCH   5   6
ATOM      6  N   UNL A   1      43.685  25.194  25.410  1.00  0.00    -0.343 N 
ATOM      7  C   UNL A   1      44.893  24.739  25.021  1.00  0.00     0.243 C 
ATOM      8  O   UNL A   1      44.843  23.766  24.256  1.00  0.00    -0.273 OA
ATOM      9  H   UNL A   1      42.928  24.688  25.037  1.00  0.00     0.164 HD
BRANCH   7  10
ATOM     10  C   UNL A   1      46.263  25.353  25.431  1.00  0.00     0.176 C 
BRANCH  10  11
ATOM     11  N   UNL A   1      46.852  26.444  24.550  1.00  0.00    -0.337 N 
ATOM     12  C   UNL A   1      47.673  27.572  24.592  1.00  0.00     0.293 C 
ATOM     13  O   UNL A   1      47.926  28.122  23.520  1.00  0.00    -0.265 OA
ATOM     14  H   UNL A   1      46.547  26.306  23.624  1.00  0.00     0.164 HD
BRANCH  12  15
ATOM     15  C   UNL A   1      48.291  28.145  25.867  1.00  0.00     0.252 C 
ATOM     16  O   UNL A   1      49.476  27.849  26.014  1.00  0.00    -0.283 OA
BRANCH  15  17
ATOM     17  C   UNL A   1      47.579  28.897  26.946  1.00  0.00     0.054 A 
ATOM     18  N   UNL A   1      46.720  29.048  29.060  1.00  0.00    -0.240 N 
ATOM     19  C   UNL A   1      46.429  28.618  27.716  1.00  0.00     0.117 A 
ATOM     20  C   UNL A   1      48.046  29.342  28.961  1.00  0.00     0.065 A 
ATOM     21  C   UNL A   1      48.169  29.940  27.711  1.00  0.00     0.012 A 
ATOM     22  C   UNL A   1      49.180  29.013  29.617  1.00  0.00     0.028 A 
ATOM     23  C   UNL A   1      49.085  30.988  27.604  1.00  0.00     0.011 A 
ATOM     24  C   UNL A   1      50.035  30.103  29.578  1.00  0.00     0.002 A 
ATOM     25  C   UNL A   1      49.897  31.186  28.706  1.00  0.00     0.001 A 
BRANCH  18  26
ATOM     26  S   UNL A   1      45.746  30.364  29.874  1.00  0.00     0.268 S 
ATOM     27  O   UNL A   1      46.623  30.763  30.964  1.00  0.00    -0.201 OA
ATOM     28  O   UNL A   1      44.452  29.768  30.157  1.00  0.00    -0.201 OA
BRANCH  26  29
ATOM     29  C   UNL A   1      45.396  31.888  28.916  1.00  0.00     0.088 A 
ATOM     30  C   UNL A   1      45.433  34.409  25.330  1.00  0.00     0.044 C 
ATOM     31  C   UNL A   1      45.287  33.678  26.637  1.00  0.00    -0.051 A 
ATOM     32  C   UNL A   1      46.291  33.796  27.574  1.00  0.00     0.005 A 
ATOM     33  C   UNL A   1      44.290  32.725  26.887  1.00  0.00     0.005 A 
ATOM     34  C   UNL A   1      46.353  32.848  28.616  1.00  0.00     0.022 A 
ATOM     35  C   UNL A   1      44.330  31.867  28.022  1.00  0.00     0.022 A 
ENDBRANCH  26  29
ENDBRANCH  18  26
ENDBRANCH  15  17
ENDBRANCH  12  15
ENDBRANCH  10  11
BRANCH  10  36
ATOM     36  C   UNL A   1      47.210  24.410  26.231  1.00  0.00     0.072 C 
BRANCH  36  37
ATOM     37  C   UNL A   1      47.704  24.888  27.599  1.00  0.00    -0.020 A 
ATOM     38  C   UNL A   1      49.037  25.063  27.928  1.00  0.00     0.087 A 
ATOM     39  C   UNL A   1      46.971  25.307  28.774  1.00  0.00     0.003 A 
ATOM     40  N   UNL A   1      49.147  25.419  29.242  1.00  0.00    -0.361 N 
ATOM     41  C   UNL A   1      47.901  25.616  29.776  1.00  0.00     0.046 A 
ATOM     42  C   UNL A   1      45.604  25.445  29.105  1.00  0.00     0.010 A 
ATOM     43  H   UNL A   1      49.995  25.518  29.732  1.00  0.00     0.166 HD
ATOM     44  C   UNL A   1      47.548  26.037  31.066  1.00  0.00     0.026 A 
ATOM     45  C   UNL A   1      45.231  25.863  30.395  1.00  0.00     0.001 A 
ATOM     46  C   UNL A   1      46.192  26.153  31.360  1.00  0.00     0.002 A 
ENDBRANCH  36  37
ENDBRANCH  10  36
ENDBRANCH   7  10
ENDBRANCH   5   6
ENDBRANCH   3   5
ENDBRANCH   2   3
ENDBRANCH   1   2
BRANCH   1  47
ATOM     47  C   UNL A   1      41.273  28.930  27.876  1.00  0.00     0.202 C 
BRANCH  47  48
ATOM     48  O   UNL A   1      40.190  28.183  27.331  1.00  0.00    -0.374 OA
BRANCH  48  49
ATOM     49  C   UNL A   1      39.203  27.706  28.223  1.00  0.00     0.202 C 
BRANCH  49  50
ATOM     50  C   UNL A   1      38.163  28.772  28.567  1.00  0.00     0.261 C 
BRANCH  50  51
ATOM     51  O   UNL A   1      37.895  28.729  29.982  1.00  0.00    -0.460 OA
BRANCH  51  52
ATOM     52  C   UNL A   1      37.667  29.949  30.542  1.00  0.00     0.338 C 
ATOM     53  O   UNL A   1      36.579  30.324  30.953  1.00  0.00    -0.246 OA
BRANCH  52  54
ATOM     54  C   UNL A   1      38.842  30.840  30.333  1.00  0.00     0.060 A 
ATOM     55  C   UNL A   1      40.056  30.522  30.957  1.00  0.00     0.016 A 
ATOM     56  C   UNL A   1      38.618  32.139  29.884  1.00  0.00     0.016 A 
ATOM     57  C   UNL A   1      40.931  31.538  31.332  1.00  0.00     0.010 A 
ATOM     58  C   UNL A   1      39.382  33.146  30.434  1.00  0.00     0.010 A 
ATOM     59  C   UNL A   1      40.514  32.849  31.211  1.00  0.00    -0.014 A 
BRANCH  59  60
ATOM     60  C   UNL A   1      41.235  33.995  31.783  1.00  0.00     0.031 A 
ATOM     61  C   UNL A   1      40.809  34.290  33.212  1.00  0.00     0.074 A 
ATOM     62  C   UNL A   1      42.478  34.150  31.245  1.00  0.00     0.049 A 
ATOM     63  N   UNL A   1      41.301  35.162  34.031  1.00  0.00    -0.248 NA
ATOM     64  C   UNL A   1      39.664  33.573  33.822  1.00  0.00     0.031 C 
ATOM     65  C   UNL A   1      43.754  34.084  31.906  1.00  0.00     0.029 A 
ATOM     66  N   UNL A   1      42.886  34.535  29.964  1.00  0.00    -0.354 N 
ATOM     67  C   UNL A   1      40.807  34.852  35.299  1.00  0.00     0.074 A 
ATOM     68  C   UNL A   1      39.760  33.892  35.110  1.00  0.00     0.031 C 
ATOM     69  C   UNL A   1      44.710  34.755  31.270  1.00  0.00     0.029 A 
ATOM     70  C   UNL A   1      44.075  35.286  30.106  1.00  0.00     0.049 A 
ATOM     71  H   UNL A   1      42.427  34.321  29.119  1.00  0.00     0.167 HD
ATOM     72  C   UNL A   1      41.424  35.259  36.440  1.00  0.00     0.034 A 
ATOM     73  C   UNL A   1      44.397  36.500  29.605  1.00  0.00     0.034 A 
ATOM     74  C   UNL A   1      42.532  36.237  36.164  1.00  0.00     0.049 A 
ATOM     75  C   UNL A   1      44.558  37.522  30.725  1.00  0.00     0.074 A 
ATOM     76  C   UNL A   1      43.886  36.270  36.426  1.00  0.00     0.029 A 
ATOM     77  N   UNL A   1      42.408  37.263  35.184  1.00  0.00    -0.354 N 
ATOM     78  N   UNL A   1      44.080  37.415  31.945  1.00  0.00    -0.248 NA
ATOM     79  C   UNL A   1      45.335  38.746  30.534  1.00  0.00     0.031 C 
ATOM     80  C   UNL A   1      44.579  37.180  35.620  1.00  0.00     0.029 A 
ATOM     81  C   UNL A   1      43.656  37.743  34.786  1.00  0.00     0.049 A 
ATOM     82  H   UNL A   1      41.549  37.592  34.832  1.00  0.00     0.167 HD
ATOM     83  C   UNL A   1      44.364  38.574  32.645  1.00  0.00     0.074 A 
ATOM     84  C   UNL A   1      45.203  39.338  31.732  1.00  0.00     0.031 C 
ATOM     85  C   UNL A   1      43.931  38.864  33.918  1.00  0.00     0.034 A 
BRANCH  72  86
ATOM     86  C   UNL A   1      41.208  34.373  37.724  1.00  0.00     0.023 A 
ATOM     87  C   UNL A   1      42.219  33.454  38.054  1.00  0.00     0.012 A 
ATOM     88  C   UNL A   1      40.049  34.242  38.544  1.00  0.00     0.148 A 
ATOM     89  C   UNL A   1      42.263  32.716  39.257  1.00  0.00     0.002 A 
ATOM     90  C   UNL A   1      40.029  33.388  39.687  1.00  0.00     0.091 A 
ATOM     91  F   UNL A   1      38.937  34.911  38.203  1.00  0.00    -0.205 F 
ATOM     92  C   UNL A   1      41.177  32.714  40.102  1.00  0.00     0.022 A 
BRANCH  90  93
ATOM     93  S   UNL A   1      38.508  32.897  40.552  1.00  0.00     0.127 S 
ATOM     94  O   UNL A   1      37.855  31.987  39.602  1.00  0.00    -0.237 OA
ATOM     95  O   UNL A   1      39.010  32.239  41.753  1.00  0.00    -0.237 OA
ATOM     96  O   UNL A   1      37.780  34.146  40.748  1.00  0.00    -0.744 OA
ENDBRANCH  90  93
ENDBRANCH  72  86
BRANCH  73  97
ATOM     97  C   UNL A   1      43.905  36.689  28.215  1.00  0.00     0.023 A 
ATOM     98  C   UNL A   1      42.499  36.869  28.108  1.00  0.00     0.012 A 
ATOM     99  C   UNL A   1      44.752  37.364  27.332  1.00  0.00     0.148 A 
ATOM    100  C   UNL A   1      41.974  37.878  27.298  1.00  0.00     0.002 A 
ATOM    101  C   UNL A   1      44.233  38.451  26.635  1.00  0.00     0.091 A 
ATOM    102  F   UNL A   1      46.067  37.119  27.406  1.00  0.00    -0.205 F 
ATOM    103  C   UNL A   1      42.850  38.715  26.621  1.00  0.00     0.022 A 
BRANCH 101 104
ATOM    104  S   UNL A   1      45.301  39.841  26.212  1.00  0.00     0.127 S 
ATOM    105  O   UNL A   1      45.729  40.321  27.518  1.00  0.00    -0.237 OA
ATOM    106  O   UNL A   1      46.335  39.168  25.426  1.00  0.00    -0.237 OA
ATOM    107  O   UNL A   1      44.459  40.735  25.431  1.00  0.00    -0.744 OA
ENDBRANCH 101 104
ENDBRANCH  73  97
BRANCH  85 108
ATOM    108  C   UNL A   1      44.035  40.216  34.626  1.00  0.00     0.023 A 
ATOM    109  C   UNL A   1      44.760  40.372  35.816  1.00  0.00     0.012 A 
ATOM    110  C   UNL A   1      43.528  41.414  34.030  1.00  0.00     0.148 A 
ATOM    111  C   UNL A   1      44.936  41.632  36.403  1.00  0.00     0.002 A 
ATOM    112  C   UNL A   1      43.770  42.665  34.571  1.00  0.00     0.091 A 
ATOM    113  F   UNL A   1      42.784  41.372  32.922  1.00  0.00    -0.205 F 
ATOM    114  C   UNL A   1      44.461  42.778  35.772  1.00  0.00     0.022 A 
BRANCH 112 115
ATOM    115  S   UNL A   1      43.302  44.178  33.710  1.00  0.00     0.127 S 
ATOM    116  O   UNL A   1      41.885  44.286  34.055  1.00  0.00    -0.237 OA
ATOM    117  O   UNL A   1      44.168  45.165  34.357  1.00  0.00    -0.237 OA
ATOM    118  O   UNL A   1      43.578  43.965  32.296  1.00  0.00    -0.744 OA
ENDBRANCH 112 115
ENDBRANCH  85 108
ENDBRANCH  59  60
ENDBRANCH  52  54
ENDBRANCH  51  52
ENDBRANCH  50  51
ENDBRANCH  49  50
ENDBRANCH  48  49
ENDBRANCH  47  48
ENDBRANCH   1  47
TORSDOF 26
ENDMDL
