MODEL 1
REMARK VINA RESULT:     -11.6      0.000      0.000
REMARK SMILES C#Cc1cc(Cl)c2c(c1)C=C(C(=O)OCCOCCOC(=O)c1ccc(-c3c4nc(c(-c5cccc(S(=O)(=O)[O-])c5F)c5ccc([nH]5)c(-c5cccc(S(=O)(=O)[O-])c5F)c5nc(c(-c6cccc(S(=O)(=O)[O-])c6F)c6ccc3[nH]6)C=C5)C=C4)cc1)[C@@H](C(F)(F)F)O2
REMARK SMILES IDX 18 1 17 2 16 3 15 4 14 5 12 6 13 7 11 8 3 9 4 10 9 11 5 12
REMARK SMILES IDX 8 13 6 14 7 15 10 16 91 17 86 18 2 19 1 20 87 21 88 22 89 23
REMARK SMILES IDX 90 24 19 25 20 26 21 27 22 28 23 29 24 30 85 31 25 32 84 33
REMARK SMILES IDX 26 34 27 35 28 36 78 37 29 38 83 39 77 40 79 41 30 42 82 43
REMARK SMILES IDX 76 44 75 45 31 47 63 48 43 49 62 50 44 51 47 52 61 53 80 54
REMARK SMILES IDX 45 55 46 56 60 58 81 59 48 60 32 61 33 62 41 63 34 64 36 65
REMARK SMILES IDX 42 66 35 67 37 68 38 69 39 70 40 71 64 72 65 73 73 74 66 75
REMARK SMILES IDX 68 76 74 77 67 78 69 79 70 80 71 81 72 82 49 83 50 84 58 85
REMARK SMILES IDX 51 86 53 87 59 88 52 89 54 90 55 91 56 92 57 93
REMARK H PARENT 79 46 47 57
REMARK Flexibility Score: inf
ROOT
ATOM      1  C   UNL A   1      35.209  21.228  24.892  1.00  0.00     0.202 C 
ENDROOT
BRANCH   1   2
ATOM      2  O   UNL A   1      34.028  20.492  24.584  1.00  0.00    -0.374 OA
BRANCH   2   3
ATOM      3  C   UNL A   1      32.890  20.626  25.429  1.00  0.00     0.202 C 
BRANCH   3   4
ATOM      4  C   UNL A   1      32.595  21.982  26.078  1.00  0.00     0.261 C 
BRANCH   4   5
ATOM      5  O   UNL A   1      31.502  22.663  25.452  1.00  0.00    -0.460 OA
BRANCH   5   6
ATOM      6  C   UNL A   1      31.857  23.412  24.383  1.00  0.00     0.338 C 
ATOM      7  O   UNL A   1      32.196  23.005  23.282  1.00  0.00    -0.246 OA
BRANCH   6   8
ATOM      8  C   UNL A   1      31.621  24.837  24.675  1.00  0.00     0.087 C 
ATOM      9  C   UNL A   1      29.603  28.933  23.195  1.00  0.00     0.027 A 
ATOM     10  C   UNL A   1      30.384  29.650  24.100  1.00  0.00     0.041 A 
ATOM     11  C   UNL A   1      29.663  27.539  23.180  1.00  0.00     0.029 A 
ATOM     12  C   UNL A   1      31.208  28.971  25.003  1.00  0.00     0.084 A 
ATOM     13  C   UNL A   1      30.520  26.862  24.055  1.00  0.00     0.020 A 
ATOM     14  Cl  UNL A   1      32.161  29.907  26.097  1.00  0.00    -0.080 Cl
ATOM     15  C   UNL A   1      31.282  27.571  24.987  1.00  0.00     0.146 A 
ATOM     16  C   UNL A   1      30.681  25.428  23.927  1.00  0.00     0.027 C 
ATOM     17  O   UNL A   1      32.092  26.952  25.900  1.00  0.00    -0.474 OA
ATOM     18  C   UNL A   1      32.430  25.547  25.726  1.00  0.00     0.316 C 
BRANCH   9  19
ATOM     19  C   UNL A   1      28.770  29.616  22.257  1.00  0.00    -0.070 C 
ATOM     20  C   UNL A   1      28.049  30.184  21.479  1.00  0.00     0.010 C 
ENDBRANCH   9  19
BRANCH  18  21
ATOM     21  C   UNL A   1      33.941  25.429  25.477  1.00  0.00     0.430 C 
ATOM     22  F   UNL A   1      34.479  24.414  26.188  1.00  0.00    -0.167 F 
ATOM     23  F   UNL A   1      34.216  25.196  24.174  1.00  0.00    -0.167 F 
ATOM     24  F   UNL A   1      34.587  26.566  25.830  1.00  0.00    -0.167 F 
ENDBRANCH  18  21
ENDBRANCH   6   8
ENDBRANCH   5   6
ENDBRANCH   4   5
ENDBRANCH   3   4
ENDBRANCH   2   3
ENDBRANCH   1   2
BRANCH   1  25
ATOM     25  C   UNL A   1      36.538  20.496  25.133  1.00  0.00     0.261 C 
BRANCH  25  26
ATOM     26  O   UNL A   1      37.704  21.310  24.933  1.00  0.00    -0.460 OA
BRANCH  26  27
ATOM     27  C   UNL A   1      38.753  20.982  25.731  1.00  0.00     0.338 C 
ATOM     28  O   UNL A   1      39.305  19.898  25.813  1.00  0.00    -0.246 OA
BRANCH  27  29
ATOM     29  C   UNL A   1      39.287  22.195  26.372  1.00  0.00     0.060 A 
ATOM     30  C   UNL A   1      38.715  23.427  26.030  1.00  0.00     0.016 A 
ATOM     31  C   UNL A   1      40.392  22.130  27.219  1.00  0.00     0.016 A 
ATOM     32  C   UNL A   1      39.270  24.608  26.511  1.00  0.00     0.010 A 
ATOM     33  C   UNL A   1      40.955  23.318  27.689  1.00  0.00     0.010 A 
ATOM     34  C   UNL A   1      40.418  24.562  27.309  1.00  0.00    -0.014 A 
BRANCH  34  35
ATOM     35  C   UNL A   1      41.138  25.819  27.625  1.00  0.00     0.031 A 
ATOM     36  C   UNL A   1      40.424  26.895  28.395  1.00  0.00     0.074 A 
ATOM     37  C   UNL A   1      42.419  25.985  27.251  1.00  0.00     0.049 A 
ATOM     38  N   UNL A   1      40.850  28.080  28.744  1.00  0.00    -0.248 NA
ATOM     39  C   UNL A   1      39.047  26.602  28.829  1.00  0.00     0.031 C 
ATOM     40  C   UNL A   1      43.221  25.000  26.525  1.00  0.00     0.029 A 
ATOM     41  N   UNL A   1      43.267  27.053  27.416  1.00  0.00    -0.354 N 
ATOM     42  C   UNL A   1      39.792  28.682  29.414  1.00  0.00     0.074 A 
ATOM     43  C   UNL A   1      38.694  27.740  29.408  1.00  0.00     0.031 C 
ATOM     44  C   UNL A   1      44.439  25.515  26.293  1.00  0.00     0.029 A 
ATOM     45  C   UNL A   1      44.493  26.878  26.820  1.00  0.00     0.049 A 
ATOM     46  H   UNL A   1      43.020  27.865  27.914  1.00  0.00     0.167 HD
ATOM     47  C   UNL A   1      39.746  29.901  29.998  1.00  0.00     0.034 A 
ATOM     48  C   UNL A   1      45.531  27.729  26.692  1.00  0.00     0.034 A 
ATOM     49  C   UNL A   1      40.851  30.822  30.021  1.00  0.00     0.049 A 
ATOM     50  C   UNL A   1      45.433  29.102  27.309  1.00  0.00     0.074 A 
ATOM     51  C   UNL A   1      40.912  32.068  30.620  1.00  0.00     0.029 A 
ATOM     52  N   UNL A   1      42.080  30.608  29.417  1.00  0.00    -0.354 N 
ATOM     53  N   UNL A   1      44.461  29.620  28.018  1.00  0.00    -0.248 NA
ATOM     54  C   UNL A   1      46.587  29.997  27.132  1.00  0.00     0.031 C 
ATOM     55  C   UNL A   1      42.161  32.626  30.339  1.00  0.00     0.029 A 
ATOM     56  C   UNL A   1      42.899  31.705  29.612  1.00  0.00     0.049 A 
ATOM     57  H   UNL A   1      42.332  29.794  28.923  1.00  0.00     0.167 HD
ATOM     58  C   UNL A   1      44.899  30.884  28.403  1.00  0.00     0.074 A 
ATOM     59  C   UNL A   1      46.234  31.043  27.868  1.00  0.00     0.031 C 
ATOM     60  C   UNL A   1      44.247  31.833  29.121  1.00  0.00     0.034 A 
BRANCH  47  61
ATOM     61  C   UNL A   1      38.478  30.316  30.699  1.00  0.00     0.023 A 
ATOM     62  C   UNL A   1      38.335  30.076  32.079  1.00  0.00     0.012 A 
ATOM     63  C   UNL A   1      37.489  31.052  30.017  1.00  0.00     0.148 A 
ATOM     64  C   UNL A   1      37.222  30.554  32.770  1.00  0.00     0.002 A 
ATOM     65  C   UNL A   1      36.409  31.570  30.721  1.00  0.00     0.091 A 
ATOM     66  F   UNL A   1      37.637  31.253  28.699  1.00  0.00    -0.205 F 
ATOM     67  C   UNL A   1      36.269  31.314  32.095  1.00  0.00     0.022 A 
BRANCH  65  68
ATOM     68  S   UNL A   1      35.178  32.638  29.968  1.00  0.00     0.127 S 
ATOM     69  O   UNL A   1      34.295  32.915  31.101  1.00  0.00    -0.237 OA
ATOM     70  O   UNL A   1      35.988  33.776  29.535  1.00  0.00    -0.237 OA
ATOM     71  O   UNL A   1      34.575  31.867  28.890  1.00  0.00    -0.744 OA
ENDBRANCH  65  68
ENDBRANCH  47  61
BRANCH  48  72
ATOM     72  C   UNL A   1      46.767  27.299  25.977  1.00  0.00     0.023 A 
ATOM     73  C   UNL A   1      46.890  27.537  24.595  1.00  0.00     0.012 A 
ATOM     74  C   UNL A   1      47.828  26.671  26.660  1.00  0.00     0.148 A 
ATOM     75  C   UNL A   1      48.030  27.131  23.899  1.00  0.00     0.002 A 
ATOM     76  C   UNL A   1      48.986  26.326  25.974  1.00  0.00     0.091 A 
ATOM     77  F   UNL A   1      47.687  26.438  27.972  1.00  0.00    -0.205 F 
ATOM     78  C   UNL A   1      49.082  26.537  24.591  1.00  0.00     0.022 A 
BRANCH  76  79
ATOM     79  S   UNL A   1      50.443  25.681  26.802  1.00  0.00     0.127 S 
ATOM     80  O   UNL A   1      49.935  24.437  27.376  1.00  0.00    -0.237 OA
ATOM     81  O   UNL A   1      51.370  25.511  25.683  1.00  0.00    -0.237 OA
ATOM     82  O   UNL A   1      50.837  26.702  27.763  1.00  0.00    -0.744 OA
ENDBRANCH  76  79
ENDBRANCH  48  72
BRANCH  60  83
ATOM     83  C   UNL A   1      44.965  33.129  29.409  1.00  0.00     0.023 A 
ATOM     84  C   UNL A   1      45.785  33.239  30.548  1.00  0.00     0.012 A 
ATOM     85  C   UNL A   1      44.920  34.194  28.485  1.00  0.00     0.148 A 
ATOM     86  C   UNL A   1      46.527  34.397  30.780  1.00  0.00     0.002 A 
ATOM     87  C   UNL A   1      45.708  35.320  28.691  1.00  0.00     0.091 A 
ATOM     88  F   UNL A   1      44.126  34.074  27.411  1.00  0.00    -0.205 F 
ATOM     89  C   UNL A   1      46.500  35.430  29.844  1.00  0.00     0.022 A 
BRANCH  87  90
ATOM     90  S   UNL A   1      45.828  36.652  27.491  1.00  0.00     0.127 S 
ATOM     91  O   UNL A   1      44.475  37.208  27.527  1.00  0.00    -0.237 OA
ATOM     92  O   UNL A   1      46.855  37.508  28.086  1.00  0.00    -0.237 OA
ATOM     93  O   UNL A   1      46.208  36.030  26.230  1.00  0.00    -0.744 OA
ENDBRANCH  87  90
ENDBRANCH  60  83
ENDBRANCH  34  35
ENDBRANCH  27  29
ENDBRANCH  26  27
ENDBRANCH  25  26
ENDBRANCH   1  25
TORSDOF 19
ENDMDL
MODEL 2
REMARK VINA RESULT:     -11.5      1.955      2.329
REMARK SMILES C#Cc1cc(Cl)c2c(c1)C=C(C(=O)OCCOCCOC(=O)c1ccc(-c3c4nc(c(-c5cccc(S(=O)(=O)[O-])c5F)c5ccc([nH]5)c(-c5cccc(S(=O)(=O)[O-])c5F)c5nc(c(-c6cccc(S(=O)(=O)[O-])c6F)c6ccc3[nH]6)C=C5)C=C4)cc1)[C@@H](C(F)(F)F)O2
REMARK SMILES IDX 18 1 17 2 16 3 15 4 14 5 12 6 13 7 11 8 3 9 4 10 9 11 5 12
REMARK SMILES IDX 8 13 6 14 7 15 10 16 91 17 86 18 2 19 1 20 87 21 88 22 89 23
REMARK SMILES IDX 90 24 19 25 20 26 21 27 22 28 23 29 24 30 85 31 25 32 84 33
REMARK SMILES IDX 26 34 27 35 28 36 78 37 29 38 83 39 77 40 79 41 30 42 82 43
REMARK SMILES IDX 76 44 75 45 31 47 63 48 43 49 62 50 44 51 47 52 61 53 80 54
REMARK SMILES IDX 45 55 46 56 60 58 81 59 48 60 32 61 33 62 41 63 34 64 36 65
REMARK SMILES IDX 42 66 35 67 37 68 38 69 39 70 40 71 64 72 65 73 73 74 66 75
REMARK SMILES IDX 68 76 74 77 67 78 69 79 70 80 71 81 72 82 49 83 50 84 58 85
REMARK SMILES IDX 51 86 53 87 59 88 52 89 54 90 55 91 56 92 57 93
REMARK H PARENT 79 46 47 57
REMARK Flexibility Score: inf
ROOT
ATOM      1  C   UNL A   1      35.296  20.812  25.277  1.00  0.00     0.202 C 
ENDROOT
BRANCH   1   2
ATOM      2  O   UNL A   1      34.069  20.861  26.001  1.00  0.00    -0.374 OA
BRANCH   2   3
ATOM      3  C   UNL A   1      34.035  21.525  27.260  1.00  0.00     0.202 C 
BRANCH   3   4
ATOM      4  C   UNL A   1      32.878  22.481  27.571  1.00  0.00     0.261 C 
BRANCH   4   5
ATOM      5  O   UNL A   1      31.881  22.488  26.544  1.00  0.00    -0.460 OA
BRANCH   5   6
ATOM      6  C   UNL A   1      31.061  23.564  26.577  1.00  0.00     0.338 C 
ATOM      7  O   UNL A   1      29.990  23.653  27.158  1.00  0.00    -0.246 OA
BRANCH   6   8
ATOM      8  C   UNL A   1      31.724  24.712  25.932  1.00  0.00     0.087 C 
ATOM      9  C   UNL A   1      32.136  29.490  25.742  1.00  0.00     0.027 A 
ATOM     10  C   UNL A   1      32.764  29.391  24.501  1.00  0.00     0.041 A 
ATOM     11  C   UNL A   1      31.798  28.332  26.443  1.00  0.00     0.029 A 
ATOM     12  C   UNL A   1      33.073  28.133  23.974  1.00  0.00     0.084 A 
ATOM     13  C   UNL A   1      32.069  27.073  25.893  1.00  0.00     0.020 A 
ATOM     14  Cl  UNL A   1      33.844  28.067  22.429  1.00  0.00    -0.080 Cl
ATOM     15  C   UNL A   1      32.727  26.965  24.666  1.00  0.00     0.146 A 
ATOM     16  C   UNL A   1      31.581  25.885  26.562  1.00  0.00     0.027 C 
ATOM     17  O   UNL A   1      33.064  25.759  24.115  1.00  0.00    -0.474 OA
ATOM     18  C   UNL A   1      32.468  24.537  24.637  1.00  0.00     0.316 C 
BRANCH   9  19
ATOM     19  C   UNL A   1      31.801  30.768  26.284  1.00  0.00    -0.070 C 
ATOM     20  C   UNL A   1      31.498  31.844  26.729  1.00  0.00     0.010 C 
ENDBRANCH   9  19
BRANCH  18  21
ATOM     21  C   UNL A   1      31.594  23.907  23.543  1.00  0.00     0.430 C 
ATOM     22  F   UNL A   1      31.711  22.561  23.534  1.00  0.00    -0.167 F 
ATOM     23  F   UNL A   1      30.284  24.194  23.722  1.00  0.00    -0.167 F 
ATOM     24  F   UNL A   1      31.942  24.358  22.314  1.00  0.00    -0.167 F 
ENDBRANCH  18  21
ENDBRANCH   6   8
ENDBRANCH   5   6
ENDBRANCH   4   5
ENDBRANCH   3   4
ENDBRANCH   2   3
ENDBRANCH   1   2
BRANCH   1  25
ATOM     25  C   UNL A   1      36.520  21.598  25.773  1.00  0.00     0.261 C 
BRANCH  25  26
ATOM     26  O   UNL A   1      37.716  21.365  25.014  1.00  0.00    -0.460 OA
BRANCH  26  27
ATOM     27  C   UNL A   1      38.800  21.049  25.770  1.00  0.00     0.338 C 
ATOM     28  O   UNL A   1      39.375  19.974  25.820  1.00  0.00    -0.246 OA
BRANCH  27  29
ATOM     29  C   UNL A   1      39.334  22.264  26.405  1.00  0.00     0.060 A 
ATOM     30  C   UNL A   1      38.807  23.500  26.009  1.00  0.00     0.016 A 
ATOM     31  C   UNL A   1      40.399  22.196  27.302  1.00  0.00     0.016 A 
ATOM     32  C   UNL A   1      39.369  24.681  26.485  1.00  0.00     0.010 A 
ATOM     33  C   UNL A   1      40.969  23.382  27.767  1.00  0.00     0.010 A 
ATOM     34  C   UNL A   1      40.480  24.628  27.334  1.00  0.00    -0.014 A 
BRANCH  34  35
ATOM     35  C   UNL A   1      41.215  25.875  27.652  1.00  0.00     0.031 A 
ATOM     36  C   UNL A   1      40.518  26.955  28.434  1.00  0.00     0.074 A 
ATOM     37  C   UNL A   1      42.494  26.031  27.268  1.00  0.00     0.049 A 
ATOM     38  N   UNL A   1      40.960  28.132  28.787  1.00  0.00    -0.248 NA
ATOM     39  C   UNL A   1      39.142  26.672  28.878  1.00  0.00     0.031 C 
ATOM     40  C   UNL A   1      43.280  25.042  26.529  1.00  0.00     0.029 A 
ATOM     41  N   UNL A   1      43.354  27.089  27.432  1.00  0.00    -0.354 N 
ATOM     42  C   UNL A   1      39.913  28.742  29.469  1.00  0.00     0.074 A 
ATOM     43  C   UNL A   1      38.806  27.811  29.466  1.00  0.00     0.031 C 
ATOM     44  C   UNL A   1      44.501  25.546  26.290  1.00  0.00     0.029 A 
ATOM     45  C   UNL A   1      44.574  26.905  26.824  1.00  0.00     0.049 A 
ATOM     46  H   UNL A   1      43.120  27.900  27.937  1.00  0.00     0.167 HD
ATOM     47  C   UNL A   1      39.885  29.958  30.061  1.00  0.00     0.034 A 
ATOM     48  C   UNL A   1      45.619  27.746  26.693  1.00  0.00     0.034 A 
ATOM     49  C   UNL A   1      41.000  30.867  30.079  1.00  0.00     0.049 A 
ATOM     50  C   UNL A   1      45.541  29.116  27.319  1.00  0.00     0.074 A 
ATOM     51  C   UNL A   1      41.078  32.109  30.685  1.00  0.00     0.029 A 
ATOM     52  N   UNL A   1      42.221  30.644  29.464  1.00  0.00    -0.354 N 
ATOM     53  N   UNL A   1      44.580  29.640  28.040  1.00  0.00    -0.248 NA
ATOM     54  C   UNL A   1      46.702  30.001  27.137  1.00  0.00     0.031 C 
ATOM     55  C   UNL A   1      42.331  32.655  30.397  1.00  0.00     0.029 A 
ATOM     56  C   UNL A   1      43.053  31.732  29.659  1.00  0.00     0.049 A 
ATOM     57  H   UNL A   1      42.460  29.830  28.963  1.00  0.00     0.167 HD
ATOM     58  C   UNL A   1      45.033  30.897  28.428  1.00  0.00     0.074 A 
ATOM     59  C   UNL A   1      46.366  31.046  27.882  1.00  0.00     0.031 C 
ATOM     60  C   UNL A   1      44.397  31.848  29.156  1.00  0.00     0.034 A 
BRANCH  47  61
ATOM     61  C   UNL A   1      38.627  30.380  30.774  1.00  0.00     0.023 A 
ATOM     62  C   UNL A   1      38.512  30.176  32.163  1.00  0.00     0.012 A 
ATOM     63  C   UNL A   1      37.619  31.091  30.093  1.00  0.00     0.148 A 
ATOM     64  C   UNL A   1      37.409  30.664  32.862  1.00  0.00     0.002 A 
ATOM     65  C   UNL A   1      36.549  31.619  30.803  1.00  0.00     0.091 A 
ATOM     66  F   UNL A   1      37.740  31.259  28.767  1.00  0.00    -0.205 F 
ATOM     67  C   UNL A   1      36.437  31.399  32.186  1.00  0.00     0.022 A 
BRANCH  65  68
ATOM     68  S   UNL A   1      35.295  32.658  30.047  1.00  0.00     0.127 S 
ATOM     69  O   UNL A   1      36.088  33.808  29.613  1.00  0.00    -0.237 OA
ATOM     70  O   UNL A   1      34.811  31.807  28.960  1.00  0.00    -0.237 OA
ATOM     71  O   UNL A   1      34.318  32.940  31.089  1.00  0.00    -0.744 OA
ENDBRANCH  65  68
ENDBRANCH  47  61
BRANCH  48  72
ATOM     72  C   UNL A   1      46.845  27.308  25.965  1.00  0.00     0.023 A 
ATOM     73  C   UNL A   1      47.783  26.485  26.616  1.00  0.00     0.012 A 
ATOM     74  C   UNL A   1      47.078  27.687  24.628  1.00  0.00     0.148 A 
ATOM     75  C   UNL A   1      48.946  26.073  25.963  1.00  0.00     0.002 A 
ATOM     76  C   UNL A   1      48.206  27.221  23.962  1.00  0.00     0.091 A 
ATOM     77  F   UNL A   1      46.182  28.483  24.029  1.00  0.00    -0.205 F 
ATOM     78  C   UNL A   1      49.151  26.431  24.633  1.00  0.00     0.022 A 
BRANCH  76  79
ATOM     79  S   UNL A   1      48.486  27.517  22.213  1.00  0.00     0.127 S 
ATOM     80  O   UNL A   1      47.253  28.195  21.823  1.00  0.00    -0.237 OA
ATOM     81  O   UNL A   1      49.676  28.369  22.243  1.00  0.00    -0.237 OA
ATOM     82  O   UNL A   1      48.698  26.205  21.619  1.00  0.00    -0.744 OA
ENDBRANCH  76  79
ENDBRANCH  48  72
BRANCH  60  83
ATOM     83  C   UNL A   1      45.131  33.135  29.446  1.00  0.00     0.023 A 
ATOM     84  C   UNL A   1      45.969  33.227  30.574  1.00  0.00     0.012 A 
ATOM     85  C   UNL A   1      45.081  34.210  28.534  1.00  0.00     0.148 A 
ATOM     86  C   UNL A   1      46.725  34.376  30.806  1.00  0.00     0.002 A 
ATOM     87  C   UNL A   1      45.882  35.327  28.738  1.00  0.00     0.091 A 
ATOM     88  F   UNL A   1      44.270  34.108  27.470  1.00  0.00    -0.205 F 
ATOM     89  C   UNL A   1      46.693  35.418  29.881  1.00  0.00     0.022 A 
BRANCH  87  90
ATOM     90  S   UNL A   1      45.996  36.670  27.550  1.00  0.00     0.127 S 
ATOM     91  O   UNL A   1      46.465  35.970  26.355  1.00  0.00    -0.237 OA
ATOM     92  O   UNL A   1      44.611  37.135  27.480  1.00  0.00    -0.237 OA
ATOM     93  O   UNL A   1      46.934  37.632  28.113  1.00  0.00    -0.744 OA
ENDBRANCH  87  90
ENDBRANCH  60  83
ENDBRANCH  34  35
ENDBRANCH  27  29
ENDBRANCH  26  27
ENDBRANCH  25  26
ENDBRANCH   1  25
TORSDOF 19
ENDMDL
MODEL 3
REMARK VINA RESULT:     -11.3      5.254     10.323
REMARK SMILES C#Cc1cc(Cl)c2c(c1)C=C(C(=O)OCCOCCOC(=O)c1ccc(-c3c4nc(c(-c5cccc(S(=O)(=O)[O-])c5F)c5ccc([nH]5)c(-c5cccc(S(=O)(=O)[O-])c5F)c5nc(c(-c6cccc(S(=O)(=O)[O-])c6F)c6ccc3[nH]6)C=C5)C=C4)cc1)[C@@H](C(F)(F)F)O2
REMARK SMILES IDX 18 1 17 2 16 3 15 4 14 5 12 6 13 7 11 8 3 9 4 10 9 11 5 12
REMARK SMILES IDX 8 13 6 14 7 15 10 16 91 17 86 18 2 19 1 20 87 21 88 22 89 23
REMARK SMILES IDX 90 24 19 25 20 26 21 27 22 28 23 29 24 30 85 31 25 32 84 33
REMARK SMILES IDX 26 34 27 35 28 36 78 37 29 38 83 39 77 40 79 41 30 42 82 43
REMARK SMILES IDX 76 44 75 45 31 47 63 48 43 49 62 50 44 51 47 52 61 53 80 54
REMARK SMILES IDX 45 55 46 56 60 58 81 59 48 60 32 61 33 62 41 63 34 64 36 65
REMARK SMILES IDX 42 66 35 67 37 68 38 69 39 70 40 71 64 72 65 73 73 74 66 75
REMARK SMILES IDX 68 76 74 77 67 78 69 79 70 80 71 81 72 82 49 83 50 84 58 85
REMARK SMILES IDX 51 86 53 87 59 88 52 89 54 90 55 91 56 92 57 93
REMARK H PARENT 79 46 47 57
REMARK Flexibility Score: inf
ROOT
ATOM      1  C   UNL A   1      31.791  30.689  26.666  1.00  0.00     0.202 C 
ENDROOT
BRANCH   1   2
ATOM      2  O   UNL A   1      31.869  30.082  25.378  1.00  0.00    -0.374 OA
BRANCH   2   3
ATOM      3  C   UNL A   1      33.093  29.481  24.970  1.00  0.00     0.202 C 
BRANCH   3   4
ATOM      4  C   UNL A   1      33.260  29.037  23.513  1.00  0.00     0.261 C 
BRANCH   4   5
ATOM      5  O   UNL A   1      34.062  27.857  23.388  1.00  0.00    -0.460 OA
BRANCH   5   6
ATOM      6  C   UNL A   1      33.473  26.861  22.687  1.00  0.00     0.338 C 
ATOM      7  O   UNL A   1      33.443  26.737  21.473  1.00  0.00    -0.246 OA
BRANCH   6   8
ATOM      8  C   UNL A   1      32.991  25.820  23.614  1.00  0.00     0.087 C 
ATOM      9  C   UNL A   1      33.133  21.177  24.821  1.00  0.00     0.027 A 
ATOM     10  C   UNL A   1      31.986  21.339  25.596  1.00  0.00     0.041 A 
ATOM     11  C   UNL A   1      33.714  22.285  24.202  1.00  0.00     0.029 A 
ATOM     12  C   UNL A   1      31.434  22.612  25.769  1.00  0.00     0.084 A 
ATOM     13  C   UNL A   1      33.135  23.551  24.340  1.00  0.00     0.020 A 
ATOM     14  Cl  UNL A   1      30.008  22.756  26.732  1.00  0.00    -0.080 Cl
ATOM     15  C   UNL A   1      32.005  23.728  25.142  1.00  0.00     0.146 A 
ATOM     16  C   UNL A   1      33.662  24.663  23.575  1.00  0.00     0.027 C 
ATOM     17  O   UNL A   1      31.436  24.955  25.354  1.00  0.00    -0.474 OA
ATOM     18  C   UNL A   1      31.802  26.074  24.497  1.00  0.00     0.316 C 
BRANCH   9  19
ATOM     19  C   UNL A   1      33.697  19.880  24.624  1.00  0.00    -0.070 C 
ATOM     20  C   UNL A   1      34.154  18.778  24.470  1.00  0.00     0.010 C 
ENDBRANCH   9  19
BRANCH  18  21
ATOM     21  C   UNL A   1      30.564  26.510  23.699  1.00  0.00     0.430 C 
ATOM     22  F   UNL A   1      30.752  26.345  22.371  1.00  0.00    -0.167 F 
ATOM     23  F   UNL A   1      29.471  25.792  24.041  1.00  0.00    -0.167 F 
ATOM     24  F   UNL A   1      30.275  27.815  23.914  1.00  0.00    -0.167 F 
ENDBRANCH  18  21
ENDBRANCH   6   8
ENDBRANCH   5   6
ENDBRANCH   4   5
ENDBRANCH   3   4
ENDBRANCH   2   3
ENDBRANCH   1   2
BRANCH   1  25
ATOM     25  C   UNL A   1      31.602  32.208  26.797  1.00  0.00     0.261 C 
BRANCH  25  26
ATOM     26  O   UNL A   1      32.809  32.968  26.640  1.00  0.00    -0.460 OA
BRANCH  26  27
ATOM     27  C   UNL A   1      33.266  33.528  27.791  1.00  0.00     0.338 C 
ATOM     28  O   UNL A   1      32.686  34.335  28.497  1.00  0.00    -0.246 OA
BRANCH  27  29
ATOM     29  C   UNL A   1      34.518  32.871  28.199  1.00  0.00     0.060 A 
ATOM     30  C   UNL A   1      34.443  31.573  28.720  1.00  0.00     0.016 A 
ATOM     31  C   UNL A   1      35.732  33.555  28.159  1.00  0.00     0.016 A 
ATOM     32  C   UNL A   1      35.581  30.964  29.238  1.00  0.00     0.010 A 
ATOM     33  C   UNL A   1      36.870  32.947  28.692  1.00  0.00     0.010 A 
ATOM     34  C   UNL A   1      36.793  31.664  29.264  1.00  0.00    -0.014 A 
BRANCH  34  35
ATOM     35  C   UNL A   1      37.940  31.108  30.020  1.00  0.00     0.031 A 
ATOM     36  C   UNL A   1      38.813  30.073  29.366  1.00  0.00     0.074 A 
ATOM     37  C   UNL A   1      38.213  31.541  31.264  1.00  0.00     0.049 A 
ATOM     38  N   UNL A   1      39.839  29.431  29.857  1.00  0.00    -0.248 NA
ATOM     39  C   UNL A   1      38.487  29.710  27.976  1.00  0.00     0.031 C 
ATOM     40  C   UNL A   1      37.453  32.560  31.988  1.00  0.00     0.029 A 
ATOM     41  N   UNL A   1      39.195  31.164  32.146  1.00  0.00    -0.354 N 
ATOM     42  C   UNL A   1      40.266  28.572  28.851  1.00  0.00     0.074 A 
ATOM     43  C   UNL A   1      39.377  28.760  27.726  1.00  0.00     0.031 C 
ATOM     44  C   UNL A   1      37.988  32.716  33.211  1.00  0.00     0.029 A 
ATOM     45  C   UNL A   1      39.103  31.784  33.370  1.00  0.00     0.049 A 
ATOM     46  H   UNL A   1      39.899  30.513  31.923  1.00  0.00     0.167 HD
ATOM     47  C   UNL A   1      41.317  27.720  28.858  1.00  0.00     0.034 A 
ATOM     48  C   UNL A   1      39.820  31.603  34.497  1.00  0.00     0.034 A 
ATOM     49  C   UNL A   1      42.211  27.558  29.973  1.00  0.00     0.049 A 
ATOM     50  C   UNL A   1      40.954  30.608  34.492  1.00  0.00     0.074 A 
ATOM     51  C   UNL A   1      43.327  26.743  30.060  1.00  0.00     0.029 A 
ATOM     52  N   UNL A   1      42.095  28.209  31.190  1.00  0.00    -0.354 N 
ATOM     53  N   UNL A   1      41.402  29.873  33.504  1.00  0.00    -0.248 NA
ATOM     54  C   UNL A   1      41.698  30.437  35.749  1.00  0.00     0.031 C 
ATOM     55  C   UNL A   1      43.857  26.868  31.347  1.00  0.00     0.029 A 
ATOM     56  C   UNL A   1      43.105  27.801  32.042  1.00  0.00     0.049 A 
ATOM     57  H   UNL A   1      41.395  28.866  31.414  1.00  0.00     0.167 HD
ATOM     58  C   UNL A   1      42.501  29.182  34.007  1.00  0.00     0.074 A 
ATOM     59  C   UNL A   1      42.665  29.606  35.381  1.00  0.00     0.031 C 
ATOM     60  C   UNL A   1      43.291  28.269  33.391  1.00  0.00     0.034 A 
BRANCH  47  61
ATOM     61  C   UNL A   1      41.595  26.913  27.617  1.00  0.00     0.023 A 
ATOM     62  C   UNL A   1      42.215  27.526  26.511  1.00  0.00     0.012 A 
ATOM     63  C   UNL A   1      41.358  25.523  27.595  1.00  0.00     0.148 A 
ATOM     64  C   UNL A   1      42.586  26.772  25.398  1.00  0.00     0.002 A 
ATOM     65  C   UNL A   1      41.778  24.770  26.506  1.00  0.00     0.091 A 
ATOM     66  F   UNL A   1      40.750  24.963  28.652  1.00  0.00    -0.205 F 
ATOM     67  C   UNL A   1      42.383  25.394  25.403  1.00  0.00     0.022 A 
BRANCH  65  68
ATOM     68  S   UNL A   1      41.650  22.981  26.453  1.00  0.00     0.127 S 
ATOM     69  O   UNL A   1      42.341  22.598  27.683  1.00  0.00    -0.237 OA
ATOM     70  O   UNL A   1      40.201  22.778  26.480  1.00  0.00    -0.237 OA
ATOM     71  O   UNL A   1      42.305  22.563  25.221  1.00  0.00    -0.744 OA
ENDBRANCH  65  68
ENDBRANCH  47  61
BRANCH  48  72
ATOM     72  C   UNL A   1      39.511  32.403  35.717  1.00  0.00     0.023 A 
ATOM     73  C   UNL A   1      40.086  33.678  35.876  1.00  0.00     0.012 A 
ATOM     74  C   UNL A   1      38.640  31.915  36.711  1.00  0.00     0.148 A 
ATOM     75  C   UNL A   1      39.824  34.441  37.015  1.00  0.00     0.002 A 
ATOM     76  C   UNL A   1      38.334  32.706  37.813  1.00  0.00     0.091 A 
ATOM     77  F   UNL A   1      38.115  30.693  36.551  1.00  0.00    -0.205 F 
ATOM     78  C   UNL A   1      38.940  33.960  37.977  1.00  0.00     0.022 A 
BRANCH  76  79
ATOM     79  S   UNL A   1      37.105  32.229  39.033  1.00  0.00     0.127 S 
ATOM     80  O   UNL A   1      35.869  32.701  38.412  1.00  0.00    -0.237 OA
ATOM     81  O   UNL A   1      37.264  30.775  39.062  1.00  0.00    -0.237 OA
ATOM     82  O   UNL A   1      37.487  32.904  40.265  1.00  0.00    -0.744 OA
ENDBRANCH  76  79
ENDBRANCH  48  72
BRANCH  60  83
ATOM     83  C   UNL A   1      44.436  27.672  34.174  1.00  0.00     0.023 A 
ATOM     84  C   UNL A   1      45.675  28.340  34.226  1.00  0.00     0.012 A 
ATOM     85  C   UNL A   1      44.244  26.513  34.954  1.00  0.00     0.148 A 
ATOM     86  C   UNL A   1      46.713  27.851  35.018  1.00  0.00     0.002 A 
ATOM     87  C   UNL A   1      45.263  26.064  35.787  1.00  0.00     0.091 A 
ATOM     88  F   UNL A   1      43.061  25.884  34.884  1.00  0.00    -0.205 F 
ATOM     89  C   UNL A   1      46.502  26.723  35.809  1.00  0.00     0.022 A 
BRANCH  87  90
ATOM     90  S   UNL A   1      45.051  24.690  36.925  1.00  0.00     0.127 S 
ATOM     91  O   UNL A   1      44.799  23.580  36.007  1.00  0.00    -0.237 OA
ATOM     92  O   UNL A   1      46.350  24.645  37.596  1.00  0.00    -0.237 OA
ATOM     93  O   UNL A   1      43.932  25.046  37.787  1.00  0.00    -0.744 OA
ENDBRANCH  87  90
ENDBRANCH  60  83
ENDBRANCH  34  35
ENDBRANCH  27  29
ENDBRANCH  26  27
ENDBRANCH  25  26
ENDBRANCH   1  25
TORSDOF 19
ENDMDL
