MODEL 1
REMARK VINA RESULT:     -12.2      0.000      0.000
REMARK SMILES O=C(CC1(C(=O)OCCOCCOC(=O)c2ccc(-c3c4nc(c(-c5cccc(S(=O)(=O)[O-])c5F)c5ccc([nH]5)c(-c5cccc(S(=O)(=O)[O-])c5F)c5nc(c(-c6cccc(S(=O)(=O)[O-])c6F)c6ccc3[nH]6)C=C5)C=C4)cc2)CCCCC1)Nc1ccc(N2CCOC2=O)cc1
REMARK SMILES IDX 9 1 8 2 7 3 5 4 6 5 4 6 79 7 83 8 80 9 82 10 81 11 3 12 2 13
REMARK SMILES IDX 1 14 84 15 85 17 86 18 96 19 87 20 95 21 88 22 89 23 90 24
REMARK SMILES IDX 93 25 91 26 92 27 94 28 10 29 11 30 12 31 13 32 14 33 15 34
REMARK SMILES IDX 16 35 17 36 78 37 18 38 77 39 19 40 20 41 21 42 71 43 22 44
REMARK SMILES IDX 76 45 70 46 72 47 23 48 75 49 69 50 68 51 24 53 56 54 36 55
REMARK SMILES IDX 55 56 37 57 40 58 54 59 73 60 38 61 39 62 53 64 74 65 41 66
REMARK SMILES IDX 25 67 26 68 34 69 27 70 29 71 35 72 28 73 30 74 31 75 32 76
REMARK SMILES IDX 33 77 57 78 58 79 66 80 59 81 61 82 67 83 60 84 62 85 63 86
REMARK SMILES IDX 64 87 65 88 42 89 43 90 51 91 44 92 46 93 52 94 45 95 47 96
REMARK SMILES IDX 48 97 49 98 50 99
REMARK H PARENT 84 16 72 52 40 63
REMARK Flexibility Score: inf
ROOT
ATOM      1  C   UNL A   1      33.605  28.042  26.498  1.00  0.00     0.202 C 
ENDROOT
BRANCH   1   2
ATOM      2  C   UNL A   1      33.649  26.572  26.078  1.00  0.00     0.261 C 
BRANCH   2   3
ATOM      3  O   UNL A   1      33.674  26.425  24.651  1.00  0.00    -0.463 OA
BRANCH   3   4
ATOM      4  C   UNL A   1      32.507  26.034  24.092  1.00  0.00     0.312 C 
ATOM      5  O   UNL A   1      31.625  25.445  24.707  1.00  0.00    -0.252 OA
BRANCH   4   6
ATOM      6  C   UNL A   1      32.402  26.299  22.581  1.00  0.00     0.077 C 
ATOM      7  C   UNL A   1      33.339  27.511  22.324  1.00  0.00     0.019 C 
ATOM      8  C   UNL A   1      30.983  26.683  22.066  1.00  0.00     0.019 C 
ATOM      9  C   UNL A   1      32.799  28.798  22.957  1.00  0.00     0.001 C 
ATOM     10  C   UNL A   1      30.428  28.013  22.570  1.00  0.00     0.001 C 
ATOM     11  C   UNL A   1      31.423  29.152  22.410  1.00  0.00     0.000 C 
BRANCH   6  12
ATOM     12  C   UNL A   1      32.856  25.056  21.736  1.00  0.00     0.119 C 
BRANCH  12  13
ATOM     13  C   UNL A   1      33.304  23.729  22.362  1.00  0.00     0.225 C 
ATOM     14  O   UNL A   1      34.503  23.464  22.434  1.00  0.00    -0.275 OA
ATOM     15  N   UNL A   1      32.287  22.948  22.848  1.00  0.00    -0.326 N 
ATOM     16  H   UNL A   1      31.387  23.346  22.846  1.00  0.00     0.169 HD
BRANCH  15  17
ATOM     17  C   UNL A   1      32.396  21.640  23.350  1.00  0.00     0.041 A 
ATOM     18  C   UNL A   1      32.093  20.615  22.446  1.00  0.00     0.028 A 
ATOM     19  C   UNL A   1      32.816  21.317  24.636  1.00  0.00     0.028 A 
ATOM     20  C   UNL A   1      32.291  19.282  22.790  1.00  0.00     0.028 A 
ATOM     21  C   UNL A   1      32.921  19.972  25.014  1.00  0.00     0.028 A 
ATOM     22  C   UNL A   1      32.690  18.950  24.083  1.00  0.00     0.047 A 
BRANCH  22  23
ATOM     23  N   UNL A   1      32.895  17.608  24.431  1.00  0.00    -0.274 N 
ATOM     24  C   UNL A   1      32.511  17.052  25.687  1.00  0.00     0.171 C 
ATOM     25  C   UNL A   1      33.553  16.668  23.670  1.00  0.00     0.414 C 
ATOM     26  C   UNL A   1      32.617  15.573  25.412  1.00  0.00     0.257 C 
ATOM     27  O   UNL A   1      33.543  15.463  24.327  1.00  0.00    -0.447 OA
ATOM     28  O   UNL A   1      34.124  16.826  22.597  1.00  0.00    -0.224 OA
ENDBRANCH  22  23
ENDBRANCH  15  17
ENDBRANCH  12  13
ENDBRANCH   6  12
ENDBRANCH   4   6
ENDBRANCH   3   4
ENDBRANCH   2   3
ENDBRANCH   1   2
BRANCH   1  29
ATOM     29  O   UNL A   1      32.358  28.579  26.925  1.00  0.00    -0.374 OA
BRANCH  29  30
ATOM     30  C   UNL A   1      31.775  29.638  26.166  1.00  0.00     0.202 C 
BRANCH  30  31
ATOM     31  C   UNL A   1      32.195  31.089  26.461  1.00  0.00     0.261 C 
BRANCH  31  32
ATOM     32  O   UNL A   1      32.834  31.271  27.739  1.00  0.00    -0.460 OA
BRANCH  32  33
ATOM     33  C   UNL A   1      33.797  32.228  27.758  1.00  0.00     0.338 C 
ATOM     34  O   UNL A   1      33.633  33.437  27.695  1.00  0.00    -0.246 OA
BRANCH  33  35
ATOM     35  C   UNL A   1      35.107  31.637  28.084  1.00  0.00     0.060 A 
ATOM     36  C   UNL A   1      35.153  30.265  28.364  1.00  0.00     0.016 A 
ATOM     37  C   UNL A   1      36.243  32.431  28.237  1.00  0.00     0.016 A 
ATOM     38  C   UNL A   1      36.329  29.684  28.831  1.00  0.00     0.010 A 
ATOM     39  C   UNL A   1      37.420  31.848  28.719  1.00  0.00     0.010 A 
ATOM     40  C   UNL A   1      37.458  30.480  29.050  1.00  0.00    -0.014 A 
BRANCH  40  41
ATOM     41  C   UNL A   1      38.632  29.904  29.750  1.00  0.00     0.031 A 
ATOM     42  C   UNL A   1      38.986  30.401  31.125  1.00  0.00     0.074 A 
ATOM     43  C   UNL A   1      39.371  28.942  29.168  1.00  0.00     0.049 A 
ATOM     44  N   UNL A   1      39.992  30.072  31.890  1.00  0.00    -0.248 NA
ATOM     45  C   UNL A   1      38.084  31.404  31.716  1.00  0.00     0.031 C 
ATOM     46  C   UNL A   1      39.115  28.367  27.848  1.00  0.00     0.029 A 
ATOM     47  N   UNL A   1      40.503  28.301  29.604  1.00  0.00    -0.354 N 
ATOM     48  C   UNL A   1      39.872  30.853  33.033  1.00  0.00     0.074 A 
ATOM     49  C   UNL A   1      38.694  31.675  32.860  1.00  0.00     0.031 C 
ATOM     50  C   UNL A   1      40.084  27.479  27.567  1.00  0.00     0.029 A 
ATOM     51  C   UNL A   1      41.044  27.451  28.668  1.00  0.00     0.049 A 
ATOM     52  H   UNL A   1      40.889  28.435  30.500  1.00  0.00     0.167 HD
ATOM     53  C   UNL A   1      40.665  30.877  34.131  1.00  0.00     0.034 A 
ATOM     54  C   UNL A   1      42.200  26.759  28.685  1.00  0.00     0.034 A 
ATOM     55  C   UNL A   1      41.826  30.045  34.304  1.00  0.00     0.049 A 
ATOM     56  C   UNL A   1      43.085  26.832  29.902  1.00  0.00     0.074 A 
ATOM     57  C   UNL A   1      42.663  29.957  35.402  1.00  0.00     0.029 A 
ATOM     58  N   UNL A   1      42.328  29.174  33.349  1.00  0.00    -0.354 N 
ATOM     59  N   UNL A   1      42.900  27.490  31.020  1.00  0.00    -0.248 NA
ATOM     60  C   UNL A   1      44.325  26.041  29.871  1.00  0.00     0.031 C 
ATOM     61  C   UNL A   1      43.697  29.068  35.093  1.00  0.00     0.029 A 
ATOM     62  C   UNL A   1      43.475  28.563  33.821  1.00  0.00     0.049 A 
ATOM     63  H   UNL A   1      41.925  29.015  32.464  1.00  0.00     0.167 HD
ATOM     64  C   UNL A   1      43.976  27.165  31.839  1.00  0.00     0.074 A 
ATOM     65  C   UNL A   1      44.800  26.236  31.094  1.00  0.00     0.031 C 
ATOM     66  C   UNL A   1      44.263  27.604  33.090  1.00  0.00     0.034 A 
BRANCH  53  67
ATOM     67  C   UNL A   1      40.307  31.834  35.237  1.00  0.00     0.023 A 
ATOM     68  C   UNL A   1      40.972  33.072  35.343  1.00  0.00     0.012 A 
ATOM     69  C   UNL A   1      39.265  31.530  36.136  1.00  0.00     0.148 A 
ATOM     70  C   UNL A   1      40.629  33.979  36.346  1.00  0.00     0.002 A 
ATOM     71  C   UNL A   1      38.895  32.459  37.102  1.00  0.00     0.091 A 
ATOM     72  F   UNL A   1      38.659  30.339  36.032  1.00  0.00    -0.205 F 
ATOM     73  C   UNL A   1      39.584  33.677  37.217  1.00  0.00     0.022 A 
BRANCH  71  74
ATOM     74  S   UNL A   1      37.512  32.198  38.217  1.00  0.00     0.127 S 
ATOM     75  O   UNL A   1      37.322  30.752  38.118  1.00  0.00    -0.237 OA
ATOM     76  O   UNL A   1      38.059  32.656  39.495  1.00  0.00    -0.237 OA
ATOM     77  O   UNL A   1      36.418  33.007  37.699  1.00  0.00    -0.744 OA
ENDBRANCH  71  74
ENDBRANCH  53  67
BRANCH  54  78
ATOM     78  C   UNL A   1      42.587  25.929  27.509  1.00  0.00     0.023 A 
ATOM     79  C   UNL A   1      43.393  26.483  26.496  1.00  0.00     0.012 A 
ATOM     80  C   UNL A   1      42.164  24.589  27.396  1.00  0.00     0.148 A 
ATOM     81  C   UNL A   1      43.744  25.728  25.376  1.00  0.00     0.002 A 
ATOM     82  C   UNL A   1      42.568  23.826  26.308  1.00  0.00     0.091 A 
ATOM     83  F   UNL A   1      41.384  24.086  28.364  1.00  0.00    -0.205 F 
ATOM     84  C   UNL A   1      43.340  24.398  25.287  1.00  0.00     0.022 A 
BRANCH  82  85
ATOM     85  S   UNL A   1      42.208  22.071  26.178  1.00  0.00     0.127 S 
ATOM     86  O   UNL A   1      43.003  21.688  25.014  1.00  0.00    -0.237 OA
ATOM     87  O   UNL A   1      42.706  21.569  27.459  1.00  0.00    -0.237 OA
ATOM     88  O   UNL A   1      40.764  21.974  26.015  1.00  0.00    -0.744 OA
ENDBRANCH  82  85
ENDBRANCH  54  78
BRANCH  66  89
ATOM     89  C   UNL A   1      45.493  27.051  33.765  1.00  0.00     0.023 A 
ATOM     90  C   UNL A   1      46.717  27.743  33.683  1.00  0.00     0.012 A 
ATOM     91  C   UNL A   1      45.412  25.882  34.547  1.00  0.00     0.148 A 
ATOM     92  C   UNL A   1      47.849  27.261  34.340  1.00  0.00     0.002 A 
ATOM     93  C   UNL A   1      46.529  25.438  35.244  1.00  0.00     0.091 A 
ATOM     94  F   UNL A   1      44.242  25.229  34.601  1.00  0.00    -0.205 F 
ATOM     95  C   UNL A   1      47.752  26.118  35.129  1.00  0.00     0.022 A 
BRANCH  93  96
ATOM     96  S   UNL A   1      46.475  24.033  36.362  1.00  0.00     0.127 S 
ATOM     97  O   UNL A   1      45.549  24.506  37.389  1.00  0.00    -0.237 OA
ATOM     98  O   UNL A   1      45.944  22.975  35.502  1.00  0.00    -0.237 OA
ATOM     99  O   UNL A   1      47.845  23.820  36.811  1.00  0.00    -0.744 OA
ENDBRANCH  93  96
ENDBRANCH  66  89
ENDBRANCH  40  41
ENDBRANCH  33  35
ENDBRANCH  32  33
ENDBRANCH  31  32
ENDBRANCH  30  31
ENDBRANCH  29  30
ENDBRANCH   1  29
TORSDOF 21
ENDMDL
MODEL 2
REMARK VINA RESULT:     -12.1      4.858      7.197
REMARK SMILES O=C(CC1(C(=O)OCCOCCOC(=O)c2ccc(-c3c4nc(c(-c5cccc(S(=O)(=O)[O-])c5F)c5ccc([nH]5)c(-c5cccc(S(=O)(=O)[O-])c5F)c5nc(c(-c6cccc(S(=O)(=O)[O-])c6F)c6ccc3[nH]6)C=C5)C=C4)cc2)CCCCC1)Nc1ccc(N2CCOC2=O)cc1
REMARK SMILES IDX 9 1 8 2 7 3 5 4 6 5 4 6 79 7 83 8 80 9 82 10 81 11 3 12 2 13
REMARK SMILES IDX 1 14 84 15 85 17 86 18 96 19 87 20 95 21 88 22 89 23 90 24
REMARK SMILES IDX 93 25 91 26 92 27 94 28 10 29 11 30 12 31 13 32 14 33 15 34
REMARK SMILES IDX 16 35 17 36 78 37 18 38 77 39 19 40 20 41 21 42 71 43 22 44
REMARK SMILES IDX 76 45 70 46 72 47 23 48 75 49 69 50 68 51 24 53 56 54 36 55
REMARK SMILES IDX 55 56 37 57 40 58 54 59 73 60 38 61 39 62 53 64 74 65 41 66
REMARK SMILES IDX 25 67 26 68 34 69 27 70 29 71 35 72 28 73 30 74 31 75 32 76
REMARK SMILES IDX 33 77 57 78 58 79 66 80 59 81 61 82 67 83 60 84 62 85 63 86
REMARK SMILES IDX 64 87 65 88 42 89 43 90 51 91 44 92 46 93 52 94 45 95 47 96
REMARK SMILES IDX 48 97 49 98 50 99
REMARK H PARENT 84 16 72 52 40 63
REMARK Flexibility Score: inf
ROOT
ATOM      1  C   UNL A   1      35.662  23.833  25.752  1.00  0.00     0.202 C 
ENDROOT
BRANCH   1   2
ATOM      2  C   UNL A   1      34.839  25.122  25.742  1.00  0.00     0.261 C 
BRANCH   2   3
ATOM      3  O   UNL A   1      34.124  25.288  24.511  1.00  0.00    -0.463 OA
BRANCH   3   4
ATOM      4  C   UNL A   1      32.789  25.468  24.639  1.00  0.00     0.312 C 
ATOM      5  O   UNL A   1      32.187  25.334  25.699  1.00  0.00    -0.252 OA
BRANCH   4   6
ATOM      6  C   UNL A   1      32.054  25.762  23.320  1.00  0.00     0.077 C 
ATOM      7  C   UNL A   1      33.029  26.663  22.514  1.00  0.00     0.019 C 
ATOM      8  C   UNL A   1      30.709  26.532  23.462  1.00  0.00     0.019 C 
ATOM      9  C   UNL A   1      33.194  28.045  23.155  1.00  0.00     0.001 C 
ATOM     10  C   UNL A   1      30.811  27.961  23.990  1.00  0.00     0.001 C 
ATOM     11  C   UNL A   1      31.862  28.776  23.253  1.00  0.00     0.000 C 
BRANCH   6  12
ATOM     12  C   UNL A   1      31.728  24.446  22.528  1.00  0.00     0.119 C 
BRANCH  12  13
ATOM     13  C   UNL A   1      32.472  23.123  22.746  1.00  0.00     0.225 C 
ATOM     14  O   UNL A   1      33.588  22.964  22.253  1.00  0.00    -0.275 OA
ATOM     15  N   UNL A   1      31.819  22.219  23.544  1.00  0.00    -0.326 N 
ATOM     16  H   UNL A   1      30.995  22.532  23.981  1.00  0.00     0.169 HD
BRANCH  15  17
ATOM     17  C   UNL A   1      32.204  20.893  23.803  1.00  0.00     0.041 A 
ATOM     18  C   UNL A   1      32.585  20.616  25.122  1.00  0.00     0.028 A 
ATOM     19  C   UNL A   1      32.184  19.864  22.866  1.00  0.00     0.028 A 
ATOM     20  C   UNL A   1      32.858  19.314  25.525  1.00  0.00     0.028 A 
ATOM     21  C   UNL A   1      32.556  18.569  23.251  1.00  0.00     0.028 A 
ATOM     22  C   UNL A   1      32.864  18.283  24.587  1.00  0.00     0.047 A 
BRANCH  22  23
ATOM     23  N   UNL A   1      33.134  16.969  24.992  1.00  0.00    -0.274 N 
ATOM     24  C   UNL A   1      32.140  16.082  25.501  1.00  0.00     0.171 C 
ATOM     25  C   UNL A   1      34.376  16.376  25.037  1.00  0.00     0.414 C 
ATOM     26  C   UNL A   1      32.853  14.754  25.437  1.00  0.00     0.257 C 
ATOM     27  O   UNL A   1      34.246  15.080  25.468  1.00  0.00    -0.447 OA
ATOM     28  O   UNL A   1      35.466  16.882  24.796  1.00  0.00    -0.224 OA
ENDBRANCH  22  23
ENDBRANCH  15  17
ENDBRANCH  12  13
ENDBRANCH   6  12
ENDBRANCH   4   6
ENDBRANCH   3   4
ENDBRANCH   2   3
ENDBRANCH   1   2
BRANCH   1  29
ATOM     29  O   UNL A   1      35.115  22.685  25.114  1.00  0.00    -0.374 OA
BRANCH  29  30
ATOM     30  C   UNL A   1      36.005  21.765  24.483  1.00  0.00     0.202 C 
BRANCH  30  31
ATOM     31  C   UNL A   1      36.998  20.970  25.350  1.00  0.00     0.261 C 
BRANCH  31  32
ATOM     32  O   UNL A   1      38.381  21.190  25.016  1.00  0.00    -0.460 OA
BRANCH  32  33
ATOM     33  C   UNL A   1      39.255  20.921  26.020  1.00  0.00     0.338 C 
ATOM     34  O   UNL A   1      39.747  19.838  26.296  1.00  0.00    -0.246 OA
BRANCH  33  35
ATOM     35  C   UNL A   1      39.727  22.170  26.642  1.00  0.00     0.060 A 
ATOM     36  C   UNL A   1      39.249  23.380  26.122  1.00  0.00     0.016 A 
ATOM     37  C   UNL A   1      40.713  22.161  27.628  1.00  0.00     0.016 A 
ATOM     38  C   UNL A   1      39.778  24.590  26.563  1.00  0.00     0.010 A 
ATOM     39  C   UNL A   1      41.253  23.378  28.060  1.00  0.00     0.010 A 
ATOM     40  C   UNL A   1      40.813  24.594  27.505  1.00  0.00    -0.014 A 
BRANCH  40  41
ATOM     41  C   UNL A   1      41.519  25.863  27.806  1.00  0.00     0.031 A 
ATOM     42  C   UNL A   1      40.794  26.949  28.553  1.00  0.00     0.074 A 
ATOM     43  C   UNL A   1      42.797  26.042  27.425  1.00  0.00     0.049 A 
ATOM     44  N   UNL A   1      41.204  28.147  28.875  1.00  0.00    -0.248 NA
ATOM     45  C   UNL A   1      39.422  26.644  28.994  1.00  0.00     0.031 C 
ATOM     46  C   UNL A   1      43.609  25.056  26.714  1.00  0.00     0.029 A 
ATOM     47  N   UNL A   1      43.624  27.129  27.561  1.00  0.00    -0.354 N 
ATOM     48  C   UNL A   1      40.133  28.755  29.519  1.00  0.00     0.074 A 
ATOM     49  C   UNL A   1      39.052  27.793  29.540  1.00  0.00     0.031 C 
ATOM     50  C   UNL A   1      44.810  25.596  26.446  1.00  0.00     0.029 A 
ATOM     51  C   UNL A   1      44.837  26.973  26.932  1.00  0.00     0.049 A 
ATOM     52  H   UNL A   1      43.373  27.940  28.059  1.00  0.00     0.167 HD
ATOM     53  C   UNL A   1      40.058  29.998  30.052  1.00  0.00     0.034 A 
ATOM     54  C   UNL A   1      45.839  27.854  26.742  1.00  0.00     0.034 A 
ATOM     55  C   UNL A   1      41.142  30.944  30.044  1.00  0.00     0.049 A 
ATOM     56  C   UNL A   1      45.717  29.243  27.311  1.00  0.00     0.074 A 
ATOM     57  C   UNL A   1      41.183  32.208  30.605  1.00  0.00     0.029 A 
ATOM     58  N   UNL A   1      42.366  30.742  29.425  1.00  0.00    -0.354 N 
ATOM     59  N   UNL A   1      44.741  29.765  28.014  1.00  0.00    -0.248 NA
ATOM     60  C   UNL A   1      46.849  30.156  27.088  1.00  0.00     0.031 C 
ATOM     61  C   UNL A   1      42.415  32.788  30.286  1.00  0.00     0.029 A 
ATOM     62  C   UNL A   1      43.161  31.865  29.571  1.00  0.00     0.049 A 
ATOM     63  H   UNL A   1      42.631  29.919  28.953  1.00  0.00     0.167 HD
ATOM     64  C   UNL A   1      45.155  31.051  28.348  1.00  0.00     0.074 A 
ATOM     65  C   UNL A   1      46.479  31.221  27.786  1.00  0.00     0.031 C 
ATOM     66  C   UNL A   1      44.495  32.007  29.047  1.00  0.00     0.034 A 
BRANCH  53  67
ATOM     67  C   UNL A   1      38.760  30.412  30.694  1.00  0.00     0.023 A 
ATOM     68  C   UNL A   1      38.566  30.230  32.078  1.00  0.00     0.012 A 
ATOM     69  C   UNL A   1      37.755  31.041  29.931  1.00  0.00     0.148 A 
ATOM     70  C   UNL A   1      37.379  30.637  32.688  1.00  0.00     0.002 A 
ATOM     71  C   UNL A   1      36.596  31.488  30.555  1.00  0.00     0.091 A 
ATOM     72  F   UNL A   1      37.950  31.186  28.613  1.00  0.00    -0.205 F 
ATOM     73  C   UNL A   1      36.400  31.275  31.929  1.00  0.00     0.022 A 
BRANCH  71  74
ATOM     74  S   UNL A   1      35.313  32.392  29.681  1.00  0.00     0.127 S 
ATOM     75  O   UNL A   1      34.347  32.639  30.750  1.00  0.00    -0.237 OA
ATOM     76  O   UNL A   1      36.035  33.580  29.224  1.00  0.00    -0.237 OA
ATOM     77  O   UNL A   1      34.853  31.513  28.616  1.00  0.00    -0.744 OA
ENDBRANCH  71  74
ENDBRANCH  53  67
BRANCH  54  78
ATOM     78  C   UNL A   1      47.053  27.446  25.979  1.00  0.00     0.023 A 
ATOM     79  C   UNL A   1      48.069  26.714  26.621  1.00  0.00     0.012 A 
ATOM     80  C   UNL A   1      47.197  27.775  24.616  1.00  0.00     0.148 A 
ATOM     81  C   UNL A   1      49.223  26.345  25.928  1.00  0.00     0.002 A 
ATOM     82  C   UNL A   1      48.321  27.352  23.918  1.00  0.00     0.091 A 
ATOM     83  F   UNL A   1      46.224  28.485  24.028  1.00  0.00    -0.205 F 
ATOM     84  C   UNL A   1      49.345  26.655  24.576  1.00  0.00     0.022 A 
BRANCH  82  85
ATOM     85  S   UNL A   1      48.499  27.589  22.147  1.00  0.00     0.127 S 
ATOM     86  O   UNL A   1      48.722  26.223  21.683  1.00  0.00    -0.237 OA
ATOM     87  O   UNL A   1      47.198  28.158  21.791  1.00  0.00    -0.237 OA
ATOM     88  O   UNL A   1      49.620  28.504  21.979  1.00  0.00    -0.744 OA
ENDBRANCH  82  85
ENDBRANCH  54  78
BRANCH  66  89
ATOM     89  C   UNL A   1      45.206  33.315  29.296  1.00  0.00     0.023 A 
ATOM     90  C   UNL A   1      46.099  33.441  30.378  1.00  0.00     0.012 A 
ATOM     91  C   UNL A   1      45.044  34.394  28.404  1.00  0.00     0.148 A 
ATOM     92  C   UNL A   1      46.792  34.633  30.589  1.00  0.00     0.002 A 
ATOM     93  C   UNL A   1      45.779  35.559  28.589  1.00  0.00     0.091 A 
ATOM     94  F   UNL A   1      44.178  34.260  27.389  1.00  0.00    -0.205 F 
ATOM     95  C   UNL A   1      46.642  35.685  29.689  1.00  0.00     0.022 A 
BRANCH  93  96
ATOM     96  S   UNL A   1      45.727  36.928  27.428  1.00  0.00     0.127 S 
ATOM     97  O   UNL A   1      46.313  38.010  28.217  1.00  0.00    -0.237 OA
ATOM     98  O   UNL A   1      46.574  36.440  26.338  1.00  0.00    -0.237 OA
ATOM     99  O   UNL A   1      44.325  37.106  27.074  1.00  0.00    -0.744 OA
ENDBRANCH  93  96
ENDBRANCH  66  89
ENDBRANCH  40  41
ENDBRANCH  33  35
ENDBRANCH  32  33
ENDBRANCH  31  32
ENDBRANCH  30  31
ENDBRANCH  29  30
ENDBRANCH   1  29
TORSDOF 21
ENDMDL
MODEL 3
REMARK VINA RESULT:     -11.9      2.470      5.353
REMARK SMILES O=C(CC1(C(=O)OCCOCCOC(=O)c2ccc(-c3c4nc(c(-c5cccc(S(=O)(=O)[O-])c5F)c5ccc([nH]5)c(-c5cccc(S(=O)(=O)[O-])c5F)c5nc(c(-c6cccc(S(=O)(=O)[O-])c6F)c6ccc3[nH]6)C=C5)C=C4)cc2)CCCCC1)Nc1ccc(N2CCOC2=O)cc1
REMARK SMILES IDX 9 1 8 2 7 3 5 4 6 5 4 6 79 7 83 8 80 9 82 10 81 11 3 12 2 13
REMARK SMILES IDX 1 14 84 15 85 17 86 18 96 19 87 20 95 21 88 22 89 23 90 24
REMARK SMILES IDX 93 25 91 26 92 27 94 28 10 29 11 30 12 31 13 32 14 33 15 34
REMARK SMILES IDX 16 35 17 36 78 37 18 38 77 39 19 40 20 41 21 42 71 43 22 44
REMARK SMILES IDX 76 45 70 46 72 47 23 48 75 49 69 50 68 51 24 53 56 54 36 55
REMARK SMILES IDX 55 56 37 57 40 58 54 59 73 60 38 61 39 62 53 64 74 65 41 66
REMARK SMILES IDX 25 67 26 68 34 69 27 70 29 71 35 72 28 73 30 74 31 75 32 76
REMARK SMILES IDX 33 77 57 78 58 79 66 80 59 81 61 82 67 83 60 84 62 85 63 86
REMARK SMILES IDX 64 87 65 88 42 89 43 90 51 91 44 92 46 93 52 94 45 95 47 96
REMARK SMILES IDX 48 97 49 98 50 99
REMARK H PARENT 84 16 72 52 40 63
REMARK Flexibility Score: inf
ROOT
ATOM      1  C   UNL A   1      33.656  28.265  26.094  1.00  0.00     0.202 C 
ENDROOT
BRANCH   1   2
ATOM      2  C   UNL A   1      33.504  27.126  25.084  1.00  0.00     0.261 C 
BRANCH   2   3
ATOM      3  O   UNL A   1      33.076  25.910  25.712  1.00  0.00    -0.463 OA
BRANCH   3   4
ATOM      4  C   UNL A   1      33.403  24.776  25.053  1.00  0.00     0.312 C 
ATOM      5  O   UNL A   1      34.335  24.699  24.260  1.00  0.00    -0.252 OA
BRANCH   4   6
ATOM      6  C   UNL A   1      32.449  23.595  25.301  1.00  0.00     0.077 C 
ATOM      7  C   UNL A   1      32.479  23.375  26.837  1.00  0.00     0.019 C 
ATOM      8  C   UNL A   1      32.857  22.253  24.624  1.00  0.00     0.019 C 
ATOM      9  C   UNL A   1      33.838  22.851  27.315  1.00  0.00     0.001 C 
ATOM     10  C   UNL A   1      34.148  21.615  25.133  1.00  0.00     0.001 C 
ATOM     11  C   UNL A   1      34.189  21.527  26.651  1.00  0.00     0.000 C 
BRANCH   6  12
ATOM     12  C   UNL A   1      30.991  23.910  24.811  1.00  0.00     0.119 C 
BRANCH  12  13
ATOM     13  C   UNL A   1      30.662  25.002  23.786  1.00  0.00     0.225 C 
ATOM     14  O   UNL A   1      30.867  24.796  22.591  1.00  0.00    -0.275 OA
ATOM     15  N   UNL A   1      30.102  26.137  24.313  1.00  0.00    -0.326 N 
ATOM     16  H   UNL A   1      29.870  26.111  25.268  1.00  0.00     0.169 HD
BRANCH  15  17
ATOM     17  C   UNL A   1      29.823  27.334  23.631  1.00  0.00     0.041 A 
ATOM     18  C   UNL A   1      28.468  27.661  23.505  1.00  0.00     0.028 A 
ATOM     19  C   UNL A   1      30.787  28.203  23.130  1.00  0.00     0.028 A 
ATOM     20  C   UNL A   1      28.078  28.883  22.967  1.00  0.00     0.028 A 
ATOM     21  C   UNL A   1      30.389  29.389  22.498  1.00  0.00     0.028 A 
ATOM     22  C   UNL A   1      29.037  29.748  22.442  1.00  0.00     0.047 A 
BRANCH  22  23
ATOM     23  N   UNL A   1      28.647  30.982  21.904  1.00  0.00    -0.274 N 
ATOM     24  C   UNL A   1      28.316  31.171  20.529  1.00  0.00     0.171 C 
ATOM     25  C   UNL A   1      28.605  32.181  22.578  1.00  0.00     0.414 C 
ATOM     26  C   UNL A   1      27.646  32.522  20.560  1.00  0.00     0.257 C 
ATOM     27  O   UNL A   1      28.160  33.164  21.730  1.00  0.00    -0.447 OA
ATOM     28  O   UNL A   1      28.945  32.414  23.732  1.00  0.00    -0.224 OA
ENDBRANCH  22  23
ENDBRANCH  15  17
ENDBRANCH  12  13
ENDBRANCH   6  12
ENDBRANCH   4   6
ENDBRANCH   3   4
ENDBRANCH   2   3
ENDBRANCH   1   2
BRANCH   1  29
ATOM     29  O   UNL A   1      33.353  29.587  25.662  1.00  0.00    -0.374 OA
BRANCH  29  30
ATOM     30  C   UNL A   1      32.116  30.172  26.067  1.00  0.00     0.202 C 
BRANCH  30  31
ATOM     31  C   UNL A   1      32.098  31.638  26.535  1.00  0.00     0.261 C 
BRANCH  31  32
ATOM     32  O   UNL A   1      32.739  31.860  27.805  1.00  0.00    -0.460 OA
BRANCH  32  33
ATOM     33  C   UNL A   1      33.742  32.775  27.780  1.00  0.00     0.338 C 
ATOM     34  O   UNL A   1      33.630  33.986  27.674  1.00  0.00    -0.246 OA
BRANCH  33  35
ATOM     35  C   UNL A   1      35.029  32.140  28.114  1.00  0.00     0.060 A 
ATOM     36  C   UNL A   1      35.022  30.773  28.422  1.00  0.00     0.016 A 
ATOM     37  C   UNL A   1      36.196  32.892  28.248  1.00  0.00     0.016 A 
ATOM     38  C   UNL A   1      36.176  30.156  28.898  1.00  0.00     0.010 A 
ATOM     39  C   UNL A   1      37.351  32.273  28.739  1.00  0.00     0.010 A 
ATOM     40  C   UNL A   1      37.337  30.912  29.098  1.00  0.00    -0.014 A 
BRANCH  40  41
ATOM     41  C   UNL A   1      38.490  30.304  29.806  1.00  0.00     0.031 A 
ATOM     42  C   UNL A   1      38.814  30.754  31.204  1.00  0.00     0.074 A 
ATOM     43  C   UNL A   1      39.236  29.356  29.210  1.00  0.00     0.049 A 
ATOM     44  N   UNL A   1      39.800  30.393  31.981  1.00  0.00    -0.248 NA
ATOM     45  C   UNL A   1      37.905  31.745  31.806  1.00  0.00     0.031 C 
ATOM     46  C   UNL A   1      39.008  28.825  27.867  1.00  0.00     0.029 A 
ATOM     47  N   UNL A   1      40.352  28.692  29.653  1.00  0.00    -0.354 N 
ATOM     48  C   UNL A   1      39.658  31.137  33.146  1.00  0.00     0.074 A 
ATOM     49  C   UNL A   1      38.489  31.973  32.973  1.00  0.00     0.031 C 
ATOM     50  C   UNL A   1      39.977  27.940  27.580  1.00  0.00     0.029 A 
ATOM     51  C   UNL A   1      40.910  27.869  28.703  1.00  0.00     0.049 A 
ATOM     52  H   UNL A   1      40.718  28.795  30.561  1.00  0.00     0.167 HD
ATOM     53  C   UNL A   1      40.425  31.120  34.262  1.00  0.00     0.034 A 
ATOM     54  C   UNL A   1      42.060  27.168  28.724  1.00  0.00     0.034 A 
ATOM     55  C   UNL A   1      41.575  30.274  34.436  1.00  0.00     0.049 A 
ATOM     56  C   UNL A   1      42.916  27.195  29.963  1.00  0.00     0.074 A 
ATOM     57  C   UNL A   1      42.386  30.144  35.550  1.00  0.00     0.029 A 
ATOM     58  N   UNL A   1      42.094  29.431  33.465  1.00  0.00    -0.354 N 
ATOM     59  N   UNL A   1      42.709  27.818  31.097  1.00  0.00    -0.248 NA
ATOM     60  C   UNL A   1      44.151  26.395  29.936  1.00  0.00     0.031 C 
ATOM     61  C   UNL A   1      43.420  29.258  35.236  1.00  0.00     0.029 A 
ATOM     62  C   UNL A   1      43.225  28.796  33.945  1.00  0.00     0.049 A 
ATOM     63  H   UNL A   1      41.711  29.303  32.566  1.00  0.00     0.167 HD
ATOM     64  C   UNL A   1      43.764  27.459  31.930  1.00  0.00     0.074 A 
ATOM     65  C   UNL A   1      44.599  26.548  31.175  1.00  0.00     0.031 C 
ATOM     66  C   UNL A   1      44.023  27.855  33.201  1.00  0.00     0.034 A 
BRANCH  53  67
ATOM     67  C   UNL A   1      40.047  32.044  35.391  1.00  0.00     0.023 A 
ATOM     68  C   UNL A   1      40.634  33.321  35.484  1.00  0.00     0.012 A 
ATOM     69  C   UNL A   1      39.061  31.666  36.324  1.00  0.00     0.148 A 
ATOM     70  C   UNL A   1      40.271  34.197  36.508  1.00  0.00     0.002 A 
ATOM     71  C   UNL A   1      38.668  32.562  37.312  1.00  0.00     0.091 A 
ATOM     72  F   UNL A   1      38.529  30.439  36.231  1.00  0.00    -0.205 F 
ATOM     73  C   UNL A   1      39.281  33.822  37.413  1.00  0.00     0.022 A 
BRANCH  71  74
ATOM     74  S   UNL A   1      37.346  32.205  38.474  1.00  0.00     0.127 S 
ATOM     75  O   UNL A   1      36.220  32.910  37.865  1.00  0.00    -0.237 OA
ATOM     76  O   UNL A   1      37.263  30.745  38.402  1.00  0.00    -0.237 OA
ATOM     77  O   UNL A   1      37.787  32.726  39.759  1.00  0.00    -0.744 OA
ENDBRANCH  71  74
ENDBRANCH  53  67
BRANCH  54  78
ATOM     78  C   UNL A   1      42.469  26.373  27.531  1.00  0.00     0.023 A 
ATOM     79  C   UNL A   1      43.247  26.974  26.524  1.00  0.00     0.012 A 
ATOM     80  C   UNL A   1      42.095  25.021  27.397  1.00  0.00     0.148 A 
ATOM     81  C   UNL A   1      43.619  26.252  25.388  1.00  0.00     0.002 A 
ATOM     82  C   UNL A   1      42.519  24.292  26.294  1.00  0.00     0.091 A 
ATOM     83  F   UNL A   1      41.341  24.473  28.361  1.00  0.00    -0.205 F 
ATOM     84  C   UNL A   1      43.263  24.909  25.278  1.00  0.00     0.022 A 
BRANCH  82  85
ATOM     85  S   UNL A   1      42.223  22.528  26.135  1.00  0.00     0.127 S 
ATOM     86  O   UNL A   1      42.888  22.225  24.870  1.00  0.00    -0.237 OA
ATOM     87  O   UNL A   1      42.894  22.005  27.326  1.00  0.00    -0.237 OA
ATOM     88  O   UNL A   1      40.776  22.366  26.141  1.00  0.00    -0.744 OA
ENDBRANCH  82  85
ENDBRANCH  54  78
BRANCH  66  89
ATOM     89  C   UNL A   1      45.234  27.272  33.887  1.00  0.00     0.023 A 
ATOM     90  C   UNL A   1      45.123  26.076  34.624  1.00  0.00     0.012 A 
ATOM     91  C   UNL A   1      46.498  27.874  33.733  1.00  0.00     0.148 A 
ATOM     92  C   UNL A   1      46.246  25.508  35.225  1.00  0.00     0.002 A 
ATOM     93  C   UNL A   1      47.621  27.272  34.289  1.00  0.00     0.091 A 
ATOM     94  F   UNL A   1      46.581  29.019  33.042  1.00  0.00    -0.205 F 
ATOM     95  C   UNL A   1      47.494  26.098  35.047  1.00  0.00     0.022 A 
BRANCH  93  96
ATOM     96  S   UNL A   1      49.283  27.905  34.031  1.00  0.00     0.127 S 
ATOM     97  O   UNL A   1      49.344  27.992  32.573  1.00  0.00    -0.237 OA
ATOM     98  O   UNL A   1      49.231  29.196  34.717  1.00  0.00    -0.237 OA
ATOM     99  O   UNL A   1      50.184  26.932  34.633  1.00  0.00    -0.744 OA
ENDBRANCH  93  96
ENDBRANCH  66  89
ENDBRANCH  40  41
ENDBRANCH  33  35
ENDBRANCH  32  33
ENDBRANCH  31  32
ENDBRANCH  30  31
ENDBRANCH  29  30
ENDBRANCH   1  29
TORSDOF 21
ENDMDL
