MODEL 1
REMARK VINA RESULT:     -10.8      0.000      0.000
REMARK SMILES Nc1ccc(O)c(C(=O)OCCOCCOC(=O)c2ccc(-c3c4nc(c(-c5cccc(S(=O)(=O)[O-])c5F)c5ccc([nH]5)c(-c5cccc(S(=O)(=O)[O-])c5F)c5nc(c(-c6cccc(S(=O)(=O)[O-])c6F)c6ccc3[nH]6)C=C5)C=C4)cc2)c1
REMARK SMILES IDX 14 1 13 2 12 3 11 4 10 5 8 6 9 7 7 8 2 9 3 10 82 11 4 12
REMARK SMILES IDX 5 13 1 14 6 17 15 19 16 20 17 21 18 22 19 23 20 24 81 25
REMARK SMILES IDX 21 26 80 27 22 28 23 29 24 30 74 31 25 32 79 33 73 34 75 35
REMARK SMILES IDX 26 36 78 37 72 38 71 39 27 41 59 42 39 43 58 44 40 45 43 46
REMARK SMILES IDX 57 47 76 48 41 49 42 50 56 52 77 53 44 54 28 55 29 56 37 57
REMARK SMILES IDX 30 58 32 59 38 60 31 61 33 62 34 63 35 64 36 65 60 66 61 67
REMARK SMILES IDX 69 68 62 69 64 70 70 71 63 72 65 73 66 74 67 75 68 76 45 77
REMARK SMILES IDX 46 78 54 79 47 80 49 81 55 82 48 83 50 84 51 85 52 86 53 87
REMARK H PARENT 1 15 1 16 6 18 75 40 43 51
REMARK Flexibility Score: inf
ROOT
ATOM      1  C   UNL A   1      36.747  20.176  24.909  1.00  0.00     0.202 C 
ENDROOT
BRANCH   1   2
ATOM      2  O   UNL A   1      36.147  21.081  25.840  1.00  0.00    -0.374 OA
BRANCH   2   3
ATOM      3  C   UNL A   1      36.123  22.459  25.459  1.00  0.00     0.202 C 
BRANCH   3   4
ATOM      4  C   UNL A   1      35.061  23.315  26.158  1.00  0.00     0.261 C 
BRANCH   4   5
ATOM      5  O   UNL A   1      33.831  23.332  25.412  1.00  0.00    -0.460 OA
BRANCH   5   6
ATOM      6  C   UNL A   1      32.894  22.449  25.825  1.00  0.00     0.342 C 
ATOM      7  O   UNL A   1      32.149  22.564  26.790  1.00  0.00    -0.246 OA
BRANCH   6   8
ATOM      8  C   UNL A   1      32.703  21.367  24.833  1.00  0.00     0.103 A 
ATOM      9  C   UNL A   1      32.098  20.572  22.616  1.00  0.00     0.032 A 
ATOM     10  C   UNL A   1      32.278  19.258  23.059  1.00  0.00     0.029 A 
ATOM     11  C   UNL A   1      32.279  21.624  23.521  1.00  0.00     0.045 A 
ATOM     12  C   UNL A   1      32.685  18.990  24.367  1.00  0.00     0.049 A 
ATOM     13  C   UNL A   1      32.905  20.042  25.247  1.00  0.00     0.130 A 
BRANCH   9  14
ATOM     14  N   UNL A   1      31.626  20.814  21.338  1.00  0.00    -0.399 N 
ATOM     15  H   UNL A   1      31.602  21.734  20.987  1.00  0.00     0.156 HD
ATOM     16  H   UNL A   1      31.314  20.066  20.778  1.00  0.00     0.156 HD
ENDBRANCH   9  14
BRANCH  13  17
ATOM     17  O   UNL A   1      33.289  19.699  26.517  1.00  0.00    -0.507 OA
ATOM     18  H   UNL A   1      33.604  20.357  27.105  1.00  0.00     0.293 HD
ENDBRANCH  13  17
ENDBRANCH   6   8
ENDBRANCH   5   6
ENDBRANCH   4   5
ENDBRANCH   3   4
ENDBRANCH   2   3
ENDBRANCH   1   2
BRANCH   1  19
ATOM     19  C   UNL A   1      38.170  19.716  25.248  1.00  0.00     0.261 C 
BRANCH  19  20
ATOM     20  O   UNL A   1      39.061  20.834  25.408  1.00  0.00    -0.460 OA
BRANCH  20  21
ATOM     21  C   UNL A   1      39.959  20.713  26.413  1.00  0.00     0.338 C 
ATOM     22  O   UNL A   1      40.550  19.696  26.754  1.00  0.00    -0.246 OA
BRANCH  21  23
ATOM     23  C   UNL A   1      40.289  22.043  26.958  1.00  0.00     0.060 A 
ATOM     24  C   UNL A   1      39.622  23.147  26.411  1.00  0.00     0.016 A 
ATOM     25  C   UNL A   1      41.261  22.222  27.947  1.00  0.00     0.016 A 
ATOM     26  C   UNL A   1      39.965  24.438  26.808  1.00  0.00     0.010 A 
ATOM     27  C   UNL A   1      41.606  23.520  28.339  1.00  0.00     0.010 A 
ATOM     28  C   UNL A   1      40.986  24.634  27.745  1.00  0.00    -0.014 A 
BRANCH  28  29
ATOM     29  C   UNL A   1      41.496  26.004  27.999  1.00  0.00     0.031 A 
ATOM     30  C   UNL A   1      42.888  26.361  27.551  1.00  0.00     0.074 A 
ATOM     31  C   UNL A   1      40.727  26.921  28.613  1.00  0.00     0.049 A 
ATOM     32  N   UNL A   1      43.536  27.489  27.686  1.00  0.00    -0.248 NA
ATOM     33  C   UNL A   1      43.651  25.306  26.863  1.00  0.00     0.031 C 
ATOM     34  C   UNL A   1      39.363  26.696  29.092  1.00  0.00     0.029 A 
ATOM     35  N   UNL A   1      40.995  28.222  28.960  1.00  0.00    -0.354 N 
ATOM     36  C   UNL A   1      44.788  27.275  27.122  1.00  0.00     0.074 A 
ATOM     37  C   UNL A   1      44.815  25.906  26.656  1.00  0.00     0.031 C 
ATOM     38  C   UNL A   1      38.926  27.813  29.699  1.00  0.00     0.029 A 
ATOM     39  C   UNL A   1      39.981  28.822  29.667  1.00  0.00     0.049 A 
ATOM     40  H   UNL A   1      41.834  28.680  28.724  1.00  0.00     0.167 HD
ATOM     41  C   UNL A   1      45.816  28.145  26.985  1.00  0.00     0.034 A 
ATOM     42  C   UNL A   1      39.922  30.041  30.240  1.00  0.00     0.034 A 
ATOM     43  C   UNL A   1      45.781  29.513  27.427  1.00  0.00     0.049 A 
ATOM     44  C   UNL A   1      41.088  30.985  30.091  1.00  0.00     0.074 A 
ATOM     45  C   UNL A   1      46.756  30.485  27.293  1.00  0.00     0.029 A 
ATOM     46  N   UNL A   1      44.718  30.101  28.094  1.00  0.00    -0.354 N 
ATOM     47  N   UNL A   1      42.215  30.808  29.444  1.00  0.00    -0.248 NA
ATOM     48  C   UNL A   1      40.960  32.308  30.718  1.00  0.00     0.031 C 
ATOM     49  C   UNL A   1      46.291  31.657  27.898  1.00  0.00     0.029 A 
ATOM     50  C   UNL A   1      45.017  31.420  28.388  1.00  0.00     0.049 A 
ATOM     51  H   UNL A   1      43.876  29.648  28.325  1.00  0.00     0.167 HD
ATOM     52  C   UNL A   1      42.912  32.006  29.557  1.00  0.00     0.074 A 
ATOM     53  C   UNL A   1      42.072  32.909  30.316  1.00  0.00     0.031 C 
ATOM     54  C   UNL A   1      44.146  32.327  29.091  1.00  0.00     0.034 A 
BRANCH  41  55
ATOM     55  C   UNL A   1      47.061  27.657  26.294  1.00  0.00     0.023 A 
ATOM     56  C   UNL A   1      48.010  26.911  27.020  1.00  0.00     0.012 A 
ATOM     57  C   UNL A   1      47.257  27.874  24.916  1.00  0.00     0.148 A 
ATOM     58  C   UNL A   1      49.149  26.407  26.392  1.00  0.00     0.002 A 
ATOM     59  C   UNL A   1      48.374  27.336  24.288  1.00  0.00     0.091 A 
ATOM     60  F   UNL A   1      46.352  28.606  24.249  1.00  0.00    -0.205 F 
ATOM     61  C   UNL A   1      49.325  26.611  25.025  1.00  0.00     0.022 A 
BRANCH  59  62
ATOM     62  S   UNL A   1      48.656  27.478  22.520  1.00  0.00     0.127 S 
ATOM     63  O   UNL A   1      47.505  28.277  22.101  1.00  0.00    -0.237 OA
ATOM     64  O   UNL A   1      49.937  28.180  22.467  1.00  0.00    -0.237 OA
ATOM     65  O   UNL A   1      48.688  26.115  22.007  1.00  0.00    -0.744 OA
ENDBRANCH  59  62
ENDBRANCH  41  55
BRANCH  42  66
ATOM     66  C   UNL A   1      38.699  30.459  30.985  1.00  0.00     0.023 A 
ATOM     67  C   UNL A   1      38.580  30.153  32.354  1.00  0.00     0.012 A 
ATOM     68  C   UNL A   1      37.659  31.159  30.345  1.00  0.00     0.148 A 
ATOM     69  C   UNL A   1      37.433  30.510  33.065  1.00  0.00     0.002 A 
ATOM     70  C   UNL A   1      36.543  31.560  31.071  1.00  0.00     0.091 A 
ATOM     71  F   UNL A   1      37.779  31.422  29.036  1.00  0.00    -0.205 F 
ATOM     72  C   UNL A   1      36.419  31.222  32.427  1.00  0.00     0.022 A 
BRANCH  70  73
ATOM     73  S   UNL A   1      35.259  32.594  30.357  1.00  0.00     0.127 S 
ATOM     74  O   UNL A   1      36.012  33.783  29.969  1.00  0.00    -0.237 OA
ATOM     75  O   UNL A   1      34.789  31.770  29.242  1.00  0.00    -0.237 OA
ATOM     76  O   UNL A   1      34.276  32.779  31.416  1.00  0.00    -0.744 OA
ENDBRANCH  70  73
ENDBRANCH  42  66
BRANCH  54  77
ATOM     77  C   UNL A   1      44.654  33.720  29.351  1.00  0.00     0.023 A 
ATOM     78  C   UNL A   1      45.360  33.997  30.538  1.00  0.00     0.012 A 
ATOM     79  C   UNL A   1      44.503  34.735  28.384  1.00  0.00     0.148 A 
ATOM     80  C   UNL A   1      45.882  35.269  30.773  1.00  0.00     0.002 A 
ATOM     81  C   UNL A   1      45.066  35.986  28.604  1.00  0.00     0.091 A 
ATOM     82  F   UNL A   1      43.813  34.458  27.268  1.00  0.00    -0.205 F 
ATOM     83  C   UNL A   1      45.745  36.259  29.802  1.00  0.00     0.022 A 
BRANCH  81  84
ATOM     84  S   UNL A   1      45.021  37.291  27.370  1.00  0.00     0.127 S 
ATOM     85  O   UNL A   1      45.969  36.795  26.375  1.00  0.00    -0.237 OA
ATOM     86  O   UNL A   1      43.622  37.270  26.942  1.00  0.00    -0.237 OA
ATOM     87  O   UNL A   1      45.420  38.510  28.063  1.00  0.00    -0.744 OA
ENDBRANCH  81  84
ENDBRANCH  54  77
ENDBRANCH  28  29
ENDBRANCH  21  23
ENDBRANCH  20  21
ENDBRANCH  19  20
ENDBRANCH   1  19
TORSDOF 19
ENDMDL
MODEL 2
REMARK VINA RESULT:     -10.7      5.816     10.784
REMARK SMILES Nc1ccc(O)c(C(=O)OCCOCCOC(=O)c2ccc(-c3c4nc(c(-c5cccc(S(=O)(=O)[O-])c5F)c5ccc([nH]5)c(-c5cccc(S(=O)(=O)[O-])c5F)c5nc(c(-c6cccc(S(=O)(=O)[O-])c6F)c6ccc3[nH]6)C=C5)C=C4)cc2)c1
REMARK SMILES IDX 14 1 13 2 12 3 11 4 10 5 8 6 9 7 7 8 2 9 3 10 82 11 4 12
REMARK SMILES IDX 5 13 1 14 6 17 15 19 16 20 17 21 18 22 19 23 20 24 81 25
REMARK SMILES IDX 21 26 80 27 22 28 23 29 24 30 74 31 25 32 79 33 73 34 75 35
REMARK SMILES IDX 26 36 78 37 72 38 71 39 27 41 59 42 39 43 58 44 40 45 43 46
REMARK SMILES IDX 57 47 76 48 41 49 42 50 56 52 77 53 44 54 28 55 29 56 37 57
REMARK SMILES IDX 30 58 32 59 38 60 31 61 33 62 34 63 35 64 36 65 60 66 61 67
REMARK SMILES IDX 69 68 62 69 64 70 70 71 63 72 65 73 66 74 67 75 68 76 45 77
REMARK SMILES IDX 46 78 54 79 47 80 49 81 55 82 48 83 50 84 51 85 52 86 53 87
REMARK H PARENT 1 15 1 16 6 18 75 40 43 51
REMARK Flexibility Score: inf
ROOT
ATOM      1  C   UNL A   1      32.496  29.786  25.275  1.00  0.00     0.202 C 
ENDROOT
BRANCH   1   2
ATOM      2  O   UNL A   1      32.261  28.434  25.676  1.00  0.00    -0.374 OA
BRANCH   2   3
ATOM      3  C   UNL A   1      33.387  27.554  25.633  1.00  0.00     0.202 C 
BRANCH   3   4
ATOM      4  C   UNL A   1      33.567  26.781  24.322  1.00  0.00     0.261 C 
BRANCH   4   5
ATOM      5  O   UNL A   1      33.188  27.582  23.189  1.00  0.00    -0.460 OA
BRANCH   5   6
ATOM      6  C   UNL A   1      32.272  27.021  22.368  1.00  0.00     0.342 C 
ATOM      7  O   UNL A   1      32.456  26.105  21.576  1.00  0.00    -0.246 OA
BRANCH   6   8
ATOM      8  C   UNL A   1      30.908  27.506  22.676  1.00  0.00     0.103 A 
ATOM      9  C   UNL A   1      28.645  27.162  23.497  1.00  0.00     0.032 A 
ATOM     10  C   UNL A   1      28.335  28.478  23.137  1.00  0.00     0.029 A 
ATOM     11  C   UNL A   1      29.928  26.670  23.232  1.00  0.00     0.045 A 
ATOM     12  C   UNL A   1      29.299  29.313  22.570  1.00  0.00     0.049 A 
ATOM     13  C   UNL A   1      30.583  28.830  22.349  1.00  0.00     0.130 A 
BRANCH   9  14
ATOM     14  N   UNL A   1      27.657  26.328  23.992  1.00  0.00    -0.399 N 
ATOM     15  H   UNL A   1      27.101  25.802  23.374  1.00  0.00     0.156 HD
ATOM     16  H   UNL A   1      27.511  26.262  24.964  1.00  0.00     0.156 HD
ENDBRANCH   9  14
BRANCH  13  17
ATOM     17  O   UNL A   1      31.468  29.705  21.776  1.00  0.00    -0.507 OA
ATOM     18  H   UNL A   1      32.318  29.826  22.154  1.00  0.00     0.293 HD
ENDBRANCH  13  17
ENDBRANCH   6   8
ENDBRANCH   5   6
ENDBRANCH   4   5
ENDBRANCH   3   4
ENDBRANCH   2   3
ENDBRANCH   1   2
BRANCH   1  19
ATOM     19  C   UNL A   1      31.780  30.862  26.099  1.00  0.00     0.261 C 
BRANCH  19  20
ATOM     20  O   UNL A   1      32.394  31.033  27.389  1.00  0.00    -0.460 OA
BRANCH  20  21
ATOM     21  C   UNL A   1      33.261  32.068  27.479  1.00  0.00     0.338 C 
ATOM     22  O   UNL A   1      33.001  33.259  27.362  1.00  0.00    -0.246 OA
BRANCH  21  23
ATOM     23  C   UNL A   1      34.580  31.584  27.930  1.00  0.00     0.060 A 
ATOM     24  C   UNL A   1      34.717  30.209  28.159  1.00  0.00     0.016 A 
ATOM     25  C   UNL A   1      35.648  32.453  28.174  1.00  0.00     0.016 A 
ATOM     26  C   UNL A   1      35.903  29.703  28.686  1.00  0.00     0.010 A 
ATOM     27  C   UNL A   1      36.835  31.942  28.708  1.00  0.00     0.010 A 
ATOM     28  C   UNL A   1      36.955  30.572  29.002  1.00  0.00    -0.014 A 
BRANCH  28  29
ATOM     29  C   UNL A   1      38.124  30.064  29.762  1.00  0.00     0.031 A 
ATOM     30  C   UNL A   1      38.359  30.566  31.161  1.00  0.00     0.074 A 
ATOM     31  C   UNL A   1      38.960  29.162  29.216  1.00  0.00     0.049 A 
ATOM     32  N   UNL A   1      39.323  30.269  31.994  1.00  0.00    -0.248 NA
ATOM     33  C   UNL A   1      37.381  31.531  31.690  1.00  0.00     0.031 C 
ATOM     34  C   UNL A   1      38.836  28.601  27.872  1.00  0.00     0.029 A 
ATOM     35  N   UNL A   1      40.094  28.578  29.723  1.00  0.00    -0.354 N 
ATOM     36  C   UNL A   1      39.082  31.025  33.136  1.00  0.00     0.074 A 
ATOM     37  C   UNL A   1      37.891  31.805  32.883  1.00  0.00     0.031 C 
ATOM     38  C   UNL A   1      39.874  27.775  27.648  1.00  0.00     0.029 A 
ATOM     39  C   UNL A   1      40.742  27.765  28.824  1.00  0.00     0.049 A 
ATOM     40  H   UNL A   1      40.413  28.727  30.642  1.00  0.00     0.167 HD
ATOM     41  C   UNL A   1      39.778  31.053  34.296  1.00  0.00     0.034 A 
ATOM     42  C   UNL A   1      41.911  27.103  28.932  1.00  0.00     0.034 A 
ATOM     43  C   UNL A   1      40.949  30.260  34.556  1.00  0.00     0.049 A 
ATOM     44  C   UNL A   1      42.677  27.166  30.229  1.00  0.00     0.074 A 
ATOM     45  C   UNL A   1      41.697  30.186  35.717  1.00  0.00     0.029 A 
ATOM     46  N   UNL A   1      41.547  29.410  33.640  1.00  0.00    -0.354 N 
ATOM     47  N   UNL A   1      42.368  27.787  31.341  1.00  0.00    -0.248 NA
ATOM     48  C   UNL A   1      43.936  26.409  30.297  1.00  0.00     0.031 C 
ATOM     49  C   UNL A   1      42.761  29.305  35.496  1.00  0.00     0.029 A 
ATOM     50  C   UNL A   1      42.661  28.814  34.204  1.00  0.00     0.049 A 
ATOM     51  H   UNL A   1      41.227  29.253  32.722  1.00  0.00     0.167 HD
ATOM     52  C   UNL A   1      43.371  27.467  32.250  1.00  0.00     0.074 A 
ATOM     53  C   UNL A   1      44.287  26.580  31.565  1.00  0.00     0.031 C 
ATOM     54  C   UNL A   1      43.530  27.884  33.531  1.00  0.00     0.034 A 
BRANCH  41  55
ATOM     55  C   UNL A   1      39.270  31.946  35.397  1.00  0.00     0.023 A 
ATOM     56  C   UNL A   1      38.338  31.440  36.325  1.00  0.00     0.012 A 
ATOM     57  C   UNL A   1      39.763  33.255  35.555  1.00  0.00     0.148 A 
ATOM     58  C   UNL A   1      37.886  32.230  37.381  1.00  0.00     0.002 A 
ATOM     59  C   UNL A   1      39.339  34.025  36.632  1.00  0.00     0.091 A 
ATOM     60  F   UNL A   1      40.632  33.724  34.647  1.00  0.00    -0.205 F 
ATOM     61  C   UNL A   1      38.395  33.518  37.540  1.00  0.00     0.022 A 
BRANCH  59  62
ATOM     62  S   UNL A   1      39.987  35.666  36.967  1.00  0.00     0.127 S 
ATOM     63  O   UNL A   1      41.413  35.390  37.138  1.00  0.00    -0.237 OA
ATOM     64  O   UNL A   1      39.648  36.388  35.741  1.00  0.00    -0.237 OA
ATOM     65  O   UNL A   1      39.296  36.135  38.160  1.00  0.00    -0.744 OA
ENDBRANCH  59  62
ENDBRANCH  41  55
BRANCH  42  66
ATOM     66  C   UNL A   1      42.420  26.291  27.789  1.00  0.00     0.023 A 
ATOM     67  C   UNL A   1      43.361  26.850  26.904  1.00  0.00     0.012 A 
ATOM     68  C   UNL A   1      41.981  24.970  27.580  1.00  0.00     0.148 A 
ATOM     69  C   UNL A   1      43.831  26.119  25.811  1.00  0.00     0.002 A 
ATOM     70  C   UNL A   1      42.494  24.228  26.522  1.00  0.00     0.091 A 
ATOM     71  F   UNL A   1      41.068  24.462  28.420  1.00  0.00    -0.205 F 
ATOM     72  C   UNL A   1      43.406  24.806  25.626  1.00  0.00     0.022 A 
BRANCH  70  73
ATOM     73  S   UNL A   1      42.099  22.490  26.294  1.00  0.00     0.127 S 
ATOM     74  O   UNL A   1      40.642  22.524  26.198  1.00  0.00    -0.237 OA
ATOM     75  O   UNL A   1      42.793  22.181  25.042  1.00  0.00    -0.237 OA
ATOM     76  O   UNL A   1      42.646  21.811  27.461  1.00  0.00    -0.744 OA
ENDBRANCH  70  73
ENDBRANCH  42  66
BRANCH  54  77
ATOM     77  C   UNL A   1      44.718  27.362  34.297  1.00  0.00     0.023 A 
ATOM     78  C   UNL A   1      45.918  28.099  34.316  1.00  0.00     0.012 A 
ATOM     79  C   UNL A   1      44.620  26.182  35.062  1.00  0.00     0.148 A 
ATOM     80  C   UNL A   1      47.011  27.657  35.060  1.00  0.00     0.002 A 
ATOM     81  C   UNL A   1      45.697  25.772  35.838  1.00  0.00     0.091 A 
ATOM     82  F   UNL A   1      43.476  25.483  35.018  1.00  0.00    -0.205 F 
ATOM     83  C   UNL A   1      46.897  26.501  35.829  1.00  0.00     0.022 A 
BRANCH  81  84
ATOM     84  S   UNL A   1      45.608  24.349  36.932  1.00  0.00     0.127 S 
ATOM     85  O   UNL A   1      46.951  24.332  37.508  1.00  0.00    -0.237 OA
ATOM     86  O   UNL A   1      44.549  24.737  37.865  1.00  0.00    -0.237 OA
ATOM     87  O   UNL A   1      45.275  23.213  36.083  1.00  0.00    -0.744 OA
ENDBRANCH  81  84
ENDBRANCH  54  77
ENDBRANCH  28  29
ENDBRANCH  21  23
ENDBRANCH  20  21
ENDBRANCH  19  20
ENDBRANCH   1  19
TORSDOF 19
ENDMDL
MODEL 3
REMARK VINA RESULT:     -10.6      6.063     12.037
REMARK SMILES Nc1ccc(O)c(C(=O)OCCOCCOC(=O)c2ccc(-c3c4nc(c(-c5cccc(S(=O)(=O)[O-])c5F)c5ccc([nH]5)c(-c5cccc(S(=O)(=O)[O-])c5F)c5nc(c(-c6cccc(S(=O)(=O)[O-])c6F)c6ccc3[nH]6)C=C5)C=C4)cc2)c1
REMARK SMILES IDX 14 1 13 2 12 3 11 4 10 5 8 6 9 7 7 8 2 9 3 10 82 11 4 12
REMARK SMILES IDX 5 13 1 14 6 17 15 19 16 20 17 21 18 22 19 23 20 24 81 25
REMARK SMILES IDX 21 26 80 27 22 28 23 29 24 30 74 31 25 32 79 33 73 34 75 35
REMARK SMILES IDX 26 36 78 37 72 38 71 39 27 41 59 42 39 43 58 44 40 45 43 46
REMARK SMILES IDX 57 47 76 48 41 49 42 50 56 52 77 53 44 54 28 55 29 56 37 57
REMARK SMILES IDX 30 58 32 59 38 60 31 61 33 62 34 63 35 64 36 65 60 66 61 67
REMARK SMILES IDX 69 68 62 69 64 70 70 71 63 72 65 73 66 74 67 75 68 76 45 77
REMARK SMILES IDX 46 78 54 79 47 80 49 81 55 82 48 83 50 84 51 85 52 86 53 87
REMARK H PARENT 1 15 1 16 6 18 75 40 43 51
REMARK Flexibility Score: inf
ROOT
ATOM      1  C   UNL A   1      33.870  34.385  29.220  1.00  0.00     0.202 C 
ENDROOT
BRANCH   1   2
ATOM      2  O   UNL A   1      32.689  34.909  29.833  1.00  0.00    -0.374 OA
BRANCH   2   3
ATOM      3  C   UNL A   1      32.844  36.120  30.576  1.00  0.00     0.202 C 
BRANCH   3   4
ATOM      4  C   UNL A   1      32.938  35.951  32.097  1.00  0.00     0.261 C 
BRANCH   4   5
ATOM      5  O   UNL A   1      34.281  35.632  32.503  1.00  0.00    -0.460 OA
BRANCH   5   6
ATOM      6  C   UNL A   1      34.450  34.388  33.008  1.00  0.00     0.342 C 
ATOM      7  O   UNL A   1      33.703  33.429  32.866  1.00  0.00    -0.246 OA
BRANCH   6   8
ATOM      8  C   UNL A   1      35.793  34.232  33.610  1.00  0.00     0.103 A 
ATOM      9  C   UNL A   1      37.257  33.761  35.494  1.00  0.00     0.032 A 
ATOM     10  C   UNL A   1      38.360  34.049  34.684  1.00  0.00     0.029 A 
ATOM     11  C   UNL A   1      35.970  33.888  34.959  1.00  0.00     0.045 A 
ATOM     12  C   UNL A   1      38.193  34.406  33.345  1.00  0.00     0.049 A 
ATOM     13  C   UNL A   1      36.914  34.488  32.809  1.00  0.00     0.130 A 
BRANCH   9  14
ATOM     14  N   UNL A   1      37.438  33.477  36.836  1.00  0.00    -0.399 N 
ATOM     15  H   UNL A   1      37.292  32.563  37.171  1.00  0.00     0.156 HD
ATOM     16  H   UNL A   1      37.711  34.191  37.458  1.00  0.00     0.156 HD
ENDBRANCH   9  14
BRANCH  13  17
ATOM     17  O   UNL A   1      36.832  34.859  31.492  1.00  0.00    -0.507 OA
ATOM     18  H   UNL A   1      36.616  35.742  31.267  1.00  0.00     0.293 HD
ENDBRANCH  13  17
ENDBRANCH   6   8
ENDBRANCH   5   6
ENDBRANCH   4   5
ENDBRANCH   3   4
ENDBRANCH   2   3
ENDBRANCH   1   2
BRANCH   1  19
ATOM     19  C   UNL A   1      33.644  33.365  28.098  1.00  0.00     0.261 C 
BRANCH  19  20
ATOM     20  O   UNL A   1      34.792  32.516  27.919  1.00  0.00    -0.460 OA
BRANCH  20  21
ATOM     21  C   UNL A   1      34.541  31.189  27.994  1.00  0.00     0.338 C 
ATOM     22  O   UNL A   1      33.481  30.625  27.750  1.00  0.00    -0.246 OA
BRANCH  21  23
ATOM     23  C   UNL A   1      35.794  30.451  28.243  1.00  0.00     0.060 A 
ATOM     24  C   UNL A   1      35.914  29.781  29.468  1.00  0.00     0.016 A 
ATOM     25  C   UNL A   1      36.850  30.449  27.328  1.00  0.00     0.016 A 
ATOM     26  C   UNL A   1      37.112  29.155  29.807  1.00  0.00     0.010 A 
ATOM     27  C   UNL A   1      38.053  29.823  27.674  1.00  0.00     0.010 A 
ATOM     28  C   UNL A   1      38.201  29.206  28.929  1.00  0.00    -0.014 A 
BRANCH  28  29
ATOM     29  C   UNL A   1      39.532  28.734  29.383  1.00  0.00     0.031 A 
ATOM     30  C   UNL A   1      40.236  29.479  30.485  1.00  0.00     0.074 A 
ATOM     31  C   UNL A   1      40.104  27.650  28.827  1.00  0.00     0.049 A 
ATOM     32  N   UNL A   1      41.406  29.249  31.022  1.00  0.00    -0.248 NA
ATOM     33  C   UNL A   1      39.528  30.637  31.056  1.00  0.00     0.031 C 
ATOM     34  C   UNL A   1      39.521  26.845  27.754  1.00  0.00     0.029 A 
ATOM     35  N   UNL A   1      41.316  27.055  29.075  1.00  0.00    -0.354 N 
ATOM     36  C   UNL A   1      41.586  30.244  31.976  1.00  0.00     0.074 A 
ATOM     37  C   UNL A   1      40.412  31.088  31.935  1.00  0.00     0.031 C 
ATOM     38  C   UNL A   1      40.392  25.878  27.414  1.00  0.00     0.029 A 
ATOM     39  C   UNL A   1      41.597  26.007  28.231  1.00  0.00     0.049 A 
ATOM     40  H   UNL A   1      41.925  27.351  29.789  1.00  0.00     0.167 HD
ATOM     41  C   UNL A   1      42.626  30.429  32.823  1.00  0.00     0.034 A 
ATOM     42  C   UNL A   1      42.708  25.252  28.119  1.00  0.00     0.034 A 
ATOM     43  C   UNL A   1      43.782  29.576  32.881  1.00  0.00     0.049 A 
ATOM     44  C   UNL A   1      43.860  25.489  29.063  1.00  0.00     0.074 A 
ATOM     45  C   UNL A   1      44.867  29.655  33.736  1.00  0.00     0.029 A 
ATOM     46  N   UNL A   1      44.009  28.495  32.045  1.00  0.00    -0.354 N 
ATOM     47  N   UNL A   1      43.959  26.355  30.042  1.00  0.00    -0.248 NA
ATOM     48  C   UNL A   1      45.037  24.623  28.908  1.00  0.00     0.031 C 
ATOM     49  C   UNL A   1      45.760  28.632  33.403  1.00  0.00     0.029 A 
ATOM     50  C   UNL A   1      45.220  27.902  32.356  1.00  0.00     0.049 A 
ATOM     51  H   UNL A   1      43.399  28.192  31.334  1.00  0.00     0.167 HD
ATOM     52  C   UNL A   1      45.191  26.114  30.642  1.00  0.00     0.074 A 
ATOM     53  C   UNL A   1      45.793  25.007  29.929  1.00  0.00     0.031 C 
ATOM     54  C   UNL A   1      45.780  26.762  31.678  1.00  0.00     0.034 A 
BRANCH  41  55
ATOM     55  C   UNL A   1      42.545  31.578  33.792  1.00  0.00     0.023 A 
ATOM     56  C   UNL A   1      42.982  32.856  33.388  1.00  0.00     0.012 A 
ATOM     57  C   UNL A   1      41.977  31.412  35.069  1.00  0.00     0.148 A 
ATOM     58  C   UNL A   1      42.875  33.947  34.250  1.00  0.00     0.002 A 
ATOM     59  C   UNL A   1      41.837  32.511  35.908  1.00  0.00     0.091 A 
ATOM     60  F   UNL A   1      41.589  30.182  35.441  1.00  0.00    -0.205 F 
ATOM     61  C   UNL A   1      42.293  33.776  35.504  1.00  0.00     0.022 A 
BRANCH  59  62
ATOM     62  S   UNL A   1      41.037  32.411  37.513  1.00  0.00     0.127 S 
ATOM     63  O   UNL A   1      40.946  33.823  37.885  1.00  0.00    -0.237 OA
ATOM     64  O   UNL A   1      39.757  31.785  37.181  1.00  0.00    -0.237 OA
ATOM     65  O   UNL A   1      41.911  31.601  38.349  1.00  0.00    -0.744 OA
ENDBRANCH  59  62
ENDBRANCH  41  55
BRANCH  42  66
ATOM     66  C   UNL A   1      42.778  24.172  27.093  1.00  0.00     0.023 A 
ATOM     67  C   UNL A   1      43.497  24.389  25.903  1.00  0.00     0.012 A 
ATOM     68  C   UNL A   1      42.141  22.932  27.294  1.00  0.00     0.148 A 
ATOM     69  C   UNL A   1      43.553  23.403  24.916  1.00  0.00     0.002 A 
ATOM     70  C   UNL A   1      42.247  21.934  26.332  1.00  0.00     0.091 A 
ATOM     71  F   UNL A   1      41.442  22.751  28.423  1.00  0.00    -0.205 F 
ATOM     72  C   UNL A   1      42.938  22.173  25.135  1.00  0.00     0.022 A 
BRANCH  70  73
ATOM     73  S   UNL A   1      41.597  20.280  26.596  1.00  0.00     0.127 S 
ATOM     74  O   UNL A   1      40.158  20.526  26.632  1.00  0.00    -0.237 OA
ATOM     75  O   UNL A   1      42.073  19.572  25.406  1.00  0.00    -0.237 OA
ATOM     76  O   UNL A   1      42.197  19.821  27.842  1.00  0.00    -0.744 OA
ENDBRANCH  70  73
ENDBRANCH  42  66
BRANCH  54  77
ATOM     77  C   UNL A   1      47.130  26.274  32.134  1.00  0.00     0.023 A 
ATOM     78  C   UNL A   1      48.300  26.856  31.606  1.00  0.00     0.012 A 
ATOM     79  C   UNL A   1      47.240  25.296  33.143  1.00  0.00     0.148 A 
ATOM     80  C   UNL A   1      49.557  26.452  32.054  1.00  0.00     0.002 A 
ATOM     81  C   UNL A   1      48.494  24.932  33.618  1.00  0.00     0.091 A 
ATOM     82  F   UNL A   1      46.116  24.741  33.621  1.00  0.00    -0.205 F 
ATOM     83  C   UNL A   1      49.654  25.500  33.067  1.00  0.00     0.022 A 
BRANCH  81  84
ATOM     84  S   UNL A   1      48.710  23.785  34.984  1.00  0.00     0.127 S 
ATOM     85  O   UNL A   1      48.233  24.576  36.116  1.00  0.00    -0.237 OA
ATOM     86  O   UNL A   1      47.835  22.676  34.602  1.00  0.00    -0.237 OA
ATOM     87  O   UNL A   1      50.128  23.451  35.004  1.00  0.00    -0.744 OA
ENDBRANCH  81  84
ENDBRANCH  54  77
ENDBRANCH  28  29
ENDBRANCH  21  23
ENDBRANCH  20  21
ENDBRANCH  19  20
ENDBRANCH   1  19
TORSDOF 19
ENDMDL
