MODEL 1
REMARK VINA RESULT:     -12.1      0.000      0.000
REMARK SMILES O=C(OCCOCCOC(=O)c1ccccc1NC(=O)c1cc2cc(Cl)cc(Cl)c2oc1=O)c1ccc(-c2c3nc(c(-c4cccc(S(=O)(=O)[O-])c4F)c4ccc([nH]4)c(-c4cccc(S(=O)(=O)[O-])c4F)c4nc(c(-c5cccc(S(=O)(=O)[O-])c5F)c5ccc2[nH]5)C=C4)C=C3)cc1
REMARK SMILES IDX 5 1 4 2 3 3 2 4 1 5 34 6 35 7 96 8 36 9 95 10 37 11 38 12
REMARK SMILES IDX 39 13 89 14 40 15 94 16 88 17 90 18 41 19 93 20 87 21 86 22
REMARK SMILES IDX 42 24 74 25 54 26 73 27 55 28 58 29 72 30 91 31 56 32 57 33
REMARK SMILES IDX 71 35 92 36 59 37 43 38 44 39 52 40 45 41 47 42 53 43 46 44
REMARK SMILES IDX 48 45 49 46 50 47 51 48 75 49 76 50 84 51 77 52 79 53 85 54
REMARK SMILES IDX 78 55 80 56 81 57 82 58 83 59 60 60 61 61 69 62 62 63 64 64
REMARK SMILES IDX 70 65 63 66 65 67 66 68 67 69 68 70 6 71 7 72 8 73 9 74
REMARK SMILES IDX 10 75 11 76 12 77 13 78 17 79 14 80 16 81 15 82 18 83 19 84
REMARK SMILES IDX 20 86 21 87 22 88 32 89 23 90 31 91 33 92 24 93 30 94 25 95
REMARK SMILES IDX 28 96 26 97 27 98 29 99
REMARK H PARENT 90 23 58 34 18 85
REMARK Flexibility Score: inf
ROOT
ATOM      1  C   UNL A   1      38.342  19.809  24.891  1.00  0.00     0.202 C 
ENDROOT
BRANCH   1   2
ATOM      2  C   UNL A   1      39.207  19.543  26.125  1.00  0.00     0.261 C 
BRANCH   2   3
ATOM      3  O   UNL A   1      40.512  19.090  25.727  1.00  0.00    -0.460 OA
BRANCH   3   4
ATOM      4  C   UNL A   1      41.719  19.510  26.176  1.00  0.00     0.338 C 
ATOM      5  O   UNL A   1      42.595  18.671  26.373  1.00  0.00    -0.246 OA
BRANCH   4   6
ATOM      6  C   UNL A   1      42.035  20.944  26.456  1.00  0.00     0.060 A 
ATOM      7  C   UNL A   1      42.020  21.957  25.498  1.00  0.00     0.016 A 
ATOM      8  C   UNL A   1      42.264  21.306  27.793  1.00  0.00     0.016 A 
ATOM      9  C   UNL A   1      42.288  23.274  25.821  1.00  0.00     0.010 A 
ATOM     10  C   UNL A   1      42.492  22.641  28.142  1.00  0.00     0.010 A 
ATOM     11  C   UNL A   1      42.517  23.624  27.146  1.00  0.00    -0.014 A 
BRANCH  11  12
ATOM     12  C   UNL A   1      42.869  25.025  27.419  1.00  0.00     0.031 A 
ATOM     13  C   UNL A   1      44.187  25.531  26.930  1.00  0.00     0.074 A 
ATOM     14  C   UNL A   1      41.951  25.835  27.976  1.00  0.00     0.049 A 
ATOM     15  N   UNL A   1      44.716  26.714  27.066  1.00  0.00    -0.248 NA
ATOM     16  C   UNL A   1      45.016  24.580  26.167  1.00  0.00     0.031 C 
ATOM     17  C   UNL A   1      40.599  25.427  28.373  1.00  0.00     0.029 A 
ATOM     18  N   UNL A   1      42.002  27.165  28.286  1.00  0.00    -0.354 N 
ATOM     19  C   UNL A   1      45.961  26.636  26.459  1.00  0.00     0.074 A 
ATOM     20  C   UNL A   1      46.102  25.299  25.930  1.00  0.00     0.031 C 
ATOM     21  C   UNL A   1      39.949  26.490  28.872  1.00  0.00     0.029 A 
ATOM     22  C   UNL A   1      40.858  27.629  28.892  1.00  0.00     0.049 A 
ATOM     23  H   UNL A   1      42.782  27.735  28.095  1.00  0.00     0.167 HD
ATOM     24  C   UNL A   1      46.902  27.602  26.366  1.00  0.00     0.034 A 
ATOM     25  C   UNL A   1      40.601  28.833  29.436  1.00  0.00     0.034 A 
ATOM     26  C   UNL A   1      46.720  28.922  26.899  1.00  0.00     0.049 A 
ATOM     27  C   UNL A   1      41.688  29.871  29.368  1.00  0.00     0.074 A 
ATOM     28  C   UNL A   1      47.608  29.978  26.916  1.00  0.00     0.029 A 
ATOM     29  N   UNL A   1      45.558  29.360  27.523  1.00  0.00    -0.354 N 
ATOM     30  N   UNL A   1      42.865  29.794  28.791  1.00  0.00    -0.248 NA
ATOM     31  C   UNL A   1      41.417  31.160  30.015  1.00  0.00     0.031 C 
ATOM     32  C   UNL A   1      46.992  31.048  27.575  1.00  0.00     0.029 A 
ATOM     33  C   UNL A   1      45.706  30.669  27.938  1.00  0.00     0.049 A 
ATOM     34  H   UNL A   1      44.747  28.816  27.650  1.00  0.00     0.167 HD
ATOM     35  C   UNL A   1      43.468  31.029  28.984  1.00  0.00     0.074 A 
ATOM     36  C   UNL A   1      42.511  31.844  29.709  1.00  0.00     0.031 C 
ATOM     37  C   UNL A   1      44.703  31.452  28.617  1.00  0.00     0.034 A 
BRANCH  24  38
ATOM     38  C   UNL A   1      48.205  27.230  25.715  1.00  0.00     0.023 A 
ATOM     39  C   UNL A   1      49.265  26.713  26.489  1.00  0.00     0.012 A 
ATOM     40  C   UNL A   1      48.389  27.425  24.333  1.00  0.00     0.148 A 
ATOM     41  C   UNL A   1      50.500  26.434  25.902  1.00  0.00     0.002 A 
ATOM     42  C   UNL A   1      49.608  27.107  23.749  1.00  0.00     0.091 A 
ATOM     43  F   UNL A   1      47.380  27.946  23.622  1.00  0.00    -0.205 F 
ATOM     44  C   UNL A   1      50.670  26.625  24.533  1.00  0.00     0.022 A 
BRANCH  42  45
ATOM     45  S   UNL A   1      49.910  27.269  21.985  1.00  0.00     0.127 S 
ATOM     46  O   UNL A   1      51.308  26.853  21.886  1.00  0.00    -0.237 OA
ATOM     47  O   UNL A   1      48.950  26.320  21.424  1.00  0.00    -0.237 OA
ATOM     48  O   UNL A   1      49.651  28.665  21.659  1.00  0.00    -0.744 OA
ENDBRANCH  42  45
ENDBRANCH  24  38
BRANCH  25  49
ATOM     49  C   UNL A   1      39.290  29.104  30.094  1.00  0.00     0.023 A 
ATOM     50  C   UNL A   1      39.015  28.559  31.362  1.00  0.00     0.012 A 
ATOM     51  C   UNL A   1      38.319  29.920  29.477  1.00  0.00     0.148 A 
ATOM     52  C   UNL A   1      37.789  28.798  31.990  1.00  0.00     0.002 A 
ATOM     53  C   UNL A   1      37.125  30.201  30.131  1.00  0.00     0.091 A 
ATOM     54  F   UNL A   1      38.584  30.415  28.259  1.00  0.00    -0.205 F 
ATOM     55  C   UNL A   1      36.850  29.627  31.381  1.00  0.00     0.022 A 
BRANCH  53  56
ATOM     56  S   UNL A   1      35.918  31.358  29.473  1.00  0.00     0.127 S 
ATOM     57  O   UNL A   1      35.158  31.711  30.670  1.00  0.00    -0.237 OA
ATOM     58  O   UNL A   1      36.773  32.425  28.949  1.00  0.00    -0.237 OA
ATOM     59  O   UNL A   1      35.187  30.622  28.451  1.00  0.00    -0.744 OA
ENDBRANCH  53  56
ENDBRANCH  25  49
BRANCH  37  60
ATOM     60  C   UNL A   1      45.073  32.865  28.966  1.00  0.00     0.023 A 
ATOM     61  C   UNL A   1      45.795  33.130  30.144  1.00  0.00     0.012 A 
ATOM     62  C   UNL A   1      44.784  33.914  28.072  1.00  0.00     0.148 A 
ATOM     63  C   UNL A   1      46.203  34.429  30.442  1.00  0.00     0.002 A 
ATOM     64  C   UNL A   1      45.241  35.194  28.349  1.00  0.00     0.091 A 
ATOM     65  F   UNL A   1      44.075  33.637  26.967  1.00  0.00    -0.205 F 
ATOM     66  C   UNL A   1      45.939  35.457  29.540  1.00  0.00     0.022 A 
BRANCH  64  67
ATOM     67  S   UNL A   1      45.043  36.551  27.190  1.00  0.00     0.127 S 
ATOM     68  O   UNL A   1      45.261  37.712  28.050  1.00  0.00    -0.237 OA
ATOM     69  O   UNL A   1      46.115  36.294  26.228  1.00  0.00    -0.237 OA
ATOM     70  O   UNL A   1      43.699  36.419  26.644  1.00  0.00    -0.744 OA
ENDBRANCH  64  67
ENDBRANCH  37  60
ENDBRANCH  11  12
ENDBRANCH   4   6
ENDBRANCH   3   4
ENDBRANCH   2   3
ENDBRANCH   1   2
BRANCH   1  71
ATOM     71  O   UNL A   1      37.937  21.167  24.731  1.00  0.00    -0.374 OA
BRANCH  71  72
ATOM     72  C   UNL A   1      38.287  22.071  25.787  1.00  0.00     0.202 C 
BRANCH  72  73
ATOM     73  C   UNL A   1      37.318  23.255  25.748  1.00  0.00     0.261 C 
BRANCH  73  74
ATOM     74  O   UNL A   1      36.130  22.799  25.076  1.00  0.00    -0.460 OA
BRANCH  74  75
ATOM     75  C   UNL A   1      35.072  22.558  25.893  1.00  0.00     0.340 C 
ATOM     76  O   UNL A   1      34.811  23.150  26.929  1.00  0.00    -0.246 OA
BRANCH  75  77
ATOM     77  C   UNL A   1      34.146  21.586  25.243  1.00  0.00     0.083 A 
ATOM     78  C   UNL A   1      34.686  20.313  24.984  1.00  0.00     0.018 A 
ATOM     79  C   UNL A   1      32.796  21.855  24.928  1.00  0.00     0.056 A 
ATOM     80  C   UNL A   1      33.905  19.313  24.411  1.00  0.00     0.001 A 
ATOM     81  C   UNL A   1      32.036  20.850  24.315  1.00  0.00     0.027 A 
ATOM     82  C   UNL A   1      32.588  19.589  24.062  1.00  0.00     0.002 A 
BRANCH  79  83
ATOM     83  N   UNL A   1      32.195  23.058  25.361  1.00  0.00    -0.321 N 
ATOM     84  C   UNL A   1      31.582  24.071  24.687  1.00  0.00     0.263 C 
ATOM     85  H   UNL A   1      32.224  23.189  26.336  1.00  0.00     0.170 HD
ATOM     86  O   UNL A   1      30.734  24.758  25.256  1.00  0.00    -0.269 OA
BRANCH  84  87
ATOM     87  C   UNL A   1      32.086  24.406  23.316  1.00  0.00     0.126 A 
ATOM     88  C   UNL A   1      31.356  25.262  22.564  1.00  0.00     0.033 A 
ATOM     89  C   UNL A   1      33.499  24.881  23.315  1.00  0.00     0.349 A 
ATOM     90  C   UNL A   1      31.385  26.643  23.099  1.00  0.00     0.021 A 
ATOM     91  O   UNL A   1      33.646  26.163  23.853  1.00  0.00    -0.421 OA
ATOM     92  O   UNL A   1      34.429  24.212  22.888  1.00  0.00    -0.245 OA
ATOM     93  C   UNL A   1      30.328  27.532  22.934  1.00  0.00     0.032 A 
ATOM     94  C   UNL A   1      32.529  27.037  23.812  1.00  0.00     0.157 A 
ATOM     95  C   UNL A   1      30.410  28.797  23.521  1.00  0.00     0.043 A 
ATOM     96  C   UNL A   1      32.593  28.286  24.426  1.00  0.00     0.085 A 
ATOM     97  Cl  UNL A   1      29.122  29.918  23.297  1.00  0.00    -0.084 Cl
ATOM     98  C   UNL A   1      31.523  29.170  24.281  1.00  0.00     0.045 A 
ATOM     99  Cl  UNL A   1      33.958  28.764  25.357  1.00  0.00    -0.080 Cl
ENDBRANCH  84  87
ENDBRANCH  79  83
ENDBRANCH  75  77
ENDBRANCH  74  75
ENDBRANCH  73  74
ENDBRANCH  72  73
ENDBRANCH  71  72
ENDBRANCH   1  71
TORSDOF 19
ENDMDL
MODEL 2
REMARK VINA RESULT:     -11.7      5.929      9.762
REMARK SMILES O=C(OCCOCCOC(=O)c1ccccc1NC(=O)c1cc2cc(Cl)cc(Cl)c2oc1=O)c1ccc(-c2c3nc(c(-c4cccc(S(=O)(=O)[O-])c4F)c4ccc([nH]4)c(-c4cccc(S(=O)(=O)[O-])c4F)c4nc(c(-c5cccc(S(=O)(=O)[O-])c5F)c5ccc2[nH]5)C=C4)C=C3)cc1
REMARK SMILES IDX 5 1 4 2 3 3 2 4 1 5 34 6 35 7 96 8 36 9 95 10 37 11 38 12
REMARK SMILES IDX 39 13 89 14 40 15 94 16 88 17 90 18 41 19 93 20 87 21 86 22
REMARK SMILES IDX 42 24 74 25 54 26 73 27 55 28 58 29 72 30 91 31 56 32 57 33
REMARK SMILES IDX 71 35 92 36 59 37 43 38 44 39 52 40 45 41 47 42 53 43 46 44
REMARK SMILES IDX 48 45 49 46 50 47 51 48 75 49 76 50 84 51 77 52 79 53 85 54
REMARK SMILES IDX 78 55 80 56 81 57 82 58 83 59 60 60 61 61 69 62 62 63 64 64
REMARK SMILES IDX 70 65 63 66 65 67 66 68 67 69 68 70 6 71 7 72 8 73 9 74
REMARK SMILES IDX 10 75 11 76 12 77 13 78 17 79 14 80 16 81 15 82 18 83 19 84
REMARK SMILES IDX 20 86 21 87 22 88 32 89 23 90 31 91 33 92 24 93 30 94 25 95
REMARK SMILES IDX 28 96 26 97 27 98 29 99
REMARK H PARENT 90 23 58 34 18 85
REMARK Flexibility Score: inf
ROOT
ATOM      1  C   UNL A   1      33.505  32.218  27.270  1.00  0.00     0.202 C 
ENDROOT
BRANCH   1   2
ATOM      2  C   UNL A   1      32.227  33.002  27.578  1.00  0.00     0.261 C 
BRANCH   2   3
ATOM      3  O   UNL A   1      32.551  34.360  27.923  1.00  0.00    -0.460 OA
BRANCH   3   4
ATOM      4  C   UNL A   1      33.105  34.825  29.068  1.00  0.00     0.338 C 
ATOM      5  O   UNL A   1      32.630  35.836  29.581  1.00  0.00    -0.246 OA
BRANCH   4   6
ATOM      6  C   UNL A   1      34.276  34.176  29.733  1.00  0.00     0.060 A 
ATOM      7  C   UNL A   1      34.179  33.250  30.772  1.00  0.00     0.016 A 
ATOM      8  C   UNL A   1      35.549  34.445  29.208  1.00  0.00     0.016 A 
ATOM      9  C   UNL A   1      35.297  32.655  31.328  1.00  0.00     0.010 A 
ATOM     10  C   UNL A   1      36.685  33.816  29.730  1.00  0.00     0.010 A 
ATOM     11  C   UNL A   1      36.554  32.929  30.805  1.00  0.00    -0.014 A 
BRANCH  11  12
ATOM     12  C   UNL A   1      37.710  32.325  31.483  1.00  0.00     0.031 A 
ATOM     13  C   UNL A   1      38.444  31.227  30.785  1.00  0.00     0.074 A 
ATOM     14  C   UNL A   1      38.148  32.862  32.635  1.00  0.00     0.049 A 
ATOM     15  N   UNL A   1      39.473  30.538  31.190  1.00  0.00    -0.248 NA
ATOM     16  C   UNL A   1      37.965  30.865  29.439  1.00  0.00     0.031 C 
ATOM     17  C   UNL A   1      37.542  34.013  33.311  1.00  0.00     0.029 A 
ATOM     18  N   UNL A   1      39.210  32.531  33.430  1.00  0.00    -0.354 N 
ATOM     19  C   UNL A   1      39.731  29.624  30.178  1.00  0.00     0.074 A 
ATOM     20  C   UNL A   1      38.768  29.860  29.127  1.00  0.00     0.031 C 
ATOM     21  C   UNL A   1      38.246  34.293  34.420  1.00  0.00     0.029 A 
ATOM     22  C   UNL A   1      39.306  33.303  34.563  1.00  0.00     0.049 A 
ATOM     23  H   UNL A   1      39.844  31.810  33.211  1.00  0.00     0.167 HD
ATOM     24  C   UNL A   1      40.686  28.668  30.145  1.00  0.00     0.034 A 
ATOM     25  C   UNL A   1      40.136  33.186  35.616  1.00  0.00     0.034 A 
ATOM     26  C   UNL A   1      41.629  28.472  31.208  1.00  0.00     0.049 A 
ATOM     27  C   UNL A   1      41.152  32.077  35.577  1.00  0.00     0.074 A 
ATOM     28  C   UNL A   1      42.615  27.512  31.323  1.00  0.00     0.029 A 
ATOM     29  N   UNL A   1      41.692  29.256  32.353  1.00  0.00    -0.354 N 
ATOM     30  N   UNL A   1      41.394  31.215  34.616  1.00  0.00    -0.248 NA
ATOM     31  C   UNL A   1      42.014  31.923  36.755  1.00  0.00     0.031 C 
ATOM     32  C   UNL A   1      43.257  27.701  32.552  1.00  0.00     0.029 A 
ATOM     33  C   UNL A   1      42.694  28.800  33.187  1.00  0.00     0.049 A 
ATOM     34  H   UNL A   1      41.108  30.026  32.541  1.00  0.00     0.167 HD
ATOM     35  C   UNL A   1      42.449  30.431  35.061  1.00  0.00     0.074 A 
ATOM     36  C   UNL A   1      42.817  30.941  36.370  1.00  0.00     0.031 C 
ATOM     37  C   UNL A   1      43.050  29.374  34.461  1.00  0.00     0.034 A 
BRANCH  24  38
ATOM     38  C   UNL A   1      40.701  27.755  28.950  1.00  0.00     0.023 A 
ATOM     39  C   UNL A   1      39.806  26.667  28.876  1.00  0.00     0.012 A 
ATOM     40  C   UNL A   1      41.630  27.959  27.913  1.00  0.00     0.148 A 
ATOM     41  C   UNL A   1      39.865  25.775  27.805  1.00  0.00     0.002 A 
ATOM     42  C   UNL A   1      41.655  27.090  26.830  1.00  0.00     0.091 A 
ATOM     43  F   UNL A   1      42.491  28.981  28.019  1.00  0.00    -0.205 F 
ATOM     44  C   UNL A   1      40.784  25.989  26.780  1.00  0.00     0.022 A 
BRANCH  42  45
ATOM     45  S   UNL A   1      42.767  27.310  25.436  1.00  0.00     0.127 S 
ATOM     46  O   UNL A   1      42.582  26.054  24.710  1.00  0.00    -0.237 OA
ATOM     47  O   UNL A   1      42.198  28.484  24.776  1.00  0.00    -0.237 OA
ATOM     48  O   UNL A   1      44.092  27.511  26.005  1.00  0.00    -0.744 OA
ENDBRANCH  42  45
ENDBRANCH  24  38
BRANCH  25  49
ATOM     49  C   UNL A   1      40.027  34.117  36.776  1.00  0.00     0.023 A 
ATOM     50  C   UNL A   1      40.477  35.445  36.655  1.00  0.00     0.012 A 
ATOM     51  C   UNL A   1      39.459  33.698  37.997  1.00  0.00     0.148 A 
ATOM     52  C   UNL A   1      40.388  36.329  37.734  1.00  0.00     0.002 A 
ATOM     53  C   UNL A   1      39.321  34.598  39.048  1.00  0.00     0.091 A 
ATOM     54  F   UNL A   1      39.054  32.424  38.107  1.00  0.00    -0.205 F 
ATOM     55  C   UNL A   1      39.800  35.910  38.925  1.00  0.00     0.022 A 
BRANCH  53  56
ATOM     56  S   UNL A   1      38.462  34.173  40.569  1.00  0.00     0.127 S 
ATOM     57  O   UNL A   1      37.256  33.525  40.060  1.00  0.00    -0.237 OA
ATOM     58  O   UNL A   1      39.418  33.275  41.217  1.00  0.00    -0.237 OA
ATOM     59  O   UNL A   1      38.259  35.434  41.268  1.00  0.00    -0.744 OA
ENDBRANCH  53  56
ENDBRANCH  25  49
BRANCH  37  60
ATOM     60  C   UNL A   1      44.186  28.725  35.199  1.00  0.00     0.023 A 
ATOM     61  C   UNL A   1      45.496  29.218  35.044  1.00  0.00     0.012 A 
ATOM     62  C   UNL A   1      43.934  27.688  36.118  1.00  0.00     0.148 A 
ATOM     63  C   UNL A   1      46.545  28.669  35.777  1.00  0.00     0.002 A 
ATOM     64  C   UNL A   1      44.976  27.184  36.883  1.00  0.00     0.091 A 
ATOM     65  F   UNL A   1      42.682  27.222  36.230  1.00  0.00    -0.205 F 
ATOM     66  C   UNL A   1      46.284  27.663  36.705  1.00  0.00     0.022 A 
BRANCH  64  67
ATOM     67  S   UNL A   1      44.709  25.969  38.178  1.00  0.00     0.127 S 
ATOM     68  O   UNL A   1      43.725  26.645  39.021  1.00  0.00    -0.237 OA
ATOM     69  O   UNL A   1      44.187  24.826  37.427  1.00  0.00    -0.237 OA
ATOM     70  O   UNL A   1      46.010  25.743  38.791  1.00  0.00    -0.744 OA
ENDBRANCH  64  67
ENDBRANCH  37  60
ENDBRANCH  11  12
ENDBRANCH   4   6
ENDBRANCH   3   4
ENDBRANCH   2   3
ENDBRANCH   1   2
BRANCH   1  71
ATOM     71  O   UNL A   1      33.638  30.994  27.989  1.00  0.00    -0.374 OA
BRANCH  71  72
ATOM     72  C   UNL A   1      34.575  30.042  27.469  1.00  0.00     0.202 C 
BRANCH  72  73
ATOM     73  C   UNL A   1      33.791  28.884  26.848  1.00  0.00     0.261 C 
BRANCH  73  74
ATOM     74  O   UNL A   1      33.324  29.337  25.565  1.00  0.00    -0.460 OA
BRANCH  74  75
ATOM     75  C   UNL A   1      33.194  28.361  24.629  1.00  0.00     0.340 C 
ATOM     76  O   UNL A   1      34.017  27.498  24.368  1.00  0.00    -0.246 OA
BRANCH  75  77
ATOM     77  C   UNL A   1      31.804  28.365  24.088  1.00  0.00     0.083 A 
ATOM     78  C   UNL A   1      31.106  29.579  24.216  1.00  0.00     0.018 A 
ATOM     79  C   UNL A   1      31.195  27.268  23.438  1.00  0.00     0.056 A 
ATOM     80  C   UNL A   1      29.813  29.711  23.717  1.00  0.00     0.001 A 
ATOM     81  C   UNL A   1      29.879  27.407  22.977  1.00  0.00     0.027 A 
ATOM     82  C   UNL A   1      29.196  28.621  23.114  1.00  0.00     0.002 A 
BRANCH  79  83
ATOM     83  N   UNL A   1      31.955  26.118  23.132  1.00  0.00    -0.321 N 
ATOM     84  C   UNL A   1      31.796  24.802  23.452  1.00  0.00     0.263 C 
ATOM     85  H   UNL A   1      32.751  26.300  22.583  1.00  0.00     0.170 HD
ATOM     86  O   UNL A   1      32.268  23.934  22.719  1.00  0.00    -0.269 OA
BRANCH  84  87
ATOM     87  C   UNL A   1      31.181  24.473  24.779  1.00  0.00     0.126 A 
ATOM     88  C   UNL A   1      30.920  23.174  25.051  1.00  0.00     0.033 A 
ATOM     89  C   UNL A   1      31.939  25.043  25.929  1.00  0.00     0.349 A 
ATOM     90  C   UNL A   1      32.158  22.381  25.235  1.00  0.00     0.021 A 
ATOM     91  O   UNL A   1      33.157  24.397  26.156  1.00  0.00    -0.421 OA
ATOM     92  O   UNL A   1      31.531  25.982  26.599  1.00  0.00    -0.245 OA
ATOM     93  C   UNL A   1      32.232  21.026  24.926  1.00  0.00     0.032 A 
ATOM     94  C   UNL A   1      33.291  23.053  25.724  1.00  0.00     0.157 A 
ATOM     95  C   UNL A   1      33.454  20.365  25.072  1.00  0.00     0.043 A 
ATOM     96  C   UNL A   1      34.516  22.399  25.834  1.00  0.00     0.085 A 
ATOM     97  Cl  UNL A   1      33.549  18.681  24.725  1.00  0.00    -0.084 Cl
ATOM     98  C   UNL A   1      34.597  21.045  25.503  1.00  0.00     0.045 A 
ATOM     99  Cl  UNL A   1      35.930  23.219  26.370  1.00  0.00    -0.080 Cl
ENDBRANCH  84  87
ENDBRANCH  79  83
ENDBRANCH  75  77
ENDBRANCH  74  75
ENDBRANCH  73  74
ENDBRANCH  72  73
ENDBRANCH  71  72
ENDBRANCH   1  71
TORSDOF 19
ENDMDL
MODEL 3
REMARK VINA RESULT:     -11.6      5.374     11.161
REMARK SMILES O=C(OCCOCCOC(=O)c1ccccc1NC(=O)c1cc2cc(Cl)cc(Cl)c2oc1=O)c1ccc(-c2c3nc(c(-c4cccc(S(=O)(=O)[O-])c4F)c4ccc([nH]4)c(-c4cccc(S(=O)(=O)[O-])c4F)c4nc(c(-c5cccc(S(=O)(=O)[O-])c5F)c5ccc2[nH]5)C=C4)C=C3)cc1
REMARK SMILES IDX 5 1 4 2 3 3 2 4 1 5 34 6 35 7 96 8 36 9 95 10 37 11 38 12
REMARK SMILES IDX 39 13 89 14 40 15 94 16 88 17 90 18 41 19 93 20 87 21 86 22
REMARK SMILES IDX 42 24 74 25 54 26 73 27 55 28 58 29 72 30 91 31 56 32 57 33
REMARK SMILES IDX 71 35 92 36 59 37 43 38 44 39 52 40 45 41 47 42 53 43 46 44
REMARK SMILES IDX 48 45 49 46 50 47 51 48 75 49 76 50 84 51 77 52 79 53 85 54
REMARK SMILES IDX 78 55 80 56 81 57 82 58 83 59 60 60 61 61 69 62 62 63 64 64
REMARK SMILES IDX 70 65 63 66 65 67 66 68 67 69 68 70 6 71 7 72 8 73 9 74
REMARK SMILES IDX 10 75 11 76 12 77 13 78 17 79 14 80 16 81 15 82 18 83 19 84
REMARK SMILES IDX 20 86 21 87 22 88 32 89 23 90 31 91 33 92 24 93 30 94 25 95
REMARK SMILES IDX 28 96 26 97 27 98 29 99
REMARK H PARENT 90 23 58 34 18 85
REMARK Flexibility Score: inf
ROOT
ATOM      1  C   UNL A   1      31.777  31.519  26.717  1.00  0.00     0.202 C 
ENDROOT
BRANCH   1   2
ATOM      2  C   UNL A   1      31.852  33.046  26.631  1.00  0.00     0.261 C 
BRANCH   2   3
ATOM      3  O   UNL A   1      32.365  33.586  27.862  1.00  0.00    -0.460 OA
BRANCH   3   4
ATOM      4  C   UNL A   1      33.560  34.184  28.081  1.00  0.00     0.338 C 
ATOM      5  O   UNL A   1      33.706  35.351  27.723  1.00  0.00    -0.246 OA
BRANCH   4   6
ATOM      6  C   UNL A   1      34.717  33.492  28.727  1.00  0.00     0.060 A 
ATOM      7  C   UNL A   1      36.050  33.877  28.579  1.00  0.00     0.016 A 
ATOM      8  C   UNL A   1      34.430  32.446  29.618  1.00  0.00     0.016 A 
ATOM      9  C   UNL A   1      37.078  33.220  29.229  1.00  0.00     0.010 A 
ATOM     10  C   UNL A   1      35.456  31.801  30.316  1.00  0.00     0.010 A 
ATOM     11  C   UNL A   1      36.786  32.184  30.107  1.00  0.00    -0.014 A 
BRANCH  11  12
ATOM     12  C   UNL A   1      37.922  31.475  30.711  1.00  0.00     0.031 A 
ATOM     13  C   UNL A   1      38.234  31.734  32.149  1.00  0.00     0.074 A 
ATOM     14  C   UNL A   1      38.556  30.526  29.999  1.00  0.00     0.049 A 
ATOM     15  N   UNL A   1      39.189  31.242  32.886  1.00  0.00    -0.248 NA
ATOM     16  C   UNL A   1      37.335  32.661  32.861  1.00  0.00     0.031 C 
ATOM     17  C   UNL A   1      38.224  30.143  28.623  1.00  0.00     0.029 A 
ATOM     18  N   UNL A   1      39.592  29.699  30.334  1.00  0.00    -0.354 N 
ATOM     19  C   UNL A   1      39.045  31.841  34.130  1.00  0.00     0.074 A 
ATOM     20  C   UNL A   1      37.895  32.714  34.059  1.00  0.00     0.031 C 
ATOM     21  C   UNL A   1      39.042  29.153  28.233  1.00  0.00     0.029 A 
ATOM     22  C   UNL A   1      39.993  28.881  29.304  1.00  0.00     0.049 A 
ATOM     23  H   UNL A   1      40.011  29.691  31.225  1.00  0.00     0.167 HD
ATOM     24  C   UNL A   1      39.818  31.676  35.226  1.00  0.00     0.034 A 
ATOM     25  C   UNL A   1      41.042  28.040  29.231  1.00  0.00     0.034 A 
ATOM     26  C   UNL A   1      40.948  30.792  35.257  1.00  0.00     0.049 A 
ATOM     27  C   UNL A   1      41.918  27.920  30.448  1.00  0.00     0.074 A 
ATOM     28  C   UNL A   1      41.842  30.566  36.284  1.00  0.00     0.029 A 
ATOM     29  N   UNL A   1      41.342  29.988  34.194  1.00  0.00    -0.354 N 
ATOM     30  N   UNL A   1      41.777  28.487  31.625  1.00  0.00    -0.248 NA
ATOM     31  C   UNL A   1      43.091  27.044  30.338  1.00  0.00     0.031 C 
ATOM     32  C   UNL A   1      42.794  29.646  35.832  1.00  0.00     0.029 A 
ATOM     33  C   UNL A   1      42.472  29.271  34.534  1.00  0.00     0.049 A 
ATOM     34  H   UNL A   1      40.882  29.938  33.325  1.00  0.00     0.167 HD
ATOM     35  C   UNL A   1      42.828  28.021  32.402  1.00  0.00     0.074 A 
ATOM     36  C   UNL A   1      43.581  27.102  31.569  1.00  0.00     0.031 C 
ATOM     37  C   UNL A   1      43.158  28.332  33.680  1.00  0.00     0.034 A 
BRANCH  24  38
ATOM     38  C   UNL A   1      39.483  32.507  36.433  1.00  0.00     0.023 A 
ATOM     39  C   UNL A   1      40.166  33.717  36.675  1.00  0.00     0.012 A 
ATOM     40  C   UNL A   1      38.508  32.068  37.348  1.00  0.00     0.148 A 
ATOM     41  C   UNL A   1      39.910  34.455  37.831  1.00  0.00     0.002 A 
ATOM     42  C   UNL A   1      38.230  32.829  38.477  1.00  0.00     0.091 A 
ATOM     43  F   UNL A   1      37.893  30.900  37.115  1.00  0.00    -0.205 F 
ATOM     44  C   UNL A   1      38.940  34.015  38.728  1.00  0.00     0.022 A 
BRANCH  42  45
ATOM     45  S   UNL A   1      36.962  32.374  39.665  1.00  0.00     0.127 S 
ATOM     46  O   UNL A   1      37.097  33.435  40.662  1.00  0.00    -0.237 OA
ATOM     47  O   UNL A   1      35.746  32.450  38.856  1.00  0.00    -0.237 OA
ATOM     48  O   UNL A   1      37.305  31.037  40.128  1.00  0.00    -0.744 OA
ENDBRANCH  42  45
ENDBRANCH  24  38
BRANCH  25  49
ATOM     49  C   UNL A   1      41.320  27.280  27.979  1.00  0.00     0.023 A 
ATOM     50  C   UNL A   1      41.850  27.944  26.857  1.00  0.00     0.012 A 
ATOM     51  C   UNL A   1      41.081  25.892  27.899  1.00  0.00     0.148 A 
ATOM     52  C   UNL A   1      42.110  27.248  25.673  1.00  0.00     0.002 A 
ATOM     53  C   UNL A   1      41.396  25.195  26.739  1.00  0.00     0.091 A 
ATOM     54  F   UNL A   1      40.556  25.275  28.968  1.00  0.00    -0.205 F 
ATOM     55  C   UNL A   1      41.895  25.873  25.618  1.00  0.00     0.022 A 
BRANCH  53  56
ATOM     56  S   UNL A   1      41.266  23.405  26.629  1.00  0.00     0.127 S 
ATOM     57  O   UNL A   1      42.049  23.123  25.428  1.00  0.00    -0.237 OA
ATOM     58  O   UNL A   1      41.886  22.977  27.884  1.00  0.00    -0.237 OA
ATOM     59  O   UNL A   1      39.841  23.121  26.539  1.00  0.00    -0.744 OA
ENDBRANCH  53  56
ENDBRANCH  25  49
BRANCH  37  60
ATOM     60  C   UNL A   1      44.364  27.650  34.260  1.00  0.00     0.023 A 
ATOM     61  C   UNL A   1      45.635  28.238  34.123  1.00  0.00     0.012 A 
ATOM     62  C   UNL A   1      44.215  26.475  35.022  1.00  0.00     0.148 A 
ATOM     63  C   UNL A   1      46.750  27.649  34.716  1.00  0.00     0.002 A 
ATOM     64  C   UNL A   1      45.321  25.925  35.654  1.00  0.00     0.091 A 
ATOM     65  F   UNL A   1      42.996  25.924  35.118  1.00  0.00    -0.205 F 
ATOM     66  C   UNL A   1      46.592  26.503  35.492  1.00  0.00     0.022 A 
BRANCH  64  67
ATOM     67  S   UNL A   1      45.187  24.518  36.761  1.00  0.00     0.127 S 
ATOM     68  O   UNL A   1      44.679  23.482  35.865  1.00  0.00    -0.237 OA
ATOM     69  O   UNL A   1      46.573  24.329  37.190  1.00  0.00    -0.237 OA
ATOM     70  O   UNL A   1      44.279  24.929  37.823  1.00  0.00    -0.744 OA
ENDBRANCH  64  67
ENDBRANCH  37  60
ENDBRANCH  11  12
ENDBRANCH   4   6
ENDBRANCH   3   4
ENDBRANCH   2   3
ENDBRANCH   1   2
BRANCH   1  71
ATOM     71  O   UNL A   1      32.969  30.892  27.186  1.00  0.00    -0.374 OA
BRANCH  71  72
ATOM     72  C   UNL A   1      33.454  29.781  26.421  1.00  0.00     0.202 C 
BRANCH  72  73
ATOM     73  C   UNL A   1      32.261  29.110  25.737  1.00  0.00     0.261 C 
BRANCH  73  74
ATOM     74  O   UNL A   1      32.768  28.462  24.557  1.00  0.00    -0.460 OA
BRANCH  74  75
ATOM     75  C   UNL A   1      32.110  28.772  23.410  1.00  0.00     0.340 C 
ATOM     76  O   UNL A   1      32.598  29.280  22.413  1.00  0.00    -0.246 OA
BRANCH  75  77
ATOM     77  C   UNL A   1      30.724  28.222  23.461  1.00  0.00     0.083 A 
ATOM     78  C   UNL A   1      29.692  29.177  23.504  1.00  0.00     0.018 A 
ATOM     79  C   UNL A   1      30.408  26.846  23.422  1.00  0.00     0.056 A 
ATOM     80  C   UNL A   1      28.358  28.780  23.519  1.00  0.00     0.001 A 
ATOM     81  C   UNL A   1      29.061  26.464  23.479  1.00  0.00     0.027 A 
ATOM     82  C   UNL A   1      28.046  27.426  23.525  1.00  0.00     0.002 A 
BRANCH  79  83
ATOM     83  N   UNL A   1      31.423  25.894  23.182  1.00  0.00    -0.321 N 
ATOM     84  C   UNL A   1      31.598  24.611  23.608  1.00  0.00     0.263 C 
ATOM     85  H   UNL A   1      32.142  26.218  22.593  1.00  0.00     0.170 HD
ATOM     86  O   UNL A   1      32.259  23.827  22.929  1.00  0.00    -0.269 OA
BRANCH  84  87
ATOM     87  C   UNL A   1      31.101  24.254  24.976  1.00  0.00     0.126 A 
ATOM     88  C   UNL A   1      30.941  22.943  25.270  1.00  0.00     0.033 A 
ATOM     89  C   UNL A   1      31.902  24.877  26.068  1.00  0.00     0.349 A 
ATOM     90  C   UNL A   1      32.235  22.228  25.365  1.00  0.00     0.021 A 
ATOM     91  O   UNL A   1      33.171  24.308  26.208  1.00  0.00    -0.421 OA
ATOM     92  O   UNL A   1      31.487  25.793  26.763  1.00  0.00    -0.245 OA
ATOM     93  C   UNL A   1      32.369  20.878  25.055  1.00  0.00     0.032 A 
ATOM     94  C   UNL A   1      33.356  22.971  25.770  1.00  0.00     0.157 A 
ATOM     95  C   UNL A   1      33.636  20.294  25.114  1.00  0.00     0.043 A 
ATOM     96  C   UNL A   1      34.624  22.394  25.793  1.00  0.00     0.085 A 
ATOM     97  Cl  UNL A   1      33.810  18.617  24.764  1.00  0.00    -0.084 Cl
ATOM     98  C   UNL A   1      34.764  21.046  25.460  1.00  0.00     0.045 A 
ATOM     99  Cl  UNL A   1      36.020  23.302  26.224  1.00  0.00    -0.080 Cl
ENDBRANCH  84  87
ENDBRANCH  79  83
ENDBRANCH  75  77
ENDBRANCH  74  75
ENDBRANCH  73  74
ENDBRANCH  72  73
ENDBRANCH  71  72
ENDBRANCH   1  71
TORSDOF 19
ENDMDL
