MODEL 1
REMARK VINA RESULT:     -10.7      0.000      0.000
REMARK SMILES C[C@H]1C[C@H](C)CN(S(=O)(=O)N[C@@H](CCC(N)=O)C(=O)OCCOCCOC(=O)c2ccc(-c3c4nc(c(-c5cccc(S(=O)(=O)[O-])c5F)c5ccc([nH]5)c(-c5cccc(S(=O)(=O)[O-])c5F)c5nc(c(-c6cccc(S(=O)(=O)[O-])c6F)c6ccc3[nH]6)C=C5)C=C4)cc2)C1
REMARK SMILES IDX 23 1 22 2 21 3 20 4 18 5 19 6 12 7 11 8 8 10 9 11 10 12 7 13
REMARK SMILES IDX 1 14 2 15 3 16 92 17 4 18 5 19 6 20 13 21 14 22 15 23 16 24
REMARK SMILES IDX 17 25 24 28 25 29 26 30 27 31 28 32 29 33 30 34 91 35 31 36
REMARK SMILES IDX 90 37 32 38 33 39 34 40 84 41 35 42 89 43 83 44 85 45 36 46
REMARK SMILES IDX 88 47 82 48 81 49 37 51 69 52 49 53 68 54 50 55 53 56 67 57
REMARK SMILES IDX 86 58 51 59 52 60 66 62 87 63 54 64 38 65 39 66 47 67 40 68
REMARK SMILES IDX 42 69 48 70 41 71 43 72 44 73 45 74 46 75 70 76 71 77 79 78
REMARK SMILES IDX 72 79 74 80 80 81 73 82 75 83 76 84 77 85 78 86 55 87 56 88
REMARK SMILES IDX 64 89 57 90 59 91 65 92 58 93 60 94 61 95 62 96 63 97
REMARK H PARENT 11 9 16 26 16 27 85 50 53 61
REMARK Flexibility Score: inf
ROOT
ATOM      1  O   UNL A   1      35.419  22.185  23.798  1.00  0.00    -0.374 OA
ENDROOT
BRANCH   1   2
ATOM      2  C   UNL A   1      35.698  23.578  23.731  1.00  0.00     0.202 C 
BRANCH   2   3
ATOM      3  C   UNL A   1      34.522  24.556  23.643  1.00  0.00     0.261 C 
BRANCH   3   4
ATOM      4  O   UNL A   1      33.909  24.618  22.349  1.00  0.00    -0.462 OA
BRANCH   4   5
ATOM      5  C   UNL A   1      33.354  25.813  22.020  1.00  0.00     0.324 C 
ATOM      6  O   UNL A   1      33.921  26.708  21.399  1.00  0.00    -0.250 OA
BRANCH   5   7
ATOM      7  C   UNL A   1      31.932  25.977  22.542  1.00  0.00     0.181 C 
BRANCH   7   8
ATOM      8  N   UNL A   1      31.177  27.127  21.964  1.00  0.00    -0.188 NA
ATOM      9  H   UNL A   1      31.853  27.679  21.437  1.00  0.00     0.143 HD
BRANCH   8  10
ATOM     10  S   UNL A   1      30.343  28.204  22.932  1.00  0.00     0.280 S 
ATOM     11  O   UNL A   1      29.103  27.591  23.333  1.00  0.00    -0.195 OA
ATOM     12  O   UNL A   1      30.347  29.473  22.239  1.00  0.00    -0.195 OA
BRANCH  10  13
ATOM     13  N   UNL A   1      31.282  28.422  24.350  1.00  0.00    -0.188 NA
ATOM     14  C   UNL A   1      31.648  31.537  26.641  1.00  0.00     0.009 C 
ATOM     15  C   UNL A   1      31.967  30.148  26.077  1.00  0.00     0.001 C 
ATOM     16  C   UNL A   1      31.779  29.095  27.172  1.00  0.00     0.009 C 
ATOM     17  C   UNL A   1      31.087  29.831  24.862  1.00  0.00     0.106 C 
ATOM     18  C   UNL A   1      32.010  27.686  26.637  1.00  0.00     0.001 C 
ATOM     19  C   UNL A   1      33.487  27.415  26.337  1.00  0.00     0.009 C 
ATOM     20  C   UNL A   1      31.122  27.418  25.420  1.00  0.00     0.106 C 
ENDBRANCH  10  13
ENDBRANCH   8  10
ENDBRANCH   7   8
BRANCH   7  21
ATOM     21  C   UNL A   1      31.223  24.618  22.561  1.00  0.00     0.042 C 
BRANCH  21  22
ATOM     22  C   UNL A   1      30.579  24.178  23.871  1.00  0.00     0.102 C 
BRANCH  22  23
ATOM     23  C   UNL A   1      31.351  23.090  24.568  1.00  0.00     0.217 C 
ATOM     24  N   UNL A   1      32.089  22.284  23.757  1.00  0.00    -0.370 N 
ATOM     25  O   UNL A   1      31.278  22.896  25.775  1.00  0.00    -0.275 OA
ATOM     26  H   UNL A   1      32.129  22.464  22.789  1.00  0.00     0.159 HD
ATOM     27  H   UNL A   1      32.581  21.521  24.136  1.00  0.00     0.159 HD
ENDBRANCH  22  23
ENDBRANCH  21  22
ENDBRANCH   7  21
ENDBRANCH   5   7
ENDBRANCH   4   5
ENDBRANCH   3   4
ENDBRANCH   2   3
ENDBRANCH   1   2
BRANCH   1  28
ATOM     28  C   UNL A   1      35.624  21.512  25.038  1.00  0.00     0.202 C 
BRANCH  28  29
ATOM     29  C   UNL A   1      36.821  20.559  25.202  1.00  0.00     0.261 C 
BRANCH  29  30
ATOM     30  O   UNL A   1      38.106  21.132  24.903  1.00  0.00    -0.460 OA
BRANCH  30  31
ATOM     31  C   UNL A   1      39.077  20.842  25.806  1.00  0.00     0.338 C 
ATOM     32  O   UNL A   1      39.619  19.762  25.983  1.00  0.00    -0.246 OA
BRANCH  31  33
ATOM     33  C   UNL A   1      39.539  22.058  26.496  1.00  0.00     0.060 A 
ATOM     34  C   UNL A   1      39.068  23.298  26.048  1.00  0.00     0.016 A 
ATOM     35  C   UNL A   1      40.557  21.985  27.446  1.00  0.00     0.016 A 
ATOM     36  C   UNL A   1      39.641  24.476  26.527  1.00  0.00     0.010 A 
ATOM     37  C   UNL A   1      41.130  23.168  27.924  1.00  0.00     0.010 A 
ATOM     38  C   UNL A   1      40.700  24.418  27.442  1.00  0.00    -0.014 A 
BRANCH  38  39
ATOM     39  C   UNL A   1      41.418  25.659  27.823  1.00  0.00     0.031 A 
ATOM     40  C   UNL A   1      40.694  26.739  28.580  1.00  0.00     0.074 A 
ATOM     41  C   UNL A   1      42.707  25.826  27.481  1.00  0.00     0.049 A 
ATOM     42  N   UNL A   1      41.122  27.916  28.957  1.00  0.00    -0.248 NA
ATOM     43  C   UNL A   1      39.299  26.458  28.954  1.00  0.00     0.031 C 
ATOM     44  C   UNL A   1      43.515  24.854  26.746  1.00  0.00     0.029 A 
ATOM     45  N   UNL A   1      43.554  26.889  27.679  1.00  0.00    -0.354 N 
ATOM     46  C   UNL A   1      40.043  28.532  29.579  1.00  0.00     0.074 A 
ATOM     47  C   UNL A   1      38.936  27.601  29.519  1.00  0.00     0.031 C 
ATOM     48  C   UNL A   1      44.732  25.377  26.528  1.00  0.00     0.029 A 
ATOM     49  C   UNL A   1      44.777  26.732  27.073  1.00  0.00     0.049 A 
ATOM     50  H   UNL A   1      43.309  27.684  28.206  1.00  0.00     0.167 HD
ATOM     51  C   UNL A   1      39.980  29.756  30.155  1.00  0.00     0.034 A 
ATOM     52  C   UNL A   1      45.802  27.595  26.939  1.00  0.00     0.034 A 
ATOM     53  C   UNL A   1      41.086  30.677  30.217  1.00  0.00     0.049 A 
ATOM     54  C   UNL A   1      45.703  28.961  27.564  1.00  0.00     0.074 A 
ATOM     55  C   UNL A   1      41.140  31.918  30.828  1.00  0.00     0.029 A 
ATOM     56  N   UNL A   1      42.324  30.469  29.628  1.00  0.00    -0.354 N 
ATOM     57  N   UNL A   1      44.718  29.487  28.251  1.00  0.00    -0.248 NA
ATOM     58  C   UNL A   1      46.870  29.843  27.420  1.00  0.00     0.031 C 
ATOM     59  C   UNL A   1      42.396  32.478  30.568  1.00  0.00     0.029 A 
ATOM     60  C   UNL A   1      43.142  31.567  29.839  1.00  0.00     0.049 A 
ATOM     61  H   UNL A   1      42.584  29.659  29.131  1.00  0.00     0.167 HD
ATOM     62  C   UNL A   1      45.156  30.745  28.649  1.00  0.00     0.074 A 
ATOM     63  C   UNL A   1      46.504  30.894  28.141  1.00  0.00     0.031 C 
ATOM     64  C   UNL A   1      44.498  31.693  29.362  1.00  0.00     0.034 A 
BRANCH  51  65
ATOM     65  C   UNL A   1      38.665  30.171  30.770  1.00  0.00     0.023 A 
ATOM     66  C   UNL A   1      38.374  29.830  32.106  1.00  0.00     0.012 A 
ATOM     67  C   UNL A   1      37.732  30.928  30.033  1.00  0.00     0.148 A 
ATOM     68  C   UNL A   1      37.156  30.191  32.684  1.00  0.00     0.002 A 
ATOM     69  C   UNL A   1      36.542  31.328  30.632  1.00  0.00     0.091 A 
ATOM     70  F   UNL A   1      38.016  31.231  28.759  1.00  0.00    -0.205 F 
ATOM     71  C   UNL A   1      36.246  30.947  31.951  1.00  0.00     0.022 A 
BRANCH  69  72
ATOM     72  S   UNL A   1      35.343  32.374  29.800  1.00  0.00     0.127 S 
ATOM     73  O   UNL A   1      34.340  32.566  30.846  1.00  0.00    -0.237 OA
ATOM     74  O   UNL A   1      36.136  33.565  29.490  1.00  0.00    -0.237 OA
ATOM     75  O   UNL A   1      34.896  31.624  28.634  1.00  0.00    -0.744 OA
ENDBRANCH  69  72
ENDBRANCH  51  65
BRANCH  52  76
ATOM     76  C   UNL A   1      47.022  27.174  26.195  1.00  0.00     0.023 A 
ATOM     77  C   UNL A   1      47.140  27.474  24.824  1.00  0.00     0.012 A 
ATOM     78  C   UNL A   1      48.085  26.522  26.851  1.00  0.00     0.148 A 
ATOM     79  C   UNL A   1      48.285  27.110  24.114  1.00  0.00     0.002 A 
ATOM     80  C   UNL A   1      49.246  26.217  26.153  1.00  0.00     0.091 A 
ATOM     81  F   UNL A   1      47.946  26.239  28.154  1.00  0.00    -0.205 F 
ATOM     82  C   UNL A   1      49.342  26.493  24.781  1.00  0.00     0.022 A 
BRANCH  80  83
ATOM     83  S   UNL A   1      50.711  25.555  26.953  1.00  0.00     0.127 S 
ATOM     84  O   UNL A   1      50.173  24.383  27.641  1.00  0.00    -0.237 OA
ATOM     85  O   UNL A   1      51.568  25.257  25.805  1.00  0.00    -0.237 OA
ATOM     86  O   UNL A   1      51.209  26.616  27.818  1.00  0.00    -0.744 OA
ENDBRANCH  80  83
ENDBRANCH  52  76
BRANCH  64  87
ATOM     87  C   UNL A   1      45.235  32.971  29.676  1.00  0.00     0.023 A 
ATOM     88  C   UNL A   1      46.042  33.059  30.828  1.00  0.00     0.012 A 
ATOM     89  C   UNL A   1      45.179  34.066  28.790  1.00  0.00     0.148 A 
ATOM     90  C   UNL A   1      46.750  34.227  31.112  1.00  0.00     0.002 A 
ATOM     91  C   UNL A   1      45.929  35.207  29.051  1.00  0.00     0.091 A 
ATOM     92  F   UNL A   1      44.394  33.972  27.707  1.00  0.00    -0.205 F 
ATOM     93  C   UNL A   1      46.703  35.295  30.220  1.00  0.00     0.022 A 
BRANCH  91  94
ATOM     94  S   UNL A   1      46.007  36.595  27.913  1.00  0.00     0.127 S 
ATOM     95  O   UNL A   1      46.945  37.486  28.594  1.00  0.00    -0.237 OA
ATOM     96  O   UNL A   1      46.533  35.969  26.700  1.00  0.00    -0.237 OA
ATOM     97  O   UNL A   1      44.645  37.097  27.795  1.00  0.00    -0.744 OA
ENDBRANCH  91  94
ENDBRANCH  64  87
ENDBRANCH  38  39
ENDBRANCH  31  33
ENDBRANCH  30  31
ENDBRANCH  29  30
ENDBRANCH  28  29
ENDBRANCH   1  28
TORSDOF 23
ENDMDL
MODEL 2
REMARK VINA RESULT:     -10.6      1.371      3.326
REMARK SMILES C[C@H]1C[C@H](C)CN(S(=O)(=O)N[C@@H](CCC(N)=O)C(=O)OCCOCCOC(=O)c2ccc(-c3c4nc(c(-c5cccc(S(=O)(=O)[O-])c5F)c5ccc([nH]5)c(-c5cccc(S(=O)(=O)[O-])c5F)c5nc(c(-c6cccc(S(=O)(=O)[O-])c6F)c6ccc3[nH]6)C=C5)C=C4)cc2)C1
REMARK SMILES IDX 23 1 22 2 21 3 20 4 18 5 19 6 12 7 11 8 8 10 9 11 10 12 7 13
REMARK SMILES IDX 1 14 2 15 3 16 92 17 4 18 5 19 6 20 13 21 14 22 15 23 16 24
REMARK SMILES IDX 17 25 24 28 25 29 26 30 27 31 28 32 29 33 30 34 91 35 31 36
REMARK SMILES IDX 90 37 32 38 33 39 34 40 84 41 35 42 89 43 83 44 85 45 36 46
REMARK SMILES IDX 88 47 82 48 81 49 37 51 69 52 49 53 68 54 50 55 53 56 67 57
REMARK SMILES IDX 86 58 51 59 52 60 66 62 87 63 54 64 38 65 39 66 47 67 40 68
REMARK SMILES IDX 42 69 48 70 41 71 43 72 44 73 45 74 46 75 70 76 71 77 79 78
REMARK SMILES IDX 72 79 74 80 80 81 73 82 75 83 76 84 77 85 78 86 55 87 56 88
REMARK SMILES IDX 64 89 57 90 59 91 65 92 58 93 60 94 61 95 62 96 63 97
REMARK H PARENT 11 9 16 26 16 27 85 50 53 61
REMARK Flexibility Score: inf
ROOT
ATOM      1  O   UNL A   1      35.640  22.360  24.801  1.00  0.00    -0.374 OA
ENDROOT
BRANCH   1   2
ATOM      2  C   UNL A   1      35.335  23.462  25.646  1.00  0.00     0.202 C 
BRANCH   2   3
ATOM      3  C   UNL A   1      35.133  24.840  25.007  1.00  0.00     0.261 C 
BRANCH   3   4
ATOM      4  O   UNL A   1      34.286  25.716  25.762  1.00  0.00    -0.462 OA
BRANCH   4   5
ATOM      5  C   UNL A   1      33.294  26.320  25.059  1.00  0.00     0.324 C 
ATOM      6  O   UNL A   1      33.458  27.006  24.054  1.00  0.00    -0.250 OA
BRANCH   5   7
ATOM      7  C   UNL A   1      31.913  26.105  25.665  1.00  0.00     0.181 C 
BRANCH   7   8
ATOM      8  N   UNL A   1      31.882  25.213  26.861  1.00  0.00    -0.188 NA
ATOM      9  H   UNL A   1      32.832  25.195  27.231  1.00  0.00     0.143 HD
BRANCH   8  10
ATOM     10  S   UNL A   1      31.388  23.620  26.754  1.00  0.00     0.280 S 
ATOM     11  O   UNL A   1      29.948  23.590  26.731  1.00  0.00    -0.195 OA
ATOM     12  O   UNL A   1      32.124  22.890  27.763  1.00  0.00    -0.195 OA
BRANCH  10  13
ATOM     13  N   UNL A   1      31.932  23.035  25.238  1.00  0.00    -0.188 NA
ATOM     14  C   UNL A   1      32.579  19.392  24.058  1.00  0.00     0.009 C 
ATOM     15  C   UNL A   1      32.609  20.924  24.008  1.00  0.00     0.001 C 
ATOM     16  C   UNL A   1      31.829  21.412  22.785  1.00  0.00     0.009 C 
ATOM     17  C   UNL A   1      32.035  21.529  25.295  1.00  0.00     0.106 C 
ATOM     18  C   UNL A   1      31.766  22.934  22.734  1.00  0.00     0.001 C 
ATOM     19  C   UNL A   1      33.119  23.560  22.385  1.00  0.00     0.009 C 
ATOM     20  C   UNL A   1      31.199  23.494  24.041  1.00  0.00     0.106 C 
ENDBRANCH  10  13
ENDBRANCH   8  10
ENDBRANCH   7   8
BRANCH   7  21
ATOM     21  C   UNL A   1      31.176  27.445  25.777  1.00  0.00     0.042 C 
BRANCH  21  22
ATOM     22  C   UNL A   1      31.763  28.494  26.716  1.00  0.00     0.102 C 
BRANCH  22  23
ATOM     23  C   UNL A   1      32.157  29.762  26.006  1.00  0.00     0.217 C 
ATOM     24  N   UNL A   1      32.142  29.700  24.646  1.00  0.00    -0.370 N 
ATOM     25  O   UNL A   1      32.528  30.766  26.601  1.00  0.00    -0.275 OA
ATOM     26  H   UNL A   1      31.839  28.879  24.194  1.00  0.00     0.159 HD
ATOM     27  H   UNL A   1      32.435  30.475  24.114  1.00  0.00     0.159 HD
ENDBRANCH  22  23
ENDBRANCH  21  22
ENDBRANCH   7  21
ENDBRANCH   5   7
ENDBRANCH   4   5
ENDBRANCH   3   4
ENDBRANCH   2   3
ENDBRANCH   1   2
BRANCH   1  28
ATOM     28  C   UNL A   1      35.853  21.085  25.401  1.00  0.00     0.202 C 
BRANCH  28  29
ATOM     29  C   UNL A   1      37.122  20.283  25.062  1.00  0.00     0.261 C 
BRANCH  29  30
ATOM     30  O   UNL A   1      38.332  21.058  24.979  1.00  0.00    -0.460 OA
BRANCH  30  31
ATOM     31  C   UNL A   1      39.220  20.827  25.980  1.00  0.00     0.338 C 
ATOM     32  O   UNL A   1      39.713  19.754  26.293  1.00  0.00    -0.246 OA
BRANCH  31  33
ATOM     33  C   UNL A   1      39.662  22.088  26.597  1.00  0.00     0.060 A 
ATOM     34  C   UNL A   1      39.118  23.288  26.125  1.00  0.00     0.016 A 
ATOM     35  C   UNL A   1      40.728  22.096  27.496  1.00  0.00     0.016 A 
ATOM     36  C   UNL A   1      39.662  24.507  26.527  1.00  0.00     0.010 A 
ATOM     37  C   UNL A   1      41.273  23.320  27.897  1.00  0.00     0.010 A 
ATOM     38  C   UNL A   1      40.767  24.530  27.389  1.00  0.00    -0.014 A 
BRANCH  38  39
ATOM     39  C   UNL A   1      41.450  25.814  27.684  1.00  0.00     0.031 A 
ATOM     40  C   UNL A   1      40.728  26.883  28.459  1.00  0.00     0.074 A 
ATOM     41  C   UNL A   1      42.703  26.030  27.248  1.00  0.00     0.049 A 
ATOM     42  N   UNL A   1      41.125  28.089  28.772  1.00  0.00    -0.248 NA
ATOM     43  C   UNL A   1      39.377  26.550  28.937  1.00  0.00     0.031 C 
ATOM     44  C   UNL A   1      43.504  25.073  26.485  1.00  0.00     0.029 A 
ATOM     45  N   UNL A   1      43.509  27.135  27.357  1.00  0.00    -0.354 N 
ATOM     46  C   UNL A   1      40.062  28.675  29.450  1.00  0.00     0.074 A 
ATOM     47  C   UNL A   1      39.000  27.692  29.494  1.00  0.00     0.031 C 
ATOM     48  C   UNL A   1      44.676  25.644  26.168  1.00  0.00     0.029 A 
ATOM     49  C   UNL A   1      44.694  27.016  26.671  1.00  0.00     0.049 A 
ATOM     50  H   UNL A   1      43.263  27.935  27.876  1.00  0.00     0.167 HD
ATOM     51  C   UNL A   1      39.981  29.912  29.995  1.00  0.00     0.034 A 
ATOM     52  C   UNL A   1      45.665  27.920  26.441  1.00  0.00     0.034 A 
ATOM     53  C   UNL A   1      41.043  30.884  29.954  1.00  0.00     0.049 A 
ATOM     54  C   UNL A   1      45.544  29.299  27.032  1.00  0.00     0.074 A 
ATOM     55  C   UNL A   1      41.080  32.145  30.524  1.00  0.00     0.029 A 
ATOM     56  N   UNL A   1      42.246  30.714  29.285  1.00  0.00    -0.354 N 
ATOM     57  N   UNL A   1      44.585  29.800  27.772  1.00  0.00    -0.248 NA
ATOM     58  C   UNL A   1      46.655  30.229  26.782  1.00  0.00     0.031 C 
ATOM     59  C   UNL A   1      42.287  32.754  30.161  1.00  0.00     0.029 A 
ATOM     60  C   UNL A   1      43.024  31.855  29.408  1.00  0.00     0.049 A 
ATOM     61  H   UNL A   1      42.510  29.903  28.795  1.00  0.00     0.167 HD
ATOM     62  C   UNL A   1      44.988  31.089  28.103  1.00  0.00     0.074 A 
ATOM     63  C   UNL A   1      46.289  31.284  27.498  1.00  0.00     0.031 C 
ATOM     64  C   UNL A   1      44.335  32.028  28.833  1.00  0.00     0.034 A 
BRANCH  51  65
ATOM     65  C   UNL A   1      38.693  30.286  30.689  1.00  0.00     0.023 A 
ATOM     66  C   UNL A   1      38.468  29.884  32.021  1.00  0.00     0.012 A 
ATOM     67  C   UNL A   1      37.719  31.063  30.031  1.00  0.00     0.148 A 
ATOM     68  C   UNL A   1      37.276  30.205  32.670  1.00  0.00     0.002 A 
ATOM     69  C   UNL A   1      36.555  31.424  30.702  1.00  0.00     0.091 A 
ATOM     70  F   UNL A   1      37.940  31.424  28.759  1.00  0.00    -0.205 F 
ATOM     71  C   UNL A   1      36.325  30.982  32.014  1.00  0.00     0.022 A 
BRANCH  69  72
ATOM     72  S   UNL A   1      35.309  32.492  29.973  1.00  0.00     0.127 S 
ATOM     73  O   UNL A   1      34.779  31.643  28.907  1.00  0.00    -0.237 OA
ATOM     74  O   UNL A   1      34.393  32.705  31.094  1.00  0.00    -0.237 OA
ATOM     75  O   UNL A   1      36.013  33.688  29.530  1.00  0.00    -0.744 OA
ENDBRANCH  69  72
ENDBRANCH  51  65
BRANCH  52  76
ATOM     76  C   UNL A   1      46.850  27.533  25.625  1.00  0.00     0.023 A 
ATOM     77  C   UNL A   1      46.856  27.789  24.241  1.00  0.00     0.012 A 
ATOM     78  C   UNL A   1      47.987  26.956  26.224  1.00  0.00     0.148 A 
ATOM     79  C   UNL A   1      47.966  27.455  23.462  1.00  0.00     0.002 A 
ATOM     80  C   UNL A   1      49.111  26.683  25.455  1.00  0.00     0.091 A 
ATOM     81  F   UNL A   1      47.954  26.713  27.542  1.00  0.00    -0.205 F 
ATOM     82  C   UNL A   1      49.096  26.914  24.071  1.00  0.00     0.022 A 
BRANCH  80  83
ATOM     83  S   UNL A   1      50.659  26.120  26.169  1.00  0.00     0.127 S 
ATOM     84  O   UNL A   1      51.503  25.981  24.985  1.00  0.00    -0.237 OA
ATOM     85  O   UNL A   1      51.006  27.240  27.046  1.00  0.00    -0.237 OA
ATOM     86  O   UNL A   1      50.351  24.880  26.868  1.00  0.00    -0.744 OA
ENDBRANCH  80  83
ENDBRANCH  52  76
BRANCH  64  87
ATOM     87  C   UNL A   1      45.030  33.348  29.059  1.00  0.00     0.023 A 
ATOM     88  C   UNL A   1      45.794  33.556  30.225  1.00  0.00     0.012 A 
ATOM     89  C   UNL A   1      44.980  34.360  28.080  1.00  0.00     0.148 A 
ATOM     90  C   UNL A   1      46.464  34.763  30.430  1.00  0.00     0.002 A 
ATOM     91  C   UNL A   1      45.693  35.539  28.265  1.00  0.00     0.091 A 
ATOM     92  F   UNL A   1      44.235  34.153  26.984  1.00  0.00    -0.205 F 
ATOM     93  C   UNL A   1      46.423  35.748  29.446  1.00  0.00     0.022 A 
BRANCH  91  94
ATOM     94  S   UNL A   1      45.778  36.825  27.014  1.00  0.00     0.127 S 
ATOM     95  O   UNL A   1      44.378  37.237  26.915  1.00  0.00    -0.237 OA
ATOM     96  O   UNL A   1      46.660  37.808  27.641  1.00  0.00    -0.237 OA
ATOM     97  O   UNL A   1      46.326  36.192  25.822  1.00  0.00    -0.744 OA
ENDBRANCH  91  94
ENDBRANCH  64  87
ENDBRANCH  38  39
ENDBRANCH  31  33
ENDBRANCH  30  31
ENDBRANCH  29  30
ENDBRANCH  28  29
ENDBRANCH   1  28
TORSDOF 23
ENDMDL
MODEL 3
REMARK VINA RESULT:     -10.6      1.907      2.598
REMARK SMILES C[C@H]1C[C@H](C)CN(S(=O)(=O)N[C@@H](CCC(N)=O)C(=O)OCCOCCOC(=O)c2ccc(-c3c4nc(c(-c5cccc(S(=O)(=O)[O-])c5F)c5ccc([nH]5)c(-c5cccc(S(=O)(=O)[O-])c5F)c5nc(c(-c6cccc(S(=O)(=O)[O-])c6F)c6ccc3[nH]6)C=C5)C=C4)cc2)C1
REMARK SMILES IDX 23 1 22 2 21 3 20 4 18 5 19 6 12 7 11 8 8 10 9 11 10 12 7 13
REMARK SMILES IDX 1 14 2 15 3 16 92 17 4 18 5 19 6 20 13 21 14 22 15 23 16 24
REMARK SMILES IDX 17 25 24 28 25 29 26 30 27 31 28 32 29 33 30 34 91 35 31 36
REMARK SMILES IDX 90 37 32 38 33 39 34 40 84 41 35 42 89 43 83 44 85 45 36 46
REMARK SMILES IDX 88 47 82 48 81 49 37 51 69 52 49 53 68 54 50 55 53 56 67 57
REMARK SMILES IDX 86 58 51 59 52 60 66 62 87 63 54 64 38 65 39 66 47 67 40 68
REMARK SMILES IDX 42 69 48 70 41 71 43 72 44 73 45 74 46 75 70 76 71 77 79 78
REMARK SMILES IDX 72 79 74 80 80 81 73 82 75 83 76 84 77 85 78 86 55 87 56 88
REMARK SMILES IDX 64 89 57 90 59 91 65 92 58 93 60 94 61 95 62 96 63 97
REMARK H PARENT 11 9 16 26 16 27 85 50 53 61
REMARK Flexibility Score: inf
ROOT
ATOM      1  O   UNL A   1      37.167  21.484  25.699  1.00  0.00    -0.374 OA
ENDROOT
BRANCH   1   2
ATOM      2  C   UNL A   1      37.042  22.764  25.094  1.00  0.00     0.202 C 
BRANCH   2   3
ATOM      3  C   UNL A   1      35.640  23.271  24.740  1.00  0.00     0.261 C 
BRANCH   3   4
ATOM      4  O   UNL A   1      35.172  22.845  23.454  1.00  0.00    -0.462 OA
BRANCH   4   5
ATOM      5  C   UNL A   1      33.885  23.165  23.163  1.00  0.00     0.324 C 
ATOM      6  O   UNL A   1      33.519  23.781  22.166  1.00  0.00    -0.250 OA
BRANCH   5   7
ATOM      7  C   UNL A   1      32.899  22.719  24.236  1.00  0.00     0.181 C 
BRANCH   7   8
ATOM      8  N   UNL A   1      31.710  23.604  24.406  1.00  0.00    -0.188 NA
ATOM      9  H   UNL A   1      31.614  24.128  23.537  1.00  0.00     0.143 HD
BRANCH   8  10
ATOM     10  S   UNL A   1      31.620  24.723  25.644  1.00  0.00     0.280 S 
ATOM     11  O   UNL A   1      32.945  24.928  26.170  1.00  0.00    -0.195 OA
ATOM     12  O   UNL A   1      30.541  24.299  26.508  1.00  0.00    -0.195 OA
BRANCH  10  13
ATOM     13  N   UNL A   1      31.121  26.203  24.936  1.00  0.00    -0.188 NA
ATOM     14  C   UNL A   1      32.535  29.790  25.401  1.00  0.00     0.009 C 
ATOM     15  C   UNL A   1      31.554  28.701  24.952  1.00  0.00     0.001 C 
ATOM     16  C   UNL A   1      31.445  28.708  23.425  1.00  0.00     0.009 C 
ATOM     17  C   UNL A   1      31.993  27.321  25.459  1.00  0.00     0.106 C 
ATOM     18  C   UNL A   1      30.538  27.589  22.925  1.00  0.00     0.001 C 
ATOM     19  C   UNL A   1      29.063  27.853  23.243  1.00  0.00     0.009 C 
ATOM     20  C   UNL A   1      31.004  26.235  23.464  1.00  0.00     0.106 C 
ENDBRANCH  10  13
ENDBRANCH   8  10
ENDBRANCH   7   8
BRANCH   7  21
ATOM     21  C   UNL A   1      32.635  21.214  24.110  1.00  0.00     0.042 C 
BRANCH  21  22
ATOM     22  C   UNL A   1      33.408  20.283  25.038  1.00  0.00     0.102 C 
BRANCH  22  23
ATOM     23  C   UNL A   1      32.706  18.972  25.272  1.00  0.00     0.217 C 
ATOM     24  N   UNL A   1      32.859  18.439  26.515  1.00  0.00    -0.370 N 
ATOM     25  O   UNL A   1      32.089  18.385  24.391  1.00  0.00    -0.275 OA
ATOM     26  H   UNL A   1      33.361  18.934  27.204  1.00  0.00     0.159 HD
ATOM     27  H   UNL A   1      32.470  17.560  26.726  1.00  0.00     0.159 HD
ENDBRANCH  22  23
ENDBRANCH  21  22
ENDBRANCH   7  21
ENDBRANCH   5   7
ENDBRANCH   4   5
ENDBRANCH   3   4
ENDBRANCH   2   3
ENDBRANCH   1   2
BRANCH   1  28
ATOM     28  C   UNL A   1      37.432  20.361  24.861  1.00  0.00     0.202 C 
BRANCH  28  29
ATOM     29  C   UNL A   1      38.654  19.469  25.142  1.00  0.00     0.261 C 
BRANCH  29  30
ATOM     30  O   UNL A   1      39.311  19.708  26.399  1.00  0.00    -0.460 OA
BRANCH  30  31
ATOM     31  C   UNL A   1      40.621  20.050  26.295  1.00  0.00     0.338 C 
ATOM     32  O   UNL A   1      41.508  19.408  25.753  1.00  0.00    -0.246 OA
BRANCH  31  33
ATOM     33  C   UNL A   1      40.855  21.411  26.803  1.00  0.00     0.060 A 
ATOM     34  C   UNL A   1      40.541  22.496  25.976  1.00  0.00     0.016 A 
ATOM     35  C   UNL A   1      41.542  21.607  28.001  1.00  0.00     0.016 A 
ATOM     36  C   UNL A   1      40.944  23.783  26.329  1.00  0.00     0.010 A 
ATOM     37  C   UNL A   1      41.946  22.899  28.352  1.00  0.00     0.010 A 
ATOM     38  C   UNL A   1      41.680  23.988  27.503  1.00  0.00    -0.014 A 
BRANCH  38  39
ATOM     39  C   UNL A   1      42.253  25.326  27.794  1.00  0.00     0.031 A 
ATOM     40  C   UNL A   1      41.393  26.382  28.435  1.00  0.00     0.074 A 
ATOM     41  C   UNL A   1      43.528  25.601  27.473  1.00  0.00     0.049 A 
ATOM     42  N   UNL A   1      41.684  27.625  28.721  1.00  0.00    -0.248 NA
ATOM     43  C   UNL A   1      40.023  25.986  28.796  1.00  0.00     0.031 C 
ATOM     44  C   UNL A   1      44.458  24.662  26.846  1.00  0.00     0.029 A 
ATOM     45  N   UNL A   1      44.253  26.760  27.601  1.00  0.00    -0.354 N 
ATOM     46  C   UNL A   1      40.525  28.172  29.258  1.00  0.00     0.074 A 
ATOM     47  C   UNL A   1      39.524  27.127  29.250  1.00  0.00     0.031 C 
ATOM     48  C   UNL A   1      45.621  25.292  26.616  1.00  0.00     0.029 A 
ATOM     49  C   UNL A   1      45.506  26.684  27.043  1.00  0.00     0.049 A 
ATOM     50  H   UNL A   1      43.908  27.566  28.050  1.00  0.00     0.167 HD
ATOM     51  C   UNL A   1      40.315  29.427  29.725  1.00  0.00     0.034 A 
ATOM     52  C   UNL A   1      46.440  27.637  26.862  1.00  0.00     0.034 A 
ATOM     53  C   UNL A   1      41.316  30.462  29.736  1.00  0.00     0.049 A 
ATOM     54  C   UNL A   1      46.178  29.033  27.363  1.00  0.00     0.074 A 
ATOM     55  C   UNL A   1      41.220  31.748  30.238  1.00  0.00     0.029 A 
ATOM     56  N   UNL A   1      42.590  30.338  29.200  1.00  0.00    -0.354 N 
ATOM     57  N   UNL A   1      45.120  29.506  27.976  1.00  0.00    -0.248 NA
ATOM     58  C   UNL A   1      47.251  30.019  27.174  1.00  0.00     0.031 C 
ATOM     59  C   UNL A   1      42.420  32.415  29.964  1.00  0.00     0.029 A 
ATOM     60  C   UNL A   1      43.282  31.531  29.337  1.00  0.00     0.049 A 
ATOM     61  H   UNL A   1      42.949  29.523  28.782  1.00  0.00     0.167 HD
ATOM     62  C   UNL A   1      45.410  30.832  28.275  1.00  0.00     0.074 A 
ATOM     63  C   UNL A   1      46.753  31.081  27.793  1.00  0.00     0.031 C 
ATOM     64  C   UNL A   1      44.632  31.761  28.886  1.00  0.00     0.034 A 
BRANCH  51  65
ATOM     65  C   UNL A   1      38.944  29.749  30.267  1.00  0.00     0.023 A 
ATOM     66  C   UNL A   1      38.613  29.411  31.595  1.00  0.00     0.012 A 
ATOM     67  C   UNL A   1      37.992  30.417  29.469  1.00  0.00     0.148 A 
ATOM     68  C   UNL A   1      37.344  29.686  32.105  1.00  0.00     0.002 A 
ATOM     69  C   UNL A   1      36.747  30.734  30.002  1.00  0.00     0.091 A 
ATOM     70  F   UNL A   1      38.315  30.717  28.204  1.00  0.00    -0.205 F 
ATOM     71  C   UNL A   1      36.416  30.355  31.312  1.00  0.00     0.022 A 
BRANCH  69  72
ATOM     72  S   UNL A   1      35.513  31.667  29.089  1.00  0.00     0.127 S 
ATOM     73  O   UNL A   1      34.596  32.066  30.156  1.00  0.00    -0.237 OA
ATOM     74  O   UNL A   1      36.308  32.761  28.528  1.00  0.00    -0.237 OA
ATOM     75  O   UNL A   1      34.963  30.749  28.101  1.00  0.00    -0.744 OA
ENDBRANCH  69  72
ENDBRANCH  51  65
BRANCH  52  76
ATOM     76  C   UNL A   1      47.723  27.289  26.189  1.00  0.00     0.023 A 
ATOM     77  C   UNL A   1      48.770  26.719  26.937  1.00  0.00     0.012 A 
ATOM     78  C   UNL A   1      47.889  27.477  24.802  1.00  0.00     0.148 A 
ATOM     79  C   UNL A   1      49.971  26.363  26.321  1.00  0.00     0.002 A 
ATOM     80  C   UNL A   1      49.063  27.064  24.184  1.00  0.00     0.091 A 
ATOM     81  F   UNL A   1      46.882  28.030  24.113  1.00  0.00    -0.205 F 
ATOM     82  C   UNL A   1      50.112  26.525  24.944  1.00  0.00     0.022 A 
BRANCH  80  83
ATOM     83  S   UNL A   1      49.282  27.099  22.403  1.00  0.00     0.127 S 
ATOM     84  O   UNL A   1      48.829  28.448  22.071  1.00  0.00    -0.237 OA
ATOM     85  O   UNL A   1      50.725  26.885  22.277  1.00  0.00    -0.237 OA
ATOM     86  O   UNL A   1      48.464  26.015  21.877  1.00  0.00    -0.744 OA
ENDBRANCH  80  83
ENDBRANCH  52  76
BRANCH  64  87
ATOM     87  C   UNL A   1      45.221  33.132  29.108  1.00  0.00     0.023 A 
ATOM     88  C   UNL A   1      45.962  33.404  30.275  1.00  0.00     0.012 A 
ATOM     89  C   UNL A   1      45.095  34.133  28.124  1.00  0.00     0.148 A 
ATOM     90  C   UNL A   1      46.535  34.661  30.476  1.00  0.00     0.002 A 
ATOM     91  C   UNL A   1      45.713  35.365  28.306  1.00  0.00     0.091 A 
ATOM     92  F   UNL A   1      44.373  33.863  27.027  1.00  0.00    -0.205 F 
ATOM     93  C   UNL A   1      46.420  35.635  29.488  1.00  0.00     0.022 A 
BRANCH  91  94
ATOM     94  S   UNL A   1      45.701  36.648  27.049  1.00  0.00     0.127 S 
ATOM     95  O   UNL A   1      44.275  36.952  26.947  1.00  0.00    -0.237 OA
ATOM     96  O   UNL A   1      46.506  37.698  27.673  1.00  0.00    -0.237 OA
ATOM     97  O   UNL A   1      46.298  36.053  25.860  1.00  0.00    -0.744 OA
ENDBRANCH  91  94
ENDBRANCH  64  87
ENDBRANCH  38  39
ENDBRANCH  31  33
ENDBRANCH  30  31
ENDBRANCH  29  30
ENDBRANCH  28  29
ENDBRANCH   1  28
TORSDOF 23
ENDMDL
