MODEL 1
REMARK VINA RESULT:     -11.4      0.000      0.000
REMARK SMILES COc1ccc(-n2c(SCc3cn(-c4ccc(C(=O)OCCOCCOC(=O)c5ccc(-c6c7nc(c(-c8cccc(S(=O)(=O)[O-])c8F)c8ccc([nH]8)c(-c8cccc(S(=O)(=O)[O-])c8F)c8nc(c(-c9cccc(S(=O)(=O)[O-])c9F)c9ccc6[nH]9)C=C8)C=C7)cc5)cc4)nn3)nc3ccccc3c2=O)cc1
REMARK SMILES IDX 21 1 20 2 18 3 19 4 17 5 14 6 15 7 93 8 16 9 92 10 13 11
REMARK SMILES IDX 11 12 12 13 95 14 94 15 10 16 9 17 8 18 7 19 103 20 96 21
REMARK SMILES IDX 102 22 104 23 97 24 101 25 98 26 100 27 99 28 6 29 3 30 4 31
REMARK SMILES IDX 106 32 5 33 105 34 2 35 1 36 22 37 23 38 24 39 25 40 26 41
REMARK SMILES IDX 27 42 28 43 29 44 30 45 91 46 31 47 90 48 32 49 33 50 34 51
REMARK SMILES IDX 84 52 35 53 89 54 83 55 85 56 36 57 88 58 82 59 81 60 37 62
REMARK SMILES IDX 69 63 49 64 68 65 50 66 53 67 67 68 86 69 51 70 52 71 66 73
REMARK SMILES IDX 87 74 54 75 38 76 39 77 47 78 40 79 42 80 48 81 41 82 43 83
REMARK SMILES IDX 44 84 45 85 46 86 70 87 71 88 79 89 72 90 74 91 80 92 73 93
REMARK SMILES IDX 75 94 76 95 77 96 78 97 55 98 56 99 64 100 57 101 59 102
REMARK SMILES IDX 65 103 58 104 60 105 61 106 62 107 63 108
REMARK H PARENT 85 61 53 72
REMARK Flexibility Score: inf
ROOT
ATOM      1  C   UNL A   1      44.713  19.133  25.133  1.00  0.00     0.261 C 
ENDROOT
BRANCH   1   2
ATOM      2  O   UNL A   1      43.616  19.867  25.689  1.00  0.00    -0.460 OA
BRANCH   2   3
ATOM      3  C   UNL A   1      42.587  19.104  26.123  1.00  0.00     0.338 C 
ATOM      4  O   UNL A   1      42.643  17.998  26.630  1.00  0.00    -0.246 OA
BRANCH   3   5
ATOM      5  C   UNL A   1      41.350  19.905  26.075  1.00  0.00     0.060 A 
ATOM      6  C   UNL A   1      38.988  21.323  25.873  1.00  0.00     0.066 A 
ATOM      7  C   UNL A   1      38.973  19.936  25.675  1.00  0.00     0.029 A 
ATOM      8  C   UNL A   1      40.162  21.991  26.243  1.00  0.00     0.029 A 
ATOM      9  C   UNL A   1      40.164  19.232  25.751  1.00  0.00     0.018 A 
ATOM     10  C   UNL A   1      41.347  21.273  26.359  1.00  0.00     0.018 A 
BRANCH   6  11
ATOM     11  N   UNL A   1      37.819  22.050  25.596  1.00  0.00    -0.220 N 
ATOM     12  C   UNL A   1      36.344  23.625  25.448  1.00  0.00     0.093 A 
ATOM     13  C   UNL A   1      37.366  23.170  26.242  1.00  0.00     0.141 A 
ATOM     14  N   UNL A   1      36.148  22.740  24.424  1.00  0.00    -0.134 NA
ATOM     15  N   UNL A   1      37.082  21.813  24.493  1.00  0.00    -0.062 NA
BRANCH  12  16
ATOM     16  C   UNL A   1      35.607  24.895  25.558  1.00  0.00     0.138 C 
BRANCH  16  17
ATOM     17  S   UNL A   1      34.236  25.059  24.432  1.00  0.00    -0.081 SA
BRANCH  17  18
ATOM     18  C   UNL A   1      32.800  24.478  25.369  1.00  0.00     0.176 A 
ATOM     19  N   UNL A   1      31.823  23.929  24.557  1.00  0.00    -0.255 N 
ATOM     20  C   UNL A   1      30.836  24.799  24.105  1.00  0.00     0.266 A 
ATOM     21  N   UNL A   1      32.423  25.275  26.326  1.00  0.00    -0.223 NA
ATOM     22  C   UNL A   1      31.016  26.208  24.582  1.00  0.00     0.066 A 
ATOM     23  O   UNL A   1      29.904  24.521  23.355  1.00  0.00    -0.268 OA
ATOM     24  C   UNL A   1      31.766  26.384  25.761  1.00  0.00     0.079 A 
ATOM     25  C   UNL A   1      30.712  27.298  23.774  1.00  0.00     0.016 A 
ATOM     26  C   UNL A   1      32.147  27.659  26.173  1.00  0.00     0.029 A 
ATOM     27  C   UNL A   1      31.176  28.564  24.147  1.00  0.00     0.001 A 
ATOM     28  C   UNL A   1      31.872  28.747  25.349  1.00  0.00     0.002 A 
BRANCH  19  29
ATOM     29  C   UNL A   1      31.847  22.546  24.254  1.00  0.00     0.052 A 
ATOM     30  C   UNL A   1      32.487  19.882  23.692  1.00  0.00     0.119 A 
ATOM     31  C   UNL A   1      32.180  20.253  24.997  1.00  0.00     0.048 A 
ATOM     32  C   UNL A   1      32.363  20.806  22.654  1.00  0.00     0.048 A 
ATOM     33  C   UNL A   1      31.893  21.593  25.283  1.00  0.00     0.030 A 
ATOM     34  C   UNL A   1      32.009  22.131  22.930  1.00  0.00     0.030 A 
BRANCH  30  35
ATOM     35  O   UNL A   1      32.845  18.585  23.446  1.00  0.00    -0.497 OA
ATOM     36  C   UNL A   1      33.568  18.017  24.540  1.00  0.00     0.278 C 
ENDBRANCH  30  35
ENDBRANCH  19  29
ENDBRANCH  17  18
ENDBRANCH  16  17
ENDBRANCH  12  16
ENDBRANCH   6  11
ENDBRANCH   3   5
ENDBRANCH   2   3
ENDBRANCH   1   2
BRANCH   1  37
ATOM     37  C   UNL A   1      45.962  20.001  24.998  1.00  0.00     0.202 C 
BRANCH  37  38
ATOM     38  O   UNL A   1      46.057  21.183  25.795  1.00  0.00    -0.374 OA
BRANCH  38  39
ATOM     39  C   UNL A   1      45.882  22.466  25.202  1.00  0.00     0.202 C 
BRANCH  39  40
ATOM     40  C   UNL A   1      45.498  23.642  26.089  1.00  0.00     0.261 C 
BRANCH  40  41
ATOM     41  O   UNL A   1      44.237  23.450  26.705  1.00  0.00    -0.460 OA
BRANCH  41  42
ATOM     42  C   UNL A   1      43.241  24.154  26.112  1.00  0.00     0.338 C 
ATOM     43  O   UNL A   1      43.031  24.273  24.924  1.00  0.00    -0.246 OA
BRANCH  42  44
ATOM     44  C   UNL A   1      42.542  24.910  27.153  1.00  0.00     0.060 A 
ATOM     45  C   UNL A   1      41.534  25.752  26.684  1.00  0.00     0.016 A 
ATOM     46  C   UNL A   1      43.119  25.052  28.425  1.00  0.00     0.016 A 
ATOM     47  C   UNL A   1      41.307  26.911  27.376  1.00  0.00     0.010 A 
ATOM     48  C   UNL A   1      42.897  26.219  29.110  1.00  0.00     0.010 A 
ATOM     49  C   UNL A   1      42.070  27.169  28.521  1.00  0.00    -0.014 A 
BRANCH  49  50
ATOM     50  C   UNL A   1      41.870  28.443  29.162  1.00  0.00     0.031 A 
ATOM     51  C   UNL A   1      42.853  29.436  28.691  1.00  0.00     0.074 A 
ATOM     52  C   UNL A   1      40.876  28.669  30.036  1.00  0.00     0.049 A 
ATOM     53  N   UNL A   1      43.868  29.894  29.343  1.00  0.00    -0.248 NA
ATOM     54  C   UNL A   1      42.854  29.761  27.256  1.00  0.00     0.031 C 
ATOM     55  C   UNL A   1      39.727  27.813  30.342  1.00  0.00     0.029 A 
ATOM     56  N   UNL A   1      40.614  29.800  30.740  1.00  0.00    -0.354 N 
ATOM     57  C   UNL A   1      44.471  30.787  28.468  1.00  0.00     0.074 A 
ATOM     58  C   UNL A   1      43.981  30.465  27.156  1.00  0.00     0.031 C 
ATOM     59  C   UNL A   1      38.775  28.559  30.951  1.00  0.00     0.029 A 
ATOM     60  C   UNL A   1      39.300  29.894  31.181  1.00  0.00     0.049 A 
ATOM     61  H   UNL A   1      41.293  30.490  30.921  1.00  0.00     0.167 HD
ATOM     62  C   UNL A   1      45.044  31.925  28.941  1.00  0.00     0.034 A 
ATOM     63  C   UNL A   1      38.680  31.028  31.595  1.00  0.00     0.034 A 
ATOM     64  C   UNL A   1      45.327  31.821  30.353  1.00  0.00     0.049 A 
ATOM     65  C   UNL A   1      39.737  32.002  31.959  1.00  0.00     0.074 A 
ATOM     66  C   UNL A   1      46.057  30.952  31.140  1.00  0.00     0.029 A 
ATOM     67  N   UNL A   1      44.480  32.487  31.204  1.00  0.00    -0.354 N 
ATOM     68  N   UNL A   1      40.538  31.846  32.976  1.00  0.00    -0.248 NA
ATOM     69  C   UNL A   1      40.204  32.923  30.933  1.00  0.00     0.031 C 
ATOM     70  C   UNL A   1      45.299  30.816  32.340  1.00  0.00     0.029 A 
ATOM     71  C   UNL A   1      44.186  31.653  32.249  1.00  0.00     0.049 A 
ATOM     72  H   UNL A   1      44.143  33.404  31.085  1.00  0.00     0.167 HD
ATOM     73  C   UNL A   1      41.779  32.253  32.500  1.00  0.00     0.074 A 
ATOM     74  C   UNL A   1      41.490  33.013  31.286  1.00  0.00     0.031 C 
ATOM     75  C   UNL A   1      42.930  31.680  32.965  1.00  0.00     0.034 A 
BRANCH  62  76
ATOM     76  C   UNL A   1      44.930  33.266  28.248  1.00  0.00     0.023 A 
ATOM     77  C   UNL A   1      46.140  33.924  27.939  1.00  0.00     0.012 A 
ATOM     78  C   UNL A   1      43.744  34.033  28.155  1.00  0.00     0.148 A 
ATOM     79  C   UNL A   1      46.172  35.287  27.633  1.00  0.00     0.002 A 
ATOM     80  C   UNL A   1      43.772  35.365  27.770  1.00  0.00     0.091 A 
ATOM     81  F   UNL A   1      42.578  33.535  28.568  1.00  0.00    -0.205 F 
ATOM     82  C   UNL A   1      44.988  36.009  27.544  1.00  0.00     0.022 A 
BRANCH  80  83
ATOM     83  S   UNL A   1      42.260  36.324  27.603  1.00  0.00     0.127 S 
ATOM     84  O   UNL A   1      42.787  37.638  27.251  1.00  0.00    -0.237 OA
ATOM     85  O   UNL A   1      41.578  35.615  26.520  1.00  0.00    -0.237 OA
ATOM     86  O   UNL A   1      41.586  36.228  28.892  1.00  0.00    -0.744 OA
ENDBRANCH  80  83
ENDBRANCH  62  76
BRANCH  63  87
ATOM     87  C   UNL A   1      37.269  31.443  31.416  1.00  0.00     0.023 A 
ATOM     88  C   UNL A   1      36.521  31.863  32.534  1.00  0.00     0.012 A 
ATOM     89  C   UNL A   1      36.744  31.700  30.130  1.00  0.00     0.148 A 
ATOM     90  C   UNL A   1      35.309  32.546  32.376  1.00  0.00     0.002 A 
ATOM     91  C   UNL A   1      35.536  32.372  29.977  1.00  0.00     0.091 A 
ATOM     92  F   UNL A   1      37.474  31.375  29.055  1.00  0.00    -0.205 F 
ATOM     93  C   UNL A   1      34.820  32.809  31.099  1.00  0.00     0.022 A 
BRANCH  91  94
ATOM     94  S   UNL A   1      34.861  32.770  28.358  1.00  0.00     0.127 S 
ATOM     95  O   UNL A   1      34.481  31.449  27.855  1.00  0.00    -0.237 OA
ATOM     96  O   UNL A   1      33.740  33.641  28.701  1.00  0.00    -0.237 OA
ATOM     97  O   UNL A   1      35.945  33.403  27.617  1.00  0.00    -0.744 OA
ENDBRANCH  91  94
ENDBRANCH  63  87
BRANCH  75  98
ATOM     98  C   UNL A   1      42.836  30.804  34.190  1.00  0.00     0.023 A 
ATOM     99  C   UNL A   1      42.918  31.316  35.502  1.00  0.00     0.012 A 
ATOM    100  C   UNL A   1      42.508  29.451  34.012  1.00  0.00     0.148 A 
ATOM    101  C   UNL A   1      42.708  30.489  36.610  1.00  0.00     0.002 A 
ATOM    102  C   UNL A   1      42.253  28.643  35.113  1.00  0.00     0.091 A 
ATOM    103  F   UNL A   1      42.426  28.977  32.758  1.00  0.00    -0.205 F 
ATOM    104  C   UNL A   1      42.363  29.155  36.415  1.00  0.00     0.022 A 
BRANCH 102 105
ATOM    105  S   UNL A   1      41.689  26.951  34.918  1.00  0.00     0.127 S 
ATOM    106  O   UNL A   1      41.292  26.603  36.280  1.00  0.00    -0.237 OA
ATOM    107  O   UNL A   1      40.580  27.095  33.974  1.00  0.00    -0.237 OA
ATOM    108  O   UNL A   1      42.827  26.210  34.386  1.00  0.00    -0.744 OA
ENDBRANCH 102 105
ENDBRANCH  75  98
ENDBRANCH  49  50
ENDBRANCH  42  44
ENDBRANCH  41  42
ENDBRANCH  40  41
ENDBRANCH  39  40
ENDBRANCH  38  39
ENDBRANCH  37  38
ENDBRANCH   1  37
TORSDOF 23
ENDMDL
MODEL 2
REMARK VINA RESULT:     -11.0      1.917      3.566
REMARK SMILES COc1ccc(-n2c(SCc3cn(-c4ccc(C(=O)OCCOCCOC(=O)c5ccc(-c6c7nc(c(-c8cccc(S(=O)(=O)[O-])c8F)c8ccc([nH]8)c(-c8cccc(S(=O)(=O)[O-])c8F)c8nc(c(-c9cccc(S(=O)(=O)[O-])c9F)c9ccc6[nH]9)C=C8)C=C7)cc5)cc4)nn3)nc3ccccc3c2=O)cc1
REMARK SMILES IDX 21 1 20 2 18 3 19 4 17 5 14 6 15 7 93 8 16 9 92 10 13 11
REMARK SMILES IDX 11 12 12 13 95 14 94 15 10 16 9 17 8 18 7 19 103 20 96 21
REMARK SMILES IDX 102 22 104 23 97 24 101 25 98 26 100 27 99 28 6 29 3 30 4 31
REMARK SMILES IDX 106 32 5 33 105 34 2 35 1 36 22 37 23 38 24 39 25 40 26 41
REMARK SMILES IDX 27 42 28 43 29 44 30 45 91 46 31 47 90 48 32 49 33 50 34 51
REMARK SMILES IDX 84 52 35 53 89 54 83 55 85 56 36 57 88 58 82 59 81 60 37 62
REMARK SMILES IDX 69 63 49 64 68 65 50 66 53 67 67 68 86 69 51 70 52 71 66 73
REMARK SMILES IDX 87 74 54 75 38 76 39 77 47 78 40 79 42 80 48 81 41 82 43 83
REMARK SMILES IDX 44 84 45 85 46 86 70 87 71 88 79 89 72 90 74 91 80 92 73 93
REMARK SMILES IDX 75 94 76 95 77 96 78 97 55 98 56 99 64 100 57 101 59 102
REMARK SMILES IDX 65 103 58 104 60 105 61 106 62 107 63 108
REMARK H PARENT 85 61 53 72
REMARK Flexibility Score: inf
ROOT
ATOM      1  C   UNL A   1      43.957  18.887  25.007  1.00  0.00     0.261 C 
ENDROOT
BRANCH   1   2
ATOM      2  O   UNL A   1      43.030  19.898  25.419  1.00  0.00    -0.460 OA
BRANCH   2   3
ATOM      3  C   UNL A   1      42.209  19.536  26.431  1.00  0.00     0.338 C 
ATOM      4  O   UNL A   1      42.500  18.915  27.438  1.00  0.00    -0.246 OA
BRANCH   3   5
ATOM      5  C   UNL A   1      40.901  20.185  26.236  1.00  0.00     0.060 A 
ATOM      6  C   UNL A   1      38.436  21.333  25.743  1.00  0.00     0.066 A 
ATOM      7  C   UNL A   1      38.656  19.998  25.378  1.00  0.00     0.029 A 
ATOM      8  C   UNL A   1      39.417  22.072  26.417  1.00  0.00     0.029 A 
ATOM      9  C   UNL A   1      39.901  19.434  25.604  1.00  0.00     0.018 A 
ATOM     10  C   UNL A   1      40.651  21.487  26.679  1.00  0.00     0.018 A 
BRANCH   6  11
ATOM     11  N   UNL A   1      37.246  21.952  25.330  1.00  0.00    -0.220 N 
ATOM     12  C   UNL A   1      35.701  23.410  24.920  1.00  0.00     0.093 A 
ATOM     13  C   UNL A   1      36.711  23.120  25.804  1.00  0.00     0.141 A 
ATOM     14  N   UNL A   1      35.594  22.388  24.018  1.00  0.00    -0.134 NA
ATOM     15  N   UNL A   1      36.569  21.531  24.243  1.00  0.00    -0.062 NA
BRANCH  12  16
ATOM     16  C   UNL A   1      34.898  24.640  24.833  1.00  0.00     0.138 C 
BRANCH  16  17
ATOM     17  S   UNL A   1      34.161  24.936  23.238  1.00  0.00    -0.081 SA
BRANCH  17  18
ATOM     18  C   UNL A   1      32.415  25.258  23.592  1.00  0.00     0.176 A 
ATOM     19  N   UNL A   1      32.188  25.545  24.926  1.00  0.00    -0.255 N 
ATOM     20  C   UNL A   1      31.874  24.465  25.745  1.00  0.00     0.266 A 
ATOM     21  N   UNL A   1      31.587  24.456  22.989  1.00  0.00    -0.223 NA
ATOM     22  C   UNL A   1      31.846  23.154  25.020  1.00  0.00     0.066 A 
ATOM     23  O   UNL A   1      31.669  24.500  26.955  1.00  0.00    -0.268 OA
ATOM     24  C   UNL A   1      31.617  23.205  23.631  1.00  0.00     0.079 A 
ATOM     25  C   UNL A   1      32.296  21.980  25.615  1.00  0.00     0.016 A 
ATOM     26  C   UNL A   1      31.764  22.062  22.849  1.00  0.00     0.029 A 
ATOM     27  C   UNL A   1      32.529  20.862  24.808  1.00  0.00     0.001 A 
ATOM     28  C   UNL A   1      32.246  20.895  23.437  1.00  0.00     0.002 A 
BRANCH  19  29
ATOM     29  C   UNL A   1      32.249  26.883  25.385  1.00  0.00     0.052 A 
ATOM     30  C   UNL A   1      31.836  29.401  26.530  1.00  0.00     0.119 A 
ATOM     31  C   UNL A   1      32.571  28.446  27.223  1.00  0.00     0.048 A 
ATOM     32  C   UNL A   1      31.408  29.147  25.227  1.00  0.00     0.048 A 
ATOM     33  C   UNL A   1      32.749  27.175  26.664  1.00  0.00     0.030 A 
ATOM     34  C   UNL A   1      31.644  27.898  24.640  1.00  0.00     0.030 A 
BRANCH  30  35
ATOM     35  O   UNL A   1      31.604  30.610  27.127  1.00  0.00    -0.497 OA
ATOM     36  C   UNL A   1      31.232  31.611  26.175  1.00  0.00     0.278 C 
ENDBRANCH  30  35
ENDBRANCH  19  29
ENDBRANCH  17  18
ENDBRANCH  16  17
ENDBRANCH  12  16
ENDBRANCH   6  11
ENDBRANCH   3   5
ENDBRANCH   2   3
ENDBRANCH   1   2
BRANCH   1  37
ATOM     37  C   UNL A   1      45.360  19.455  24.805  1.00  0.00     0.202 C 
BRANCH  37  38
ATOM     38  O   UNL A   1      45.785  20.531  25.644  1.00  0.00    -0.374 OA
BRANCH  38  39
ATOM     39  C   UNL A   1      45.752  21.872  25.166  1.00  0.00     0.202 C 
BRANCH  39  40
ATOM     40  C   UNL A   1      45.363  22.988  26.125  1.00  0.00     0.261 C 
BRANCH  40  41
ATOM     41  O   UNL A   1      43.997  22.916  26.493  1.00  0.00    -0.460 OA
BRANCH  41  42
ATOM     42  C   UNL A   1      43.211  23.774  25.795  1.00  0.00     0.338 C 
ATOM     43  O   UNL A   1      43.225  23.978  24.601  1.00  0.00    -0.246 OA
BRANCH  42  44
ATOM     44  C   UNL A   1      42.442  24.564  26.759  1.00  0.00     0.060 A 
ATOM     45  C   UNL A   1      41.598  25.517  26.189  1.00  0.00     0.016 A 
ATOM     46  C   UNL A   1      42.837  24.609  28.105  1.00  0.00     0.016 A 
ATOM     47  C   UNL A   1      41.383  26.672  26.892  1.00  0.00     0.010 A 
ATOM     48  C   UNL A   1      42.627  25.770  28.804  1.00  0.00     0.010 A 
ATOM     49  C   UNL A   1      41.990  26.816  28.145  1.00  0.00    -0.014 A 
BRANCH  49  50
ATOM     50  C   UNL A   1      41.820  28.083  28.808  1.00  0.00     0.031 A 
ATOM     51  C   UNL A   1      42.818  29.065  28.344  1.00  0.00     0.074 A 
ATOM     52  C   UNL A   1      40.837  28.314  29.694  1.00  0.00     0.049 A 
ATOM     53  N   UNL A   1      43.847  29.493  28.994  1.00  0.00    -0.248 NA
ATOM     54  C   UNL A   1      42.814  29.413  26.914  1.00  0.00     0.031 C 
ATOM     55  C   UNL A   1      39.675  27.475  29.996  1.00  0.00     0.029 A 
ATOM     56  N   UNL A   1      40.603  29.439  30.417  1.00  0.00    -0.354 N 
ATOM     57  C   UNL A   1      44.460  30.388  28.129  1.00  0.00     0.074 A 
ATOM     58  C   UNL A   1      43.953  30.096  26.816  1.00  0.00     0.031 C 
ATOM     59  C   UNL A   1      38.743  28.230  30.624  1.00  0.00     0.029 A 
ATOM     60  C   UNL A   1      39.295  29.551  30.871  1.00  0.00     0.049 A 
ATOM     61  H   UNL A   1      41.296  30.113  30.603  1.00  0.00     0.167 HD
ATOM     62  C   UNL A   1      45.059  31.507  28.614  1.00  0.00     0.034 A 
ATOM     63  C   UNL A   1      38.700  30.690  31.308  1.00  0.00     0.034 A 
ATOM     64  C   UNL A   1      45.351  31.376  30.022  1.00  0.00     0.049 A 
ATOM     65  C   UNL A   1      39.779  31.638  31.678  1.00  0.00     0.074 A 
ATOM     66  C   UNL A   1      46.070  30.480  30.790  1.00  0.00     0.029 A 
ATOM     67  N   UNL A   1      44.523  32.044  30.891  1.00  0.00    -0.354 N 
ATOM     68  N   UNL A   1      40.585  31.450  32.685  1.00  0.00    -0.248 NA
ATOM     69  C   UNL A   1      40.255  32.566  30.663  1.00  0.00     0.031 C 
ATOM     70  C   UNL A   1      45.320  30.340  31.994  1.00  0.00     0.029 A 
ATOM     71  C   UNL A   1      44.222  31.199  31.925  1.00  0.00     0.049 A 
ATOM     72  H   UNL A   1      44.203  32.969  30.789  1.00  0.00     0.167 HD
ATOM     73  C   UNL A   1      41.829  31.841  32.206  1.00  0.00     0.074 A 
ATOM     74  C   UNL A   1      41.545  32.626  31.006  1.00  0.00     0.031 C 
ATOM     75  C   UNL A   1      42.972  31.239  32.652  1.00  0.00     0.034 A 
BRANCH  62  76
ATOM     76  C   UNL A   1      44.965  32.861  27.943  1.00  0.00     0.023 A 
ATOM     77  C   UNL A   1      43.880  33.056  27.062  1.00  0.00     0.012 A 
ATOM     78  C   UNL A   1      46.007  33.817  27.895  1.00  0.00     0.148 A 
ATOM     79  C   UNL A   1      43.874  34.099  26.131  1.00  0.00     0.002 A 
ATOM     80  C   UNL A   1      45.958  34.898  27.027  1.00  0.00     0.091 A 
ATOM     81  F   UNL A   1      47.134  33.631  28.584  1.00  0.00    -0.205 F 
ATOM     82  C   UNL A   1      44.911  35.024  26.116  1.00  0.00     0.022 A 
BRANCH  80  83
ATOM     83  S   UNL A   1      47.259  36.139  27.002  1.00  0.00     0.127 S 
ATOM     84  O   UNL A   1      46.790  37.031  25.947  1.00  0.00    -0.237 OA
ATOM     85  O   UNL A   1      47.177  36.680  28.359  1.00  0.00    -0.237 OA
ATOM     86  O   UNL A   1      48.493  35.413  26.726  1.00  0.00    -0.744 OA
ENDBRANCH  80  83
ENDBRANCH  62  76
BRANCH  63  87
ATOM     87  C   UNL A   1      37.296  31.134  31.148  1.00  0.00     0.023 A 
ATOM     88  C   UNL A   1      36.571  31.570  32.275  1.00  0.00     0.012 A 
ATOM     89  C   UNL A   1      36.759  31.403  29.868  1.00  0.00     0.148 A 
ATOM     90  C   UNL A   1      35.372  32.278  32.133  1.00  0.00     0.002 A 
ATOM     91  C   UNL A   1      35.564  32.100  29.731  1.00  0.00     0.091 A 
ATOM     92  F   UNL A   1      37.469  31.062  28.784  1.00  0.00    -0.205 F 
ATOM     93  C   UNL A   1      34.872  32.551  30.862  1.00  0.00     0.022 A 
BRANCH  91  94
ATOM     94  S   UNL A   1      34.877  32.512  28.121  1.00  0.00     0.127 S 
ATOM     95  O   UNL A   1      34.768  31.196  27.492  1.00  0.00    -0.237 OA
ATOM     96  O   UNL A   1      33.602  33.126  28.482  1.00  0.00    -0.237 OA
ATOM     97  O   UNL A   1      35.844  33.400  27.488  1.00  0.00    -0.744 OA
ENDBRANCH  91  94
ENDBRANCH  63  87
BRANCH  75  98
ATOM     98  C   UNL A   1      42.872  30.345  33.864  1.00  0.00     0.023 A 
ATOM     99  C   UNL A   1      42.347  29.037  33.805  1.00  0.00     0.012 A 
ATOM    100  C   UNL A   1      43.460  30.785  35.060  1.00  0.00     0.148 A 
ATOM    101  C   UNL A   1      42.380  28.199  34.924  1.00  0.00     0.002 A 
ATOM    102  C   UNL A   1      43.534  29.934  36.156  1.00  0.00     0.091 A 
ATOM    103  F   UNL A   1      43.962  32.029  35.101  1.00  0.00    -0.205 F 
ATOM    104  C   UNL A   1      42.986  28.643  36.096  1.00  0.00     0.022 A 
BRANCH 102 105
ATOM    105  S   UNL A   1      44.407  30.409  37.649  1.00  0.00     0.127 S 
ATOM    106  O   UNL A   1      45.708  30.817  37.127  1.00  0.00    -0.237 OA
ATOM    107  O   UNL A   1      43.582  31.505  38.161  1.00  0.00    -0.237 OA
ATOM    108  O   UNL A   1      44.414  29.226  38.502  1.00  0.00    -0.744 OA
ENDBRANCH 102 105
ENDBRANCH  75  98
ENDBRANCH  49  50
ENDBRANCH  42  44
ENDBRANCH  41  42
ENDBRANCH  40  41
ENDBRANCH  39  40
ENDBRANCH  38  39
ENDBRANCH  37  38
ENDBRANCH   1  37
TORSDOF 23
ENDMDL
MODEL 3
REMARK VINA RESULT:     -10.7      3.534      8.875
REMARK SMILES COc1ccc(-n2c(SCc3cn(-c4ccc(C(=O)OCCOCCOC(=O)c5ccc(-c6c7nc(c(-c8cccc(S(=O)(=O)[O-])c8F)c8ccc([nH]8)c(-c8cccc(S(=O)(=O)[O-])c8F)c8nc(c(-c9cccc(S(=O)(=O)[O-])c9F)c9ccc6[nH]9)C=C8)C=C7)cc5)cc4)nn3)nc3ccccc3c2=O)cc1
REMARK SMILES IDX 21 1 20 2 18 3 19 4 17 5 14 6 15 7 93 8 16 9 92 10 13 11
REMARK SMILES IDX 11 12 12 13 95 14 94 15 10 16 9 17 8 18 7 19 103 20 96 21
REMARK SMILES IDX 102 22 104 23 97 24 101 25 98 26 100 27 99 28 6 29 3 30 4 31
REMARK SMILES IDX 106 32 5 33 105 34 2 35 1 36 22 37 23 38 24 39 25 40 26 41
REMARK SMILES IDX 27 42 28 43 29 44 30 45 91 46 31 47 90 48 32 49 33 50 34 51
REMARK SMILES IDX 84 52 35 53 89 54 83 55 85 56 36 57 88 58 82 59 81 60 37 62
REMARK SMILES IDX 69 63 49 64 68 65 50 66 53 67 67 68 86 69 51 70 52 71 66 73
REMARK SMILES IDX 87 74 54 75 38 76 39 77 47 78 40 79 42 80 48 81 41 82 43 83
REMARK SMILES IDX 44 84 45 85 46 86 70 87 71 88 79 89 72 90 74 91 80 92 73 93
REMARK SMILES IDX 75 94 76 95 77 96 78 97 55 98 56 99 64 100 57 101 59 102
REMARK SMILES IDX 65 103 58 104 60 105 61 106 62 107 63 108
REMARK H PARENT 85 61 53 72
REMARK Flexibility Score: inf
ROOT
ATOM      1  C   UNL A   1      33.995  34.957  28.082  1.00  0.00     0.261 C 
ENDROOT
BRANCH   1   2
ATOM      2  O   UNL A   1      33.987  33.560  27.771  1.00  0.00    -0.460 OA
BRANCH   2   3
ATOM      3  C   UNL A   1      32.776  33.061  27.434  1.00  0.00     0.338 C 
ATOM      4  O   UNL A   1      31.764  33.684  27.167  1.00  0.00    -0.246 OA
BRANCH   3   5
ATOM      5  C   UNL A   1      32.899  31.606  27.239  1.00  0.00     0.060 A 
ATOM      6  C   UNL A   1      33.273  28.896  26.851  1.00  0.00     0.066 A 
ATOM      7  C   UNL A   1      34.246  29.629  27.542  1.00  0.00     0.029 A 
ATOM      8  C   UNL A   1      32.083  29.496  26.417  1.00  0.00     0.029 A 
ATOM      9  C   UNL A   1      34.067  30.993  27.712  1.00  0.00     0.018 A 
ATOM     10  C   UNL A   1      31.890  30.856  26.628  1.00  0.00     0.018 A 
BRANCH   6  11
ATOM     11  N   UNL A   1      33.557  27.564  26.510  1.00  0.00    -0.220 N 
ATOM     12  C   UNL A   1      33.373  25.462  26.032  1.00  0.00     0.093 A 
ATOM     13  C   UNL A   1      32.793  26.459  26.775  1.00  0.00     0.141 A 
ATOM     14  N   UNL A   1      34.497  25.955  25.429  1.00  0.00    -0.134 NA
ATOM     15  N   UNL A   1      34.572  27.246  25.683  1.00  0.00    -0.062 NA
BRANCH  12  16
ATOM     16  C   UNL A   1      32.871  24.100  25.792  1.00  0.00     0.138 C 
BRANCH  16  17
ATOM     17  S   UNL A   1      31.115  23.993  25.510  1.00  0.00    -0.081 SA
BRANCH  17  18
ATOM     18  C   UNL A   1      30.958  23.440  23.793  1.00  0.00     0.176 A 
ATOM     19  N   UNL A   1      32.171  23.060  23.245  1.00  0.00    -0.255 N 
ATOM     20  C   UNL A   1      32.883  24.050  22.576  1.00  0.00     0.266 A 
ATOM     21  N   UNL A   1      30.157  24.163  23.065  1.00  0.00    -0.223 NA
ATOM     22  C   UNL A   1      32.197  25.383  22.576  1.00  0.00     0.066 A 
ATOM     23  O   UNL A   1      33.986  23.929  22.050  1.00  0.00    -0.268 OA
ATOM     24  C   UNL A   1      30.800  25.374  22.749  1.00  0.00     0.079 A 
ATOM     25  C   UNL A   1      32.911  26.572  22.683  1.00  0.00     0.016 A 
ATOM     26  C   UNL A   1      30.106  26.564  22.955  1.00  0.00     0.029 A 
ATOM     27  C   UNL A   1      32.217  27.750  22.980  1.00  0.00     0.001 A 
ATOM     28  C   UNL A   1      30.821  27.750  23.095  1.00  0.00     0.002 A 
BRANCH  19  29
ATOM     29  C   UNL A   1      32.610  21.719  23.354  1.00  0.00     0.052 A 
ATOM     30  C   UNL A   1      33.049  19.030  23.986  1.00  0.00     0.119 A 
ATOM     31  C   UNL A   1      32.230  19.356  22.911  1.00  0.00     0.048 A 
ATOM     32  C   UNL A   1      33.739  20.031  24.671  1.00  0.00     0.048 A 
ATOM     33  C   UNL A   1      31.984  20.702  22.616  1.00  0.00     0.030 A 
ATOM     34  C   UNL A   1      33.546  21.375  24.334  1.00  0.00     0.030 A 
BRANCH  30  35
ATOM     35  O   UNL A   1      33.213  17.710  24.310  1.00  0.00    -0.497 OA
ATOM     36  C   UNL A   1      33.833  16.977  23.250  1.00  0.00     0.278 C 
ENDBRANCH  30  35
ENDBRANCH  19  29
ENDBRANCH  17  18
ENDBRANCH  16  17
ENDBRANCH  12  16
ENDBRANCH   6  11
ENDBRANCH   3   5
ENDBRANCH   2   3
ENDBRANCH   1   2
BRANCH   1  37
ATOM     37  C   UNL A   1      33.146  35.266  29.314  1.00  0.00     0.202 C 
BRANCH  37  38
ATOM     38  O   UNL A   1      33.679  36.150  30.302  1.00  0.00    -0.374 OA
BRANCH  38  39
ATOM     39  C   UNL A   1      32.958  36.402  31.505  1.00  0.00     0.202 C 
BRANCH  39  40
ATOM     40  C   UNL A   1      33.402  35.716  32.788  1.00  0.00     0.261 C 
BRANCH  40  41
ATOM     41  O   UNL A   1      34.433  34.773  32.555  1.00  0.00    -0.460 OA
BRANCH  41  42
ATOM     42  C   UNL A   1      34.017  33.488  32.674  1.00  0.00     0.338 C 
ATOM     43  O   UNL A   1      33.040  33.082  33.263  1.00  0.00    -0.246 OA
BRANCH  42  44
ATOM     44  C   UNL A   1      35.058  32.624  32.111  1.00  0.00     0.060 A 
ATOM     45  C   UNL A   1      35.983  32.147  33.039  1.00  0.00     0.016 A 
ATOM     46  C   UNL A   1      35.302  32.628  30.729  1.00  0.00     0.016 A 
ATOM     47  C   UNL A   1      37.265  31.941  32.603  1.00  0.00     0.010 A 
ATOM     48  C   UNL A   1      36.589  32.431  30.297  1.00  0.00     0.010 A 
ATOM     49  C   UNL A   1      37.564  32.189  31.259  1.00  0.00    -0.014 A 
BRANCH  49  50
ATOM     50  C   UNL A   1      38.943  32.057  30.864  1.00  0.00     0.031 A 
ATOM     51  C   UNL A   1      39.256  30.668  30.480  1.00  0.00     0.074 A 
ATOM     52  C   UNL A   1      39.789  33.099  30.821  1.00  0.00     0.049 A 
ATOM     53  N   UNL A   1      39.947  29.812  31.155  1.00  0.00    -0.248 NA
ATOM     54  C   UNL A   1      38.511  30.093  29.349  1.00  0.00     0.031 C 
ATOM     55  C   UNL A   1      39.477  34.525  30.937  1.00  0.00     0.029 A 
ATOM     56  N   UNL A   1      41.113  33.096  30.517  1.00  0.00    -0.354 N 
ATOM     57  C   UNL A   1      39.944  28.667  30.372  1.00  0.00     0.074 A 
ATOM     58  C   UNL A   1      38.855  28.809  29.445  1.00  0.00     0.031 C 
ATOM     59  C   UNL A   1      40.516  35.241  30.446  1.00  0.00     0.029 A 
ATOM     60  C   UNL A   1      41.595  34.332  30.104  1.00  0.00     0.049 A 
ATOM     61  H   UNL A   1      41.678  32.293  30.584  1.00  0.00     0.167 HD
ATOM     62  C   UNL A   1      41.043  27.867  30.326  1.00  0.00     0.034 A 
ATOM     63  C   UNL A   1      42.753  34.548  29.431  1.00  0.00     0.034 A 
ATOM     64  C   UNL A   1      41.909  28.103  31.457  1.00  0.00     0.049 A 
ATOM     65  C   UNL A   1      43.617  33.362  29.645  1.00  0.00     0.074 A 
ATOM     66  C   UNL A   1      41.755  28.061  32.829  1.00  0.00     0.029 A 
ATOM     67  N   UNL A   1      43.046  28.837  31.224  1.00  0.00    -0.354 N 
ATOM     68  N   UNL A   1      44.131  33.048  30.802  1.00  0.00    -0.248 NA
ATOM     69  C   UNL A   1      43.543  32.276  28.680  1.00  0.00     0.031 C 
ATOM     70  C   UNL A   1      42.541  29.142  33.323  1.00  0.00     0.029 A 
ATOM     71  C   UNL A   1      43.181  29.745  32.239  1.00  0.00     0.049 A 
ATOM     72  H   UNL A   1      43.658  28.729  30.461  1.00  0.00     0.167 HD
ATOM     73  C   UNL A   1      43.994  31.667  30.873  1.00  0.00     0.074 A 
ATOM     74  C   UNL A   1      43.740  31.239  29.499  1.00  0.00     0.031 C 
ATOM     75  C   UNL A   1      43.798  31.043  32.074  1.00  0.00     0.034 A 
BRANCH  62  76
ATOM     76  C   UNL A   1      41.551  27.221  29.055  1.00  0.00     0.023 A 
ATOM     77  C   UNL A   1      41.785  25.830  29.103  1.00  0.00     0.012 A 
ATOM     78  C   UNL A   1      42.081  27.920  27.944  1.00  0.00     0.148 A 
ATOM     79  C   UNL A   1      42.570  25.188  28.141  1.00  0.00     0.002 A 
ATOM     80  C   UNL A   1      42.788  27.265  26.947  1.00  0.00     0.091 A 
ATOM     81  F   UNL A   1      42.034  29.252  27.893  1.00  0.00    -0.205 F 
ATOM     82  C   UNL A   1      43.069  25.904  27.059  1.00  0.00     0.022 A 
BRANCH  80  83
ATOM     83  S   UNL A   1      43.417  28.146  25.512  1.00  0.00     0.127 S 
ATOM     84  O   UNL A   1      42.186  28.430  24.782  1.00  0.00    -0.237 OA
ATOM     85  O   UNL A   1      44.055  29.307  26.134  1.00  0.00    -0.237 OA
ATOM     86  O   UNL A   1      44.350  27.232  24.864  1.00  0.00    -0.744 OA
ENDBRANCH  80  83
ENDBRANCH  62  76
BRANCH  63  87
ATOM     87  C   UNL A   1      43.053  35.548  28.380  1.00  0.00     0.023 A 
ATOM     88  C   UNL A   1      42.002  36.072  27.599  1.00  0.00     0.012 A 
ATOM     89  C   UNL A   1      44.306  36.199  28.330  1.00  0.00     0.148 A 
ATOM     90  C   UNL A   1      42.185  37.223  26.822  1.00  0.00     0.002 A 
ATOM     91  C   UNL A   1      44.486  37.337  27.552  1.00  0.00     0.091 A 
ATOM     92  F   UNL A   1      45.295  35.760  29.121  1.00  0.00    -0.205 F 
ATOM     93  C   UNL A   1      43.423  37.860  26.805  1.00  0.00     0.022 A 
BRANCH  91  94
ATOM     94  S   UNL A   1      46.047  38.227  27.506  1.00  0.00     0.127 S 
ATOM     95  O   UNL A   1      47.013  37.139  27.346  1.00  0.00    -0.237 OA
ATOM     96  O   UNL A   1      45.881  39.075  26.329  1.00  0.00    -0.237 OA
ATOM     97  O   UNL A   1      46.145  38.932  28.778  1.00  0.00    -0.744 OA
ENDBRANCH  91  94
ENDBRANCH  63  87
BRANCH  75  98
ATOM     98  C   UNL A   1      44.009  31.851  33.331  1.00  0.00     0.023 A 
ATOM     99  C   UNL A   1      45.280  32.033  33.916  1.00  0.00     0.012 A 
ATOM    100  C   UNL A   1      42.917  32.566  33.847  1.00  0.00     0.148 A 
ATOM    101  C   UNL A   1      45.450  32.885  35.011  1.00  0.00     0.002 A 
ATOM    102  C   UNL A   1      43.098  33.448  34.906  1.00  0.00     0.091 A 
ATOM    103  F   UNL A   1      41.715  32.389  33.277  1.00  0.00    -0.205 F 
ATOM    104  C   UNL A   1      44.361  33.603  35.498  1.00  0.00     0.022 A 
BRANCH 102 105
ATOM    105  S   UNL A   1      41.758  34.485  35.495  1.00  0.00     0.127 S 
ATOM    106  O   UNL A   1      40.792  33.497  35.970  1.00  0.00    -0.237 OA
ATOM    107  O   UNL A   1      42.405  35.266  36.552  1.00  0.00    -0.237 OA
ATOM    108  O   UNL A   1      41.333  35.279  34.348  1.00  0.00    -0.744 OA
ENDBRANCH 102 105
ENDBRANCH  75  98
ENDBRANCH  49  50
ENDBRANCH  42  44
ENDBRANCH  41  42
ENDBRANCH  40  41
ENDBRANCH  39  40
ENDBRANCH  38  39
ENDBRANCH  37  38
ENDBRANCH   1  37
TORSDOF 23
ENDMDL
