MODEL 1
REMARK VINA RESULT:      -9.1      0.000      0.000
REMARK SMILES O=C(Cn1ccc(C(=O)NCCC[NH+]2CCOCC2)n1)OCCOCCOC(=O)c1ccc(-c2c3nc(c(-c4cccc(S(=O)(=O)[O-])c4F)c4ccc([nH]4)c(-c4cccc(S(=O)(=O)[O-])c4F)c4nc(c(-c5cccc(S(=O)(=O)[O-])c5F)c5ccc2[nH]5)C=C4)C=C3)cc1
REMARK SMILES IDX 22 1 21 2 2 3 1 4 3 5 4 6 5 7 20 8 6 9 7 10 8 11 9 12 10 13
REMARK SMILES IDX 11 15 12 16 13 17 14 18 15 19 19 20 16 22 18 23 17 24 23 25
REMARK SMILES IDX 24 26 25 27 26 28 27 29 28 30 29 31 30 32 31 33 92 34 32 35
REMARK SMILES IDX 91 36 33 37 34 38 35 39 85 40 36 41 90 42 84 43 86 44 37 45
REMARK SMILES IDX 89 46 83 47 82 48 38 50 70 51 50 52 69 53 51 54 54 55 68 56
REMARK SMILES IDX 87 57 52 58 53 59 67 61 88 62 55 63 39 64 40 65 48 66 41 67
REMARK SMILES IDX 43 68 49 69 42 70 44 71 45 72 46 73 47 74 71 75 72 76 80 77
REMARK SMILES IDX 73 78 75 79 81 80 74 81 76 82 77 83 78 84 79 85 56 86 57 87
REMARK SMILES IDX 65 88 58 89 60 90 66 91 59 92 61 93 62 94 63 95 64 96
REMARK H PARENT 10 14 14 21 86 49 54 60
REMARK Flexibility Score: inf
ROOT
ATOM      1  C   UNL A   1      33.308  37.378  31.688  1.00  0.00     0.261 C 
ENDROOT
BRANCH   1   2
ATOM      2  O   UNL A   1      32.526  36.706  30.692  1.00  0.00    -0.462 OA
BRANCH   2   3
ATOM      3  C   UNL A   1      32.998  36.356  29.470  1.00  0.00     0.327 C 
ATOM      4  O   UNL A   1      33.410  37.222  28.701  1.00  0.00    -0.250 OA
BRANCH   3   5
ATOM      5  C   UNL A   1      32.875  34.938  29.012  1.00  0.00     0.266 C 
BRANCH   5   6
ATOM      6  N   UNL A   1      34.097  34.239  28.688  1.00  0.00    -0.261 N 
ATOM      7  C   UNL A   1      35.394  34.526  28.978  1.00  0.00     0.110 A 
ATOM      8  N   UNL A   1      33.948  33.060  28.072  1.00  0.00    -0.167 NA
ATOM      9  C   UNL A   1      36.094  33.372  28.700  1.00  0.00     0.056 A 
ATOM     10  C   UNL A   1      35.148  32.471  28.140  1.00  0.00     0.150 A 
BRANCH  10  11
ATOM     11  C   UNL A   1      35.406  31.113  27.653  1.00  0.00     0.271 C 
ATOM     12  O   UNL A   1      36.543  30.635  27.645  1.00  0.00    -0.267 OA
ATOM     13  N   UNL A   1      34.390  30.323  27.169  1.00  0.00    -0.350 N 
ATOM     14  H   UNL A   1      34.699  29.495  26.738  1.00  0.00     0.163 HD
BRANCH  13  15
ATOM     15  C   UNL A   1      32.937  30.484  27.174  1.00  0.00     0.122 C 
BRANCH  15  16
ATOM     16  C   UNL A   1      32.312  30.227  25.808  1.00  0.00     0.083 C 
BRANCH  16  17
ATOM     17  C   UNL A   1      31.921  28.772  25.505  1.00  0.00     0.264 C 
BRANCH  17  18
ATOM     18  N   UNL A   1      33.043  27.885  25.133  1.00  0.00    -0.331 N 
ATOM     19  C   UNL A   1      33.882  28.401  24.023  1.00  0.00     0.291 C 
ATOM     20  C   UNL A   1      32.546  26.561  24.679  1.00  0.00     0.291 C 
ATOM     21  H   UNL A   1      33.602  27.824  25.984  1.00  0.00     0.348 HD
ATOM     22  C   UNL A   1      33.162  28.452  22.665  1.00  0.00     0.221 C 
ATOM     23  C   UNL A   1      31.837  26.607  23.313  1.00  0.00     0.221 C 
ATOM     24  O   UNL A   1      32.681  27.156  22.292  1.00  0.00    -0.370 OA
ENDBRANCH  17  18
ENDBRANCH  16  17
ENDBRANCH  15  16
ENDBRANCH  13  15
ENDBRANCH  10  11
ENDBRANCH   5   6
ENDBRANCH   3   5
ENDBRANCH   2   3
ENDBRANCH   1   2
BRANCH   1  25
ATOM     25  C   UNL A   1      34.047  36.490  32.682  1.00  0.00     0.202 C 
BRANCH  25  26
ATOM     26  O   UNL A   1      33.715  35.110  32.763  1.00  0.00    -0.374 OA
BRANCH  26  27
ATOM     27  C   UNL A   1      34.674  34.102  32.432  1.00  0.00     0.202 C 
BRANCH  27  28
ATOM     28  C   UNL A   1      35.086  33.099  33.487  1.00  0.00     0.261 C 
BRANCH  28  29
ATOM     29  O   UNL A   1      36.016  32.198  32.923  1.00  0.00    -0.460 OA
BRANCH  29  30
ATOM     30  C   UNL A   1      37.157  32.063  33.617  1.00  0.00     0.338 C 
ATOM     31  O   UNL A   1      37.273  31.867  34.829  1.00  0.00    -0.246 OA
BRANCH  30  32
ATOM     32  C   UNL A   1      38.273  32.290  32.704  1.00  0.00     0.060 A 
ATOM     33  C   UNL A   1      38.154  31.599  31.498  1.00  0.00     0.016 A 
ATOM     34  C   UNL A   1      39.507  32.578  33.302  1.00  0.00     0.016 A 
ATOM     35  C   UNL A   1      39.232  30.854  31.108  1.00  0.00     0.010 A 
ATOM     36  C   UNL A   1      40.557  31.778  32.958  1.00  0.00     0.010 A 
ATOM     37  C   UNL A   1      40.372  30.870  31.917  1.00  0.00    -0.014 A 
BRANCH  37  38
ATOM     38  C   UNL A   1      41.501  30.084  31.497  1.00  0.00     0.031 A 
ATOM     39  C   UNL A   1      42.319  30.882  30.563  1.00  0.00     0.074 A 
ATOM     40  C   UNL A   1      41.778  28.874  32.009  1.00  0.00     0.049 A 
ATOM     41  N   UNL A   1      42.287  30.830  29.270  1.00  0.00    -0.248 NA
ATOM     42  C   UNL A   1      42.955  32.102  31.096  1.00  0.00     0.031 C 
ATOM     43  C   UNL A   1      41.142  28.211  33.149  1.00  0.00     0.029 A 
ATOM     44  N   UNL A   1      42.805  28.043  31.701  1.00  0.00    -0.354 N 
ATOM     45  C   UNL A   1      43.178  31.824  28.882  1.00  0.00     0.074 A 
ATOM     46  C   UNL A   1      43.202  32.759  29.964  1.00  0.00     0.031 C 
ATOM     47  C   UNL A   1      41.962  27.229  33.593  1.00  0.00     0.029 A 
ATOM     48  C   UNL A   1      43.113  27.137  32.711  1.00  0.00     0.049 A 
ATOM     49  H   UNL A   1      43.287  28.078  30.844  1.00  0.00     0.167 HD
ATOM     50  C   UNL A   1      44.153  31.535  27.974  1.00  0.00     0.034 A 
ATOM     51  C   UNL A   1      44.289  26.469  32.848  1.00  0.00     0.034 A 
ATOM     52  C   UNL A   1      43.802  30.333  27.237  1.00  0.00     0.049 A 
ATOM     53  C   UNL A   1      44.986  26.535  31.540  1.00  0.00     0.074 A 
ATOM     54  C   UNL A   1      42.712  29.910  26.502  1.00  0.00     0.029 A 
ATOM     55  N   UNL A   1      44.498  29.196  27.574  1.00  0.00    -0.354 N 
ATOM     56  N   UNL A   1      44.557  25.938  30.463  1.00  0.00    -0.248 NA
ATOM     57  C   UNL A   1      45.910  27.636  31.316  1.00  0.00     0.031 C 
ATOM     58  C   UNL A   1      42.588  28.515  26.776  1.00  0.00     0.029 A 
ATOM     59  C   UNL A   1      43.647  28.130  27.600  1.00  0.00     0.049 A 
ATOM     60  H   UNL A   1      45.463  29.157  27.767  1.00  0.00     0.167 HD
ATOM     61  C   UNL A   1      44.752  26.874  29.454  1.00  0.00     0.074 A 
ATOM     62  C   UNL A   1      45.701  27.838  30.013  1.00  0.00     0.031 C 
ATOM     63  C   UNL A   1      43.884  26.949  28.402  1.00  0.00     0.034 A 
BRANCH  50  64
ATOM     64  C   UNL A   1      45.615  31.966  28.123  1.00  0.00     0.023 A 
ATOM     65  C   UNL A   1      46.199  32.550  26.977  1.00  0.00     0.012 A 
ATOM     66  C   UNL A   1      46.513  31.572  29.147  1.00  0.00     0.148 A 
ATOM     67  C   UNL A   1      47.584  32.586  26.791  1.00  0.00     0.002 A 
ATOM     68  C   UNL A   1      47.890  31.631  28.972  1.00  0.00     0.091 A 
ATOM     69  F   UNL A   1      46.077  31.090  30.305  1.00  0.00    -0.205 F 
ATOM     70  C   UNL A   1      48.432  32.101  27.778  1.00  0.00     0.022 A 
BRANCH  68  71
ATOM     71  S   UNL A   1      49.034  31.026  30.229  1.00  0.00     0.127 S 
ATOM     72  O   UNL A   1      48.709  29.602  30.249  1.00  0.00    -0.237 OA
ATOM     73  O   UNL A   1      50.324  31.366  29.632  1.00  0.00    -0.237 OA
ATOM     74  O   UNL A   1      48.721  31.754  31.452  1.00  0.00    -0.744 OA
ENDBRANCH  68  71
ENDBRANCH  50  64
BRANCH  51  75
ATOM     75  C   UNL A   1      45.003  26.033  34.076  1.00  0.00     0.023 A 
ATOM     76  C   UNL A   1      45.129  26.931  35.157  1.00  0.00     0.012 A 
ATOM     77  C   UNL A   1      45.308  24.674  34.308  1.00  0.00     0.148 A 
ATOM     78  C   UNL A   1      45.509  26.487  36.429  1.00  0.00     0.002 A 
ATOM     79  C   UNL A   1      45.698  24.239  35.572  1.00  0.00     0.091 A 
ATOM     80  F   UNL A   1      45.124  23.789  33.321  1.00  0.00    -0.205 F 
ATOM     81  C   UNL A   1      45.787  25.140  36.640  1.00  0.00     0.022 A 
BRANCH  79  82
ATOM     82  S   UNL A   1      46.057  22.510  35.917  1.00  0.00     0.127 S 
ATOM     83  O   UNL A   1      47.240  22.275  35.089  1.00  0.00    -0.237 OA
ATOM     84  O   UNL A   1      46.311  22.534  37.355  1.00  0.00    -0.237 OA
ATOM     85  O   UNL A   1      44.876  21.766  35.496  1.00  0.00    -0.744 OA
ENDBRANCH  79  82
ENDBRANCH  51  75
BRANCH  63  86
ATOM     86  C   UNL A   1      42.951  25.789  28.175  1.00  0.00     0.023 A 
ATOM     87  C   UNL A   1      41.615  25.769  28.627  1.00  0.00     0.012 A 
ATOM     88  C   UNL A   1      43.409  24.745  27.357  1.00  0.00     0.148 A 
ATOM     89  C   UNL A   1      40.765  24.711  28.290  1.00  0.00     0.002 A 
ATOM     90  C   UNL A   1      42.550  23.721  26.985  1.00  0.00     0.091 A 
ATOM     91  F   UNL A   1      44.683  24.780  26.939  1.00  0.00    -0.205 F 
ATOM     92  C   UNL A   1      41.228  23.693  27.457  1.00  0.00     0.022 A 
BRANCH  90  93
ATOM     93  S   UNL A   1      43.065  22.456  25.825  1.00  0.00     0.127 S 
ATOM     94  O   UNL A   1      44.341  22.023  26.391  1.00  0.00    -0.237 OA
ATOM     95  O   UNL A   1      41.984  21.473  25.929  1.00  0.00    -0.237 OA
ATOM     96  O   UNL A   1      43.145  23.114  24.526  1.00  0.00    -0.744 OA
ENDBRANCH  90  93
ENDBRANCH  63  86
ENDBRANCH  37  38
ENDBRANCH  30  32
ENDBRANCH  29  30
ENDBRANCH  28  29
ENDBRANCH  27  28
ENDBRANCH  26  27
ENDBRANCH  25  26
ENDBRANCH   1  25
TORSDOF 23
ENDMDL
MODEL 2
REMARK VINA RESULT:      -8.7      7.571     12.102
REMARK SMILES O=C(Cn1ccc(C(=O)NCCC[NH+]2CCOCC2)n1)OCCOCCOC(=O)c1ccc(-c2c3nc(c(-c4cccc(S(=O)(=O)[O-])c4F)c4ccc([nH]4)c(-c4cccc(S(=O)(=O)[O-])c4F)c4nc(c(-c5cccc(S(=O)(=O)[O-])c5F)c5ccc2[nH]5)C=C4)C=C3)cc1
REMARK SMILES IDX 22 1 21 2 2 3 1 4 3 5 4 6 5 7 20 8 6 9 7 10 8 11 9 12 10 13
REMARK SMILES IDX 11 15 12 16 13 17 14 18 15 19 19 20 16 22 18 23 17 24 23 25
REMARK SMILES IDX 24 26 25 27 26 28 27 29 28 30 29 31 30 32 31 33 92 34 32 35
REMARK SMILES IDX 91 36 33 37 34 38 35 39 85 40 36 41 90 42 84 43 86 44 37 45
REMARK SMILES IDX 89 46 83 47 82 48 38 50 70 51 50 52 69 53 51 54 54 55 68 56
REMARK SMILES IDX 87 57 52 58 53 59 67 61 88 62 55 63 39 64 40 65 48 66 41 67
REMARK SMILES IDX 43 68 49 69 42 70 44 71 45 72 46 73 47 74 71 75 72 76 80 77
REMARK SMILES IDX 73 78 75 79 81 80 74 81 76 82 77 83 78 84 79 85 56 86 57 87
REMARK SMILES IDX 65 88 58 89 60 90 66 91 59 92 61 93 62 94 63 95 64 96
REMARK H PARENT 10 14 14 21 86 49 54 60
REMARK Flexibility Score: inf
ROOT
ATOM      1  C   UNL A   1      46.308  39.650  25.532  1.00  0.00     0.261 C 
ENDROOT
BRANCH   1   2
ATOM      2  O   UNL A   1      45.923  40.917  26.084  1.00  0.00    -0.462 OA
BRANCH   2   3
ATOM      3  C   UNL A   1      46.160  42.108  25.479  1.00  0.00     0.327 C 
ATOM      4  O   UNL A   1      47.123  42.231  24.725  1.00  0.00    -0.250 OA
BRANCH   3   5
ATOM      5  C   UNL A   1      45.336  43.298  25.851  1.00  0.00     0.266 C 
BRANCH   5   6
ATOM      6  N   UNL A   1      44.452  43.832  24.842  1.00  0.00    -0.261 N 
ATOM      7  C   UNL A   1      44.531  44.965  24.094  1.00  0.00     0.110 A 
ATOM      8  N   UNL A   1      43.415  43.056  24.504  1.00  0.00    -0.167 NA
ATOM      9  C   UNL A   1      43.599  44.808  23.092  1.00  0.00     0.056 A 
ATOM     10  C   UNL A   1      42.923  43.590  23.380  1.00  0.00     0.150 A 
BRANCH  10  11
ATOM     11  C   UNL A   1      41.819  42.995  22.622  1.00  0.00     0.271 C 
ATOM     12  O   UNL A   1      40.700  42.849  23.118  1.00  0.00    -0.267 OA
ATOM     13  N   UNL A   1      41.994  42.560  21.330  1.00  0.00    -0.350 N 
ATOM     14  H   UNL A   1      41.232  42.049  20.974  1.00  0.00     0.163 HD
BRANCH  13  15
ATOM     15  C   UNL A   1      43.100  42.712  20.386  1.00  0.00     0.122 C 
BRANCH  15  16
ATOM     16  C   UNL A   1      42.761  43.642  19.227  1.00  0.00     0.083 C 
BRANCH  16  17
ATOM     17  C   UNL A   1      43.765  44.772  18.948  1.00  0.00     0.264 C 
BRANCH  17  18
ATOM     18  N   UNL A   1      44.150  44.933  17.531  1.00  0.00    -0.331 N 
ATOM     19  C   UNL A   1      44.280  46.346  17.095  1.00  0.00     0.291 C 
ATOM     20  C   UNL A   1      43.135  44.328  16.632  1.00  0.00     0.291 C 
ATOM     21  H   UNL A   1      45.057  44.471  17.467  1.00  0.00     0.348 HD
ATOM     22  C   UNL A   1      42.951  47.118  17.068  1.00  0.00     0.221 C 
ATOM     23  C   UNL A   1      41.808  45.107  16.591  1.00  0.00     0.221 C 
ATOM     24  O   UNL A   1      42.003  46.475  16.209  1.00  0.00    -0.370 OA
ENDBRANCH  17  18
ENDBRANCH  16  17
ENDBRANCH  15  16
ENDBRANCH  13  15
ENDBRANCH  10  11
ENDBRANCH   5   6
ENDBRANCH   3   5
ENDBRANCH   2   3
ENDBRANCH   1   2
BRANCH   1  25
ATOM     25  C   UNL A   1      47.575  39.022  26.099  1.00  0.00     0.202 C 
BRANCH  25  26
ATOM     26  O   UNL A   1      47.993  37.749  25.625  1.00  0.00    -0.374 OA
BRANCH  26  27
ATOM     27  C   UNL A   1      47.637  36.552  26.322  1.00  0.00     0.202 C 
BRANCH  27  28
ATOM     28  C   UNL A   1      46.177  36.252  26.580  1.00  0.00     0.261 C 
BRANCH  28  29
ATOM     29  O   UNL A   1      46.008  35.940  27.947  1.00  0.00    -0.460 OA
BRANCH  29  30
ATOM     30  C   UNL A   1      45.617  36.970  28.713  1.00  0.00     0.338 C 
ATOM     31  O   UNL A   1      46.309  37.915  29.099  1.00  0.00    -0.246 OA
BRANCH  30  32
ATOM     32  C   UNL A   1      44.232  36.740  29.111  1.00  0.00     0.060 A 
ATOM     33  C   UNL A   1      44.088  36.424  30.462  1.00  0.00     0.016 A 
ATOM     34  C   UNL A   1      43.380  36.245  28.115  1.00  0.00     0.016 A 
ATOM     35  C   UNL A   1      43.354  35.309  30.758  1.00  0.00     0.010 A 
ATOM     36  C   UNL A   1      42.711  35.090  28.398  1.00  0.00     0.010 A 
ATOM     37  C   UNL A   1      42.779  34.598  29.700  1.00  0.00    -0.014 A 
BRANCH  37  38
ATOM     38  C   UNL A   1      42.008  33.427  30.022  1.00  0.00     0.031 A 
ATOM     39  C   UNL A   1      40.668  33.847  30.474  1.00  0.00     0.074 A 
ATOM     40  C   UNL A   1      42.452  32.179  29.801  1.00  0.00     0.049 A 
ATOM     41  N   UNL A   1      40.271  33.977  31.698  1.00  0.00    -0.248 NA
ATOM     42  C   UNL A   1      39.810  34.538  29.492  1.00  0.00     0.031 C 
ATOM     43  C   UNL A   1      43.655  31.765  29.076  1.00  0.00     0.029 A 
ATOM     44  N   UNL A   1      41.824  31.004  30.056  1.00  0.00    -0.354 N 
ATOM     45  C   UNL A   1      38.975  34.463  31.572  1.00  0.00     0.074 A 
ATOM     46  C   UNL A   1      38.940  35.132  30.307  1.00  0.00     0.031 C 
ATOM     47  C   UNL A   1      43.523  30.465  28.723  1.00  0.00     0.029 A 
ATOM     48  C   UNL A   1      42.287  29.944  29.283  1.00  0.00     0.049 A 
ATOM     49  H   UNL A   1      41.109  30.910  30.725  1.00  0.00     0.167 HD
ATOM     50  C   UNL A   1      37.961  33.859  32.253  1.00  0.00     0.034 A 
ATOM     51  C   UNL A   1      41.620  28.784  29.043  1.00  0.00     0.034 A 
ATOM     52  C   UNL A   1      38.500  33.072  33.348  1.00  0.00     0.049 A 
ATOM     53  C   UNL A   1      40.555  28.671  30.070  1.00  0.00     0.074 A 
ATOM     54  C   UNL A   1      39.341  33.316  34.417  1.00  0.00     0.029 A 
ATOM     55  N   UNL A   1      38.500  31.709  33.167  1.00  0.00    -0.354 N 
ATOM     56  N   UNL A   1      40.792  28.490  31.339  1.00  0.00    -0.248 NA
ATOM     57  C   UNL A   1      39.243  29.215  29.753  1.00  0.00     0.031 C 
ATOM     58  C   UNL A   1      40.117  32.127  34.568  1.00  0.00     0.029 A 
ATOM     59  C   UNL A   1      39.667  31.185  33.641  1.00  0.00     0.049 A 
ATOM     60  H   UNL A   1      37.770  31.191  32.758  1.00  0.00     0.167 HD
ATOM     61  C   UNL A   1      39.893  29.335  31.978  1.00  0.00     0.074 A 
ATOM     62  C   UNL A   1      38.887  29.651  30.963  1.00  0.00     0.031 C 
ATOM     63  C   UNL A   1      40.232  29.946  33.153  1.00  0.00     0.034 A 
BRANCH  50  64
ATOM     64  C   UNL A   1      36.601  33.517  31.634  1.00  0.00     0.023 A 
ATOM     65  C   UNL A   1      36.591  32.409  30.757  1.00  0.00     0.012 A 
ATOM     66  C   UNL A   1      35.454  34.349  31.599  1.00  0.00     0.148 A 
ATOM     67  C   UNL A   1      35.591  32.237  29.796  1.00  0.00     0.002 A 
ATOM     68  C   UNL A   1      34.447  34.164  30.660  1.00  0.00     0.091 A 
ATOM     69  F   UNL A   1      35.312  35.370  32.436  1.00  0.00    -0.205 F 
ATOM     70  C   UNL A   1      34.530  33.131  29.729  1.00  0.00     0.022 A 
BRANCH  68  71
ATOM     71  S   UNL A   1      33.042  35.288  30.539  1.00  0.00     0.127 S 
ATOM     72  O   UNL A   1      33.718  36.578  30.422  1.00  0.00    -0.237 OA
ATOM     73  O   UNL A   1      32.393  34.809  29.320  1.00  0.00    -0.237 OA
ATOM     74  O   UNL A   1      32.262  35.101  31.756  1.00  0.00    -0.744 OA
ENDBRANCH  68  71
ENDBRANCH  50  64
BRANCH  51  75
ATOM     75  C   UNL A   1      41.622  27.912  27.840  1.00  0.00     0.023 A 
ATOM     76  C   UNL A   1      41.528  28.500  26.561  1.00  0.00     0.012 A 
ATOM     77  C   UNL A   1      41.994  26.552  27.916  1.00  0.00     0.148 A 
ATOM     78  C   UNL A   1      41.831  27.773  25.404  1.00  0.00     0.002 A 
ATOM     79  C   UNL A   1      42.281  25.829  26.762  1.00  0.00     0.091 A 
ATOM     80  F   UNL A   1      42.163  25.991  29.119  1.00  0.00    -0.205 F 
ATOM     81  C   UNL A   1      42.215  26.439  25.503  1.00  0.00     0.022 A 
BRANCH  79  82
ATOM     82  S   UNL A   1      42.798  24.107  26.818  1.00  0.00     0.127 S 
ATOM     83  O   UNL A   1      42.914  23.779  25.397  1.00  0.00    -0.237 OA
ATOM     84  O   UNL A   1      44.069  24.194  27.532  1.00  0.00    -0.237 OA
ATOM     85  O   UNL A   1      41.731  23.393  27.510  1.00  0.00    -0.744 OA
ENDBRANCH  79  82
ENDBRANCH  51  75
BRANCH  63  86
ATOM     86  C   UNL A   1      41.421  29.410  33.907  1.00  0.00     0.023 A 
ATOM     87  C   UNL A   1      41.358  28.287  34.756  1.00  0.00     0.012 A 
ATOM     88  C   UNL A   1      42.671  29.989  33.634  1.00  0.00     0.148 A 
ATOM     89  C   UNL A   1      42.518  27.771  35.341  1.00  0.00     0.002 A 
ATOM     90  C   UNL A   1      43.825  29.446  34.178  1.00  0.00     0.091 A 
ATOM     91  F   UNL A   1      42.711  31.059  32.825  1.00  0.00    -0.205 F 
ATOM     92  C   UNL A   1      43.754  28.341  35.042  1.00  0.00     0.022 A 
BRANCH  90  93
ATOM     93  S   UNL A   1      45.444  30.072  33.730  1.00  0.00     0.127 S 
ATOM     94  O   UNL A   1      45.483  31.349  34.439  1.00  0.00    -0.237 OA
ATOM     95  O   UNL A   1      46.339  29.045  34.267  1.00  0.00    -0.237 OA
ATOM     96  O   UNL A   1      45.449  30.160  32.275  1.00  0.00    -0.744 OA
ENDBRANCH  90  93
ENDBRANCH  63  86
ENDBRANCH  37  38
ENDBRANCH  30  32
ENDBRANCH  29  30
ENDBRANCH  28  29
ENDBRANCH  27  28
ENDBRANCH  26  27
ENDBRANCH  25  26
ENDBRANCH   1  25
TORSDOF 23
ENDMDL
MODEL 3
REMARK VINA RESULT:      -8.7      3.266      5.698
REMARK SMILES O=C(Cn1ccc(C(=O)NCCC[NH+]2CCOCC2)n1)OCCOCCOC(=O)c1ccc(-c2c3nc(c(-c4cccc(S(=O)(=O)[O-])c4F)c4ccc([nH]4)c(-c4cccc(S(=O)(=O)[O-])c4F)c4nc(c(-c5cccc(S(=O)(=O)[O-])c5F)c5ccc2[nH]5)C=C4)C=C3)cc1
REMARK SMILES IDX 22 1 21 2 2 3 1 4 3 5 4 6 5 7 20 8 6 9 7 10 8 11 9 12 10 13
REMARK SMILES IDX 11 15 12 16 13 17 14 18 15 19 19 20 16 22 18 23 17 24 23 25
REMARK SMILES IDX 24 26 25 27 26 28 27 29 28 30 29 31 30 32 31 33 92 34 32 35
REMARK SMILES IDX 91 36 33 37 34 38 35 39 85 40 36 41 90 42 84 43 86 44 37 45
REMARK SMILES IDX 89 46 83 47 82 48 38 50 70 51 50 52 69 53 51 54 54 55 68 56
REMARK SMILES IDX 87 57 52 58 53 59 67 61 88 62 55 63 39 64 40 65 48 66 41 67
REMARK SMILES IDX 43 68 49 69 42 70 44 71 45 72 46 73 47 74 71 75 72 76 80 77
REMARK SMILES IDX 73 78 75 79 81 80 74 81 76 82 77 83 78 84 79 85 56 86 57 87
REMARK SMILES IDX 65 88 58 89 60 90 66 91 59 92 61 93 62 94 63 95 64 96
REMARK H PARENT 10 14 14 21 86 49 54 60
REMARK Flexibility Score: inf
ROOT
ATOM      1  C   UNL A   1      35.616  30.192  28.222  1.00  0.00     0.261 C 
ENDROOT
BRANCH   1   2
ATOM      2  O   UNL A   1      35.058  29.353  27.201  1.00  0.00    -0.462 OA
BRANCH   2   3
ATOM      3  C   UNL A   1      33.746  29.350  26.859  1.00  0.00     0.327 C 
ATOM      4  O   UNL A   1      33.167  30.413  26.642  1.00  0.00    -0.250 OA
BRANCH   3   5
ATOM      5  C   UNL A   1      32.980  28.068  26.896  1.00  0.00     0.266 C 
BRANCH   5   6
ATOM      6  N   UNL A   1      32.427  27.591  25.649  1.00  0.00    -0.261 N 
ATOM      7  C   UNL A   1      31.185  27.730  25.112  1.00  0.00     0.110 A 
ATOM      8  N   UNL A   1      33.287  26.982  24.825  1.00  0.00    -0.167 NA
ATOM      9  C   UNL A   1      31.314  27.356  23.792  1.00  0.00     0.056 A 
ATOM     10  C   UNL A   1      32.653  26.900  23.649  1.00  0.00     0.150 A 
BRANCH  10  11
ATOM     11  C   UNL A   1      33.276  26.367  22.434  1.00  0.00     0.271 C 
ATOM     12  O   UNL A   1      33.976  27.072  21.704  1.00  0.00    -0.267 OA
ATOM     13  N   UNL A   1      33.092  25.058  22.053  1.00  0.00    -0.350 N 
ATOM     14  H   UNL A   1      33.434  24.853  21.154  1.00  0.00     0.163 HD
BRANCH  13  15
ATOM     15  C   UNL A   1      32.482  23.917  22.732  1.00  0.00     0.122 C 
BRANCH  15  16
ATOM     16  C   UNL A   1      33.493  22.832  23.083  1.00  0.00     0.083 C 
BRANCH  16  17
ATOM     17  C   UNL A   1      33.870  22.711  24.568  1.00  0.00     0.264 C 
BRANCH  17  18
ATOM     18  N   UNL A   1      33.165  21.645  25.310  1.00  0.00    -0.331 N 
ATOM     19  C   UNL A   1      31.814  22.032  25.788  1.00  0.00     0.291 C 
ATOM     20  C   UNL A   1      33.923  21.253  26.525  1.00  0.00     0.291 C 
ATOM     21  H   UNL A   1      33.084  20.886  24.635  1.00  0.00     0.348 HD
ATOM     22  C   UNL A   1      31.821  23.115  26.880  1.00  0.00     0.221 C 
ATOM     23  C   UNL A   1      33.920  22.329  27.626  1.00  0.00     0.221 C 
ATOM     24  O   UNL A   1      32.589  22.694  28.013  1.00  0.00    -0.370 OA
ENDBRANCH  17  18
ENDBRANCH  16  17
ENDBRANCH  15  16
ENDBRANCH  13  15
ENDBRANCH  10  11
ENDBRANCH   5   6
ENDBRANCH   3   5
ENDBRANCH   2   3
ENDBRANCH   1   2
BRANCH   1  25
ATOM     25  C   UNL A   1      36.181  31.531  27.764  1.00  0.00     0.202 C 
BRANCH  25  26
ATOM     26  O   UNL A   1      36.056  32.665  28.612  1.00  0.00    -0.374 OA
BRANCH  26  27
ATOM     27  C   UNL A   1      34.906  33.512  28.542  1.00  0.00     0.202 C 
BRANCH  27  28
ATOM     28  C   UNL A   1      34.326  34.079  29.820  1.00  0.00     0.261 C 
BRANCH  28  29
ATOM     29  O   UNL A   1      34.197  33.037  30.765  1.00  0.00    -0.460 OA
BRANCH  29  30
ATOM     30  C   UNL A   1      34.510  33.381  32.023  1.00  0.00     0.338 C 
ATOM     31  O   UNL A   1      34.230  34.435  32.599  1.00  0.00    -0.246 OA
BRANCH  30  32
ATOM     32  C   UNL A   1      35.343  32.324  32.589  1.00  0.00     0.060 A 
ATOM     33  C   UNL A   1      36.097  32.739  33.687  1.00  0.00     0.016 A 
ATOM     34  C   UNL A   1      35.776  31.337  31.694  1.00  0.00     0.016 A 
ATOM     35  C   UNL A   1      37.435  32.461  33.655  1.00  0.00     0.010 A 
ATOM     36  C   UNL A   1      37.121  31.123  31.619  1.00  0.00     0.010 A 
ATOM     37  C   UNL A   1      37.936  31.758  32.555  1.00  0.00    -0.014 A 
BRANCH  37  38
ATOM     38  C   UNL A   1      39.344  31.469  32.531  1.00  0.00     0.031 A 
ATOM     39  C   UNL A   1      40.092  32.715  32.790  1.00  0.00     0.074 A 
ATOM     40  C   UNL A   1      39.832  30.223  32.414  1.00  0.00     0.049 A 
ATOM     41  N   UNL A   1      40.625  33.494  31.905  1.00  0.00    -0.248 NA
ATOM     42  C   UNL A   1      39.914  33.346  34.111  1.00  0.00     0.031 C 
ATOM     43  C   UNL A   1      39.095  28.959  32.460  1.00  0.00     0.029 A 
ATOM     44  N   UNL A   1      41.128  29.825  32.383  1.00  0.00    -0.354 N 
ATOM     45  C   UNL A   1      41.129  34.548  32.659  1.00  0.00     0.074 A 
ATOM     46  C   UNL A   1      40.331  34.583  33.846  1.00  0.00     0.031 C 
ATOM     47  C   UNL A   1      39.967  27.957  32.724  1.00  0.00     0.029 A 
ATOM     48  C   UNL A   1      41.315  28.499  32.760  1.00  0.00     0.049 A 
ATOM     49  H   UNL A   1      41.867  30.418  32.117  1.00  0.00     0.167 HD
ATOM     50  C   UNL A   1      42.420  34.946  32.478  1.00  0.00     0.034 A 
ATOM     51  C   UNL A   1      42.484  27.950  33.184  1.00  0.00     0.034 A 
ATOM     52  C   UNL A   1      42.910  34.471  31.197  1.00  0.00     0.049 A 
ATOM     53  C   UNL A   1      43.575  28.864  32.764  1.00  0.00     0.074 A 
ATOM     54  C   UNL A   1      42.488  34.562  29.884  1.00  0.00     0.029 A 
ATOM     55  N   UNL A   1      43.786  33.412  31.242  1.00  0.00    -0.354 N 
ATOM     56  N   UNL A   1      43.906  29.068  31.519  1.00  0.00    -0.248 NA
ATOM     57  C   UNL A   1      43.995  29.897  33.698  1.00  0.00     0.031 C 
ATOM     58  C   UNL A   1      42.818  33.306  29.291  1.00  0.00     0.029 A 
ATOM     59  C   UNL A   1      43.494  32.535  30.238  1.00  0.00     0.049 A 
ATOM     60  H   UNL A   1      44.512  33.303  31.898  1.00  0.00     0.167 HD
ATOM     61  C   UNL A   1      44.120  30.439  31.444  1.00  0.00     0.074 A 
ATOM     62  C   UNL A   1      44.288  30.871  32.832  1.00  0.00     0.031 C 
ATOM     63  C   UNL A   1      43.816  31.125  30.302  1.00  0.00     0.034 A 
BRANCH  50  64
ATOM     64  C   UNL A   1      43.389  35.250  33.626  1.00  0.00     0.023 A 
ATOM     65  C   UNL A   1      44.120  36.453  33.505  1.00  0.00     0.012 A 
ATOM     66  C   UNL A   1      43.850  34.338  34.608  1.00  0.00     0.148 A 
ATOM     67  C   UNL A   1      45.320  36.660  34.191  1.00  0.00     0.002 A 
ATOM     68  C   UNL A   1      45.029  34.555  35.309  1.00  0.00     0.091 A 
ATOM     69  F   UNL A   1      43.195  33.213  34.873  1.00  0.00    -0.205 F 
ATOM     70  C   UNL A   1      45.790  35.698  35.076  1.00  0.00     0.022 A 
BRANCH  68  71
ATOM     71  S   UNL A   1      45.677  33.344  36.478  1.00  0.00     0.127 S 
ATOM     72  O   UNL A   1      45.809  32.166  35.625  1.00  0.00    -0.237 OA
ATOM     73  O   UNL A   1      46.935  33.972  36.878  1.00  0.00    -0.237 OA
ATOM     74  O   UNL A   1      44.688  33.234  37.544  1.00  0.00    -0.744 OA
ENDBRANCH  68  71
ENDBRANCH  50  64
BRANCH  51  75
ATOM     75  C   UNL A   1      42.728  26.867  34.171  1.00  0.00     0.023 A 
ATOM     76  C   UNL A   1      41.805  26.665  35.218  1.00  0.00     0.012 A 
ATOM     77  C   UNL A   1      43.691  25.861  33.938  1.00  0.00     0.148 A 
ATOM     78  C   UNL A   1      41.815  25.490  35.980  1.00  0.00     0.002 A 
ATOM     79  C   UNL A   1      43.707  24.700  34.706  1.00  0.00     0.091 A 
ATOM     80  F   UNL A   1      44.530  25.992  32.904  1.00  0.00    -0.205 F 
ATOM     81  C   UNL A   1      42.761  24.504  35.720  1.00  0.00     0.022 A 
BRANCH  79  82
ATOM     82  S   UNL A   1      44.891  23.378  34.414  1.00  0.00     0.127 S 
ATOM     83  O   UNL A   1      44.607  23.018  33.024  1.00  0.00    -0.237 OA
ATOM     84  O   UNL A   1      46.165  24.059  34.622  1.00  0.00    -0.237 OA
ATOM     85  O   UNL A   1      44.567  22.333  35.379  1.00  0.00    -0.744 OA
ENDBRANCH  79  82
ENDBRANCH  51  75
BRANCH  63  86
ATOM     86  C   UNL A   1      43.599  30.332  29.041  1.00  0.00     0.023 A 
ATOM     87  C   UNL A   1      44.644  29.960  28.170  1.00  0.00     0.012 A 
ATOM     88  C   UNL A   1      42.308  29.833  28.807  1.00  0.00     0.148 A 
ATOM     89  C   UNL A   1      44.395  29.129  27.073  1.00  0.00     0.002 A 
ATOM     90  C   UNL A   1      42.074  28.971  27.746  1.00  0.00     0.091 A 
ATOM     91  F   UNL A   1      41.326  30.201  29.645  1.00  0.00    -0.205 F 
ATOM     92  C   UNL A   1      43.112  28.623  26.869  1.00  0.00     0.022 A 
BRANCH  90  93
ATOM     93  S   UNL A   1      40.470  28.205  27.513  1.00  0.00     0.127 S 
ATOM     94  O   UNL A   1      39.643  29.343  27.119  1.00  0.00    -0.237 OA
ATOM     95  O   UNL A   1      40.734  27.241  26.443  1.00  0.00    -0.237 OA
ATOM     96  O   UNL A   1      40.130  27.593  28.792  1.00  0.00    -0.744 OA
ENDBRANCH  90  93
ENDBRANCH  63  86
ENDBRANCH  37  38
ENDBRANCH  30  32
ENDBRANCH  29  30
ENDBRANCH  28  29
ENDBRANCH  27  28
ENDBRANCH  26  27
ENDBRANCH  25  26
ENDBRANCH   1  25
TORSDOF 23
ENDMDL
