MODEL 1
REMARK VINA RESULT:     -11.3      0.000      0.000
REMARK SMILES C[C@H](C(=O)OCCOCCOC(=O)c1ccc(-c2c3nc(c(-c4cccc(S(=O)(=O)[O-])c4F)c4ccc([nH]4)c(-c4cccc(S(=O)(=O)[O-])c4F)c4nc(c(-c5cccc(S(=O)(=O)[O-])c5F)c5ccc2[nH]5)C=C4)C=C3)cc1)[C@@H](C(=O)c1ccccc1)c1ccc(F)cc1
REMARK SMILES IDX 8 1 7 2 6 3 5 4 3 5 4 6 2 7 1 8 77 9 78 10 79 11 80 12 81 13
REMARK SMILES IDX 85 14 82 15 84 16 83 17 86 18 87 19 92 20 88 21 91 22 89 23
REMARK SMILES IDX 90 24 9 25 10 26 11 27 12 28 13 29 14 30 15 31 76 32 16 33
REMARK SMILES IDX 75 34 17 35 18 36 19 37 69 38 20 39 74 40 68 41 70 42 21 43
REMARK SMILES IDX 73 44 67 45 66 46 22 48 54 49 34 50 53 51 35 52 38 53 52 54
REMARK SMILES IDX 71 55 36 56 37 57 51 59 72 60 39 61 23 62 24 63 32 64 25 65
REMARK SMILES IDX 27 66 33 67 26 68 28 69 29 70 30 71 31 72 55 73 56 74 64 75
REMARK SMILES IDX 57 76 59 77 65 78 58 79 60 80 61 81 62 82 63 83 40 84 41 85
REMARK SMILES IDX 49 86 42 87 44 88 50 89 43 90 45 91 46 92 47 93 48 94
REMARK H PARENT 70 47 38 58
REMARK Flexibility Score: inf
ROOT
ATOM      1  O   UNL A   1      35.506  21.964  24.742  1.00  0.00    -0.374 OA
ENDROOT
BRANCH   1   2
ATOM      2  C   UNL A   1      34.157  21.586  24.463  1.00  0.00     0.202 C 
BRANCH   2   3
ATOM      3  C   UNL A   1      33.059  22.405  25.150  1.00  0.00     0.261 C 
BRANCH   3   4
ATOM      4  O   UNL A   1      32.998  23.741  24.622  1.00  0.00    -0.463 OA
BRANCH   4   5
ATOM      5  C   UNL A   1      32.161  23.932  23.573  1.00  0.00     0.309 C 
ATOM      6  O   UNL A   1      31.710  23.040  22.864  1.00  0.00    -0.252 OA
BRANCH   5   7
ATOM      7  C   UNL A   1      31.737  25.378  23.427  1.00  0.00     0.111 C 
ATOM      8  C   UNL A   1      31.465  25.813  21.974  1.00  0.00     0.021 C 
BRANCH   7   9
ATOM      9  C   UNL A   1      30.591  25.833  24.372  1.00  0.00     0.105 C 
BRANCH   9  10
ATOM     10  C   UNL A   1      30.924  26.031  25.873  1.00  0.00     0.171 C 
ATOM     11  O   UNL A   1      30.405  25.314  26.736  1.00  0.00    -0.293 OA
BRANCH  10  12
ATOM     12  C   UNL A   1      31.909  27.066  26.355  1.00  0.00     0.018 A 
ATOM     13  C   UNL A   1      31.381  28.187  27.019  1.00  0.00     0.012 A 
ATOM     14  C   UNL A   1      33.285  27.037  26.098  1.00  0.00     0.012 A 
ATOM     15  C   UNL A   1      32.177  29.297  27.311  1.00  0.00     0.001 A 
ATOM     16  C   UNL A   1      34.070  28.174  26.336  1.00  0.00     0.001 A 
ATOM     17  C   UNL A   1      33.513  29.307  26.928  1.00  0.00     0.000 A 
ENDBRANCH  10  12
ENDBRANCH   9  10
BRANCH   9  18
ATOM     18  C   UNL A   1      29.951  27.134  23.816  1.00  0.00    -0.036 A 
ATOM     19  C   UNL A   1      30.721  28.293  23.567  1.00  0.00     0.007 A 
ATOM     20  C   UNL A   1      28.566  27.206  23.606  1.00  0.00     0.007 A 
ATOM     21  C   UNL A   1      30.140  29.454  23.057  1.00  0.00     0.039 A 
ATOM     22  C   UNL A   1      27.980  28.383  23.125  1.00  0.00     0.039 A 
ATOM     23  C   UNL A   1      28.773  29.488  22.841  1.00  0.00     0.123 A 
ATOM     24  F   UNL A   1      28.210  30.610  22.370  1.00  0.00    -0.207 F 
ENDBRANCH   9  18
ENDBRANCH   7   9
ENDBRANCH   5   7
ENDBRANCH   4   5
ENDBRANCH   3   4
ENDBRANCH   2   3
ENDBRANCH   1   2
BRANCH   1  25
ATOM     25  C   UNL A   1      36.547  21.055  24.390  1.00  0.00     0.202 C 
BRANCH  25  26
ATOM     26  C   UNL A   1      37.562  20.701  25.478  1.00  0.00     0.261 C 
BRANCH  26  27
ATOM     27  O   UNL A   1      38.880  21.167  25.145  1.00  0.00    -0.460 OA
BRANCH  27  28
ATOM     28  C   UNL A   1      39.803  20.962  26.112  1.00  0.00     0.338 C 
ATOM     29  O   UNL A   1      40.463  19.943  26.293  1.00  0.00    -0.246 OA
BRANCH  28  30
ATOM     30  C   UNL A   1      40.074  22.209  26.846  1.00  0.00     0.060 A 
ATOM     31  C   UNL A   1      39.426  23.364  26.391  1.00  0.00     0.016 A 
ATOM     32  C   UNL A   1      41.000  22.279  27.891  1.00  0.00     0.016 A 
ATOM     33  C   UNL A   1      39.764  24.606  26.915  1.00  0.00     0.010 A 
ATOM     34  C   UNL A   1      41.344  23.530  28.413  1.00  0.00     0.010 A 
ATOM     35  C   UNL A   1      40.769  24.700  27.885  1.00  0.00    -0.014 A 
BRANCH  35  36
ATOM     36  C   UNL A   1      41.349  26.032  28.173  1.00  0.00     0.031 A 
ATOM     37  C   UNL A   1      42.742  26.330  27.684  1.00  0.00     0.074 A 
ATOM     38  C   UNL A   1      40.634  26.980  28.804  1.00  0.00     0.049 A 
ATOM     39  N   UNL A   1      43.432  27.436  27.772  1.00  0.00    -0.248 NA
ATOM     40  C   UNL A   1      43.449  25.233  26.999  1.00  0.00     0.031 C 
ATOM     41  C   UNL A   1      39.275  26.813  29.313  1.00  0.00     0.029 A 
ATOM     42  N   UNL A   1      40.963  28.271  29.132  1.00  0.00    -0.354 N 
ATOM     43  C   UNL A   1      44.656  27.167  27.171  1.00  0.00     0.074 A 
ATOM     44  C   UNL A   1      44.625  25.787  26.740  1.00  0.00     0.031 C 
ATOM     45  C   UNL A   1      38.894  27.953  29.915  1.00  0.00     0.029 A 
ATOM     46  C   UNL A   1      39.985  28.923  29.841  1.00  0.00     0.049 A 
ATOM     47  H   UNL A   1      41.819  28.690  28.882  1.00  0.00     0.167 HD
ATOM     48  C   UNL A   1      45.704  27.999  26.972  1.00  0.00     0.034 A 
ATOM     49  C   UNL A   1      39.978  30.160  30.380  1.00  0.00     0.034 A 
ATOM     50  C   UNL A   1      45.727  29.376  27.382  1.00  0.00     0.049 A 
ATOM     51  C   UNL A   1      41.168  31.061  30.165  1.00  0.00     0.074 A 
ATOM     52  C   UNL A   1      46.728  30.312  27.196  1.00  0.00     0.029 A 
ATOM     53  N   UNL A   1      44.705  30.012  28.067  1.00  0.00    -0.354 N 
ATOM     54  N   UNL A   1      42.267  30.830  29.489  1.00  0.00    -0.248 NA
ATOM     55  C   UNL A   1      41.100  32.406  30.756  1.00  0.00     0.031 C 
ATOM     56  C   UNL A   1      46.317  31.512  27.786  1.00  0.00     0.029 A 
ATOM     57  C   UNL A   1      45.053  31.327  28.322  1.00  0.00     0.049 A 
ATOM     58  H   UNL A   1      43.856  29.591  28.334  1.00  0.00     0.167 HD
ATOM     59  C   UNL A   1      43.006  32.007  29.546  1.00  0.00     0.074 A 
ATOM     60  C   UNL A   1      42.218  32.957  30.305  1.00  0.00     0.031 C 
ATOM     61  C   UNL A   1      44.233  32.274  29.032  1.00  0.00     0.034 A 
BRANCH  48  62
ATOM     62  C   UNL A   1      46.901  27.448  26.246  1.00  0.00     0.023 A 
ATOM     63  C   UNL A   1      46.994  27.604  24.847  1.00  0.00     0.012 A 
ATOM     64  C   UNL A   1      47.947  26.818  26.944  1.00  0.00     0.148 A 
ATOM     65  C   UNL A   1      48.100  27.118  24.152  1.00  0.00     0.002 A 
ATOM     66  C   UNL A   1      49.065  26.370  26.249  1.00  0.00     0.091 A 
ATOM     67  F   UNL A   1      47.826  26.654  28.269  1.00  0.00    -0.205 F 
ATOM     68  C   UNL A   1      49.139  26.510  24.853  1.00  0.00     0.022 A 
BRANCH  66  69
ATOM     69  S   UNL A   1      50.483  25.636  27.072  1.00  0.00     0.127 S 
ATOM     70  O   UNL A   1      49.885  24.453  27.690  1.00  0.00    -0.237 OA
ATOM     71  O   UNL A   1      51.379  25.352  25.951  1.00  0.00    -0.237 OA
ATOM     72  O   UNL A   1      50.974  26.647  27.998  1.00  0.00    -0.744 OA
ENDBRANCH  66  69
ENDBRANCH  48  62
BRANCH  49  73
ATOM     73  C   UNL A   1      38.788  30.629  31.142  1.00  0.00     0.023 A 
ATOM     74  C   UNL A   1      38.756  30.494  32.543  1.00  0.00     0.012 A 
ATOM     75  C   UNL A   1      37.698  31.234  30.487  1.00  0.00     0.148 A 
ATOM     76  C   UNL A   1      37.651  30.929  33.275  1.00  0.00     0.002 A 
ATOM     77  C   UNL A   1      36.625  31.717  31.227  1.00  0.00     0.091 A 
ATOM     78  F   UNL A   1      37.735  31.335  29.150  1.00  0.00    -0.205 F 
ATOM     79  C   UNL A   1      36.592  31.551  32.619  1.00  0.00     0.022 A 
BRANCH  77  80
ATOM     80  S   UNL A   1      35.289  32.652  30.473  1.00  0.00     0.127 S 
ATOM     81  O   UNL A   1      35.944  33.921  30.169  1.00  0.00    -0.237 OA
ATOM     82  O   UNL A   1      34.962  31.830  29.307  1.00  0.00    -0.237 OA
ATOM     83  O   UNL A   1      34.236  32.704  31.479  1.00  0.00    -0.744 OA
ENDBRANCH  77  80
ENDBRANCH  49  73
BRANCH  61  84
ATOM     84  C   UNL A   1      44.798  33.654  29.247  1.00  0.00     0.023 A 
ATOM     85  C   UNL A   1      45.566  33.919  30.397  1.00  0.00     0.012 A 
ATOM     86  C   UNL A   1      44.642  34.658  28.271  1.00  0.00     0.148 A 
ATOM     87  C   UNL A   1      46.149  35.172  30.587  1.00  0.00     0.002 A 
ATOM     88  C   UNL A   1      45.262  35.890  28.446  1.00  0.00     0.091 A 
ATOM     89  F   UNL A   1      43.891  34.393  27.192  1.00  0.00    -0.205 F 
ATOM     90  C   UNL A   1      46.008  36.151  29.606  1.00  0.00     0.022 A 
BRANCH  88  91
ATOM     91  S   UNL A   1      45.210  37.176  27.192  1.00  0.00     0.127 S 
ATOM     92  O   UNL A   1      46.077  36.619  26.156  1.00  0.00    -0.237 OA
ATOM     93  O   UNL A   1      43.789  37.216  26.842  1.00  0.00    -0.237 OA
ATOM     94  O   UNL A   1      45.703  38.385  27.841  1.00  0.00    -0.744 OA
ENDBRANCH  88  91
ENDBRANCH  61  84
ENDBRANCH  35  36
ENDBRANCH  28  30
ENDBRANCH  27  28
ENDBRANCH  26  27
ENDBRANCH  25  26
ENDBRANCH   1  25
TORSDOF 21
ENDMDL
MODEL 2
REMARK VINA RESULT:     -11.2      1.638      8.076
REMARK SMILES C[C@H](C(=O)OCCOCCOC(=O)c1ccc(-c2c3nc(c(-c4cccc(S(=O)(=O)[O-])c4F)c4ccc([nH]4)c(-c4cccc(S(=O)(=O)[O-])c4F)c4nc(c(-c5cccc(S(=O)(=O)[O-])c5F)c5ccc2[nH]5)C=C4)C=C3)cc1)[C@@H](C(=O)c1ccccc1)c1ccc(F)cc1
REMARK SMILES IDX 8 1 7 2 6 3 5 4 3 5 4 6 2 7 1 8 77 9 78 10 79 11 80 12 81 13
REMARK SMILES IDX 85 14 82 15 84 16 83 17 86 18 87 19 92 20 88 21 91 22 89 23
REMARK SMILES IDX 90 24 9 25 10 26 11 27 12 28 13 29 14 30 15 31 76 32 16 33
REMARK SMILES IDX 75 34 17 35 18 36 19 37 69 38 20 39 74 40 68 41 70 42 21 43
REMARK SMILES IDX 73 44 67 45 66 46 22 48 54 49 34 50 53 51 35 52 38 53 52 54
REMARK SMILES IDX 71 55 36 56 37 57 51 59 72 60 39 61 23 62 24 63 32 64 25 65
REMARK SMILES IDX 27 66 33 67 26 68 28 69 29 70 30 71 31 72 55 73 56 74 64 75
REMARK SMILES IDX 57 76 59 77 65 78 58 79 60 80 61 81 62 82 63 83 40 84 41 85
REMARK SMILES IDX 49 86 42 87 44 88 50 89 43 90 45 91 46 92 47 93 48 94
REMARK H PARENT 70 47 38 58
REMARK Flexibility Score: inf
ROOT
ATOM      1  O   UNL A   1      35.253  20.177  25.460  1.00  0.00    -0.374 OA
ENDROOT
BRANCH   1   2
ATOM      2  C   UNL A   1      35.061  21.441  26.098  1.00  0.00     0.202 C 
BRANCH   2   3
ATOM      3  C   UNL A   1      34.039  21.486  27.238  1.00  0.00     0.261 C 
BRANCH   3   4
ATOM      4  O   UNL A   1      32.696  21.562  26.731  1.00  0.00    -0.463 OA
BRANCH   4   5
ATOM      5  C   UNL A   1      31.959  22.621  27.149  1.00  0.00     0.309 C 
ATOM      6  O   UNL A   1      32.274  23.380  28.057  1.00  0.00    -0.252 OA
BRANCH   5   7
ATOM      7  C   UNL A   1      30.733  22.847  26.290  1.00  0.00     0.111 C 
ATOM      8  C   UNL A   1      29.427  23.024  27.088  1.00  0.00     0.021 C 
BRANCH   7   9
ATOM      9  C   UNL A   1      30.878  23.946  25.201  1.00  0.00     0.105 C 
BRANCH   9  10
ATOM     10  C   UNL A   1      30.609  25.416  25.614  1.00  0.00     0.171 C 
ATOM     11  O   UNL A   1      30.782  25.787  26.780  1.00  0.00    -0.293 OA
BRANCH  10  12
ATOM     12  C   UNL A   1      30.164  26.467  24.628  1.00  0.00     0.018 A 
ATOM     13  C   UNL A   1      31.022  27.565  24.438  1.00  0.00     0.012 A 
ATOM     14  C   UNL A   1      28.925  26.475  23.976  1.00  0.00     0.012 A 
ATOM     15  C   UNL A   1      30.610  28.688  23.718  1.00  0.00     0.001 A 
ATOM     16  C   UNL A   1      28.489  27.626  23.306  1.00  0.00     0.001 A 
ATOM     17  C   UNL A   1      29.325  28.736  23.190  1.00  0.00     0.000 A 
ENDBRANCH  10  12
ENDBRANCH   9  10
BRANCH   9  18
ATOM     18  C   UNL A   1      32.287  23.848  24.556  1.00  0.00    -0.036 A 
ATOM     19  C   UNL A   1      33.346  24.696  24.952  1.00  0.00     0.007 A 
ATOM     20  C   UNL A   1      32.523  22.945  23.508  1.00  0.00     0.007 A 
ATOM     21  C   UNL A   1      34.612  24.593  24.375  1.00  0.00     0.039 A 
ATOM     22  C   UNL A   1      33.785  22.867  22.907  1.00  0.00     0.039 A 
ATOM     23  C   UNL A   1      34.819  23.679  23.356  1.00  0.00     0.123 A 
ATOM     24  F   UNL A   1      36.029  23.593  22.786  1.00  0.00    -0.207 F 
ENDBRANCH   9  18
ENDBRANCH   7   9
ENDBRANCH   5   7
ENDBRANCH   4   5
ENDBRANCH   3   4
ENDBRANCH   2   3
ENDBRANCH   1   2
BRANCH   1  25
ATOM     25  C   UNL A   1      36.316  20.053  24.516  1.00  0.00     0.202 C 
BRANCH  25  26
ATOM     26  C   UNL A   1      37.710  19.754  25.072  1.00  0.00     0.261 C 
BRANCH  26  27
ATOM     27  O   UNL A   1      38.432  20.961  25.367  1.00  0.00    -0.460 OA
BRANCH  27  28
ATOM     28  C   UNL A   1      39.517  20.781  26.154  1.00  0.00     0.338 C 
ATOM     29  O   UNL A   1      40.203  19.766  26.239  1.00  0.00    -0.246 OA
BRANCH  28  30
ATOM     30  C   UNL A   1      39.914  22.047  26.791  1.00  0.00     0.060 A 
ATOM     31  C   UNL A   1      39.266  23.208  26.349  1.00  0.00     0.016 A 
ATOM     32  C   UNL A   1      40.949  22.124  27.727  1.00  0.00     0.016 A 
ATOM     33  C   UNL A   1      39.706  24.457  26.772  1.00  0.00     0.010 A 
ATOM     34  C   UNL A   1      41.396  23.382  28.146  1.00  0.00     0.010 A 
ATOM     35  C   UNL A   1      40.813  24.551  27.624  1.00  0.00    -0.014 A 
BRANCH  35  36
ATOM     36  C   UNL A   1      41.472  25.868  27.781  1.00  0.00     0.031 A 
ATOM     37  C   UNL A   1      40.735  26.957  28.514  1.00  0.00     0.074 A 
ATOM     38  C   UNL A   1      42.722  26.077  27.334  1.00  0.00     0.049 A 
ATOM     39  N   UNL A   1      41.129  28.166  28.816  1.00  0.00    -0.248 NA
ATOM     40  C   UNL A   1      39.371  26.638  28.972  1.00  0.00     0.031 C 
ATOM     41  C   UNL A   1      43.538  25.097  26.620  1.00  0.00     0.029 A 
ATOM     42  N   UNL A   1      43.518  27.192  27.407  1.00  0.00    -0.354 N 
ATOM     43  C   UNL A   1      40.063  28.756  29.483  1.00  0.00     0.074 A 
ATOM     44  C   UNL A   1      38.995  27.782  29.525  1.00  0.00     0.031 C 
ATOM     45  C   UNL A   1      44.714  25.664  26.297  1.00  0.00     0.029 A 
ATOM     46  C   UNL A   1      44.727  27.047  26.771  1.00  0.00     0.049 A 
ATOM     47  H   UNL A   1      43.249  28.017  27.872  1.00  0.00     0.167 HD
ATOM     48  C   UNL A   1      39.985  29.988  30.035  1.00  0.00     0.034 A 
ATOM     49  C   UNL A   1      45.724  27.935  26.584  1.00  0.00     0.034 A 
ATOM     50  C   UNL A   1      41.053  30.949  30.012  1.00  0.00     0.049 A 
ATOM     51  C   UNL A   1      45.605  29.311  27.188  1.00  0.00     0.074 A 
ATOM     52  C   UNL A   1      41.086  32.213  30.573  1.00  0.00     0.029 A 
ATOM     53  N   UNL A   1      42.275  30.754  29.389  1.00  0.00    -0.354 N 
ATOM     54  N   UNL A   1      44.639  29.811  27.921  1.00  0.00    -0.248 NA
ATOM     55  C   UNL A   1      46.730  30.234  26.971  1.00  0.00     0.031 C 
ATOM     56  C   UNL A   1      42.325  32.790  30.273  1.00  0.00     0.029 A 
ATOM     57  C   UNL A   1      43.068  31.878  29.542  1.00  0.00     0.049 A 
ATOM     58  H   UNL A   1      42.541  29.937  28.909  1.00  0.00     0.167 HD
ATOM     59  C   UNL A   1      45.051  31.090  28.278  1.00  0.00     0.074 A 
ATOM     60  C   UNL A   1      46.366  31.281  27.699  1.00  0.00     0.031 C 
ATOM     61  C   UNL A   1      44.396  32.030  29.005  1.00  0.00     0.034 A 
BRANCH  48  62
ATOM     62  C   UNL A   1      38.709  30.354  30.744  1.00  0.00     0.023 A 
ATOM     63  C   UNL A   1      38.535  29.984  32.093  1.00  0.00     0.012 A 
ATOM     64  C   UNL A   1      37.705  31.096  30.094  1.00  0.00     0.148 A 
ATOM     65  C   UNL A   1      37.370  30.325  32.778  1.00  0.00     0.002 A 
ATOM     66  C   UNL A   1      36.562  31.466  30.795  1.00  0.00     0.091 A 
ATOM     67  F   UNL A   1      37.876  31.413  28.802  1.00  0.00    -0.205 F 
ATOM     68  C   UNL A   1      36.389  31.073  32.133  1.00  0.00     0.022 A 
BRANCH  66  69
ATOM     69  S   UNL A   1      35.274  32.486  30.069  1.00  0.00     0.127 S 
ATOM     70  O   UNL A   1      34.797  31.631  28.983  1.00  0.00    -0.237 OA
ATOM     71  O   UNL A   1      34.336  32.638  31.183  1.00  0.00    -0.237 OA
ATOM     72  O   UNL A   1      35.927  33.720  29.656  1.00  0.00    -0.744 OA
ENDBRANCH  66  69
ENDBRANCH  48  62
BRANCH  49  73
ATOM     73  C   UNL A   1      46.939  27.535  25.820  1.00  0.00     0.023 A 
ATOM     74  C   UNL A   1      47.001  27.767  24.433  1.00  0.00     0.012 A 
ATOM     75  C   UNL A   1      48.044  26.951  26.468  1.00  0.00     0.148 A 
ATOM     76  C   UNL A   1      48.131  27.400  23.702  1.00  0.00     0.002 A 
ATOM     77  C   UNL A   1      49.189  26.640  25.744  1.00  0.00     0.091 A 
ATOM     78  F   UNL A   1      47.959  26.717  27.786  1.00  0.00    -0.205 F 
ATOM     79  C   UNL A   1      49.229  26.849  24.357  1.00  0.00     0.022 A 
BRANCH  77  80
ATOM     80  S   UNL A   1      50.692  26.057  26.535  1.00  0.00     0.127 S 
ATOM     81  O   UNL A   1      50.984  27.145  27.464  1.00  0.00    -0.237 OA
ATOM     82  O   UNL A   1      50.243  24.813  27.162  1.00  0.00    -0.237 OA
ATOM     83  O   UNL A   1      51.651  25.866  25.455  1.00  0.00    -0.744 OA
ENDBRANCH  77  80
ENDBRANCH  49  73
BRANCH  61  84
ATOM     84  C   UNL A   1      45.092  33.344  29.241  1.00  0.00     0.023 A 
ATOM     85  C   UNL A   1      45.866  33.522  30.404  1.00  0.00     0.012 A 
ATOM     86  C   UNL A   1      45.051  34.367  28.273  1.00  0.00     0.148 A 
ATOM     87  C   UNL A   1      46.568  34.709  30.614  1.00  0.00     0.002 A 
ATOM     88  C   UNL A   1      45.787  35.530  28.468  1.00  0.00     0.091 A 
ATOM     89  F   UNL A   1      44.292  34.187  27.182  1.00  0.00    -0.205 F 
ATOM     90  C   UNL A   1      46.538  35.706  29.641  1.00  0.00     0.022 A 
BRANCH  88  91
ATOM     91  S   UNL A   1      45.881  36.825  27.226  1.00  0.00     0.127 S 
ATOM     92  O   UNL A   1      44.486  37.250  27.132  1.00  0.00    -0.237 OA
ATOM     93  O   UNL A   1      46.774  37.799  27.856  1.00  0.00    -0.237 OA
ATOM     94  O   UNL A   1      46.428  36.193  26.032  1.00  0.00    -0.744 OA
ENDBRANCH  88  91
ENDBRANCH  61  84
ENDBRANCH  35  36
ENDBRANCH  28  30
ENDBRANCH  27  28
ENDBRANCH  26  27
ENDBRANCH  25  26
ENDBRANCH   1  25
TORSDOF 21
ENDMDL
MODEL 3
REMARK VINA RESULT:     -11.2      1.539      7.585
REMARK SMILES C[C@H](C(=O)OCCOCCOC(=O)c1ccc(-c2c3nc(c(-c4cccc(S(=O)(=O)[O-])c4F)c4ccc([nH]4)c(-c4cccc(S(=O)(=O)[O-])c4F)c4nc(c(-c5cccc(S(=O)(=O)[O-])c5F)c5ccc2[nH]5)C=C4)C=C3)cc1)[C@@H](C(=O)c1ccccc1)c1ccc(F)cc1
REMARK SMILES IDX 8 1 7 2 6 3 5 4 3 5 4 6 2 7 1 8 77 9 78 10 79 11 80 12 81 13
REMARK SMILES IDX 85 14 82 15 84 16 83 17 86 18 87 19 92 20 88 21 91 22 89 23
REMARK SMILES IDX 90 24 9 25 10 26 11 27 12 28 13 29 14 30 15 31 76 32 16 33
REMARK SMILES IDX 75 34 17 35 18 36 19 37 69 38 20 39 74 40 68 41 70 42 21 43
REMARK SMILES IDX 73 44 67 45 66 46 22 48 54 49 34 50 53 51 35 52 38 53 52 54
REMARK SMILES IDX 71 55 36 56 37 57 51 59 72 60 39 61 23 62 24 63 32 64 25 65
REMARK SMILES IDX 27 66 33 67 26 68 28 69 29 70 30 71 31 72 55 73 56 74 64 75
REMARK SMILES IDX 57 76 59 77 65 78 58 79 60 80 61 81 62 82 63 83 40 84 41 85
REMARK SMILES IDX 49 86 42 87 44 88 50 89 43 90 45 91 46 92 47 93 48 94
REMARK H PARENT 70 47 38 58
REMARK Flexibility Score: inf
ROOT
ATOM      1  O   UNL A   1      36.355  20.697  24.825  1.00  0.00    -0.374 OA
ENDROOT
BRANCH   1   2
ATOM      2  C   UNL A   1      36.421  21.994  24.230  1.00  0.00     0.202 C 
BRANCH   2   3
ATOM      3  C   UNL A   1      35.808  23.147  25.031  1.00  0.00     0.261 C 
BRANCH   3   4
ATOM      4  O   UNL A   1      34.372  23.121  24.967  1.00  0.00    -0.463 OA
BRANCH   4   5
ATOM      5  C   UNL A   1      33.788  24.099  24.233  1.00  0.00     0.309 C 
ATOM      6  O   UNL A   1      34.371  25.073  23.773  1.00  0.00    -0.252 OA
BRANCH   5   7
ATOM      7  C   UNL A   1      32.333  23.807  23.934  1.00  0.00     0.111 C 
ATOM      8  C   UNL A   1      31.999  22.308  23.824  1.00  0.00     0.021 C 
BRANCH   7   9
ATOM      9  C   UNL A   1      31.308  24.544  24.841  1.00  0.00     0.105 C 
BRANCH   9  10
ATOM     10  C   UNL A   1      31.772  24.979  26.255  1.00  0.00     0.171 C 
ATOM     11  O   UNL A   1      31.782  24.174  27.192  1.00  0.00    -0.293 OA
BRANCH  10  12
ATOM     12  C   UNL A   1      32.263  26.373  26.554  1.00  0.00     0.018 A 
ATOM     13  C   UNL A   1      31.354  27.249  27.174  1.00  0.00     0.012 A 
ATOM     14  C   UNL A   1      33.510  26.879  26.167  1.00  0.00     0.012 A 
ATOM     15  C   UNL A   1      31.632  28.612  27.298  1.00  0.00     0.001 A 
ATOM     16  C   UNL A   1      33.763  28.256  26.236  1.00  0.00     0.001 A 
ATOM     17  C   UNL A   1      32.820  29.122  26.786  1.00  0.00     0.000 A 
ENDBRANCH  10  12
ENDBRANCH   9  10
BRANCH   9  18
ATOM     18  C   UNL A   1      30.749  25.781  24.085  1.00  0.00    -0.036 A 
ATOM     19  C   UNL A   1      29.461  26.297  24.354  1.00  0.00     0.007 A 
ATOM     20  C   UNL A   1      31.499  26.381  23.062  1.00  0.00     0.007 A 
ATOM     21  C   UNL A   1      28.972  27.415  23.679  1.00  0.00     0.039 A 
ATOM     22  C   UNL A   1      30.992  27.483  22.363  1.00  0.00     0.039 A 
ATOM     23  C   UNL A   1      29.743  27.998  22.688  1.00  0.00     0.123 A 
ATOM     24  F   UNL A   1      29.266  29.060  22.023  1.00  0.00    -0.207 F 
ENDBRANCH   9  18
ENDBRANCH   7   9
ENDBRANCH   5   7
ENDBRANCH   4   5
ENDBRANCH   3   4
ENDBRANCH   2   3
ENDBRANCH   1   2
BRANCH   1  25
ATOM     25  C   UNL A   1      37.385  19.760  24.513  1.00  0.00     0.202 C 
BRANCH  25  26
ATOM     26  C   UNL A   1      38.471  19.540  25.569  1.00  0.00     0.261 C 
BRANCH  26  27
ATOM     27  O   UNL A   1      39.470  20.572  25.524  1.00  0.00    -0.460 OA
BRANCH  27  28
ATOM     28  C   UNL A   1      40.356  20.532  26.544  1.00  0.00     0.338 C 
ATOM     29  O   UNL A   1      41.033  19.568  26.893  1.00  0.00    -0.246 OA
BRANCH  28  30
ATOM     30  C   UNL A   1      40.568  21.877  27.103  1.00  0.00     0.060 A 
ATOM     31  C   UNL A   1      40.007  22.950  26.398  1.00  0.00     0.016 A 
ATOM     32  C   UNL A   1      41.363  22.106  28.230  1.00  0.00     0.016 A 
ATOM     33  C   UNL A   1      40.310  24.257  26.761  1.00  0.00     0.010 A 
ATOM     34  C   UNL A   1      41.672  23.422  28.590  1.00  0.00     0.010 A 
ATOM     35  C   UNL A   1      41.193  24.497  27.820  1.00  0.00    -0.014 A 
BRANCH  35  36
ATOM     36  C   UNL A   1      41.767  25.855  27.966  1.00  0.00     0.031 A 
ATOM     37  C   UNL A   1      40.938  26.916  28.639  1.00  0.00     0.074 A 
ATOM     38  C   UNL A   1      43.020  26.127  27.562  1.00  0.00     0.049 A 
ATOM     39  N   UNL A   1      41.248  28.154  28.923  1.00  0.00    -0.248 NA
ATOM     40  C   UNL A   1      39.578  26.528  29.053  1.00  0.00     0.031 C 
ATOM     41  C   UNL A   1      43.920  25.180  26.908  1.00  0.00     0.029 A 
ATOM     42  N   UNL A   1      43.745  27.289  27.636  1.00  0.00    -0.354 N 
ATOM     43  C   UNL A   1      40.122  28.696  29.531  1.00  0.00     0.074 A 
ATOM     44  C   UNL A   1      39.113  27.661  29.558  1.00  0.00     0.031 C 
ATOM     45  C   UNL A   1      45.072  25.808  26.616  1.00  0.00     0.029 A 
ATOM     46  C   UNL A   1      44.985  27.200  27.052  1.00  0.00     0.049 A 
ATOM     47  H   UNL A   1      43.409  28.108  28.067  1.00  0.00     0.167 HD
ATOM     48  C   UNL A   1      39.950  29.935  30.045  1.00  0.00     0.034 A 
ATOM     49  C   UNL A   1      45.935  28.142  26.880  1.00  0.00     0.034 A 
ATOM     50  C   UNL A   1      40.960  30.956  30.038  1.00  0.00     0.049 A 
ATOM     51  C   UNL A   1      45.711  29.523  27.440  1.00  0.00     0.074 A 
ATOM     52  C   UNL A   1      40.896  32.234  30.564  1.00  0.00     0.029 A 
ATOM     53  N   UNL A   1      42.216  30.820  29.469  1.00  0.00    -0.354 N 
ATOM     54  N   UNL A   1      44.689  29.982  28.120  1.00  0.00    -0.248 NA
ATOM     55  C   UNL A   1      46.787  30.505  27.242  1.00  0.00     0.031 C 
ATOM     56  C   UNL A   1      42.110  32.877  30.297  1.00  0.00     0.029 A 
ATOM     57  C   UNL A   1      42.934  31.993  29.621  1.00  0.00     0.049 A 
ATOM     58  H   UNL A   1      42.548  30.008  29.022  1.00  0.00     0.167 HD
ATOM     59  C   UNL A   1      45.009  31.293  28.458  1.00  0.00     0.074 A 
ATOM     60  C   UNL A   1      46.333  31.547  27.926  1.00  0.00     0.031 C 
ATOM     61  C   UNL A   1      44.272  32.209  29.132  1.00  0.00     0.034 A 
BRANCH  48  62
ATOM     62  C   UNL A   1      38.627  30.242  30.694  1.00  0.00     0.023 A 
ATOM     63  C   UNL A   1      38.355  29.741  31.984  1.00  0.00     0.012 A 
ATOM     64  C   UNL A   1      37.675  31.054  30.050  1.00  0.00     0.148 A 
ATOM     65  C   UNL A   1      37.144  30.025  32.614  1.00  0.00     0.002 A 
ATOM     66  C   UNL A   1      36.485  31.364  30.700  1.00  0.00     0.091 A 
ATOM     67  F   UNL A   1      37.940  31.495  28.812  1.00  0.00    -0.205 F 
ATOM     68  C   UNL A   1      36.214  30.843  31.977  1.00  0.00     0.022 A 
BRANCH  66  69
ATOM     69  S   UNL A   1      35.256  32.464  29.989  1.00  0.00     0.127 S 
ATOM     70  O   UNL A   1      36.049  33.663  29.728  1.00  0.00    -0.237 OA
ATOM     71  O   UNL A   1      34.843  31.732  28.791  1.00  0.00    -0.237 OA
ATOM     72  O   UNL A   1      34.216  32.607  30.999  1.00  0.00    -0.744 OA
ENDBRANCH  66  69
ENDBRANCH  48  62
BRANCH  49  73
ATOM     73  C   UNL A   1      47.202  27.796  26.175  1.00  0.00     0.023 A 
ATOM     74  C   UNL A   1      48.295  27.295  26.908  1.00  0.00     0.012 A 
ATOM     75  C   UNL A   1      47.317  27.935  24.779  1.00  0.00     0.148 A 
ATOM     76  C   UNL A   1      49.488  26.964  26.266  1.00  0.00     0.002 A 
ATOM     77  C   UNL A   1      48.489  27.551  24.138  1.00  0.00     0.091 A 
ATOM     78  F   UNL A   1      46.274  28.435  24.101  1.00  0.00    -0.205 F 
ATOM     79  C   UNL A   1      49.582  27.080  24.881  1.00  0.00     0.022 A 
BRANCH  77  80
ATOM     80  S   UNL A   1      48.640  27.539  22.348  1.00  0.00     0.127 S 
ATOM     81  O   UNL A   1      49.876  28.289  22.145  1.00  0.00    -0.237 OA
ATOM     82  O   UNL A   1      48.732  26.106  22.061  1.00  0.00    -0.237 OA
ATOM     83  O   UNL A   1      47.424  28.168  21.852  1.00  0.00    -0.744 OA
ENDBRANCH  77  80
ENDBRANCH  49  73
BRANCH  61  84
ATOM     84  C   UNL A   1      44.879  33.569  29.359  1.00  0.00     0.023 A 
ATOM     85  C   UNL A   1      45.559  33.835  30.564  1.00  0.00     0.012 A 
ATOM     86  C   UNL A   1      44.853  34.549  28.348  1.00  0.00     0.148 A 
ATOM     87  C   UNL A   1      46.180  35.066  30.770  1.00  0.00     0.002 A 
ATOM     88  C   UNL A   1      45.512  35.758  28.542  1.00  0.00     0.091 A 
ATOM     89  F   UNL A   1      44.184  34.284  27.216  1.00  0.00    -0.205 F 
ATOM     90  C   UNL A   1      46.167  36.021  29.756  1.00  0.00     0.022 A 
BRANCH  88  91
ATOM     91  S   UNL A   1      45.625  37.007  27.256  1.00  0.00     0.127 S 
ATOM     92  O   UNL A   1      46.328  36.283  26.199  1.00  0.00    -0.237 OA
ATOM     93  O   UNL A   1      44.218  37.291  26.969  1.00  0.00    -0.237 OA
ATOM     94  O   UNL A   1      46.354  38.122  27.847  1.00  0.00    -0.744 OA
ENDBRANCH  88  91
ENDBRANCH  61  84
ENDBRANCH  35  36
ENDBRANCH  28  30
ENDBRANCH  27  28
ENDBRANCH  26  27
ENDBRANCH  25  26
ENDBRANCH   1  25
TORSDOF 21
ENDMDL
