MODEL 1
REMARK VINA RESULT:     -11.0      0.000      0.000
REMARK SMILES COc1ccc(CC(=O)Nc2ccc(N3CC[NH+](C)CC3)cc2C(=O)OCCOCCOC(=O)c2ccc(-c3c4nc(c(-c5cccc(S(=O)(=O)[O-])c5F)c5ccc([nH]5)c(-c5cccc(S(=O)(=O)[O-])c5F)c5nc(c(-c6cccc(S(=O)(=O)[O-])c6F)c6ccc3[nH]6)C=C5)C=C4)cc2)cc1
REMARK SMILES IDX 28 1 27 2 26 3 24 4 25 5 23 6 11 7 12 8 13 9 22 10 14 11
REMARK SMILES IDX 10 12 8 13 9 14 7 16 6 17 3 18 4 19 99 20 5 21 98 22 2 23
REMARK SMILES IDX 1 24 15 25 16 26 21 27 17 28 20 29 18 30 19 31 29 33 30 34
REMARK SMILES IDX 31 35 32 36 33 37 34 38 35 39 36 40 97 41 37 42 96 43 38 44
REMARK SMILES IDX 39 45 40 46 90 47 41 48 95 49 89 50 91 51 42 52 94 53 88 54
REMARK SMILES IDX 87 55 43 57 75 58 55 59 74 60 56 61 59 62 73 63 92 64 57 65
REMARK SMILES IDX 58 66 72 68 93 69 60 70 44 71 45 72 53 73 46 74 48 75 54 76
REMARK SMILES IDX 47 77 49 78 50 79 51 80 52 81 76 82 77 83 85 84 78 85 80 86
REMARK SMILES IDX 86 87 79 88 81 89 82 90 83 91 84 92 61 93 62 94 70 95 63 96
REMARK SMILES IDX 65 97 71 98 64 99 66 100 67 101 68 102 69 103
REMARK H PARENT 10 15 18 32 91 56 59 67
REMARK Flexibility Score: inf
ROOT
ATOM      1  C   UNL A   1      35.264  22.403  23.781  1.00  0.00     0.202 C 
ENDROOT
BRANCH   1   2
ATOM      2  C   UNL A   1      34.621  23.649  23.147  1.00  0.00     0.261 C 
BRANCH   2   3
ATOM      3  O   UNL A   1      33.191  23.840  23.116  1.00  0.00    -0.460 OA
BRANCH   3   4
ATOM      4  C   UNL A   1      32.637  24.705  22.248  1.00  0.00     0.340 C 
ATOM      5  O   UNL A   1      32.924  24.839  21.077  1.00  0.00    -0.246 OA
BRANCH   4   6
ATOM      6  C   UNL A   1      31.509  25.453  22.844  1.00  0.00     0.085 A 
ATOM      7  C   UNL A   1      30.525  24.890  23.659  1.00  0.00     0.055 A 
ATOM      8  C   UNL A   1      29.375  25.636  23.911  1.00  0.00     0.029 A 
ATOM      9  C   UNL A   1      29.348  27.002  23.595  1.00  0.00     0.028 A 
ATOM     10  C   UNL A   1      31.473  26.828  22.548  1.00  0.00     0.043 A 
ATOM     11  C   UNL A   1      30.440  27.648  22.996  1.00  0.00     0.038 A 
BRANCH   7  12
ATOM     12  N   UNL A   1      30.623  23.619  24.251  1.00  0.00    -0.325 N 
ATOM     13  C   UNL A   1      31.305  23.263  25.394  1.00  0.00     0.228 C 
ATOM     14  O   UNL A   1      31.725  22.108  25.495  1.00  0.00    -0.274 OA
ATOM     15  H   UNL A   1      30.145  22.893  23.791  1.00  0.00     0.169 HD
BRANCH  13  16
ATOM     16  C   UNL A   1      31.339  24.212  26.602  1.00  0.00     0.135 C 
BRANCH  16  17
ATOM     17  C   UNL A   1      32.002  25.563  26.458  1.00  0.00    -0.038 A 
ATOM     18  C   UNL A   1      33.073  28.099  25.827  1.00  0.00     0.118 A 
ATOM     19  C   UNL A   1      33.833  26.939  25.663  1.00  0.00     0.047 A 
ATOM     20  C   UNL A   1      31.835  28.009  26.459  1.00  0.00     0.047 A 
ATOM     21  C   UNL A   1      33.305  25.680  25.966  1.00  0.00     0.008 A 
ATOM     22  C   UNL A   1      31.315  26.745  26.792  1.00  0.00     0.008 A 
BRANCH  18  23
ATOM     23  O   UNL A   1      33.559  29.170  25.132  1.00  0.00    -0.497 OA
ATOM     24  C   UNL A   1      33.987  29.002  23.796  1.00  0.00     0.278 C 
ENDBRANCH  18  23
ENDBRANCH  16  17
ENDBRANCH  13  16
ENDBRANCH   7  12
BRANCH  11  25
ATOM     25  N   UNL A   1      30.507  29.019  22.897  1.00  0.00    -0.360 N 
ATOM     26  C   UNL A   1      30.277  29.934  24.024  1.00  0.00     0.178 C 
ATOM     27  C   UNL A   1      30.614  29.659  21.574  1.00  0.00     0.178 C 
ATOM     28  C   UNL A   1      29.134  30.932  23.719  1.00  0.00     0.283 C 
ATOM     29  C   UNL A   1      29.461  30.674  21.355  1.00  0.00     0.283 C 
ATOM     30  N   UNL A   1      29.355  31.662  22.450  1.00  0.00    -0.334 N 
ATOM     31  C   UNL A   1      28.280  32.617  22.196  1.00  0.00     0.332 C 
ATOM     32  H   UNL A   1      30.219  32.201  22.510  1.00  0.00     0.347 HD
ENDBRANCH  11  25
ENDBRANCH   4   6
ENDBRANCH   3   4
ENDBRANCH   2   3
ENDBRANCH   1   2
BRANCH   1  33
ATOM     33  O   UNL A   1      36.543  22.513  24.390  1.00  0.00    -0.374 OA
BRANCH  33  34
ATOM     34  C   UNL A   1      36.835  21.605  25.441  1.00  0.00     0.202 C 
BRANCH  34  35
ATOM     35  C   UNL A   1      38.188  20.911  25.258  1.00  0.00     0.261 C 
BRANCH  35  36
ATOM     36  O   UNL A   1      38.980  20.940  26.449  1.00  0.00    -0.460 OA
BRANCH  36  37
ATOM     37  C   UNL A   1      40.218  20.405  26.285  1.00  0.00     0.338 C 
ATOM     38  O   UNL A   1      40.500  19.292  25.873  1.00  0.00    -0.246 OA
BRANCH  37  39
ATOM     39  C   UNL A   1      41.219  21.441  26.580  1.00  0.00     0.060 A 
ATOM     40  C   UNL A   1      41.567  21.685  27.915  1.00  0.00     0.016 A 
ATOM     41  C   UNL A   1      41.771  22.192  25.540  1.00  0.00     0.016 A 
ATOM     42  C   UNL A   1      42.400  22.756  28.222  1.00  0.00     0.010 A 
ATOM     43  C   UNL A   1      42.591  23.272  25.848  1.00  0.00     0.010 A 
ATOM     44  C   UNL A   1      42.850  23.592  27.192  1.00  0.00    -0.014 A 
BRANCH  44  45
ATOM     45  C   UNL A   1      43.350  24.942  27.523  1.00  0.00     0.031 A 
ATOM     46  C   UNL A   1      42.371  25.919  28.114  1.00  0.00     0.074 A 
ATOM     47  C   UNL A   1      44.624  25.289  27.285  1.00  0.00     0.049 A 
ATOM     48  N   UNL A   1      42.537  27.175  28.427  1.00  0.00    -0.248 NA
ATOM     49  C   UNL A   1      41.014  25.408  28.382  1.00  0.00     0.031 C 
ATOM     50  C   UNL A   1      45.648  24.409  26.724  1.00  0.00     0.029 A 
ATOM     51  N   UNL A   1      45.262  26.488  27.459  1.00  0.00    -0.354 N 
ATOM     52  C   UNL A   1      41.303  27.613  28.891  1.00  0.00     0.074 A 
ATOM     53  C   UNL A   1      40.394  26.493  28.817  1.00  0.00     0.031 C 
ATOM     54  C   UNL A   1      46.781  25.113  26.562  1.00  0.00     0.029 A 
ATOM     55  C   UNL A   1      46.549  26.496  26.978  1.00  0.00     0.049 A 
ATOM     56  H   UNL A   1      44.840  27.269  27.886  1.00  0.00     0.167 HD
ATOM     57  C   UNL A   1      40.960  28.842  29.342  1.00  0.00     0.034 A 
ATOM     58  C   UNL A   1      47.421  27.515  26.860  1.00  0.00     0.034 A 
ATOM     59  C   UNL A   1      41.880  29.942  29.415  1.00  0.00     0.049 A 
ATOM     60  C   UNL A   1      47.012  28.879  27.353  1.00  0.00     0.074 A 
ATOM     61  C   UNL A   1      41.660  31.218  29.899  1.00  0.00     0.029 A 
ATOM     62  N   UNL A   1      43.193  29.901  28.967  1.00  0.00    -0.354 N 
ATOM     63  N   UNL A   1      45.878  29.258  27.893  1.00  0.00    -0.248 NA
ATOM     64  C   UNL A   1      48.013  29.950  27.251  1.00  0.00     0.031 C 
ATOM     65  C   UNL A   1      42.829  31.962  29.704  1.00  0.00     0.029 A 
ATOM     66  C   UNL A   1      43.791  31.135  29.144  1.00  0.00     0.049 A 
ATOM     67  H   UNL A   1      43.633  29.110  28.581  1.00  0.00     0.167 HD
ATOM     68  C   UNL A   1      46.038  30.597  28.227  1.00  0.00     0.074 A 
ATOM     69  C   UNL A   1      47.388  30.959  27.843  1.00  0.00     0.031 C 
ATOM     70  C   UNL A   1      45.151  31.455  28.790  1.00  0.00     0.034 A 
BRANCH  57  71
ATOM     71  C   UNL A   1      39.534  29.056  29.777  1.00  0.00     0.023 A 
ATOM     72  C   UNL A   1      39.120  28.663  31.066  1.00  0.00     0.012 A 
ATOM     73  C   UNL A   1      38.609  29.674  28.914  1.00  0.00     0.148 A 
ATOM     74  C   UNL A   1      37.799  28.849  31.475  1.00  0.00     0.002 A 
ATOM     75  C   UNL A   1      37.308  29.901  29.345  1.00  0.00     0.091 A 
ATOM     76  F   UNL A   1      39.014  30.016  27.682  1.00  0.00    -0.205 F 
ATOM     77  C   UNL A   1      36.898  29.478  30.620  1.00  0.00     0.022 A 
BRANCH  75  78
ATOM     78  S   UNL A   1      36.095  30.773  28.348  1.00  0.00     0.127 S 
ATOM     79  O   UNL A   1      35.838  29.805  27.282  1.00  0.00    -0.237 OA
ATOM     80  O   UNL A   1      34.991  30.948  29.292  1.00  0.00    -0.237 OA
ATOM     81  O   UNL A   1      36.735  32.010  27.924  1.00  0.00    -0.744 OA
ENDBRANCH  75  78
ENDBRANCH  57  71
BRANCH  58  82
ATOM     82  C   UNL A   1      48.764  27.276  26.260  1.00  0.00     0.023 A 
ATOM     83  C   UNL A   1      49.805  26.763  27.056  1.00  0.00     0.012 A 
ATOM     84  C   UNL A   1      49.001  27.522  24.893  1.00  0.00     0.148 A 
ATOM     85  C   UNL A   1      51.067  26.525  26.509  1.00  0.00     0.002 A 
ATOM     86  C   UNL A   1      50.244  27.231  24.342  1.00  0.00     0.091 A 
ATOM     87  F   UNL A   1      48.002  28.024  24.156  1.00  0.00    -0.205 F 
ATOM     88  C   UNL A   1      51.282  26.748  25.152  1.00  0.00     0.022 A 
BRANCH  86  89
ATOM     89  S   UNL A   1      50.576  27.370  22.582  1.00  0.00     0.127 S 
ATOM     90  O   UNL A   1      50.476  28.812  22.371  1.00  0.00    -0.237 OA
ATOM     91  O   UNL A   1      51.932  26.827  22.487  1.00  0.00    -0.237 OA
ATOM     92  O   UNL A   1      49.559  26.565  21.920  1.00  0.00    -0.744 OA
ENDBRANCH  86  89
ENDBRANCH  58  82
BRANCH  70  93
ATOM     93  C   UNL A   1      45.619  32.860  29.067  1.00  0.00     0.023 A 
ATOM     94  C   UNL A   1      46.322  33.150  30.253  1.00  0.00     0.012 A 
ATOM     95  C   UNL A   1      45.434  33.874  28.105  1.00  0.00     0.148 A 
ATOM     96  C   UNL A   1      46.801  34.437  30.494  1.00  0.00     0.002 A 
ATOM     97  C   UNL A   1      45.962  35.139  28.328  1.00  0.00     0.091 A 
ATOM     98  F   UNL A   1      44.750  33.580  26.990  1.00  0.00    -0.205 F 
ATOM     99  C   UNL A   1      46.633  35.427  29.528  1.00  0.00     0.022 A 
BRANCH  97 100
ATOM    100  S   UNL A   1      45.884  36.444  27.097  1.00  0.00     0.127 S 
ATOM    101  O   UNL A   1      46.702  37.486  27.716  1.00  0.00    -0.237 OA
ATOM    102  O   UNL A   1      46.491  35.805  25.930  1.00  0.00    -0.237 OA
ATOM    103  O   UNL A   1      44.472  36.770  26.943  1.00  0.00    -0.744 OA
ENDBRANCH  97 100
ENDBRANCH  70  93
ENDBRANCH  44  45
ENDBRANCH  37  39
ENDBRANCH  36  37
ENDBRANCH  35  36
ENDBRANCH  34  35
ENDBRANCH  33  34
ENDBRANCH   1  33
TORSDOF 22
ENDMDL
MODEL 2
REMARK VINA RESULT:     -10.6      4.129      4.971
REMARK SMILES COc1ccc(CC(=O)Nc2ccc(N3CC[NH+](C)CC3)cc2C(=O)OCCOCCOC(=O)c2ccc(-c3c4nc(c(-c5cccc(S(=O)(=O)[O-])c5F)c5ccc([nH]5)c(-c5cccc(S(=O)(=O)[O-])c5F)c5nc(c(-c6cccc(S(=O)(=O)[O-])c6F)c6ccc3[nH]6)C=C5)C=C4)cc2)cc1
REMARK SMILES IDX 28 1 27 2 26 3 24 4 25 5 23 6 11 7 12 8 13 9 22 10 14 11
REMARK SMILES IDX 10 12 8 13 9 14 7 16 6 17 3 18 4 19 99 20 5 21 98 22 2 23
REMARK SMILES IDX 1 24 15 25 16 26 21 27 17 28 20 29 18 30 19 31 29 33 30 34
REMARK SMILES IDX 31 35 32 36 33 37 34 38 35 39 36 40 97 41 37 42 96 43 38 44
REMARK SMILES IDX 39 45 40 46 90 47 41 48 95 49 89 50 91 51 42 52 94 53 88 54
REMARK SMILES IDX 87 55 43 57 75 58 55 59 74 60 56 61 59 62 73 63 92 64 57 65
REMARK SMILES IDX 58 66 72 68 93 69 60 70 44 71 45 72 53 73 46 74 48 75 54 76
REMARK SMILES IDX 47 77 49 78 50 79 51 80 52 81 76 82 77 83 85 84 78 85 80 86
REMARK SMILES IDX 86 87 79 88 81 89 82 90 83 91 84 92 61 93 62 94 70 95 63 96
REMARK SMILES IDX 65 97 71 98 64 99 66 100 67 101 68 102 69 103
REMARK H PARENT 10 15 18 32 91 56 59 67
REMARK Flexibility Score: inf
ROOT
ATOM      1  C   UNL A   1      35.054  22.636  23.990  1.00  0.00     0.202 C 
ENDROOT
BRANCH   1   2
ATOM      2  C   UNL A   1      34.436  23.812  23.213  1.00  0.00     0.261 C 
BRANCH   2   3
ATOM      3  O   UNL A   1      33.037  23.846  22.860  1.00  0.00    -0.460 OA
BRANCH   3   4
ATOM      4  C   UNL A   1      32.552  24.830  22.083  1.00  0.00     0.340 C 
ATOM      5  O   UNL A   1      32.876  25.075  20.939  1.00  0.00    -0.246 OA
BRANCH   4   6
ATOM      6  C   UNL A   1      31.452  25.571  22.736  1.00  0.00     0.085 A 
ATOM      7  C   UNL A   1      30.508  24.999  23.592  1.00  0.00     0.055 A 
ATOM      8  C   UNL A   1      29.368  25.739  23.901  1.00  0.00     0.029 A 
ATOM      9  C   UNL A   1      29.324  27.108  23.597  1.00  0.00     0.028 A 
ATOM     10  C   UNL A   1      31.398  26.947  22.452  1.00  0.00     0.043 A 
ATOM     11  C   UNL A   1      30.385  27.761  22.954  1.00  0.00     0.038 A 
BRANCH   7  12
ATOM     12  N   UNL A   1      30.636  23.724  24.168  1.00  0.00    -0.325 N 
ATOM     13  C   UNL A   1      31.336  23.369  25.300  1.00  0.00     0.228 C 
ATOM     14  O   UNL A   1      31.780  22.221  25.384  1.00  0.00    -0.274 OA
ATOM     15  H   UNL A   1      30.166  22.993  23.706  1.00  0.00     0.169 HD
BRANCH  13  16
ATOM     16  C   UNL A   1      31.366  24.305  26.518  1.00  0.00     0.135 C 
BRANCH  16  17
ATOM     17  C   UNL A   1      31.981  25.680  26.375  1.00  0.00    -0.038 A 
ATOM     18  C   UNL A   1      33.272  28.189  26.477  1.00  0.00     0.118 A 
ATOM     19  C   UNL A   1      31.910  28.072  26.763  1.00  0.00     0.047 A 
ATOM     20  C   UNL A   1      33.955  27.080  25.982  1.00  0.00     0.047 A 
ATOM     21  C   UNL A   1      31.267  26.830  26.722  1.00  0.00     0.008 A 
ATOM     22  C   UNL A   1      33.300  25.836  25.912  1.00  0.00     0.008 A 
BRANCH  18  23
ATOM     23  O   UNL A   1      33.826  29.350  26.937  1.00  0.00    -0.497 OA
ATOM     24  C   UNL A   1      32.988  30.430  27.298  1.00  0.00     0.278 C 
ENDBRANCH  18  23
ENDBRANCH  16  17
ENDBRANCH  13  16
ENDBRANCH   7  12
BRANCH  11  25
ATOM     25  N   UNL A   1      30.444  29.134  22.862  1.00  0.00    -0.360 N 
ATOM     26  C   UNL A   1      30.382  30.036  24.021  1.00  0.00     0.178 C 
ATOM     27  C   UNL A   1      30.363  29.789  21.545  1.00  0.00     0.178 C 
ATOM     28  C   UNL A   1      29.213  31.041  23.895  1.00  0.00     0.283 C 
ATOM     29  C   UNL A   1      29.196  30.810  21.505  1.00  0.00     0.283 C 
ATOM     30  N   UNL A   1      29.253  31.785  22.615  1.00  0.00    -0.334 N 
ATOM     31  C   UNL A   1      28.158  32.747  22.529  1.00  0.00     0.332 C 
ATOM     32  H   UNL A   1      30.119  32.321  22.557  1.00  0.00     0.347 HD
ENDBRANCH  11  25
ENDBRANCH   4   6
ENDBRANCH   3   4
ENDBRANCH   2   3
ENDBRANCH   1   2
BRANCH   1  33
ATOM     33  O   UNL A   1      36.217  22.856  24.776  1.00  0.00    -0.374 OA
BRANCH  33  34
ATOM     34  C   UNL A   1      36.648  21.783  25.598  1.00  0.00     0.202 C 
BRANCH  34  35
ATOM     35  C   UNL A   1      38.017  21.237  25.182  1.00  0.00     0.261 C 
BRANCH  35  36
ATOM     36  O   UNL A   1      39.052  21.605  26.097  1.00  0.00    -0.460 OA
BRANCH  36  37
ATOM     37  C   UNL A   1      40.125  20.773  26.061  1.00  0.00     0.338 C 
ATOM     38  O   UNL A   1      40.129  19.571  25.854  1.00  0.00    -0.246 OA
BRANCH  37  39
ATOM     39  C   UNL A   1      41.348  21.579  26.198  1.00  0.00     0.060 A 
ATOM     40  C   UNL A   1      42.587  20.925  26.249  1.00  0.00     0.016 A 
ATOM     41  C   UNL A   1      41.258  22.967  26.322  1.00  0.00     0.016 A 
ATOM     42  C   UNL A   1      43.738  21.656  26.523  1.00  0.00     0.010 A 
ATOM     43  C   UNL A   1      42.406  23.695  26.612  1.00  0.00     0.010 A 
ATOM     44  C   UNL A   1      43.633  23.030  26.778  1.00  0.00    -0.014 A 
BRANCH  44  45
ATOM     45  C   UNL A   1      44.731  23.720  27.483  1.00  0.00     0.031 A 
ATOM     46  C   UNL A   1      44.610  23.876  28.974  1.00  0.00     0.074 A 
ATOM     47  C   UNL A   1      45.788  24.208  26.815  1.00  0.00     0.049 A 
ATOM     48  N   UNL A   1      45.396  24.495  29.812  1.00  0.00    -0.248 NA
ATOM     49  C   UNL A   1      43.432  23.251  29.606  1.00  0.00     0.031 C 
ATOM     50  C   UNL A   1      45.999  24.098  25.373  1.00  0.00     0.029 A 
ATOM     51  N   UNL A   1      46.867  24.922  27.265  1.00  0.00    -0.354 N 
ATOM     52  C   UNL A   1      44.793  24.369  31.057  1.00  0.00     0.074 A 
ATOM     53  C   UNL A   1      43.573  23.617  30.870  1.00  0.00     0.031 C 
ATOM     54  C   UNL A   1      47.123  24.760  25.049  1.00  0.00     0.029 A 
ATOM     55  C   UNL A   1      47.688  25.363  26.256  1.00  0.00     0.049 A 
ATOM     56  H   UNL A   1      47.037  25.102  28.218  1.00  0.00     0.167 HD
ATOM     57  C   UNL A   1      45.220  24.836  32.252  1.00  0.00     0.034 A 
ATOM     58  C   UNL A   1      48.752  26.188  26.305  1.00  0.00     0.034 A 
ATOM     59  C   UNL A   1      46.440  25.577  32.421  1.00  0.00     0.049 A 
ATOM     60  C   UNL A   1      49.201  26.710  27.645  1.00  0.00     0.074 A 
ATOM     61  C   UNL A   1      47.000  26.058  33.589  1.00  0.00     0.029 A 
ATOM     62  N   UNL A   1      47.276  25.962  31.383  1.00  0.00    -0.354 N 
ATOM     63  N   UNL A   1      48.686  26.493  28.832  1.00  0.00    -0.248 NA
ATOM     64  C   UNL A   1      50.396  27.565  27.657  1.00  0.00     0.031 C 
ATOM     65  C   UNL A   1      48.154  26.774  33.251  1.00  0.00     0.029 A 
ATOM     66  C   UNL A   1      48.338  26.694  31.879  1.00  0.00     0.049 A 
ATOM     67  H   UNL A   1      47.133  25.746  30.433  1.00  0.00     0.167 HD
ATOM     68  C   UNL A   1      49.511  27.153  29.736  1.00  0.00     0.074 A 
ATOM     69  C   UNL A   1      50.571  27.764  28.957  1.00  0.00     0.031 C 
ATOM     70  C   UNL A   1      49.401  27.256  31.084  1.00  0.00     0.034 A 
BRANCH  57  71
ATOM     71  C   UNL A   1      44.359  24.568  33.459  1.00  0.00     0.023 A 
ATOM     72  C   UNL A   1      44.350  23.290  34.053  1.00  0.00     0.012 A 
ATOM     73  C   UNL A   1      43.579  25.597  34.021  1.00  0.00     0.148 A 
ATOM     74  C   UNL A   1      43.549  23.030  35.165  1.00  0.00     0.002 A 
ATOM     75  C   UNL A   1      42.822  25.344  35.158  1.00  0.00     0.091 A 
ATOM     76  F   UNL A   1      43.580  26.799  33.426  1.00  0.00    -0.205 F 
ATOM     77  C   UNL A   1      42.795  24.059  35.724  1.00  0.00     0.022 A 
BRANCH  75  78
ATOM     78  S   UNL A   1      41.879  26.622  35.998  1.00  0.00     0.127 S 
ATOM     79  O   UNL A   1      40.912  27.001  34.968  1.00  0.00    -0.237 OA
ATOM     80  O   UNL A   1      41.310  25.890  37.129  1.00  0.00    -0.237 OA
ATOM     81  O   UNL A   1      42.837  27.656  36.363  1.00  0.00    -0.744 OA
ENDBRANCH  75  78
ENDBRANCH  57  71
BRANCH  58  82
ATOM     82  C   UNL A   1      49.463  26.555  25.049  1.00  0.00     0.023 A 
ATOM     83  C   UNL A   1      50.812  26.193  24.877  1.00  0.00     0.012 A 
ATOM     84  C   UNL A   1      48.795  27.232  24.008  1.00  0.00     0.148 A 
ATOM     85  C   UNL A   1      51.492  26.522  23.703  1.00  0.00     0.002 A 
ATOM     86  C   UNL A   1      49.462  27.507  22.820  1.00  0.00     0.091 A 
ATOM     87  F   UNL A   1      47.515  27.580  24.197  1.00  0.00    -0.205 F 
ATOM     88  C   UNL A   1      50.815  27.168  22.672  1.00  0.00     0.022 A 
BRANCH  86  89
ATOM     89  S   UNL A   1      48.638  28.225  21.394  1.00  0.00     0.127 S 
ATOM     90  O   UNL A   1      47.455  28.826  22.004  1.00  0.00    -0.237 OA
ATOM     91  O   UNL A   1      49.638  29.181  20.917  1.00  0.00    -0.237 OA
ATOM     92  O   UNL A   1      48.382  27.117  20.483  1.00  0.00    -0.744 OA
ENDBRANCH  86  89
ENDBRANCH  58  82
BRANCH  70  93
ATOM     93  C   UNL A   1      50.474  28.021  31.815  1.00  0.00     0.023 A 
ATOM     94  C   UNL A   1      51.649  27.366  32.233  1.00  0.00     0.012 A 
ATOM     95  C   UNL A   1      50.348  29.411  32.009  1.00  0.00     0.148 A 
ATOM     96  C   UNL A   1      52.667  28.077  32.867  1.00  0.00     0.002 A 
ATOM     97  C   UNL A   1      51.390  30.122  32.591  1.00  0.00     0.091 A 
ATOM     98  F   UNL A   1      49.216  30.013  31.616  1.00  0.00    -0.205 F 
ATOM     99  C   UNL A   1      52.544  29.455  33.034  1.00  0.00     0.022 A 
BRANCH  97 100
ATOM    100  S   UNL A   1      51.364  31.910  32.752  1.00  0.00     0.127 S 
ATOM    101  O   UNL A   1      52.686  32.179  33.314  1.00  0.00    -0.237 OA
ATOM    102  O   UNL A   1      51.191  32.343  31.365  1.00  0.00    -0.237 OA
ATOM    103  O   UNL A   1      50.240  32.220  33.627  1.00  0.00    -0.744 OA
ENDBRANCH  97 100
ENDBRANCH  70  93
ENDBRANCH  44  45
ENDBRANCH  37  39
ENDBRANCH  36  37
ENDBRANCH  35  36
ENDBRANCH  34  35
ENDBRANCH  33  34
ENDBRANCH   1  33
TORSDOF 22
ENDMDL
MODEL 3
REMARK VINA RESULT:     -10.4      2.302      3.201
REMARK SMILES COc1ccc(CC(=O)Nc2ccc(N3CC[NH+](C)CC3)cc2C(=O)OCCOCCOC(=O)c2ccc(-c3c4nc(c(-c5cccc(S(=O)(=O)[O-])c5F)c5ccc([nH]5)c(-c5cccc(S(=O)(=O)[O-])c5F)c5nc(c(-c6cccc(S(=O)(=O)[O-])c6F)c6ccc3[nH]6)C=C5)C=C4)cc2)cc1
REMARK SMILES IDX 28 1 27 2 26 3 24 4 25 5 23 6 11 7 12 8 13 9 22 10 14 11
REMARK SMILES IDX 10 12 8 13 9 14 7 16 6 17 3 18 4 19 99 20 5 21 98 22 2 23
REMARK SMILES IDX 1 24 15 25 16 26 21 27 17 28 20 29 18 30 19 31 29 33 30 34
REMARK SMILES IDX 31 35 32 36 33 37 34 38 35 39 36 40 97 41 37 42 96 43 38 44
REMARK SMILES IDX 39 45 40 46 90 47 41 48 95 49 89 50 91 51 42 52 94 53 88 54
REMARK SMILES IDX 87 55 43 57 75 58 55 59 74 60 56 61 59 62 73 63 92 64 57 65
REMARK SMILES IDX 58 66 72 68 93 69 60 70 44 71 45 72 53 73 46 74 48 75 54 76
REMARK SMILES IDX 47 77 49 78 50 79 51 80 52 81 76 82 77 83 85 84 78 85 80 86
REMARK SMILES IDX 86 87 79 88 81 89 82 90 83 91 84 92 61 93 62 94 70 95 63 96
REMARK SMILES IDX 65 97 71 98 64 99 66 100 67 101 68 102 69 103
REMARK H PARENT 10 15 18 32 91 56 59 67
REMARK Flexibility Score: inf
ROOT
ATOM      1  C   UNL A   1      33.934  19.122  24.404  1.00  0.00     0.202 C 
ENDROOT
BRANCH   1   2
ATOM      2  C   UNL A   1      32.533  19.607  23.993  1.00  0.00     0.261 C 
BRANCH   2   3
ATOM      3  O   UNL A   1      31.874  20.700  24.667  1.00  0.00    -0.460 OA
BRANCH   3   4
ATOM      4  C   UNL A   1      31.887  21.936  24.137  1.00  0.00     0.340 C 
ATOM      5  O   UNL A   1      32.163  22.230  22.992  1.00  0.00    -0.246 OA
BRANCH   4   6
ATOM      6  C   UNL A   1      31.408  22.961  25.090  1.00  0.00     0.085 A 
ATOM      7  C   UNL A   1      31.495  22.855  26.480  1.00  0.00     0.055 A 
ATOM      8  C   UNL A   1      30.753  23.745  27.254  1.00  0.00     0.029 A 
ATOM      9  C   UNL A   1      30.182  24.878  26.655  1.00  0.00     0.028 A 
ATOM     10  C   UNL A   1      30.843  24.110  24.508  1.00  0.00     0.043 A 
ATOM     11  C   UNL A   1      30.302  25.134  25.282  1.00  0.00     0.038 A 
BRANCH   7  12
ATOM     12  N   UNL A   1      32.289  21.909  27.151  1.00  0.00    -0.325 N 
ATOM     13  C   UNL A   1      33.662  21.791  27.140  1.00  0.00     0.228 C 
ATOM     14  O   UNL A   1      34.159  20.676  27.319  1.00  0.00    -0.274 OA
ATOM     15  H   UNL A   1      31.804  21.250  27.697  1.00  0.00     0.169 HD
BRANCH  13  16
ATOM     16  C   UNL A   1      34.548  23.046  27.132  1.00  0.00     0.135 C 
BRANCH  16  17
ATOM     17  C   UNL A   1      34.597  23.905  25.888  1.00  0.00    -0.038 A 
ATOM     18  C   UNL A   1      34.319  25.372  23.491  1.00  0.00     0.118 A 
ATOM     19  C   UNL A   1      34.992  24.148  23.509  1.00  0.00     0.047 A 
ATOM     20  C   UNL A   1      33.925  25.941  24.700  1.00  0.00     0.047 A 
ATOM     21  C   UNL A   1      35.125  23.413  24.692  1.00  0.00     0.008 A 
ATOM     22  C   UNL A   1      34.086  25.216  25.895  1.00  0.00     0.008 A 
BRANCH  18  23
ATOM     23  O   UNL A   1      33.930  25.760  22.241  1.00  0.00    -0.497 OA
ATOM     24  C   UNL A   1      33.713  27.129  21.968  1.00  0.00     0.278 C 
ENDBRANCH  18  23
ENDBRANCH  16  17
ENDBRANCH  13  16
ENDBRANCH   7  12
BRANCH  11  25
ATOM     25  N   UNL A   1      29.946  26.346  24.735  1.00  0.00    -0.360 N 
ATOM     26  C   UNL A   1      29.221  26.490  23.464  1.00  0.00     0.178 C 
ATOM     27  C   UNL A   1      30.469  27.597  25.310  1.00  0.00     0.178 C 
ATOM     28  C   UNL A   1      30.013  27.359  22.456  1.00  0.00     0.283 C 
ATOM     29  C   UNL A   1      31.213  28.433  24.237  1.00  0.00     0.283 C 
ATOM     30  N   UNL A   1      30.393  28.670  23.029  1.00  0.00    -0.334 N 
ATOM     31  C   UNL A   1      31.113  29.483  22.053  1.00  0.00     0.332 C 
ATOM     32  H   UNL A   1      29.553  29.191  23.281  1.00  0.00     0.347 HD
ENDBRANCH  11  25
ENDBRANCH   4   6
ENDBRANCH   3   4
ENDBRANCH   2   3
ENDBRANCH   1   2
BRANCH   1  33
ATOM     33  O   UNL A   1      35.005  20.054  24.459  1.00  0.00    -0.374 OA
BRANCH  33  34
ATOM     34  C   UNL A   1      36.252  19.573  24.935  1.00  0.00     0.202 C 
BRANCH  34  35
ATOM     35  C   UNL A   1      37.415  20.505  24.583  1.00  0.00     0.261 C 
BRANCH  35  36
ATOM     36  O   UNL A   1      37.806  21.329  25.685  1.00  0.00    -0.460 OA
BRANCH  36  37
ATOM     37  C   UNL A   1      39.118  21.202  26.014  1.00  0.00     0.338 C 
ATOM     38  O   UNL A   1      39.882  20.307  25.697  1.00  0.00    -0.246 OA
BRANCH  37  39
ATOM     39  C   UNL A   1      39.536  22.407  26.746  1.00  0.00     0.060 A 
ATOM     40  C   UNL A   1      38.902  23.624  26.463  1.00  0.00     0.016 A 
ATOM     41  C   UNL A   1      40.581  22.334  27.670  1.00  0.00     0.016 A 
ATOM     42  C   UNL A   1      39.381  24.797  27.037  1.00  0.00     0.010 A 
ATOM     43  C   UNL A   1      41.069  23.509  28.231  1.00  0.00     0.010 A 
ATOM     44  C   UNL A   1      40.511  24.745  27.863  1.00  0.00    -0.014 A 
BRANCH  44  45
ATOM     45  C   UNL A   1      41.279  25.981  28.116  1.00  0.00     0.031 A 
ATOM     46  C   UNL A   1      40.580  27.097  28.842  1.00  0.00     0.074 A 
ATOM     47  C   UNL A   1      42.548  26.108  27.697  1.00  0.00     0.049 A 
ATOM     48  N   UNL A   1      41.004  28.297  29.127  1.00  0.00    -0.248 NA
ATOM     49  C   UNL A   1      39.206  26.821  29.303  1.00  0.00     0.031 C 
ATOM     50  C   UNL A   1      43.312  25.079  26.995  1.00  0.00     0.029 A 
ATOM     51  N   UNL A   1      43.403  27.176  27.777  1.00  0.00    -0.354 N 
ATOM     52  C   UNL A   1      39.944  28.930  29.763  1.00  0.00     0.074 A 
ATOM     53  C   UNL A   1      38.852  27.986  29.822  1.00  0.00     0.031 C 
ATOM     54  C   UNL A   1      44.516  25.582  26.672  1.00  0.00     0.029 A 
ATOM     55  C   UNL A   1      44.589  26.973  27.116  1.00  0.00     0.049 A 
ATOM     56  H   UNL A   1      43.187  28.007  28.260  1.00  0.00     0.167 HD
ATOM     57  C   UNL A   1      39.887  30.188  30.258  1.00  0.00     0.034 A 
ATOM     58  C   UNL A   1      45.600  27.830  26.872  1.00  0.00     0.034 A 
ATOM     59  C   UNL A   1      40.985  31.112  30.197  1.00  0.00     0.049 A 
ATOM     60  C   UNL A   1      45.508  29.231  27.418  1.00  0.00     0.074 A 
ATOM     61  C   UNL A   1      41.061  32.394  30.707  1.00  0.00     0.029 A 
ATOM     62  N   UNL A   1      42.194  30.856  29.565  1.00  0.00    -0.354 N 
ATOM     63  N   UNL A   1      44.545  29.786  28.116  1.00  0.00    -0.248 NA
ATOM     64  C   UNL A   1      46.656  30.116  27.172  1.00  0.00     0.031 C 
ATOM     65  C   UNL A   1      42.302  32.930  30.344  1.00  0.00     0.029 A 
ATOM     66  C   UNL A   1      43.016  31.964  29.652  1.00  0.00     0.049 A 
ATOM     67  H   UNL A   1      42.430  30.011  29.119  1.00  0.00     0.167 HD
ATOM     68  C   UNL A   1      44.982  31.070  28.422  1.00  0.00     0.074 A 
ATOM     69  C   UNL A   1      46.307  31.203  27.847  1.00  0.00     0.031 C 
ATOM     70  C   UNL A   1      44.347  32.054  29.106  1.00  0.00     0.034 A 
BRANCH  57  71
ATOM     71  C   UNL A   1      38.596  30.634  30.894  1.00  0.00     0.023 A 
ATOM     72  C   UNL A   1      38.383  30.443  32.275  1.00  0.00     0.012 A 
ATOM     73  C   UNL A   1      37.603  31.270  30.124  1.00  0.00     0.148 A 
ATOM     74  C   UNL A   1      37.188  30.845  32.871  1.00  0.00     0.002 A 
ATOM     75  C   UNL A   1      36.435  31.711  30.733  1.00  0.00     0.091 A 
ATOM     76  F   UNL A   1      37.812  31.418  28.807  1.00  0.00    -0.205 F 
ATOM     77  C   UNL A   1      36.220  31.488  32.103  1.00  0.00     0.022 A 
BRANCH  75  78
ATOM     78  S   UNL A   1      35.164  32.620  29.848  1.00  0.00     0.127 S 
ATOM     79  O   UNL A   1      34.202  32.897  30.914  1.00  0.00    -0.237 OA
ATOM     80  O   UNL A   1      35.900  33.791  29.370  1.00  0.00    -0.237 OA
ATOM     81  O   UNL A   1      34.690  31.730  28.797  1.00  0.00    -0.744 OA
ENDBRANCH  75  78
ENDBRANCH  57  71
BRANCH  58  82
ATOM     82  C   UNL A   1      46.781  27.377  26.085  1.00  0.00     0.023 A 
ATOM     83  C   UNL A   1      46.831  27.611  24.699  1.00  0.00     0.012 A 
ATOM     84  C   UNL A   1      47.872  26.745  26.715  1.00  0.00     0.148 A 
ATOM     85  C   UNL A   1      47.933  27.201  23.947  1.00  0.00     0.002 A 
ATOM     86  C   UNL A   1      48.991  26.389  25.971  1.00  0.00     0.091 A 
ATOM     87  F   UNL A   1      47.800  26.518  28.034  1.00  0.00    -0.205 F 
ATOM     88  C   UNL A   1      49.017  26.601  24.585  1.00  0.00     0.022 A 
BRANCH  86  89
ATOM     89  S   UNL A   1      50.480  25.724  26.724  1.00  0.00     0.127 S 
ATOM     90  O   UNL A   1      49.990  24.479  27.308  1.00  0.00    -0.237 OA
ATOM     91  O   UNL A   1      51.356  25.556  25.563  1.00  0.00    -0.237 OA
ATOM     92  O   UNL A   1      50.929  26.732  27.675  1.00  0.00    -0.744 OA
ENDBRANCH  86  89
ENDBRANCH  58  82
BRANCH  70  93
ATOM     93  C   UNL A   1      45.087  33.350  29.311  1.00  0.00     0.023 A 
ATOM     94  C   UNL A   1      44.969  34.388  28.366  1.00  0.00     0.012 A 
ATOM     95  C   UNL A   1      45.831  33.566  30.489  1.00  0.00     0.148 A 
ATOM     96  C   UNL A   1      45.612  35.608  28.572  1.00  0.00     0.002 A 
ATOM     97  C   UNL A   1      46.422  34.803  30.713  1.00  0.00     0.091 A 
ATOM     98  F   UNL A   1      45.941  32.560  31.369  1.00  0.00    -0.205 F 
ATOM     99  C   UNL A   1      46.326  35.820  29.749  1.00  0.00     0.022 A 
BRANCH  97 100
ATOM    100  S   UNL A   1      47.272  35.200  32.244  1.00  0.00     0.127 S 
ATOM    101  O   UNL A   1      48.399  34.270  32.209  1.00  0.00    -0.237 OA
ATOM    102  O   UNL A   1      47.632  36.603  32.042  1.00  0.00    -0.237 OA
ATOM    103  O   UNL A   1      46.307  34.970  33.312  1.00  0.00    -0.744 OA
ENDBRANCH  97 100
ENDBRANCH  70  93
ENDBRANCH  44  45
ENDBRANCH  37  39
ENDBRANCH  36  37
ENDBRANCH  35  36
ENDBRANCH  34  35
ENDBRANCH  33  34
ENDBRANCH   1  33
TORSDOF 22
ENDMDL
