MODEL 1
REMARK VINA RESULT:     -12.0      0.000      0.000
REMARK SMILES CNC(=O)c1cccc(-c2cnc(O)c(C(=O)OCCOCCOC(=O)c3ccc(-c4c5nc(c(-c6cccc(S(=O)(=O)[O-])c6F)c6ccc([nH]6)c(-c6cccc(S(=O)(=O)[O-])c6F)c6nc(c(-c7cccc(S(=O)(=O)[O-])c7F)c7ccc4[nH]7)C=C6)C=C5)cc3)c2)c1
REMARK SMILES IDX 22 1 21 2 20 3 19 4 18 5 16 6 17 7 15 8 10 9 11 10 90 11
REMARK SMILES IDX 12 12 13 13 9 14 5 15 6 16 91 17 7 18 8 19 3 20 1 21 2 22
REMARK SMILES IDX 4 24 14 25 23 27 24 28 25 29 26 30 27 31 28 32 89 33 29 34
REMARK SMILES IDX 88 35 30 36 31 37 32 38 82 39 33 40 87 41 81 42 83 43 34 44
REMARK SMILES IDX 86 45 80 46 79 47 35 49 67 50 47 51 66 52 48 53 51 54 65 55
REMARK SMILES IDX 84 56 49 57 50 58 64 60 85 61 52 62 36 63 37 64 45 65 38 66
REMARK SMILES IDX 40 67 46 68 39 69 41 70 42 71 43 72 44 73 68 74 69 75 77 76
REMARK SMILES IDX 70 77 72 78 78 79 71 80 73 81 74 82 75 83 76 84 53 85 54 86
REMARK SMILES IDX 62 87 55 88 57 89 63 90 56 91 58 92 59 93 60 94 61 95
REMARK H PARENT 2 23 14 26 83 48 51 59
REMARK Flexibility Score: inf
ROOT
ATOM      1  C   UNL A   1      31.649  29.573  25.368  1.00  0.00     0.202 C 
ENDROOT
BRANCH   1   2
ATOM      2  O   UNL A   1      31.414  29.546  23.958  1.00  0.00    -0.374 OA
BRANCH   2   3
ATOM      3  C   UNL A   1      30.108  29.910  23.508  1.00  0.00     0.202 C 
BRANCH   3   4
ATOM      4  C   UNL A   1      29.313  28.821  22.779  1.00  0.00     0.261 C 
BRANCH   4   5
ATOM      5  O   UNL A   1      30.161  27.731  22.383  1.00  0.00    -0.459 OA
BRANCH   5   6
ATOM      6  C   UNL A   1      30.115  26.645  23.186  1.00  0.00     0.343 C 
ATOM      7  O   UNL A   1      29.166  26.259  23.854  1.00  0.00    -0.246 OA
BRANCH   6   8
ATOM      8  C   UNL A   1      31.317  25.816  23.011  1.00  0.00     0.122 A 
ATOM      9  C   UNL A   1      33.044  24.326  23.838  1.00  0.00     0.001 A 
ATOM     10  C   UNL A   1      33.560  24.346  22.540  1.00  0.00     0.124 A 
ATOM     11  C   UNL A   1      31.909  25.117  24.067  1.00  0.00     0.031 A 
ATOM     12  N   UNL A   1      33.034  25.046  21.505  1.00  0.00    -0.221 NA
ATOM     13  C   UNL A   1      31.913  25.750  21.756  1.00  0.00     0.225 A 
BRANCH   9  14
ATOM     14  C   UNL A   1      33.596  23.444  24.879  1.00  0.00    -0.016 A 
ATOM     15  C   UNL A   1      34.992  21.521  25.456  1.00  0.00     0.040 A 
ATOM     16  C   UNL A   1      34.802  21.786  26.814  1.00  0.00     0.014 A 
ATOM     17  C   UNL A   1      34.352  22.319  24.505  1.00  0.00     0.022 A 
ATOM     18  C   UNL A   1      34.027  22.875  27.211  1.00  0.00     0.001 A 
ATOM     19  C   UNL A   1      33.442  23.706  26.250  1.00  0.00     0.009 A 
BRANCH  15  20
ATOM     20  C   UNL A   1      35.820  20.353  25.071  1.00  0.00     0.251 C 
ATOM     21  C   UNL A   1      33.892  18.742  24.642  1.00  0.00     0.143 C 
ATOM     22  N   UNL A   1      35.265  19.111  24.890  1.00  0.00    -0.355 N 
ATOM     23  H   UNL A   1      35.900  18.360  24.936  1.00  0.00     0.163 HD
ATOM     24  O   UNL A   1      37.021  20.518  24.882  1.00  0.00    -0.269 OA
ENDBRANCH  15  20
ENDBRANCH   9  14
BRANCH  13  25
ATOM     25  O   UNL A   1      31.435  26.422  20.666  1.00  0.00    -0.493 OA
ATOM     26  H   UNL A   1      30.520  26.610  20.596  1.00  0.00     0.295 HD
ENDBRANCH  13  25
ENDBRANCH   6   8
ENDBRANCH   5   6
ENDBRANCH   4   5
ENDBRANCH   3   4
ENDBRANCH   2   3
ENDBRANCH   1   2
BRANCH   1  27
ATOM     27  C   UNL A   1      31.508  30.923  26.079  1.00  0.00     0.261 C 
BRANCH  27  28
ATOM     28  O   UNL A   1      32.260  30.968  27.303  1.00  0.00    -0.460 OA
BRANCH  28  29
ATOM     29  C   UNL A   1      33.030  32.070  27.463  1.00  0.00     0.338 C 
ATOM     30  O   UNL A   1      32.669  33.238  27.402  1.00  0.00    -0.246 OA
BRANCH  29  31
ATOM     31  C   UNL A   1      34.369  31.670  27.928  1.00  0.00     0.060 A 
ATOM     32  C   UNL A   1      34.552  30.344  28.347  1.00  0.00     0.016 A 
ATOM     33  C   UNL A   1      35.416  32.589  27.996  1.00  0.00     0.016 A 
ATOM     34  C   UNL A   1      35.776  29.943  28.880  1.00  0.00     0.010 A 
ATOM     35  C   UNL A   1      36.638  32.187  28.538  1.00  0.00     0.010 A 
ATOM     36  C   UNL A   1      36.812  30.873  29.012  1.00  0.00    -0.014 A 
BRANCH  36  37
ATOM     37  C   UNL A   1      38.038  30.542  29.774  1.00  0.00     0.031 A 
ATOM     38  C   UNL A   1      39.012  29.565  29.177  1.00  0.00     0.074 A 
ATOM     39  C   UNL A   1      38.244  31.050  31.002  1.00  0.00     0.049 A 
ATOM     40  N   UNL A   1      40.052  28.995  29.721  1.00  0.00    -0.248 NA
ATOM     41  C   UNL A   1      38.767  29.168  27.779  1.00  0.00     0.031 C 
ATOM     42  C   UNL A   1      37.380  32.019  31.671  1.00  0.00     0.029 A 
ATOM     43  N   UNL A   1      39.227  30.779  31.921  1.00  0.00    -0.354 N 
ATOM     44  C   UNL A   1      40.559  28.135  28.754  1.00  0.00     0.074 A 
ATOM     45  C   UNL A   1      39.714  28.260  27.588  1.00  0.00     0.031 C 
ATOM     46  C   UNL A   1      37.844  32.228  32.916  1.00  0.00     0.029 A 
ATOM     47  C   UNL A   1      39.010  31.378  33.140  1.00  0.00     0.049 A 
ATOM     48  H   UNL A   1      40.008  30.211  31.727  1.00  0.00     0.167 HD
ATOM     49  C   UNL A   1      41.634  27.317  28.833  1.00  0.00     0.034 A 
ATOM     50  C   UNL A   1      39.655  31.220  34.314  1.00  0.00     0.034 A 
ATOM     51  C   UNL A   1      42.478  27.213  29.992  1.00  0.00     0.049 A 
ATOM     52  C   UNL A   1      40.827  30.276  34.388  1.00  0.00     0.074 A 
ATOM     53  C   UNL A   1      43.620  26.451  30.158  1.00  0.00     0.029 A 
ATOM     54  N   UNL A   1      42.263  27.882  31.188  1.00  0.00    -0.354 N 
ATOM     55  N   UNL A   1      41.355  29.540  33.440  1.00  0.00    -0.248 NA
ATOM     56  C   UNL A   1      41.511  30.160  35.685  1.00  0.00     0.031 C 
ATOM     57  C   UNL A   1      44.077  26.634  31.466  1.00  0.00     0.029 A 
ATOM     58  C   UNL A   1      43.244  27.543  32.100  1.00  0.00     0.049 A 
ATOM     59  H   UNL A   1      41.520  28.505  31.361  1.00  0.00     0.167 HD
ATOM     60  C   UNL A   1      42.459  28.915  34.010  1.00  0.00     0.074 A 
ATOM     61  C   UNL A   1      42.526  29.360  35.386  1.00  0.00     0.031 C 
ATOM     62  C   UNL A   1      43.336  28.050  33.445  1.00  0.00     0.034 A 
BRANCH  49  63
ATOM     63  C   UNL A   1      41.965  26.473  27.631  1.00  0.00     0.023 A 
ATOM     64  C   UNL A   1      42.674  27.036  26.551  1.00  0.00     0.012 A 
ATOM     65  C   UNL A   1      41.623  25.106  27.596  1.00  0.00     0.148 A 
ATOM     66  C   UNL A   1      43.008  26.261  25.441  1.00  0.00     0.002 A 
ATOM     67  C   UNL A   1      42.000  24.329  26.508  1.00  0.00     0.091 A 
ATOM     68  F   UNL A   1      40.928  24.594  28.623  1.00  0.00    -0.205 F 
ATOM     69  C   UNL A   1      42.681  24.907  25.424  1.00  0.00     0.022 A 
BRANCH  67  70
ATOM     70  S   UNL A   1      41.697  22.561  26.430  1.00  0.00     0.127 S 
ATOM     71  O   UNL A   1      42.290  22.216  25.140  1.00  0.00    -0.237 OA
ATOM     72  O   UNL A   1      42.439  22.070  27.593  1.00  0.00    -0.237 OA
ATOM     73  O   UNL A   1      40.253  22.396  26.518  1.00  0.00    -0.744 OA
ENDBRANCH  67  70
ENDBRANCH  49  63
BRANCH  50  74
ATOM     74  C   UNL A   1      39.217  31.988  35.515  1.00  0.00     0.023 A 
ATOM     75  C   UNL A   1      39.546  33.353  35.623  1.00  0.00     0.012 A 
ATOM     76  C   UNL A   1      38.464  31.380  36.538  1.00  0.00     0.148 A 
ATOM     77  C   UNL A   1      39.158  34.092  36.742  1.00  0.00     0.002 A 
ATOM     78  C   UNL A   1      38.032  32.136  37.621  1.00  0.00     0.091 A 
ATOM     79  F   UNL A   1      38.172  30.077  36.420  1.00  0.00    -0.205 F 
ATOM     80  C   UNL A   1      38.395  33.487  37.735  1.00  0.00     0.022 A 
BRANCH  78  81
ATOM     81  S   UNL A   1      36.936  31.481  38.883  1.00  0.00     0.127 S 
ATOM     82  O   UNL A   1      37.729  31.675  40.096  1.00  0.00    -0.237 OA
ATOM     83  O   UNL A   1      35.774  32.362  38.758  1.00  0.00    -0.237 OA
ATOM     84  O   UNL A   1      36.690  30.099  38.502  1.00  0.00    -0.744 OA
ENDBRANCH  78  81
ENDBRANCH  50  74
BRANCH  62  85
ATOM     85  C   UNL A   1      44.501  27.576  34.273  1.00  0.00     0.023 A 
ATOM     86  C   UNL A   1      45.672  28.353  34.365  1.00  0.00     0.012 A 
ATOM     87  C   UNL A   1      44.379  26.412  35.058  1.00  0.00     0.148 A 
ATOM     88  C   UNL A   1      46.711  27.968  35.211  1.00  0.00     0.002 A 
ATOM     89  C   UNL A   1      45.395  26.062  35.938  1.00  0.00     0.091 A 
ATOM     90  F   UNL A   1      43.262  25.679  34.943  1.00  0.00    -0.205 F 
ATOM     91  C   UNL A   1      46.566  26.833  36.008  1.00  0.00     0.022 A 
BRANCH  89  92
ATOM     92  S   UNL A   1      45.253  24.680  37.077  1.00  0.00     0.127 S 
ATOM     93  O   UNL A   1      46.577  24.669  37.698  1.00  0.00    -0.237 OA
ATOM     94  O   UNL A   1      44.170  25.117  37.958  1.00  0.00    -0.237 OA
ATOM     95  O   UNL A   1      44.940  23.514  36.262  1.00  0.00    -0.744 OA
ENDBRANCH  89  92
ENDBRANCH  62  85
ENDBRANCH  36  37
ENDBRANCH  29  31
ENDBRANCH  28  29
ENDBRANCH  27  28
ENDBRANCH   1  27
TORSDOF 20
ENDMDL
MODEL 2
REMARK VINA RESULT:     -11.6      1.869      2.658
REMARK SMILES CNC(=O)c1cccc(-c2cnc(O)c(C(=O)OCCOCCOC(=O)c3ccc(-c4c5nc(c(-c6cccc(S(=O)(=O)[O-])c6F)c6ccc([nH]6)c(-c6cccc(S(=O)(=O)[O-])c6F)c6nc(c(-c7cccc(S(=O)(=O)[O-])c7F)c7ccc4[nH]7)C=C6)C=C5)cc3)c2)c1
REMARK SMILES IDX 22 1 21 2 20 3 19 4 18 5 16 6 17 7 15 8 10 9 11 10 90 11
REMARK SMILES IDX 12 12 13 13 9 14 5 15 6 16 91 17 7 18 8 19 3 20 1 21 2 22
REMARK SMILES IDX 4 24 14 25 23 27 24 28 25 29 26 30 27 31 28 32 89 33 29 34
REMARK SMILES IDX 88 35 30 36 31 37 32 38 82 39 33 40 87 41 81 42 83 43 34 44
REMARK SMILES IDX 86 45 80 46 79 47 35 49 67 50 47 51 66 52 48 53 51 54 65 55
REMARK SMILES IDX 84 56 49 57 50 58 64 60 85 61 52 62 36 63 37 64 45 65 38 66
REMARK SMILES IDX 40 67 46 68 39 69 41 70 42 71 43 72 44 73 68 74 69 75 77 76
REMARK SMILES IDX 70 77 72 78 78 79 71 80 73 81 74 82 75 83 76 84 53 85 54 86
REMARK SMILES IDX 62 87 55 88 57 89 63 90 56 91 58 92 59 93 60 94 61 95
REMARK H PARENT 2 23 14 26 83 48 51 59
REMARK Flexibility Score: inf
ROOT
ATOM      1  C   UNL A   1      31.213  29.626  24.856  1.00  0.00     0.202 C 
ENDROOT
BRANCH   1   2
ATOM      2  O   UNL A   1      31.081  28.443  24.064  1.00  0.00    -0.374 OA
BRANCH   2   3
ATOM      3  C   UNL A   1      30.634  27.261  24.728  1.00  0.00     0.202 C 
BRANCH   3   4
ATOM      4  C   UNL A   1      29.863  26.250  23.872  1.00  0.00     0.261 C 
BRANCH   4   5
ATOM      5  O   UNL A   1      30.318  24.909  24.111  1.00  0.00    -0.459 OA
BRANCH   5   6
ATOM      6  C   UNL A   1      31.533  24.613  23.598  1.00  0.00     0.343 C 
ATOM      7  O   UNL A   1      32.160  25.253  22.767  1.00  0.00    -0.246 OA
BRANCH   6   8
ATOM      8  C   UNL A   1      32.148  23.493  24.327  1.00  0.00     0.122 A 
ATOM      9  C   UNL A   1      32.740  21.154  24.577  1.00  0.00     0.001 A 
ATOM     10  C   UNL A   1      33.303  21.518  25.803  1.00  0.00     0.124 A 
ATOM     11  C   UNL A   1      32.121  22.180  23.850  1.00  0.00     0.031 A 
ATOM     12  N   UNL A   1      33.309  22.774  26.313  1.00  0.00    -0.221 NA
ATOM     13  C   UNL A   1      32.751  23.739  25.557  1.00  0.00     0.225 A 
BRANCH   9  14
ATOM     14  C   UNL A   1      32.882  19.794  24.032  1.00  0.00    -0.016 A 
ATOM     15  C   UNL A   1      33.608  17.482  24.360  1.00  0.00     0.040 A 
ATOM     16  C   UNL A   1      33.073  17.134  23.118  1.00  0.00     0.014 A 
ATOM     17  C   UNL A   1      33.551  18.812  24.784  1.00  0.00     0.022 A 
ATOM     18  C   UNL A   1      32.435  18.097  22.338  1.00  0.00     0.001 A 
ATOM     19  C   UNL A   1      32.327  19.414  22.799  1.00  0.00     0.009 A 
BRANCH  15  20
ATOM     20  C   UNL A   1      34.281  16.432  25.162  1.00  0.00     0.251 C 
ATOM     21  C   UNL A   1      32.183  15.108  25.748  1.00  0.00     0.143 C 
ATOM     22  N   UNL A   1      33.562  15.513  25.885  1.00  0.00    -0.355 N 
ATOM     23  H   UNL A   1      34.062  15.064  26.604  1.00  0.00     0.163 HD
ATOM     24  O   UNL A   1      35.506  16.373  25.148  1.00  0.00    -0.269 OA
ENDBRANCH  15  20
ENDBRANCH   9  14
BRANCH  13  25
ATOM     25  O   UNL A   1      32.801  24.979  26.129  1.00  0.00    -0.493 OA
ATOM     26  H   UNL A   1      32.470  25.723  25.664  1.00  0.00     0.295 HD
ENDBRANCH  13  25
ENDBRANCH   6   8
ENDBRANCH   5   6
ENDBRANCH   4   5
ENDBRANCH   3   4
ENDBRANCH   2   3
ENDBRANCH   1   2
BRANCH   1  27
ATOM     27  C   UNL A   1      32.591  29.919  25.460  1.00  0.00     0.261 C 
BRANCH  27  28
ATOM     28  O   UNL A   1      32.507  30.259  26.853  1.00  0.00    -0.460 OA
BRANCH  28  29
ATOM     29  C   UNL A   1      33.119  31.415  27.199  1.00  0.00     0.338 C 
ATOM     30  O   UNL A   1      32.613  32.528  27.264  1.00  0.00    -0.246 OA
BRANCH  29  31
ATOM     31  C   UNL A   1      34.475  31.124  27.694  1.00  0.00     0.060 A 
ATOM     32  C   UNL A   1      34.785  29.798  28.027  1.00  0.00     0.016 A 
ATOM     33  C   UNL A   1      35.415  32.140  27.872  1.00  0.00     0.016 A 
ATOM     34  C   UNL A   1      36.024  29.487  28.584  1.00  0.00     0.010 A 
ATOM     35  C   UNL A   1      36.652  31.829  28.438  1.00  0.00     0.010 A 
ATOM     36  C   UNL A   1      36.949  30.509  28.827  1.00  0.00    -0.014 A 
BRANCH  36  37
ATOM     37  C   UNL A   1      38.175  30.251  29.616  1.00  0.00     0.031 A 
ATOM     38  C   UNL A   1      39.180  29.271  29.082  1.00  0.00     0.074 A 
ATOM     39  C   UNL A   1      38.354  30.830  30.817  1.00  0.00     0.049 A 
ATOM     40  N   UNL A   1      40.230  28.759  29.666  1.00  0.00    -0.248 NA
ATOM     41  C   UNL A   1      38.962  28.793  27.706  1.00  0.00     0.031 C 
ATOM     42  C   UNL A   1      37.458  31.810  31.425  1.00  0.00     0.029 A 
ATOM     43  N   UNL A   1      39.334  30.635  31.759  1.00  0.00    -0.354 N 
ATOM     44  C   UNL A   1      40.769  27.863  28.752  1.00  0.00     0.074 A 
ATOM     45  C   UNL A   1      39.934  27.903  27.572  1.00  0.00     0.031 C 
ATOM     46  C   UNL A   1      37.902  32.098  32.661  1.00  0.00     0.029 A 
ATOM     47  C   UNL A   1      39.088  31.292  32.942  1.00  0.00     0.049 A 
ATOM     48  H   UNL A   1      40.131  30.079  31.604  1.00  0.00     0.167 HD
ATOM     49  C   UNL A   1      41.865  27.079  28.885  1.00  0.00     0.034 A 
ATOM     50  C   UNL A   1      39.724  31.215  34.129  1.00  0.00     0.034 A 
ATOM     51  C   UNL A   1      42.699  27.060  30.055  1.00  0.00     0.049 A 
ATOM     52  C   UNL A   1      40.920  30.308  34.264  1.00  0.00     0.074 A 
ATOM     53  C   UNL A   1      43.859  26.339  30.273  1.00  0.00     0.029 A 
ATOM     54  N   UNL A   1      42.452  27.785  31.211  1.00  0.00    -0.354 N 
ATOM     55  N   UNL A   1      41.477  29.536  33.362  1.00  0.00    -0.248 NA
ATOM     56  C   UNL A   1      41.592  30.280  35.573  1.00  0.00     0.031 C 
ATOM     57  C   UNL A   1      44.296  26.603  31.574  1.00  0.00     0.029 A 
ATOM     58  C   UNL A   1      43.433  27.522  32.150  1.00  0.00     0.049 A 
ATOM     59  H   UNL A   1      41.692  28.397  31.344  1.00  0.00     0.167 HD
ATOM     60  C   UNL A   1      42.591  28.973  33.976  1.00  0.00     0.074 A 
ATOM     61  C   UNL A   1      42.631  29.492  35.327  1.00  0.00     0.031 C 
ATOM     62  C   UNL A   1      43.497  28.103  33.466  1.00  0.00     0.034 A 
BRANCH  49  63
ATOM     63  C   UNL A   1      42.231  26.181  27.733  1.00  0.00     0.023 A 
ATOM     64  C   UNL A   1      43.102  26.648  26.728  1.00  0.00     0.012 A 
ATOM     65  C   UNL A   1      41.757  24.855  27.676  1.00  0.00     0.148 A 
ATOM     66  C   UNL A   1      43.469  25.820  25.667  1.00  0.00     0.002 A 
ATOM     67  C   UNL A   1      42.164  24.021  26.642  1.00  0.00     0.091 A 
ATOM     68  F   UNL A   1      40.912  24.437  28.630  1.00  0.00    -0.205 F 
ATOM     69  C   UNL A   1      43.009  24.506  25.630  1.00  0.00     0.022 A 
BRANCH  67  70
ATOM     70  S   UNL A   1      41.693  22.291  26.551  1.00  0.00     0.127 S 
ATOM     71  O   UNL A   1      42.371  21.865  25.329  1.00  0.00    -0.237 OA
ATOM     72  O   UNL A   1      42.266  21.751  27.785  1.00  0.00    -0.237 OA
ATOM     73  O   UNL A   1      40.238  22.272  26.498  1.00  0.00    -0.744 OA
ENDBRANCH  67  70
ENDBRANCH  49  63
BRANCH  50  74
ATOM     74  C   UNL A   1      39.253  32.034  35.282  1.00  0.00     0.023 A 
ATOM     75  C   UNL A   1      38.309  31.495  36.178  1.00  0.00     0.012 A 
ATOM     76  C   UNL A   1      39.748  33.334  35.507  1.00  0.00     0.148 A 
ATOM     77  C   UNL A   1      37.844  32.246  37.258  1.00  0.00     0.002 A 
ATOM     78  C   UNL A   1      39.322  34.053  36.617  1.00  0.00     0.091 A 
ATOM     79  F   UNL A   1      40.637  33.831  34.636  1.00  0.00    -0.205 F 
ATOM     80  C   UNL A   1      38.356  33.519  37.483  1.00  0.00     0.022 A 
BRANCH  78  81
ATOM     81  S   UNL A   1      40.020  35.646  37.063  1.00  0.00     0.127 S 
ATOM     82  O   UNL A   1      39.649  36.468  35.913  1.00  0.00    -0.237 OA
ATOM     83  O   UNL A   1      39.299  35.953  38.299  1.00  0.00    -0.237 OA
ATOM     84  O   UNL A   1      41.445  35.409  37.239  1.00  0.00    -0.744 OA
ENDBRANCH  78  81
ENDBRANCH  50  74
BRANCH  62  85
ATOM     85  C   UNL A   1      44.665  27.706  34.330  1.00  0.00     0.023 A 
ATOM     86  C   UNL A   1      45.856  28.456  34.306  1.00  0.00     0.012 A 
ATOM     87  C   UNL A   1      44.528  26.652  35.257  1.00  0.00     0.148 A 
ATOM     88  C   UNL A   1      46.900  28.152  35.178  1.00  0.00     0.002 A 
ATOM     89  C   UNL A   1      45.551  26.389  36.158  1.00  0.00     0.091 A 
ATOM     90  F   UNL A   1      43.391  25.941  35.251  1.00  0.00    -0.205 F 
ATOM     91  C   UNL A   1      46.742  27.130  36.113  1.00  0.00     0.022 A 
BRANCH  89  92
ATOM     92  S   UNL A   1      45.396  25.164  37.464  1.00  0.00     0.127 S 
ATOM     93  O   UNL A   1      44.175  25.603  38.139  1.00  0.00    -0.237 OA
ATOM     94  O   UNL A   1      45.262  23.921  36.706  1.00  0.00    -0.237 OA
ATOM     95  O   UNL A   1      46.614  25.263  38.257  1.00  0.00    -0.744 OA
ENDBRANCH  89  92
ENDBRANCH  62  85
ENDBRANCH  36  37
ENDBRANCH  29  31
ENDBRANCH  28  29
ENDBRANCH  27  28
ENDBRANCH   1  27
TORSDOF 20
ENDMDL
MODEL 3
REMARK VINA RESULT:     -11.6      5.291      8.626
REMARK SMILES CNC(=O)c1cccc(-c2cnc(O)c(C(=O)OCCOCCOC(=O)c3ccc(-c4c5nc(c(-c6cccc(S(=O)(=O)[O-])c6F)c6ccc([nH]6)c(-c6cccc(S(=O)(=O)[O-])c6F)c6nc(c(-c7cccc(S(=O)(=O)[O-])c7F)c7ccc4[nH]7)C=C6)C=C5)cc3)c2)c1
REMARK SMILES IDX 22 1 21 2 20 3 19 4 18 5 16 6 17 7 15 8 10 9 11 10 90 11
REMARK SMILES IDX 12 12 13 13 9 14 5 15 6 16 91 17 7 18 8 19 3 20 1 21 2 22
REMARK SMILES IDX 4 24 14 25 23 27 24 28 25 29 26 30 27 31 28 32 89 33 29 34
REMARK SMILES IDX 88 35 30 36 31 37 32 38 82 39 33 40 87 41 81 42 83 43 34 44
REMARK SMILES IDX 86 45 80 46 79 47 35 49 67 50 47 51 66 52 48 53 51 54 65 55
REMARK SMILES IDX 84 56 49 57 50 58 64 60 85 61 52 62 36 63 37 64 45 65 38 66
REMARK SMILES IDX 40 67 46 68 39 69 41 70 42 71 43 72 44 73 68 74 69 75 77 76
REMARK SMILES IDX 70 77 72 78 78 79 71 80 73 81 74 82 75 83 76 84 53 85 54 86
REMARK SMILES IDX 62 87 55 88 57 89 63 90 56 91 58 92 59 93 60 94 61 95
REMARK H PARENT 2 23 14 26 83 48 51 59
REMARK Flexibility Score: inf
ROOT
ATOM      1  C   UNL A   1      37.595  19.765  24.628  1.00  0.00     0.202 C 
ENDROOT
BRANCH   1   2
ATOM      2  O   UNL A   1      36.624  20.571  25.301  1.00  0.00    -0.374 OA
BRANCH   2   3
ATOM      3  C   UNL A   1      36.269  21.811  24.687  1.00  0.00     0.202 C 
BRANCH   3   4
ATOM      4  C   UNL A   1      34.995  22.486  25.206  1.00  0.00     0.261 C 
BRANCH   4   5
ATOM      5  O   UNL A   1      33.822  21.750  24.824  1.00  0.00    -0.459 OA
BRANCH   5   6
ATOM      6  C   UNL A   1      32.995  22.390  23.968  1.00  0.00     0.343 C 
ATOM      7  O   UNL A   1      32.838  22.157  22.778  1.00  0.00    -0.246 OA
BRANCH   6   8
ATOM      8  C   UNL A   1      32.106  23.311  24.693  1.00  0.00     0.122 A 
ATOM      9  C   UNL A   1      31.283  25.528  25.235  1.00  0.00     0.001 A 
ATOM     10  C   UNL A   1      30.415  24.892  26.126  1.00  0.00     0.124 A 
ATOM     11  C   UNL A   1      32.168  24.698  24.533  1.00  0.00     0.031 A 
ATOM     12  N   UNL A   1      30.358  23.554  26.335  1.00  0.00    -0.221 NA
ATOM     13  C   UNL A   1      31.189  22.790  25.600  1.00  0.00     0.225 A 
BRANCH   9  14
ATOM     14  C   UNL A   1      31.200  26.974  24.970  1.00  0.00    -0.016 A 
ATOM     15  C   UNL A   1      30.343  28.792  23.578  1.00  0.00     0.040 A 
ATOM     16  C   UNL A   1      30.880  29.728  24.464  1.00  0.00     0.014 A 
ATOM     17  C   UNL A   1      30.547  27.431  23.812  1.00  0.00     0.022 A 
ATOM     18  C   UNL A   1      31.563  29.301  25.603  1.00  0.00     0.001 A 
ATOM     19  C   UNL A   1      31.708  27.934  25.861  1.00  0.00     0.009 A 
BRANCH  15  20
ATOM     20  C   UNL A   1      29.625  29.283  22.377  1.00  0.00     0.251 C 
ATOM     21  C   UNL A   1      27.277  29.182  23.365  1.00  0.00     0.143 C 
ATOM     22  N   UNL A   1      28.254  29.265  22.306  1.00  0.00    -0.355 N 
ATOM     23  H   UNL A   1      27.883  29.316  21.396  1.00  0.00     0.163 HD
ATOM     24  O   UNL A   1      30.278  29.741  21.446  1.00  0.00    -0.269 OA
ENDBRANCH  15  20
ENDBRANCH   9  14
BRANCH  13  25
ATOM     25  O   UNL A   1      31.071  21.452  25.856  1.00  0.00    -0.493 OA
ATOM     26  H   UNL A   1      31.019  21.148  26.741  1.00  0.00     0.295 HD
ENDBRANCH  13  25
ENDBRANCH   6   8
ENDBRANCH   5   6
ENDBRANCH   4   5
ENDBRANCH   3   4
ENDBRANCH   2   3
ENDBRANCH   1   2
BRANCH   1  27
ATOM     27  C   UNL A   1      38.899  19.464  25.375  1.00  0.00     0.261 C 
BRANCH  27  28
ATOM     28  O   UNL A   1      39.109  20.364  26.475  1.00  0.00    -0.460 OA
BRANCH  28  29
ATOM     29  C   UNL A   1      40.403  20.541  26.832  1.00  0.00     0.338 C 
ATOM     30  O   UNL A   1      41.315  19.731  26.729  1.00  0.00    -0.246 OA
BRANCH  29  31
ATOM     31  C   UNL A   1      40.623  21.951  27.196  1.00  0.00     0.060 A 
ATOM     32  C   UNL A   1      39.868  22.929  26.532  1.00  0.00     0.016 A 
ATOM     33  C   UNL A   1      41.586  22.314  28.138  1.00  0.00     0.016 A 
ATOM     34  C   UNL A   1      40.104  24.280  26.777  1.00  0.00     0.010 A 
ATOM     35  C   UNL A   1      41.828  23.668  28.374  1.00  0.00     0.010 A 
ATOM     36  C   UNL A   1      41.112  24.656  27.672  1.00  0.00    -0.014 A 
BRANCH  36  37
ATOM     37  C   UNL A   1      41.539  26.069  27.786  1.00  0.00     0.031 A 
ATOM     38  C   UNL A   1      42.913  26.444  27.307  1.00  0.00     0.074 A 
ATOM     39  C   UNL A   1      40.742  26.984  28.366  1.00  0.00     0.049 A 
ATOM     40  N   UNL A   1      43.566  27.564  27.459  1.00  0.00    -0.248 NA
ATOM     41  C   UNL A   1      43.655  25.408  26.569  1.00  0.00     0.031 C 
ATOM     42  C   UNL A   1      39.385  26.739  28.848  1.00  0.00     0.029 A 
ATOM     43  N   UNL A   1      40.986  28.296  28.690  1.00  0.00    -0.354 N 
ATOM     44  C   UNL A   1      44.812  27.355  26.883  1.00  0.00     0.074 A 
ATOM     45  C   UNL A   1      44.824  26.002  26.374  1.00  0.00     0.031 C 
ATOM     46  C   UNL A   1      38.930  27.852  29.450  1.00  0.00     0.029 A 
ATOM     47  C   UNL A   1      39.978  28.869  29.430  1.00  0.00     0.049 A 
ATOM     48  H   UNL A   1      41.801  28.778  28.420  1.00  0.00     0.167 HD
ATOM     49  C   UNL A   1      45.852  28.216  26.785  1.00  0.00     0.034 A 
ATOM     50  C   UNL A   1      39.930  30.062  30.057  1.00  0.00     0.034 A 
ATOM     51  C   UNL A   1      45.823  29.566  27.278  1.00  0.00     0.049 A 
ATOM     52  C   UNL A   1      41.113  30.990  29.965  1.00  0.00     0.074 A 
ATOM     53  C   UNL A   1      46.805  30.535  27.186  1.00  0.00     0.029 A 
ATOM     54  N   UNL A   1      44.762  30.131  27.969  1.00  0.00    -0.354 N 
ATOM     55  N   UNL A   1      42.251  30.816  29.336  1.00  0.00    -0.248 NA
ATOM     56  C   UNL A   1      40.999  32.289  30.645  1.00  0.00     0.031 C 
ATOM     57  C   UNL A   1      46.350  31.677  27.851  1.00  0.00     0.029 A 
ATOM     58  C   UNL A   1      45.068  31.433  28.319  1.00  0.00     0.049 A 
ATOM     59  H   UNL A   1      43.916  29.673  28.179  1.00  0.00     0.167 HD
ATOM     60  C   UNL A   1      42.963  31.999  29.500  1.00  0.00     0.074 A 
ATOM     61  C   UNL A   1      42.130  32.883  30.288  1.00  0.00     0.031 C 
ATOM     62  C   UNL A   1      44.197  32.323  29.042  1.00  0.00     0.034 A 
BRANCH  49  63
ATOM     63  C   UNL A   1      47.108  27.728  26.113  1.00  0.00     0.023 A 
ATOM     64  C   UNL A   1      48.086  27.045  26.863  1.00  0.00     0.012 A 
ATOM     65  C   UNL A   1      47.293  27.896  24.726  1.00  0.00     0.148 A 
ATOM     66  C   UNL A   1      49.244  26.567  26.251  1.00  0.00     0.002 A 
ATOM     67  C   UNL A   1      48.427  27.376  24.114  1.00  0.00     0.091 A 
ATOM     68  F   UNL A   1      46.362  28.568  24.033  1.00  0.00    -0.205 F 
ATOM     69  C   UNL A   1      49.409  26.723  24.876  1.00  0.00     0.022 A 
BRANCH  67  70
ATOM     70  S   UNL A   1      48.690  27.453  22.340  1.00  0.00     0.127 S 
ATOM     71  O   UNL A   1      48.653  26.038  21.974  1.00  0.00    -0.237 OA
ATOM     72  O   UNL A   1      47.534  28.230  21.891  1.00  0.00    -0.237 OA
ATOM     73  O   UNL A   1      49.975  28.113  22.152  1.00  0.00    -0.744 OA
ENDBRANCH  67  70
ENDBRANCH  49  63
BRANCH  50  74
ATOM     74  C   UNL A   1      38.708  30.457  30.815  1.00  0.00     0.023 A 
ATOM     75  C   UNL A   1      38.598  30.120  32.178  1.00  0.00     0.012 A 
ATOM     76  C   UNL A   1      37.666  31.178  30.200  1.00  0.00     0.148 A 
ATOM     77  C   UNL A   1      37.459  30.467  32.907  1.00  0.00     0.002 A 
ATOM     78  C   UNL A   1      36.562  31.571  30.947  1.00  0.00     0.091 A 
ATOM     79  F   UNL A   1      37.787  31.478  28.899  1.00  0.00    -0.205 F 
ATOM     80  C   UNL A   1      36.447  31.200  32.295  1.00  0.00     0.022 A 
BRANCH  78  81
ATOM     81  S   UNL A   1      35.270  32.627  30.283  1.00  0.00     0.127 S 
ATOM     82  O   UNL A   1      34.744  31.805  29.194  1.00  0.00    -0.237 OA
ATOM     83  O   UNL A   1      34.379  32.769  31.435  1.00  0.00    -0.237 OA
ATOM     84  O   UNL A   1      35.941  33.854  29.883  1.00  0.00    -0.744 OA
ENDBRANCH  78  81
ENDBRANCH  50  74
BRANCH  62  85
ATOM     85  C   UNL A   1      44.709  33.716  29.301  1.00  0.00     0.023 A 
ATOM     86  C   UNL A   1      45.444  33.999  30.467  1.00  0.00     0.012 A 
ATOM     87  C   UNL A   1      44.559  34.714  28.316  1.00  0.00     0.148 A 
ATOM     88  C   UNL A   1      46.006  35.261  30.660  1.00  0.00     0.002 A 
ATOM     89  C   UNL A   1      45.165  35.951  28.490  1.00  0.00     0.091 A 
ATOM     90  F   UNL A   1      43.841  34.427  27.221  1.00  0.00    -0.205 F 
ATOM     91  C   UNL A   1      45.881  36.230  29.666  1.00  0.00     0.022 A 
BRANCH  89  92
ATOM     92  S   UNL A   1      45.147  37.223  27.221  1.00  0.00     0.127 S 
ATOM     93  O   UNL A   1      43.726  37.279  26.876  1.00  0.00    -0.237 OA
ATOM     94  O   UNL A   1      45.645  38.390  27.947  1.00  0.00    -0.237 OA
ATOM     95  O   UNL A   1      46.024  36.747  26.159  1.00  0.00    -0.744 OA
ENDBRANCH  89  92
ENDBRANCH  62  85
ENDBRANCH  36  37
ENDBRANCH  29  31
ENDBRANCH  28  29
ENDBRANCH  27  28
ENDBRANCH   1  27
TORSDOF 20
ENDMDL
