MODEL 1
REMARK VINA RESULT:     -11.8      0.000      0.000
REMARK SMILES COc1ccc(S(=O)(=O)N2CCC[C@H](C(=O)N3CCC[C@H](C(=O)OCCOCCOC(=O)c4ccc(-c5c6nc(c(-c7cccc(S(=O)(=O)[O-])c7F)c7ccc([nH]7)c(-c7cccc(S(=O)(=O)[O-])c7F)c7nc(c(-c8cccc(S(=O)(=O)[O-])c8F)c8ccc5[nH]8)C=C7)C=C6)cc4)C3)C2)cc1
REMARK SMILES IDX 26 1 25 2 24 3 22 4 23 5 21 6 17 7 18 8 96 9 19 10 20 11
REMARK SMILES IDX 15 12 16 13 14 14 10 15 11 16 97 17 12 18 13 19 7 20 8 21
REMARK SMILES IDX 9 22 6 23 3 24 4 25 99 26 5 27 98 28 2 29 1 30 27 31 28 32
REMARK SMILES IDX 29 33 30 34 31 35 32 36 33 37 34 38 95 39 35 40 94 41 36 42
REMARK SMILES IDX 37 43 38 44 88 45 39 46 93 47 87 48 89 49 40 50 92 51 86 52
REMARK SMILES IDX 85 53 41 55 73 56 53 57 72 58 54 59 57 60 71 61 90 62 55 63
REMARK SMILES IDX 56 64 70 66 91 67 58 68 42 69 43 70 51 71 44 72 46 73 52 74
REMARK SMILES IDX 45 75 47 76 48 77 49 78 50 79 74 80 75 81 83 82 76 83 78 84
REMARK SMILES IDX 84 85 77 86 79 87 80 88 81 89 82 90 59 91 60 92 68 93 61 94
REMARK SMILES IDX 63 95 69 96 62 97 64 98 65 99 66 100 67 101
REMARK H PARENT 89 54 57 65
REMARK Flexibility Score: inf
ROOT
ATOM      1  C   UNL A   1      36.930  23.249  24.495  1.00  0.00     0.202 C 
ENDROOT
BRANCH   1   2
ATOM      2  C   UNL A   1      36.677  23.273  26.003  1.00  0.00     0.261 C 
BRANCH   2   3
ATOM      3  O   UNL A   1      35.287  23.506  26.277  1.00  0.00    -0.463 OA
BRANCH   3   4
ATOM      4  C   UNL A   1      34.441  22.463  26.113  1.00  0.00     0.310 C 
ATOM      5  O   UNL A   1      34.265  21.560  26.925  1.00  0.00    -0.252 OA
BRANCH   4   6
ATOM      6  C   UNL A   1      33.726  22.489  24.774  1.00  0.00     0.119 C 
ATOM      7  N   UNL A   1      31.976  24.117  25.331  1.00  0.00    -0.342 N 
ATOM      8  C   UNL A   1      30.887  23.198  25.027  1.00  0.00     0.119 C 
ATOM      9  C   UNL A   1      33.187  23.899  24.558  1.00  0.00     0.134 C 
ATOM     10  C   UNL A   1      31.306  21.748  25.228  1.00  0.00     0.022 C 
ATOM     11  C   UNL A   1      32.636  21.434  24.537  1.00  0.00     0.019 C 
BRANCH   7  12
ATOM     12  C   UNL A   1      31.958  24.778  26.545  1.00  0.00     0.227 C 
ATOM     13  O   UNL A   1      31.869  24.154  27.605  1.00  0.00    -0.275 OA
BRANCH  12  14
ATOM     14  C   UNL A   1      31.931  26.310  26.565  1.00  0.00     0.094 C 
ATOM     15  N   UNL A   1      31.188  26.926  24.270  1.00  0.00    -0.197 NA
ATOM     16  C   UNL A   1      32.522  27.406  23.887  1.00  0.00     0.102 C 
ATOM     17  C   UNL A   1      30.806  26.848  25.693  1.00  0.00     0.116 C 
ATOM     18  C   UNL A   1      33.433  27.778  25.050  1.00  0.00     0.018 C 
ATOM     19  C   UNL A   1      33.251  27.041  26.377  1.00  0.00     0.016 C 
BRANCH  15  20
ATOM     20  S   UNL A   1      29.950  27.085  23.118  1.00  0.00     0.243 S 
ATOM     21  O   UNL A   1      28.850  26.224  23.488  1.00  0.00    -0.207 OA
ATOM     22  O   UNL A   1      30.579  26.988  21.816  1.00  0.00    -0.207 OA
BRANCH  20  23
ATOM     23  C   UNL A   1      29.370  28.764  23.254  1.00  0.00     0.082 A 
ATOM     24  C   UNL A   1      28.484  31.410  23.146  1.00  0.00     0.118 A 
ATOM     25  C   UNL A   1      27.667  30.380  22.677  1.00  0.00     0.048 A 
ATOM     26  C   UNL A   1      29.710  31.109  23.737  1.00  0.00     0.048 A 
ATOM     27  C   UNL A   1      28.112  29.055  22.719  1.00  0.00     0.025 A 
ATOM     28  C   UNL A   1      30.155  29.789  23.788  1.00  0.00     0.025 A 
BRANCH  24  29
ATOM     29  O   UNL A   1      27.995  32.681  23.001  1.00  0.00    -0.497 OA
ATOM     30  C   UNL A   1      28.950  33.706  23.259  1.00  0.00     0.278 C 
ENDBRANCH  24  29
ENDBRANCH  20  23
ENDBRANCH  15  20
ENDBRANCH  12  14
ENDBRANCH   7  12
ENDBRANCH   4   6
ENDBRANCH   3   4
ENDBRANCH   2   3
ENDBRANCH   1   2
BRANCH   1  31
ATOM     31  O   UNL A   1      37.211  21.965  23.930  1.00  0.00    -0.374 OA
BRANCH  31  32
ATOM     32  C   UNL A   1      37.189  20.839  24.805  1.00  0.00     0.202 C 
BRANCH  32  33
ATOM     33  C   UNL A   1      38.514  20.090  25.003  1.00  0.00     0.261 C 
BRANCH  33  34
ATOM     34  O   UNL A   1      39.040  20.218  26.336  1.00  0.00    -0.460 OA
BRANCH  34  35
ATOM     35  C   UNL A   1      40.357  20.542  26.389  1.00  0.00     0.338 C 
ATOM     36  O   UNL A   1      41.284  19.920  25.893  1.00  0.00    -0.246 OA
BRANCH  35  37
ATOM     37  C   UNL A   1      40.554  21.865  27.012  1.00  0.00     0.060 A 
ATOM     38  C   UNL A   1      39.975  22.966  26.369  1.00  0.00     0.016 A 
ATOM     39  C   UNL A   1      41.386  22.046  28.119  1.00  0.00     0.016 A 
ATOM     40  C   UNL A   1      40.278  24.259  26.790  1.00  0.00     0.010 A 
ATOM     41  C   UNL A   1      41.693  23.348  28.537  1.00  0.00     0.010 A 
ATOM     42  C   UNL A   1      41.176  24.459  27.847  1.00  0.00    -0.014 A 
BRANCH  42  43
ATOM     43  C   UNL A   1      41.683  25.828  28.115  1.00  0.00     0.031 A 
ATOM     44  C   UNL A   1      43.056  26.209  27.627  1.00  0.00     0.074 A 
ATOM     45  C   UNL A   1      40.920  26.733  28.753  1.00  0.00     0.049 A 
ATOM     46  N   UNL A   1      43.680  27.354  27.722  1.00  0.00    -0.248 NA
ATOM     47  C   UNL A   1      43.826  25.162  26.934  1.00  0.00     0.031 C 
ATOM     48  C   UNL A   1      39.573  26.488  29.265  1.00  0.00     0.029 A 
ATOM     49  N   UNL A   1      41.178  28.038  29.088  1.00  0.00    -0.354 N 
ATOM     50  C   UNL A   1      44.918  27.163  27.121  1.00  0.00     0.074 A 
ATOM     51  C   UNL A   1      44.965  25.787  26.675  1.00  0.00     0.031 C 
ATOM     52  C   UNL A   1      39.126  27.606  29.866  1.00  0.00     0.029 A 
ATOM     53  C   UNL A   1      40.160  28.638  29.792  1.00  0.00     0.049 A 
ATOM     54  H   UNL A   1      42.011  28.502  28.845  1.00  0.00     0.167 HD
ATOM     55  C   UNL A   1      45.919  28.056  26.933  1.00  0.00     0.034 A 
ATOM     56  C   UNL A   1      40.078  29.874  30.324  1.00  0.00     0.034 A 
ATOM     57  C   UNL A   1      45.865  29.430  27.353  1.00  0.00     0.049 A 
ATOM     58  C   UNL A   1      41.217  30.840  30.124  1.00  0.00     0.074 A 
ATOM     59  C   UNL A   1      46.816  30.421  27.176  1.00  0.00     0.029 A 
ATOM     60  N   UNL A   1      44.809  30.007  28.038  1.00  0.00    -0.354 N 
ATOM     61  N   UNL A   1      42.330  30.680  29.448  1.00  0.00    -0.248 NA
ATOM     62  C   UNL A   1      41.076  32.172  30.735  1.00  0.00     0.031 C 
ATOM     63  C   UNL A   1      46.336  31.596  27.767  1.00  0.00     0.029 A 
ATOM     64  C   UNL A   1      45.083  31.338  28.300  1.00  0.00     0.049 A 
ATOM     65  H   UNL A   1      43.983  29.540  28.299  1.00  0.00     0.167 HD
ATOM     66  C   UNL A   1      43.003  31.895  29.523  1.00  0.00     0.074 A 
ATOM     67  C   UNL A   1      42.164  32.790  30.295  1.00  0.00     0.031 C 
ATOM     68  C   UNL A   1      44.213  32.236  29.014  1.00  0.00     0.034 A 
BRANCH  55  69
ATOM     69  C   UNL A   1      47.145  27.586  26.198  1.00  0.00     0.023 A 
ATOM     70  C   UNL A   1      48.130  26.858  26.897  1.00  0.00     0.012 A 
ATOM     71  C   UNL A   1      47.299  27.811  24.816  1.00  0.00     0.148 A 
ATOM     72  C   UNL A   1      49.261  26.380  26.237  1.00  0.00     0.002 A 
ATOM     73  C   UNL A   1      48.413  27.302  24.158  1.00  0.00     0.091 A 
ATOM     74  F   UNL A   1      46.365  28.528  24.176  1.00  0.00    -0.205 F 
ATOM     75  C   UNL A   1      49.398  26.594  24.868  1.00  0.00     0.022 A 
BRANCH  73  76
ATOM     76  S   UNL A   1      48.645  27.469  22.384  1.00  0.00     0.127 S 
ATOM     77  O   UNL A   1      48.793  26.074  21.974  1.00  0.00    -0.237 OA
ATOM     78  O   UNL A   1      47.393  28.098  21.963  1.00  0.00    -0.237 OA
ATOM     79  O   UNL A   1      49.828  28.303  22.215  1.00  0.00    -0.744 OA
ENDBRANCH  73  76
ENDBRANCH  55  69
BRANCH  56  80
ATOM     80  C   UNL A   1      38.843  30.291  31.048  1.00  0.00     0.023 A 
ATOM     81  C   UNL A   1      38.644  29.861  32.374  1.00  0.00     0.012 A 
ATOM     82  C   UNL A   1      37.880  31.120  30.442  1.00  0.00     0.148 A 
ATOM     83  C   UNL A   1      37.496  30.231  33.077  1.00  0.00     0.002 A 
ATOM     84  C   UNL A   1      36.765  31.527  31.165  1.00  0.00     0.091 A 
ATOM     85  F   UNL A   1      38.076  31.498  29.172  1.00  0.00    -0.205 F 
ATOM     86  C   UNL A   1      36.564  31.072  32.477  1.00  0.00     0.022 A 
BRANCH  84  87
ATOM     87  S   UNL A   1      35.572  32.704  30.516  1.00  0.00     0.127 S 
ATOM     88  O   UNL A   1      35.469  32.286  29.120  1.00  0.00    -0.237 OA
ATOM     89  O   UNL A   1      34.390  32.422  31.332  1.00  0.00    -0.237 OA
ATOM     90  O   UNL A   1      36.157  34.019  30.743  1.00  0.00    -0.744 OA
ENDBRANCH  84  87
ENDBRANCH  56  80
BRANCH  68  91
ATOM     91  C   UNL A   1      44.704  33.640  29.247  1.00  0.00     0.023 A 
ATOM     92  C   UNL A   1      45.437  33.935  30.413  1.00  0.00     0.012 A 
ATOM     93  C   UNL A   1      44.517  34.643  28.275  1.00  0.00     0.148 A 
ATOM     94  C   UNL A   1      45.956  35.213  30.621  1.00  0.00     0.002 A 
ATOM     95  C   UNL A   1      45.072  35.904  28.469  1.00  0.00     0.091 A 
ATOM     96  F   UNL A   1      43.800  34.350  27.181  1.00  0.00    -0.205 F 
ATOM     97  C   UNL A   1      45.785  36.192  29.644  1.00  0.00     0.022 A 
BRANCH  95  98
ATOM     98  S   UNL A   1      44.978  37.195  27.223  1.00  0.00     0.127 S 
ATOM     99  O   UNL A   1      43.563  37.151  26.855  1.00  0.00    -0.237 OA
ATOM    100  O   UNL A   1      45.375  38.387  27.973  1.00  0.00    -0.237 OA
ATOM    101  O   UNL A   1      45.913  36.806  26.176  1.00  0.00    -0.744 OA
ENDBRANCH  95  98
ENDBRANCH  68  91
ENDBRANCH  42  43
ENDBRANCH  35  37
ENDBRANCH  34  35
ENDBRANCH  33  34
ENDBRANCH  32  33
ENDBRANCH  31  32
ENDBRANCH   1  31
TORSDOF 22
ENDMDL
MODEL 2
REMARK VINA RESULT:     -11.1      1.588      7.357
REMARK SMILES COc1ccc(S(=O)(=O)N2CCC[C@H](C(=O)N3CCC[C@H](C(=O)OCCOCCOC(=O)c4ccc(-c5c6nc(c(-c7cccc(S(=O)(=O)[O-])c7F)c7ccc([nH]7)c(-c7cccc(S(=O)(=O)[O-])c7F)c7nc(c(-c8cccc(S(=O)(=O)[O-])c8F)c8ccc5[nH]8)C=C7)C=C6)cc4)C3)C2)cc1
REMARK SMILES IDX 26 1 25 2 24 3 22 4 23 5 21 6 17 7 18 8 96 9 19 10 20 11
REMARK SMILES IDX 15 12 16 13 14 14 10 15 11 16 97 17 12 18 13 19 7 20 8 21
REMARK SMILES IDX 9 22 6 23 3 24 4 25 99 26 5 27 98 28 2 29 1 30 27 31 28 32
REMARK SMILES IDX 29 33 30 34 31 35 32 36 33 37 34 38 95 39 35 40 94 41 36 42
REMARK SMILES IDX 37 43 38 44 88 45 39 46 93 47 87 48 89 49 40 50 92 51 86 52
REMARK SMILES IDX 85 53 41 55 73 56 53 57 72 58 54 59 57 60 71 61 90 62 55 63
REMARK SMILES IDX 56 64 70 66 91 67 58 68 42 69 43 70 51 71 44 72 46 73 52 74
REMARK SMILES IDX 45 75 47 76 48 77 49 78 50 79 74 80 75 81 83 82 76 83 78 84
REMARK SMILES IDX 84 85 77 86 79 87 80 88 81 89 82 90 59 91 60 92 68 93 61 94
REMARK SMILES IDX 63 95 69 96 62 97 64 98 65 99 66 100 67 101
REMARK H PARENT 89 54 57 65
REMARK Flexibility Score: inf
ROOT
ATOM      1  C   UNL A   1      37.293  22.606  24.815  1.00  0.00     0.202 C 
ENDROOT
BRANCH   1   2
ATOM      2  C   UNL A   1      36.581  22.506  26.165  1.00  0.00     0.261 C 
BRANCH   2   3
ATOM      3  O   UNL A   1      35.252  23.042  26.074  1.00  0.00    -0.463 OA
BRANCH   3   4
ATOM      4  C   UNL A   1      34.229  22.157  26.047  1.00  0.00     0.310 C 
ATOM      5  O   UNL A   1      33.962  21.357  26.939  1.00  0.00    -0.252 OA
BRANCH   4   6
ATOM      6  C   UNL A   1      33.430  22.218  24.758  1.00  0.00     0.119 C 
ATOM      7  N   UNL A   1      31.950  24.088  25.338  1.00  0.00    -0.342 N 
ATOM      8  C   UNL A   1      30.732  23.309  25.154  1.00  0.00     0.119 C 
ATOM      9  C   UNL A   1      33.065  23.676  24.502  1.00  0.00     0.134 C 
ATOM     10  C   UNL A   1      30.973  21.826  25.406  1.00  0.00     0.022 C 
ATOM     11  C   UNL A   1      32.198  21.307  24.648  1.00  0.00     0.019 C 
BRANCH   7  12
ATOM     12  C   UNL A   1      32.104  24.798  26.513  1.00  0.00     0.227 C 
ATOM     13  O   UNL A   1      32.109  24.225  27.605  1.00  0.00    -0.275 OA
BRANCH  12  14
ATOM     14  C   UNL A   1      32.150  26.329  26.463  1.00  0.00     0.094 C 
ATOM     15  N   UNL A   1      31.351  26.879  24.171  1.00  0.00    -0.197 NA
ATOM     16  C   UNL A   1      32.690  27.275  23.718  1.00  0.00     0.102 C 
ATOM     17  C   UNL A   1      31.020  26.883  25.608  1.00  0.00     0.116 C 
ATOM     18  C   UNL A   1      33.662  27.653  24.829  1.00  0.00     0.018 C 
ATOM     19  C   UNL A   1      33.496  26.986  26.195  1.00  0.00     0.016 C 
BRANCH  15  20
ATOM     20  S   UNL A   1      30.079  27.047  23.058  1.00  0.00     0.243 S 
ATOM     21  O   UNL A   1      29.028  26.116  23.399  1.00  0.00    -0.207 OA
ATOM     22  O   UNL A   1      30.680  27.056  21.738  1.00  0.00    -0.207 OA
BRANCH  20  23
ATOM     23  C   UNL A   1      29.427  28.687  23.306  1.00  0.00     0.082 A 
ATOM     24  C   UNL A   1      28.418  31.290  23.376  1.00  0.00     0.118 A 
ATOM     25  C   UNL A   1      27.634  30.249  22.874  1.00  0.00     0.048 A 
ATOM     26  C   UNL A   1      29.675  31.016  23.910  1.00  0.00     0.048 A 
ATOM     27  C   UNL A   1      28.140  28.947  22.827  1.00  0.00     0.025 A 
ATOM     28  C   UNL A   1      30.182  29.717  23.873  1.00  0.00     0.025 A 
BRANCH  24  29
ATOM     29  O   UNL A   1      27.866  32.541  23.318  1.00  0.00    -0.497 OA
ATOM     30  C   UNL A   1      28.794  33.573  22.990  1.00  0.00     0.278 C 
ENDBRANCH  24  29
ENDBRANCH  20  23
ENDBRANCH  15  20
ENDBRANCH  12  14
ENDBRANCH   7  12
ENDBRANCH   4   6
ENDBRANCH   3   4
ENDBRANCH   2   3
ENDBRANCH   1   2
BRANCH   1  31
ATOM     31  O   UNL A   1      37.682  21.364  24.222  1.00  0.00    -0.374 OA
BRANCH  31  32
ATOM     32  C   UNL A   1      37.559  20.185  25.016  1.00  0.00     0.202 C 
BRANCH  32  33
ATOM     33  C   UNL A   1      38.856  19.597  25.587  1.00  0.00     0.261 C 
BRANCH  33  34
ATOM     34  O   UNL A   1      39.907  20.571  25.717  1.00  0.00    -0.460 OA
BRANCH  34  35
ATOM     35  C   UNL A   1      40.485  20.610  26.945  1.00  0.00     0.338 C 
ATOM     36  O   UNL A   1      40.885  19.656  27.596  1.00  0.00    -0.246 OA
BRANCH  35  37
ATOM     37  C   UNL A   1      40.725  22.000  27.375  1.00  0.00     0.060 A 
ATOM     38  C   UNL A   1      40.185  23.017  26.578  1.00  0.00     0.016 A 
ATOM     39  C   UNL A   1      41.559  22.310  28.451  1.00  0.00     0.016 A 
ATOM     40  C   UNL A   1      40.529  24.346  26.813  1.00  0.00     0.010 A 
ATOM     41  C   UNL A   1      41.910  23.647  28.681  1.00  0.00     0.010 A 
ATOM     42  C   UNL A   1      41.432  24.665  27.836  1.00  0.00    -0.014 A 
BRANCH  42  43
ATOM     43  C   UNL A   1      41.984  26.041  27.911  1.00  0.00     0.031 A 
ATOM     44  C   UNL A   1      41.213  27.100  28.654  1.00  0.00     0.074 A 
ATOM     45  C   UNL A   1      43.173  26.337  27.357  1.00  0.00     0.049 A 
ATOM     46  N   UNL A   1      41.524  28.351  28.871  1.00  0.00    -0.248 NA
ATOM     47  C   UNL A   1      39.922  26.692  29.235  1.00  0.00     0.031 C 
ATOM     48  C   UNL A   1      44.017  25.399  26.620  1.00  0.00     0.029 A 
ATOM     49  N   UNL A   1      43.868  27.520  27.319  1.00  0.00    -0.354 N 
ATOM     50  C   UNL A   1      40.464  28.885  29.594  1.00  0.00     0.074 A 
ATOM     51  C   UNL A   1      39.493  27.827  29.769  1.00  0.00     0.031 C 
ATOM     52  C   UNL A   1      45.114  26.048  26.188  1.00  0.00     0.029 A 
ATOM     53  C   UNL A   1      45.041  27.447  26.605  1.00  0.00     0.049 A 
ATOM     54  H   UNL A   1      43.558  28.342  27.763  1.00  0.00     0.167 HD
ATOM     55  C   UNL A   1      40.320  30.137  30.091  1.00  0.00     0.034 A 
ATOM     56  C   UNL A   1      45.946  28.403  26.315  1.00  0.00     0.034 A 
ATOM     57  C   UNL A   1      41.293  31.184  29.940  1.00  0.00     0.049 A 
ATOM     58  C   UNL A   1      45.748  29.796  26.857  1.00  0.00     0.074 A 
ATOM     59  C   UNL A   1      41.252  32.475  30.438  1.00  0.00     0.029 A 
ATOM     60  N   UNL A   1      42.480  31.065  29.235  1.00  0.00    -0.354 N 
ATOM     61  N   UNL A   1      44.801  30.252  27.642  1.00  0.00    -0.248 NA
ATOM     62  C   UNL A   1      46.763  30.800  26.500  1.00  0.00     0.031 C 
ATOM     63  C   UNL A   1      42.411  33.140  30.022  1.00  0.00     0.029 A 
ATOM     64  C   UNL A   1      43.178  32.259  29.276  1.00  0.00     0.049 A 
ATOM     65  H   UNL A   1      42.783  30.250  28.774  1.00  0.00     0.167 HD
ATOM     66  C   UNL A   1      45.122  31.581  27.899  1.00  0.00     0.074 A 
ATOM     67  C   UNL A   1      46.362  31.853  27.202  1.00  0.00     0.031 C 
ATOM     68  C   UNL A   1      44.443  32.499  28.631  1.00  0.00     0.034 A 
BRANCH  55  69
ATOM     69  C   UNL A   1      39.078  30.432  30.889  1.00  0.00     0.023 A 
ATOM     70  C   UNL A   1      39.026  30.056  32.246  1.00  0.00     0.012 A 
ATOM     71  C   UNL A   1      37.993  31.126  30.319  1.00  0.00     0.148 A 
ATOM     72  C   UNL A   1      37.902  30.345  33.020  1.00  0.00     0.002 A 
ATOM     73  C   UNL A   1      36.891  31.441  31.105  1.00  0.00     0.091 A 
ATOM     74  F   UNL A   1      38.052  31.451  29.020  1.00  0.00    -0.205 F 
ATOM     75  C   UNL A   1      36.841  31.045  32.453  1.00  0.00     0.022 A 
BRANCH  73  76
ATOM     76  S   UNL A   1      35.502  32.397  30.483  1.00  0.00     0.127 S 
ATOM     77  O   UNL A   1      36.139  33.677  30.179  1.00  0.00    -0.237 OA
ATOM     78  O   UNL A   1      35.095  31.626  29.308  1.00  0.00    -0.237 OA
ATOM     79  O   UNL A   1      34.522  32.422  31.560  1.00  0.00    -0.744 OA
ENDBRANCH  73  76
ENDBRANCH  55  69
BRANCH  56  80
ATOM     80  C   UNL A   1      47.157  28.062  25.515  1.00  0.00     0.023 A 
ATOM     81  C   UNL A   1      47.059  27.985  24.113  1.00  0.00     0.012 A 
ATOM     82  C   UNL A   1      48.403  27.833  26.131  1.00  0.00     0.148 A 
ATOM     83  C   UNL A   1      48.174  27.664  23.338  1.00  0.00     0.002 A 
ATOM     84  C   UNL A   1      49.521  27.564  25.349  1.00  0.00     0.091 A 
ATOM     85  F   UNL A   1      48.471  27.886  27.468  1.00  0.00    -0.205 F 
ATOM     86  C   UNL A   1      49.406  27.465  23.954  1.00  0.00     0.022 A 
BRANCH  84  87
ATOM     87  S   UNL A   1      51.170  27.411  26.046  1.00  0.00     0.127 S 
ATOM     88  O   UNL A   1      51.804  26.483  25.113  1.00  0.00    -0.237 OA
ATOM     89  O   UNL A   1      51.661  28.788  25.974  1.00  0.00    -0.237 OA
ATOM     90  O   UNL A   1      50.977  26.914  27.402  1.00  0.00    -0.744 OA
ENDBRANCH  84  87
ENDBRANCH  56  80
BRANCH  68  91
ATOM     91  C   UNL A   1      45.030  33.881  28.745  1.00  0.00     0.023 A 
ATOM     92  C   UNL A   1      44.649  34.875  27.822  1.00  0.00     0.012 A 
ATOM     93  C   UNL A   1      45.885  34.219  29.812  1.00  0.00     0.148 A 
ATOM     94  C   UNL A   1      45.131  36.179  27.945  1.00  0.00     0.002 A 
ATOM     95  C   UNL A   1      46.328  35.530  29.952  1.00  0.00     0.091 A 
ATOM     96  F   UNL A   1      46.252  33.255  30.669  1.00  0.00    -0.205 F 
ATOM     97  C   UNL A   1      45.958  36.508  29.015  1.00  0.00     0.022 A 
BRANCH  95  98
ATOM     98  S   UNL A   1      47.322  36.061  31.352  1.00  0.00     0.127 S 
ATOM     99  O   UNL A   1      48.467  35.155  31.265  1.00  0.00    -0.237 OA
ATOM    100  O   UNL A   1      47.622  37.453  31.017  1.00  0.00    -0.237 OA
ATOM    101  O   UNL A   1      46.476  35.895  32.526  1.00  0.00    -0.744 OA
ENDBRANCH  95  98
ENDBRANCH  68  91
ENDBRANCH  42  43
ENDBRANCH  35  37
ENDBRANCH  34  35
ENDBRANCH  33  34
ENDBRANCH  32  33
ENDBRANCH  31  32
ENDBRANCH   1  31
TORSDOF 22
ENDMDL
MODEL 3
REMARK VINA RESULT:     -11.1      1.355      1.873
REMARK SMILES COc1ccc(S(=O)(=O)N2CCC[C@H](C(=O)N3CCC[C@H](C(=O)OCCOCCOC(=O)c4ccc(-c5c6nc(c(-c7cccc(S(=O)(=O)[O-])c7F)c7ccc([nH]7)c(-c7cccc(S(=O)(=O)[O-])c7F)c7nc(c(-c8cccc(S(=O)(=O)[O-])c8F)c8ccc5[nH]8)C=C7)C=C6)cc4)C3)C2)cc1
REMARK SMILES IDX 26 1 25 2 24 3 22 4 23 5 21 6 17 7 18 8 96 9 19 10 20 11
REMARK SMILES IDX 15 12 16 13 14 14 10 15 11 16 97 17 12 18 13 19 7 20 8 21
REMARK SMILES IDX 9 22 6 23 3 24 4 25 99 26 5 27 98 28 2 29 1 30 27 31 28 32
REMARK SMILES IDX 29 33 30 34 31 35 32 36 33 37 34 38 95 39 35 40 94 41 36 42
REMARK SMILES IDX 37 43 38 44 88 45 39 46 93 47 87 48 89 49 40 50 92 51 86 52
REMARK SMILES IDX 85 53 41 55 73 56 53 57 72 58 54 59 57 60 71 61 90 62 55 63
REMARK SMILES IDX 56 64 70 66 91 67 58 68 42 69 43 70 51 71 44 72 46 73 52 74
REMARK SMILES IDX 45 75 47 76 48 77 49 78 50 79 74 80 75 81 83 82 76 83 78 84
REMARK SMILES IDX 84 85 77 86 79 87 80 88 81 89 82 90 59 91 60 92 68 93 61 94
REMARK SMILES IDX 63 95 69 96 62 97 64 98 65 99 66 100 67 101
REMARK H PARENT 89 54 57 65
REMARK Flexibility Score: inf
ROOT
ATOM      1  C   UNL A   1      37.377  21.012  24.236  1.00  0.00     0.202 C 
ENDROOT
BRANCH   1   2
ATOM      2  C   UNL A   1      36.937  22.439  23.905  1.00  0.00     0.261 C 
BRANCH   2   3
ATOM      3  O   UNL A   1      35.560  22.636  24.261  1.00  0.00    -0.463 OA
BRANCH   3   4
ATOM      4  C   UNL A   1      35.237  22.518  25.569  1.00  0.00     0.310 C 
ATOM      5  O   UNL A   1      35.827  23.063  26.497  1.00  0.00    -0.252 OA
BRANCH   4   6
ATOM      6  C   UNL A   1      34.056  21.591  25.804  1.00  0.00     0.119 C 
ATOM      7  N   UNL A   1      32.252  23.234  25.545  1.00  0.00    -0.342 N 
ATOM      8  C   UNL A   1      31.715  23.001  26.880  1.00  0.00     0.119 C 
ATOM      9  C   UNL A   1      32.898  22.082  24.941  1.00  0.00     0.134 C 
ATOM     10  C   UNL A   1      32.795  22.523  27.842  1.00  0.00     0.022 C 
ATOM     11  C   UNL A   1      33.613  21.368  27.257  1.00  0.00     0.019 C 
BRANCH   7  12
ATOM     12  C   UNL A   1      32.505  24.537  25.158  1.00  0.00     0.227 C 
ATOM     13  O   UNL A   1      33.174  25.291  25.869  1.00  0.00    -0.275 OA
BRANCH  12  14
ATOM     14  C   UNL A   1      31.847  25.083  23.887  1.00  0.00     0.094 C 
ATOM     15  N   UNL A   1      31.239  27.423  24.482  1.00  0.00    -0.197 NA
ATOM     16  C   UNL A   1      29.806  27.112  24.547  1.00  0.00     0.102 C 
ATOM     17  C   UNL A   1      32.152  26.562  23.705  1.00  0.00     0.116 C 
ATOM     18  C   UNL A   1      29.380  25.864  23.785  1.00  0.00     0.018 C 
ATOM     19  C   UNL A   1      30.389  24.725  23.637  1.00  0.00     0.016 C 
BRANCH  15  20
ATOM     20  S   UNL A   1      31.692  29.039  24.742  1.00  0.00     0.243 S 
ATOM     21  O   UNL A   1      33.030  29.240  24.235  1.00  0.00    -0.207 OA
ATOM     22  O   UNL A   1      31.351  29.350  26.116  1.00  0.00    -0.207 OA
BRANCH  20  23
ATOM     23  C   UNL A   1      30.597  30.019  23.734  1.00  0.00     0.082 A 
ATOM     24  C   UNL A   1      28.640  31.432  22.329  1.00  0.00     0.118 A 
ATOM     25  C   UNL A   1      28.935  31.772  23.651  1.00  0.00     0.048 A 
ATOM     26  C   UNL A   1      29.375  30.436  21.689  1.00  0.00     0.048 A 
ATOM     27  C   UNL A   1      29.905  31.060  24.361  1.00  0.00     0.025 A 
ATOM     28  C   UNL A   1      30.350  29.727  22.391  1.00  0.00     0.025 A 
BRANCH  24  29
ATOM     29  O   UNL A   1      27.627  32.137  21.737  1.00  0.00    -0.497 OA
ATOM     30  C   UNL A   1      27.775  32.298  20.329  1.00  0.00     0.278 C 
ENDBRANCH  24  29
ENDBRANCH  20  23
ENDBRANCH  15  20
ENDBRANCH  12  14
ENDBRANCH   7  12
ENDBRANCH   4   6
ENDBRANCH   3   4
ENDBRANCH   2   3
ENDBRANCH   1   2
BRANCH   1  31
ATOM     31  O   UNL A   1      38.311  20.881  25.311  1.00  0.00    -0.374 OA
BRANCH  31  32
ATOM     32  C   UNL A   1      38.740  19.565  25.656  1.00  0.00     0.202 C 
BRANCH  32  33
ATOM     33  C   UNL A   1      40.255  19.320  25.701  1.00  0.00     0.261 C 
BRANCH  33  34
ATOM     34  O   UNL A   1      41.017  20.532  25.848  1.00  0.00    -0.460 OA
BRANCH  34  35
ATOM     35  C   UNL A   1      41.681  20.636  27.028  1.00  0.00     0.338 C 
ATOM     36  O   UNL A   1      42.340  19.764  27.576  1.00  0.00    -0.246 OA
BRANCH  35  37
ATOM     37  C   UNL A   1      41.645  22.019  27.538  1.00  0.00     0.060 A 
ATOM     38  C   UNL A   1      41.142  23.003  26.677  1.00  0.00     0.016 A 
ATOM     39  C   UNL A   1      42.205  22.372  28.767  1.00  0.00     0.016 A 
ATOM     40  C   UNL A   1      41.254  24.350  27.015  1.00  0.00     0.010 A 
ATOM     41  C   UNL A   1      42.323  23.727  29.101  1.00  0.00     0.010 A 
ATOM     42  C   UNL A   1      41.889  24.723  28.207  1.00  0.00    -0.014 A 
BRANCH  42  43
ATOM     43  C   UNL A   1      42.229  26.150  28.431  1.00  0.00     0.031 A 
ATOM     44  C   UNL A   1      43.591  26.650  28.029  1.00  0.00     0.074 A 
ATOM     45  C   UNL A   1      41.325  27.000  28.949  1.00  0.00     0.049 A 
ATOM     46  N   UNL A   1      44.085  27.859  28.103  1.00  0.00    -0.248 NA
ATOM     47  C   UNL A   1      44.521  25.656  27.464  1.00  0.00     0.031 C 
ATOM     48  C   UNL A   1      39.972  26.640  29.368  1.00  0.00     0.029 A 
ATOM     49  N   UNL A   1      41.419  28.341  29.223  1.00  0.00    -0.354 N 
ATOM     50  C   UNL A   1      45.383  27.769  27.614  1.00  0.00     0.074 A 
ATOM     51  C   UNL A   1      45.608  26.385  27.258  1.00  0.00     0.031 C 
ATOM     52  C   UNL A   1      39.364  27.734  29.862  1.00  0.00     0.029 A 
ATOM     53  C   UNL A   1      40.289  28.865  29.808  1.00  0.00     0.049 A 
ATOM     54  H   UNL A   1      42.218  28.879  29.019  1.00  0.00     0.167 HD
ATOM     55  C   UNL A   1      46.298  28.754  27.451  1.00  0.00     0.034 A 
ATOM     56  C   UNL A   1      40.036  30.111  30.254  1.00  0.00     0.034 A 
ATOM     57  C   UNL A   1      46.069  30.134  27.781  1.00  0.00     0.049 A 
ATOM     58  C   UNL A   1      41.084  31.182  30.086  1.00  0.00     0.074 A 
ATOM     59  C   UNL A   1      46.925  31.210  27.619  1.00  0.00     0.029 A 
ATOM     60  N   UNL A   1      44.905  30.630  28.344  1.00  0.00    -0.354 N 
ATOM     61  N   UNL A   1      42.260  31.107  29.511  1.00  0.00    -0.248 NA
ATOM     62  C   UNL A   1      40.755  32.521  30.601  1.00  0.00     0.031 C 
ATOM     63  C   UNL A   1      46.279  32.356  28.097  1.00  0.00     0.029 A 
ATOM     64  C   UNL A   1      45.019  31.995  28.544  1.00  0.00     0.049 A 
ATOM     65  H   UNL A   1      44.112  30.091  28.568  1.00  0.00     0.167 HD
ATOM     66  C   UNL A   1      42.796  32.389  29.564  1.00  0.00     0.074 A 
ATOM     67  C   UNL A   1      41.808  33.229  30.211  1.00  0.00     0.031 C 
ATOM     68  C   UNL A   1      44.003  32.830  29.132  1.00  0.00     0.034 A 
BRANCH  55  69
ATOM     69  C   UNL A   1      47.624  28.379  26.846  1.00  0.00     0.023 A 
ATOM     70  C   UNL A   1      48.760  28.291  27.675  1.00  0.00     0.012 A 
ATOM     71  C   UNL A   1      47.738  28.062  25.478  1.00  0.00     0.148 A 
ATOM     72  C   UNL A   1      49.995  27.914  27.150  1.00  0.00     0.002 A 
ATOM     73  C   UNL A   1      48.965  27.654  24.968  1.00  0.00     0.091 A 
ATOM     74  F   UNL A   1      46.652  28.178  24.701  1.00  0.00    -0.205 F 
ATOM     75  C   UNL A   1      50.096  27.587  25.800  1.00  0.00     0.022 A 
BRANCH  73  76
ATOM     76  S   UNL A   1      49.180  27.149  23.257  1.00  0.00     0.127 S 
ATOM     77  O   UNL A   1      48.680  28.320  22.539  1.00  0.00    -0.237 OA
ATOM     78  O   UNL A   1      50.627  26.952  23.169  1.00  0.00    -0.237 OA
ATOM     79  O   UNL A   1      48.394  25.933  23.100  1.00  0.00    -0.744 OA
ENDBRANCH  73  76
ENDBRANCH  55  69
BRANCH  56  80
ATOM     80  C   UNL A   1      38.708  30.431  30.853  1.00  0.00     0.023 A 
ATOM     81  C   UNL A   1      38.451  30.075  32.191  1.00  0.00     0.012 A 
ATOM     82  C   UNL A   1      37.712  31.098  30.114  1.00  0.00     0.148 A 
ATOM     83  C   UNL A   1      37.217  30.357  32.777  1.00  0.00     0.002 A 
ATOM     84  C   UNL A   1      36.503  31.421  30.721  1.00  0.00     0.091 A 
ATOM     85  F   UNL A   1      37.966  31.406  28.836  1.00  0.00    -0.205 F 
ATOM     86  C   UNL A   1      36.248  31.039  32.047  1.00  0.00     0.022 A 
BRANCH  84  87
ATOM     87  S   UNL A   1      35.243  32.402  29.896  1.00  0.00     0.127 S 
ATOM     88  O   UNL A   1      34.300  32.652  30.983  1.00  0.00    -0.237 OA
ATOM     89  O   UNL A   1      36.005  33.574  29.461  1.00  0.00    -0.237 OA
ATOM     90  O   UNL A   1      34.750  31.570  28.807  1.00  0.00    -0.744 OA
ENDBRANCH  84  87
ENDBRANCH  56  80
BRANCH  68  91
ATOM     91  C   UNL A   1      44.327  34.289  29.316  1.00  0.00     0.023 A 
ATOM     92  C   UNL A   1      45.159  34.687  30.381  1.00  0.00     0.012 A 
ATOM     93  C   UNL A   1      43.882  35.252  28.389  1.00  0.00     0.148 A 
ATOM     94  C   UNL A   1      45.523  36.025  30.535  1.00  0.00     0.002 A 
ATOM     95  C   UNL A   1      44.282  36.577  28.525  1.00  0.00     0.091 A 
ATOM     96  F   UNL A   1      43.074  34.859  27.393  1.00  0.00    -0.205 F 
ATOM     97  C   UNL A   1      45.096  36.966  29.601  1.00  0.00     0.022 A 
BRANCH  95  98
ATOM     98  S   UNL A   1      43.853  37.837  27.317  1.00  0.00     0.127 S 
ATOM     99  O   UNL A   1      42.792  37.175  26.561  1.00  0.00    -0.237 OA
ATOM    100  O   UNL A   1      43.400  38.943  28.162  1.00  0.00    -0.237 OA
ATOM    101  O   UNL A   1      45.077  38.111  26.576  1.00  0.00    -0.744 OA
ENDBRANCH  95  98
ENDBRANCH  68  91
ENDBRANCH  42  43
ENDBRANCH  35  37
ENDBRANCH  34  35
ENDBRANCH  33  34
ENDBRANCH  32  33
ENDBRANCH  31  32
ENDBRANCH   1  31
TORSDOF 22
ENDMDL
