MODEL 1
REMARK VINA RESULT:     -10.9      0.000      0.000
REMARK SMILES Cc1cc(NCc2ccco2)cc(C(=O)OCCOCCOC(=O)c2ccc(-c3c4nc(c(-c5cccc(S(=O)(=O)[O-])c5F)c5ccc([nH]5)c(-c5cccc(S(=O)(=O)[O-])c5F)c5nc(c(-c6cccc(S(=O)(=O)[O-])c6F)c6ccc3[nH]6)C=C5)C=C4)cc2)c1N
REMARK SMILES IDX 19 1 18 2 17 3 16 4 14 5 15 6 13 7 1 8 2 9 3 10 88 11 4 12
REMARK SMILES IDX 12 13 89 14 5 17 6 19 7 20 8 21 11 22 9 23 10 24 20 25 21 26
REMARK SMILES IDX 22 27 23 28 24 29 25 30 26 31 87 32 27 33 86 34 28 35 29 36
REMARK SMILES IDX 30 37 80 38 31 39 85 40 79 41 81 42 32 43 84 44 78 45 77 46
REMARK SMILES IDX 33 48 65 49 45 50 64 51 46 52 49 53 63 54 82 55 47 56 48 57
REMARK SMILES IDX 62 59 83 60 50 61 34 62 35 63 43 64 36 65 38 66 44 67 37 68
REMARK SMILES IDX 39 69 40 70 41 71 42 72 66 73 67 74 75 75 68 76 70 77 76 78
REMARK SMILES IDX 69 79 71 80 72 81 73 82 74 83 51 84 52 85 60 86 53 87 55 88
REMARK SMILES IDX 61 89 54 90 56 91 57 92 58 93 59 94
REMARK H PARENT 89 15 89 16 5 18 81 47 49 58
REMARK Flexibility Score: inf
ROOT
ATOM      1  O   UNL A   1      34.564  20.753  24.555  1.00  0.00    -0.374 OA
ENDROOT
BRANCH   1   2
ATOM      2  C   UNL A   1      33.382  21.551  24.658  1.00  0.00     0.202 C 
BRANCH   2   3
ATOM      3  C   UNL A   1      33.140  22.537  23.512  1.00  0.00     0.261 C 
BRANCH   3   4
ATOM      4  O   UNL A   1      32.676  23.802  24.013  1.00  0.00    -0.460 OA
BRANCH   4   5
ATOM      5  C   UNL A   1      33.079  24.883  23.301  1.00  0.00     0.340 C 
ATOM      6  O   UNL A   1      33.669  24.860  22.229  1.00  0.00    -0.246 OA
BRANCH   5   7
ATOM      7  C   UNL A   1      32.554  26.136  23.909  1.00  0.00     0.085 A 
ATOM      8  C   UNL A   1      32.516  27.880  27.303  1.00  0.00     0.047 C 
ATOM      9  C   UNL A   1      32.287  27.544  25.855  1.00  0.00    -0.025 A 
ATOM     10  C   UNL A   1      31.560  28.446  25.056  1.00  0.00     0.031 A 
ATOM     11  C   UNL A   1      32.798  26.371  25.281  1.00  0.00     0.049 A 
ATOM     12  C   UNL A   1      31.323  28.229  23.689  1.00  0.00     0.036 A 
ATOM     13  C   UNL A   1      31.836  27.061  23.126  1.00  0.00     0.043 A 
BRANCH  11  14
ATOM     14  N   UNL A   1      33.690  25.569  26.006  1.00  0.00    -0.398 N 
ATOM     15  H   UNL A   1      33.406  24.683  26.326  1.00  0.00     0.156 HD
ATOM     16  H   UNL A   1      34.600  25.892  26.195  1.00  0.00     0.156 HD
ENDBRANCH  11  14
BRANCH  12  17
ATOM     17  N   UNL A   1      30.693  29.229  22.978  1.00  0.00    -0.378 N 
ATOM     18  H   UNL A   1      31.235  30.021  22.756  1.00  0.00     0.161 HD
BRANCH  17  19
ATOM     19  C   UNL A   1      29.312  29.232  22.523  1.00  0.00     0.188 C 
BRANCH  19  20
ATOM     20  C   UNL A   1      28.814  30.545  22.032  1.00  0.00     0.122 A 
ATOM     21  C   UNL A   1      28.170  30.939  20.877  1.00  0.00     0.047 A 
ATOM     22  O   UNL A   1      29.057  31.633  22.823  1.00  0.00    -0.467 OA
ATOM     23  C   UNL A   1      28.014  32.343  20.965  1.00  0.00     0.042 A 
ATOM     24  C   UNL A   1      28.567  32.716  22.166  1.00  0.00     0.195 A 
ENDBRANCH  19  20
ENDBRANCH  17  19
ENDBRANCH  12  17
ENDBRANCH   5   7
ENDBRANCH   4   5
ENDBRANCH   3   4
ENDBRANCH   2   3
ENDBRANCH   1   2
BRANCH   1  25
ATOM     25  C   UNL A   1      35.702  21.199  25.299  1.00  0.00     0.202 C 
BRANCH  25  26
ATOM     26  C   UNL A   1      37.001  20.416  25.071  1.00  0.00     0.261 C 
BRANCH  26  27
ATOM     27  O   UNL A   1      38.145  21.287  25.002  1.00  0.00    -0.460 OA
BRANCH  27  28
ATOM     28  C   UNL A   1      39.096  21.060  25.938  1.00  0.00     0.338 C 
ATOM     29  O   UNL A   1      39.652  19.997  26.183  1.00  0.00    -0.246 OA
BRANCH  28  30
ATOM     30  C   UNL A   1      39.530  22.338  26.533  1.00  0.00     0.060 A 
ATOM     31  C   UNL A   1      38.885  23.504  26.100  1.00  0.00     0.016 A 
ATOM     32  C   UNL A   1      40.579  22.410  27.452  1.00  0.00     0.016 A 
ATOM     33  C   UNL A   1      39.320  24.752  26.543  1.00  0.00     0.010 A 
ATOM     34  C   UNL A   1      41.020  23.664  27.891  1.00  0.00     0.010 A 
ATOM     35  C   UNL A   1      40.418  24.840  27.410  1.00  0.00    -0.014 A 
BRANCH  35  36
ATOM     36  C   UNL A   1      41.016  26.166  27.701  1.00  0.00     0.031 A 
ATOM     37  C   UNL A   1      42.425  26.446  27.254  1.00  0.00     0.074 A 
ATOM     38  C   UNL A   1      40.312  27.109  28.352  1.00  0.00     0.049 A 
ATOM     39  N   UNL A   1      43.147  27.522  27.422  1.00  0.00    -0.248 NA
ATOM     40  C   UNL A   1      43.113  25.366  26.525  1.00  0.00     0.031 C 
ATOM     41  C   UNL A   1      38.941  26.958  28.834  1.00  0.00     0.029 A 
ATOM     42  N   UNL A   1      40.668  28.378  28.740  1.00  0.00    -0.354 N 
ATOM     43  C   UNL A   1      44.379  27.245  26.840  1.00  0.00     0.074 A 
ATOM     44  C   UNL A   1      44.313  25.893  26.330  1.00  0.00     0.031 C 
ATOM     45  C   UNL A   1      38.582  28.078  29.485  1.00  0.00     0.029 A 
ATOM     46  C   UNL A   1      39.703  29.017  29.479  1.00  0.00     0.049 A 
ATOM     47  H   UNL A   1      41.533  28.790  28.510  1.00  0.00     0.167 HD
ATOM     48  C   UNL A   1      45.462  28.050  26.724  1.00  0.00     0.034 A 
ATOM     49  C   UNL A   1      39.729  30.214  30.099  1.00  0.00     0.034 A 
ATOM     50  C   UNL A   1      45.521  29.401  27.213  1.00  0.00     0.049 A 
ATOM     51  C   UNL A   1      40.952  31.085  29.969  1.00  0.00     0.074 A 
ATOM     52  C   UNL A   1      46.557  30.311  27.104  1.00  0.00     0.029 A 
ATOM     53  N   UNL A   1      44.504  30.034  27.911  1.00  0.00    -0.354 N 
ATOM     54  N   UNL A   1      42.062  30.856  29.310  1.00  0.00    -0.248 NA
ATOM     55  C   UNL A   1      40.913  32.394  30.638  1.00  0.00     0.031 C 
ATOM     56  C   UNL A   1      46.175  31.488  27.756  1.00  0.00     0.029 A 
ATOM     57  C   UNL A   1      44.891  31.320  28.248  1.00  0.00     0.049 A 
ATOM     58  H   UNL A   1      43.634  29.629  28.134  1.00  0.00     0.167 HD
ATOM     59  C   UNL A   1      42.837  32.002  29.455  1.00  0.00     0.074 A 
ATOM     60  C   UNL A   1      42.060  32.933  30.247  1.00  0.00     0.031 C 
ATOM     61  C   UNL A   1      44.085  32.256  28.988  1.00  0.00     0.034 A 
BRANCH  48  62
ATOM     62  C   UNL A   1      46.666  27.501  26.006  1.00  0.00     0.023 A 
ATOM     63  C   UNL A   1      46.787  27.684  24.614  1.00  0.00     0.012 A 
ATOM     64  C   UNL A   1      47.701  26.859  26.712  1.00  0.00     0.148 A 
ATOM     65  C   UNL A   1      47.907  27.212  23.930  1.00  0.00     0.002 A 
ATOM     66  C   UNL A   1      48.833  26.427  26.030  1.00  0.00     0.091 A 
ATOM     67  F   UNL A   1      47.556  26.673  28.032  1.00  0.00    -0.205 F 
ATOM     68  C   UNL A   1      48.933  26.594  24.639  1.00  0.00     0.022 A 
BRANCH  66  69
ATOM     69  S   UNL A   1      50.241  25.685  26.864  1.00  0.00     0.127 S 
ATOM     70  O   UNL A   1      51.180  25.510  25.757  1.00  0.00    -0.237 OA
ATOM     71  O   UNL A   1      50.616  26.725  27.822  1.00  0.00    -0.237 OA
ATOM     72  O   UNL A   1      49.749  24.454  27.466  1.00  0.00    -0.744 OA
ENDBRANCH  66  69
ENDBRANCH  48  62
BRANCH  49  73
ATOM     73  C   UNL A   1      38.541  30.675  30.872  1.00  0.00     0.023 A 
ATOM     74  C   UNL A   1      38.474  30.434  32.258  1.00  0.00     0.012 A 
ATOM     75  C   UNL A   1      37.488  31.370  30.244  1.00  0.00     0.148 A 
ATOM     76  C   UNL A   1      37.365  30.849  32.999  1.00  0.00     0.002 A 
ATOM     77  C   UNL A   1      36.415  31.830  30.998  1.00  0.00     0.091 A 
ATOM     78  F   UNL A   1      37.559  31.572  28.921  1.00  0.00    -0.205 F 
ATOM     79  C   UNL A   1      36.343  31.557  32.372  1.00  0.00     0.022 A 
BRANCH  77  80
ATOM     80  S   UNL A   1      35.127  32.867  30.294  1.00  0.00     0.127 S 
ATOM     81  O   UNL A   1      35.897  34.001  29.792  1.00  0.00    -0.237 OA
ATOM     82  O   UNL A   1      34.564  31.996  29.262  1.00  0.00    -0.237 OA
ATOM     83  O   UNL A   1      34.212  33.155  31.393  1.00  0.00    -0.744 OA
ENDBRANCH  77  80
ENDBRANCH  49  73
BRANCH  61  84
ATOM     84  C   UNL A   1      44.686  33.605  29.289  1.00  0.00     0.023 A 
ATOM     85  C   UNL A   1      45.496  33.772  30.429  1.00  0.00     0.012 A 
ATOM     86  C   UNL A   1      44.516  34.684  28.398  1.00  0.00     0.148 A 
ATOM     87  C   UNL A   1      46.101  34.999  30.696  1.00  0.00     0.002 A 
ATOM     88  C   UNL A   1      45.161  35.890  28.645  1.00  0.00     0.091 A 
ATOM     89  F   UNL A   1      43.727  34.512  27.327  1.00  0.00    -0.205 F 
ATOM     90  C   UNL A   1      45.944  36.053  29.799  1.00  0.00     0.022 A 
BRANCH  88  91
ATOM     91  S   UNL A   1      45.090  37.271  27.497  1.00  0.00     0.127 S 
ATOM     92  O   UNL A   1      45.441  38.396  28.362  1.00  0.00    -0.237 OA
ATOM     93  O   UNL A   1      46.116  36.914  26.517  1.00  0.00    -0.237 OA
ATOM     94  O   UNL A   1      43.732  37.284  26.970  1.00  0.00    -0.744 OA
ENDBRANCH  88  91
ENDBRANCH  61  84
ENDBRANCH  35  36
ENDBRANCH  28  30
ENDBRANCH  27  28
ENDBRANCH  26  27
ENDBRANCH  25  26
ENDBRANCH   1  25
TORSDOF 21
ENDMDL
MODEL 2
REMARK VINA RESULT:     -10.8      5.165     10.601
REMARK SMILES Cc1cc(NCc2ccco2)cc(C(=O)OCCOCCOC(=O)c2ccc(-c3c4nc(c(-c5cccc(S(=O)(=O)[O-])c5F)c5ccc([nH]5)c(-c5cccc(S(=O)(=O)[O-])c5F)c5nc(c(-c6cccc(S(=O)(=O)[O-])c6F)c6ccc3[nH]6)C=C5)C=C4)cc2)c1N
REMARK SMILES IDX 19 1 18 2 17 3 16 4 14 5 15 6 13 7 1 8 2 9 3 10 88 11 4 12
REMARK SMILES IDX 12 13 89 14 5 17 6 19 7 20 8 21 11 22 9 23 10 24 20 25 21 26
REMARK SMILES IDX 22 27 23 28 24 29 25 30 26 31 87 32 27 33 86 34 28 35 29 36
REMARK SMILES IDX 30 37 80 38 31 39 85 40 79 41 81 42 32 43 84 44 78 45 77 46
REMARK SMILES IDX 33 48 65 49 45 50 64 51 46 52 49 53 63 54 82 55 47 56 48 57
REMARK SMILES IDX 62 59 83 60 50 61 34 62 35 63 43 64 36 65 38 66 44 67 37 68
REMARK SMILES IDX 39 69 40 70 41 71 42 72 66 73 67 74 75 75 68 76 70 77 76 78
REMARK SMILES IDX 69 79 71 80 72 81 73 82 74 83 51 84 52 85 60 86 53 87 55 88
REMARK SMILES IDX 61 89 54 90 56 91 57 92 58 93 59 94
REMARK H PARENT 89 15 89 16 5 18 81 47 49 58
REMARK Flexibility Score: inf
ROOT
ATOM      1  O   UNL A   1      32.239  28.605  24.121  1.00  0.00    -0.374 OA
ENDROOT
BRANCH   1   2
ATOM      2  C   UNL A   1      31.531  28.734  22.887  1.00  0.00     0.202 C 
BRANCH   2   3
ATOM      3  C   UNL A   1      30.854  27.461  22.369  1.00  0.00     0.261 C 
BRANCH   3   4
ATOM      4  O   UNL A   1      31.384  26.296  23.021  1.00  0.00    -0.460 OA
BRANCH   4   5
ATOM      5  C   UNL A   1      32.078  25.454  22.216  1.00  0.00     0.340 C 
ATOM      6  O   UNL A   1      32.284  25.609  21.019  1.00  0.00    -0.246 OA
BRANCH   5   7
ATOM      7  C   UNL A   1      32.724  24.378  23.015  1.00  0.00     0.085 A 
ATOM      8  C   UNL A   1      35.517  24.000  25.588  1.00  0.00     0.047 C 
ATOM      9  C   UNL A   1      34.399  23.710  24.625  1.00  0.00    -0.025 A 
ATOM     10  C   UNL A   1      33.951  22.384  24.484  1.00  0.00     0.031 A 
ATOM     11  C   UNL A   1      33.780  24.730  23.887  1.00  0.00     0.049 A 
ATOM     12  C   UNL A   1      32.894  22.026  23.632  1.00  0.00     0.036 A 
ATOM     13  C   UNL A   1      32.283  23.045  22.902  1.00  0.00     0.043 A 
BRANCH  11  14
ATOM     14  N   UNL A   1      34.073  26.071  24.165  1.00  0.00    -0.398 N 
ATOM     15  H   UNL A   1      34.429  26.655  23.456  1.00  0.00     0.156 HD
ATOM     16  H   UNL A   1      33.924  26.431  25.069  1.00  0.00     0.156 HD
ENDBRANCH  11  14
BRANCH  12  17
ATOM     17  N   UNL A   1      32.467  20.715  23.653  1.00  0.00    -0.378 N 
ATOM     18  H   UNL A   1      32.170  20.333  22.794  1.00  0.00     0.161 HD
BRANCH  17  19
ATOM     19  C   UNL A   1      32.409  19.839  24.813  1.00  0.00     0.188 C 
BRANCH  19  20
ATOM     20  C   UNL A   1      32.875  18.446  24.574  1.00  0.00     0.122 A 
ATOM     21  C   UNL A   1      33.845  17.901  23.758  1.00  0.00     0.047 A 
ATOM     22  O   UNL A   1      32.211  17.451  25.237  1.00  0.00    -0.467 OA
ATOM     23  C   UNL A   1      33.768  16.498  23.927  1.00  0.00     0.042 A 
ATOM     24  C   UNL A   1      32.762  16.276  24.836  1.00  0.00     0.195 A 
ENDBRANCH  19  20
ENDBRANCH  17  19
ENDBRANCH  12  17
ENDBRANCH   5   7
ENDBRANCH   4   5
ENDBRANCH   3   4
ENDBRANCH   2   3
ENDBRANCH   1   2
BRANCH   1  25
ATOM     25  C   UNL A   1      31.551  29.035  25.300  1.00  0.00     0.202 C 
BRANCH  25  26
ATOM     26  C   UNL A   1      31.827  30.475  25.749  1.00  0.00     0.261 C 
BRANCH  26  27
ATOM     27  O   UNL A   1      32.386  30.524  27.075  1.00  0.00    -0.460 OA
BRANCH  27  28
ATOM     28  C   UNL A   1      33.134  31.620  27.342  1.00  0.00     0.338 C 
ATOM     29  O   UNL A   1      32.753  32.783  27.380  1.00  0.00    -0.246 OA
BRANCH  28  30
ATOM     30  C   UNL A   1      34.484  31.213  27.777  1.00  0.00     0.060 A 
ATOM     31  C   UNL A   1      34.706  29.847  28.000  1.00  0.00     0.016 A 
ATOM     32  C   UNL A   1      35.498  32.143  28.016  1.00  0.00     0.016 A 
ATOM     33  C   UNL A   1      35.926  29.411  28.513  1.00  0.00     0.010 A 
ATOM     34  C   UNL A   1      36.720  31.704  28.538  1.00  0.00     0.010 A 
ATOM     35  C   UNL A   1      36.926  30.342  28.824  1.00  0.00    -0.014 A 
BRANCH  35  36
ATOM     36  C   UNL A   1      38.128  29.903  29.572  1.00  0.00     0.031 A 
ATOM     37  C   UNL A   1      38.374  30.457  30.950  1.00  0.00     0.074 A 
ATOM     38  C   UNL A   1      38.989  29.021  29.034  1.00  0.00     0.049 A 
ATOM     39  N   UNL A   1      39.367  30.227  31.768  1.00  0.00    -0.248 NA
ATOM     40  C   UNL A   1      37.367  31.396  31.472  1.00  0.00     0.031 C 
ATOM     41  C   UNL A   1      38.860  28.415  27.710  1.00  0.00     0.029 A 
ATOM     42  N   UNL A   1      40.159  28.500  29.531  1.00  0.00    -0.354 N 
ATOM     43  C   UNL A   1      39.119  31.007  32.891  1.00  0.00     0.074 A 
ATOM     44  C   UNL A   1      37.891  31.730  32.644  1.00  0.00     0.031 C 
ATOM     45  C   UNL A   1      39.927  27.630  27.485  1.00  0.00     0.029 A 
ATOM     46  C   UNL A   1      40.822  27.692  28.640  1.00  0.00     0.049 A 
ATOM     47  H   UNL A   1      40.490  28.688  30.439  1.00  0.00     0.167 HD
ATOM     48  C   UNL A   1      39.839  31.101  34.034  1.00  0.00     0.034 A 
ATOM     49  C   UNL A   1      42.023  27.088  28.736  1.00  0.00     0.034 A 
ATOM     50  C   UNL A   1      41.049  30.367  34.290  1.00  0.00     0.049 A 
ATOM     51  C   UNL A   1      42.814  27.221  30.013  1.00  0.00     0.074 A 
ATOM     52  C   UNL A   1      41.826  30.361  35.434  1.00  0.00     0.029 A 
ATOM     53  N   UNL A   1      41.663  29.516  33.383  1.00  0.00    -0.354 N 
ATOM     54  N   UNL A   1      42.504  27.864  31.112  1.00  0.00    -0.248 NA
ATOM     55  C   UNL A   1      44.102  26.514  30.076  1.00  0.00     0.031 C 
ATOM     56  C   UNL A   1      42.923  29.522  35.213  1.00  0.00     0.029 A 
ATOM     57  C   UNL A   1      42.815  28.987  33.939  1.00  0.00     0.049 A 
ATOM     58  H   UNL A   1      41.330  29.318  32.479  1.00  0.00     0.167 HD
ATOM     59  C   UNL A   1      43.539  27.612  32.008  1.00  0.00     0.074 A 
ATOM     60  C   UNL A   1      44.474  26.740  31.329  1.00  0.00     0.031 C 
ATOM     61  C   UNL A   1      43.708  28.074  33.272  1.00  0.00     0.034 A 
BRANCH  48  62
ATOM     62  C   UNL A   1      39.315  32.006  35.117  1.00  0.00     0.023 A 
ATOM     63  C   UNL A   1      39.428  33.404  34.969  1.00  0.00     0.012 A 
ATOM     64  C   UNL A   1      38.660  31.481  36.248  1.00  0.00     0.148 A 
ATOM     65  C   UNL A   1      38.923  34.264  35.943  1.00  0.00     0.002 A 
ATOM     66  C   UNL A   1      38.122  32.347  37.194  1.00  0.00     0.091 A 
ATOM     67  F   UNL A   1      38.583  30.150  36.381  1.00  0.00    -0.205 F 
ATOM     68  C   UNL A   1      38.262  33.736  37.048  1.00  0.00     0.022 A 
BRANCH  66  69
ATOM     69  S   UNL A   1      37.188  31.767  38.616  1.00  0.00     0.127 S 
ATOM     70  O   UNL A   1      38.124  32.029  39.709  1.00  0.00    -0.237 OA
ATOM     71  O   UNL A   1      36.017  32.643  38.593  1.00  0.00    -0.237 OA
ATOM     72  O   UNL A   1      36.902  30.362  38.362  1.00  0.00    -0.744 OA
ENDBRANCH  66  69
ENDBRANCH  48  62
BRANCH  49  73
ATOM     73  C   UNL A   1      42.538  26.273  27.600  1.00  0.00     0.023 A 
ATOM     74  C   UNL A   1      43.446  26.843  26.687  1.00  0.00     0.012 A 
ATOM     75  C   UNL A   1      42.148  24.929  27.431  1.00  0.00     0.148 A 
ATOM     76  C   UNL A   1      43.932  26.100  25.610  1.00  0.00     0.002 A 
ATOM     77  C   UNL A   1      42.680  24.178  26.390  1.00  0.00     0.091 A 
ATOM     78  F   UNL A   1      41.266  24.410  28.297  1.00  0.00    -0.205 F 
ATOM     79  C   UNL A   1      43.560  24.765  25.469  1.00  0.00     0.022 A 
BRANCH  77  80
ATOM     80  S   UNL A   1      42.359  22.419  26.219  1.00  0.00     0.127 S 
ATOM     81  O   UNL A   1      42.892  21.894  27.474  1.00  0.00    -0.237 OA
ATOM     82  O   UNL A   1      40.900  22.384  26.105  1.00  0.00    -0.237 OA
ATOM     83  O   UNL A   1      43.060  22.009  25.008  1.00  0.00    -0.744 OA
ENDBRANCH  77  80
ENDBRANCH  49  73
BRANCH  61  84
ATOM     84  C   UNL A   1      44.933  27.624  34.026  1.00  0.00     0.023 A 
ATOM     85  C   UNL A   1      46.093  28.423  34.018  1.00  0.00     0.012 A 
ATOM     86  C   UNL A   1      44.907  26.451  34.808  1.00  0.00     0.148 A 
ATOM     87  C   UNL A   1      47.218  28.048  34.751  1.00  0.00     0.002 A 
ATOM     88  C   UNL A   1      46.016  26.109  35.573  1.00  0.00     0.091 A 
ATOM     89  F   UNL A   1      43.801  25.694  34.789  1.00  0.00    -0.205 F 
ATOM     90  C   UNL A   1      47.175  26.899  35.537  1.00  0.00     0.022 A 
BRANCH  88  91
ATOM     91  S   UNL A   1      46.016  24.698  36.686  1.00  0.00     0.127 S 
ATOM     92  O   UNL A   1      44.854  23.946  36.215  1.00  0.00    -0.237 OA
ATOM     93  O   UNL A   1      47.306  24.072  36.395  1.00  0.00    -0.237 OA
ATOM     94  O   UNL A   1      45.904  25.249  38.030  1.00  0.00    -0.744 OA
ENDBRANCH  88  91
ENDBRANCH  61  84
ENDBRANCH  35  36
ENDBRANCH  28  30
ENDBRANCH  27  28
ENDBRANCH  26  27
ENDBRANCH  25  26
ENDBRANCH   1  25
TORSDOF 21
ENDMDL
MODEL 3
REMARK VINA RESULT:     -10.8      4.741      9.773
REMARK SMILES Cc1cc(NCc2ccco2)cc(C(=O)OCCOCCOC(=O)c2ccc(-c3c4nc(c(-c5cccc(S(=O)(=O)[O-])c5F)c5ccc([nH]5)c(-c5cccc(S(=O)(=O)[O-])c5F)c5nc(c(-c6cccc(S(=O)(=O)[O-])c6F)c6ccc3[nH]6)C=C5)C=C4)cc2)c1N
REMARK SMILES IDX 19 1 18 2 17 3 16 4 14 5 15 6 13 7 1 8 2 9 3 10 88 11 4 12
REMARK SMILES IDX 12 13 89 14 5 17 6 19 7 20 8 21 11 22 9 23 10 24 20 25 21 26
REMARK SMILES IDX 22 27 23 28 24 29 25 30 26 31 87 32 27 33 86 34 28 35 29 36
REMARK SMILES IDX 30 37 80 38 31 39 85 40 79 41 81 42 32 43 84 44 78 45 77 46
REMARK SMILES IDX 33 48 65 49 45 50 64 51 46 52 49 53 63 54 82 55 47 56 48 57
REMARK SMILES IDX 62 59 83 60 50 61 34 62 35 63 43 64 36 65 38 66 44 67 37 68
REMARK SMILES IDX 39 69 40 70 41 71 42 72 66 73 67 74 75 75 68 76 70 77 76 78
REMARK SMILES IDX 69 79 71 80 72 81 73 82 74 83 51 84 52 85 60 86 53 87 55 88
REMARK SMILES IDX 61 89 54 90 56 91 57 92 58 93 59 94
REMARK H PARENT 89 15 89 16 5 18 81 47 49 58
REMARK Flexibility Score: inf
ROOT
ATOM      1  O   UNL A   1      33.121  28.650  25.628  1.00  0.00    -0.374 OA
ENDROOT
BRANCH   1   2
ATOM      2  C   UNL A   1      33.835  28.601  24.390  1.00  0.00     0.202 C 
BRANCH   2   3
ATOM      3  C   UNL A   1      33.015  28.908  23.134  1.00  0.00     0.261 C 
BRANCH   3   4
ATOM      4  O   UNL A   1      33.454  28.104  22.026  1.00  0.00    -0.460 OA
BRANCH   4   5
ATOM      5  C   UNL A   1      33.013  26.822  22.038  1.00  0.00     0.340 C 
ATOM      6  O   UNL A   1      33.598  25.855  21.569  1.00  0.00    -0.246 OA
BRANCH   5   7
ATOM      7  C   UNL A   1      31.780  26.699  22.862  1.00  0.00     0.085 A 
ATOM      8  C   UNL A   1      30.499  24.654  25.819  1.00  0.00     0.047 C 
ATOM      9  C   UNL A   1      30.594  25.625  24.675  1.00  0.00    -0.025 A 
ATOM     10  C   UNL A   1      29.486  26.442  24.383  1.00  0.00     0.031 A 
ATOM     11  C   UNL A   1      31.764  25.751  23.911  1.00  0.00     0.049 A 
ATOM     12  C   UNL A   1      29.496  27.396  23.353  1.00  0.00     0.036 A 
ATOM     13  C   UNL A   1      30.663  27.516  22.600  1.00  0.00     0.043 A 
BRANCH  11  14
ATOM     14  N   UNL A   1      32.936  25.097  24.314  1.00  0.00    -0.398 N 
ATOM     15  H   UNL A   1      32.899  24.159  24.611  1.00  0.00     0.156 HD
ATOM     16  H   UNL A   1      33.796  25.574  24.300  1.00  0.00     0.156 HD
ENDBRANCH  11  14
BRANCH  12  17
ATOM     17  N   UNL A   1      28.395  28.217  23.226  1.00  0.00    -0.378 N 
ATOM     18  H   UNL A   1      27.739  28.193  23.960  1.00  0.00     0.161 HD
BRANCH  17  19
ATOM     19  C   UNL A   1      28.104  29.113  22.117  1.00  0.00     0.188 C 
BRANCH  19  20
ATOM     20  C   UNL A   1      28.332  30.556  22.398  1.00  0.00     0.122 A 
ATOM     21  C   UNL A   1      28.725  31.249  23.524  1.00  0.00     0.047 A 
ATOM     22  O   UNL A   1      28.067  31.432  21.381  1.00  0.00    -0.467 OA
ATOM     23  C   UNL A   1      28.696  32.622  23.179  1.00  0.00     0.042 A 
ATOM     24  C   UNL A   1      28.292  32.680  21.868  1.00  0.00     0.195 A 
ENDBRANCH  19  20
ENDBRANCH  17  19
ENDBRANCH  12  17
ENDBRANCH   5   7
ENDBRANCH   4   5
ENDBRANCH   3   4
ENDBRANCH   2   3
ENDBRANCH   1   2
BRANCH   1  25
ATOM     25  C   UNL A   1      31.844  29.297  25.602  1.00  0.00     0.202 C 
BRANCH  25  26
ATOM     26  C   UNL A   1      31.826  30.763  26.052  1.00  0.00     0.261 C 
BRANCH  26  27
ATOM     27  O   UNL A   1      32.404  30.928  27.359  1.00  0.00    -0.460 OA
BRANCH  27  28
ATOM     28  C   UNL A   1      33.249  31.979  27.484  1.00  0.00     0.338 C 
ATOM     29  O   UNL A   1      32.963  33.168  27.413  1.00  0.00    -0.246 OA
BRANCH  28  30
ATOM     30  C   UNL A   1      34.579  31.507  27.913  1.00  0.00     0.060 A 
ATOM     31  C   UNL A   1      34.730  30.135  28.156  1.00  0.00     0.016 A 
ATOM     32  C   UNL A   1      35.644  32.385  28.127  1.00  0.00     0.016 A 
ATOM     33  C   UNL A   1      35.929  29.642  28.665  1.00  0.00     0.010 A 
ATOM     34  C   UNL A   1      36.846  31.889  28.644  1.00  0.00     0.010 A 
ATOM     35  C   UNL A   1      36.981  30.522  28.950  1.00  0.00    -0.014 A 
BRANCH  35  36
ATOM     36  C   UNL A   1      38.166  30.031  29.694  1.00  0.00     0.031 A 
ATOM     37  C   UNL A   1      38.415  30.539  31.089  1.00  0.00     0.074 A 
ATOM     38  C   UNL A   1      39.008  29.143  29.138  1.00  0.00     0.049 A 
ATOM     39  N   UNL A   1      39.395  30.260  31.908  1.00  0.00    -0.248 NA
ATOM     40  C   UNL A   1      37.429  31.489  31.631  1.00  0.00     0.031 C 
ATOM     41  C   UNL A   1      38.873  28.578  27.796  1.00  0.00     0.029 A 
ATOM     42  N   UNL A   1      40.160  28.578  29.627  1.00  0.00    -0.354 N 
ATOM     43  C   UNL A   1      39.159  31.014  33.051  1.00  0.00     0.074 A 
ATOM     44  C   UNL A   1      37.952  31.776  32.815  1.00  0.00     0.031 C 
ATOM     45  C   UNL A   1      39.922  27.772  27.556  1.00  0.00     0.029 A 
ATOM     46  C   UNL A   1      40.809  27.778  28.718  1.00  0.00     0.049 A 
ATOM     47  H   UNL A   1      40.489  28.731  30.543  1.00  0.00     0.167 HD
ATOM     48  C   UNL A   1      39.872  31.056  34.201  1.00  0.00     0.034 A 
ATOM     49  C   UNL A   1      41.993  27.141  28.806  1.00  0.00     0.034 A 
ATOM     50  C   UNL A   1      41.061  30.284  34.444  1.00  0.00     0.049 A 
ATOM     51  C   UNL A   1      42.777  27.216  30.092  1.00  0.00     0.074 A 
ATOM     52  C   UNL A   1      41.828  30.225  35.593  1.00  0.00     0.029 A 
ATOM     53  N   UNL A   1      41.660  29.444  33.518  1.00  0.00    -0.354 N 
ATOM     54  N   UNL A   1      42.476  27.836  31.207  1.00  0.00    -0.248 NA
ATOM     55  C   UNL A   1      44.046  26.474  30.144  1.00  0.00     0.031 C 
ATOM     56  C   UNL A   1      42.905  29.365  35.356  1.00  0.00     0.029 A 
ATOM     57  C   UNL A   1      42.794  28.869  34.067  1.00  0.00     0.049 A 
ATOM     58  H   UNL A   1      41.328  29.281  32.606  1.00  0.00     0.167 HD
ATOM     59  C   UNL A   1      43.496  27.532  32.102  1.00  0.00     0.074 A 
ATOM     60  C   UNL A   1      44.414  26.655  31.405  1.00  0.00     0.031 C 
ATOM     61  C   UNL A   1      43.668  27.953  33.380  1.00  0.00     0.034 A 
BRANCH  48  62
ATOM     62  C   UNL A   1      39.363  31.944  35.306  1.00  0.00     0.023 A 
ATOM     63  C   UNL A   1      38.426  31.436  36.228  1.00  0.00     0.012 A 
ATOM     64  C   UNL A   1      39.852  33.254  35.468  1.00  0.00     0.148 A 
ATOM     65  C   UNL A   1      37.962  32.227  37.278  1.00  0.00     0.002 A 
ATOM     66  C   UNL A   1      39.416  34.024  36.540  1.00  0.00     0.091 A 
ATOM     67  F   UNL A   1      40.725  33.727  34.566  1.00  0.00    -0.205 F 
ATOM     68  C   UNL A   1      38.465  33.515  37.440  1.00  0.00     0.022 A 
BRANCH  66  69
ATOM     69  S   UNL A   1      40.058  35.668  36.877  1.00  0.00     0.127 S 
ATOM     70  O   UNL A   1      41.493  35.407  36.985  1.00  0.00    -0.237 OA
ATOM     71  O   UNL A   1      39.661  36.405  35.678  1.00  0.00    -0.237 OA
ATOM     72  O   UNL A   1      39.409  36.108  38.104  1.00  0.00    -0.744 OA
ENDBRANCH  66  69
ENDBRANCH  48  62
BRANCH  49  73
ATOM     73  C   UNL A   1      42.496  26.345  27.650  1.00  0.00     0.023 A 
ATOM     74  C   UNL A   1      43.365  26.942  26.717  1.00  0.00     0.012 A 
ATOM     75  C   UNL A   1      42.133  24.993  27.484  1.00  0.00     0.148 A 
ATOM     76  C   UNL A   1      43.839  26.217  25.622  1.00  0.00     0.002 A 
ATOM     77  C   UNL A   1      42.654  24.262  26.423  1.00  0.00     0.091 A 
ATOM     78  F   UNL A   1      41.288  24.448  28.370  1.00  0.00    -0.205 F 
ATOM     79  C   UNL A   1      43.494  24.875  25.482  1.00  0.00     0.022 A 
BRANCH  77  80
ATOM     80  S   UNL A   1      42.370  22.496  26.249  1.00  0.00     0.127 S 
ATOM     81  O   UNL A   1      42.895  21.982  27.512  1.00  0.00    -0.237 OA
ATOM     82  O   UNL A   1      40.914  22.432  26.113  1.00  0.00    -0.237 OA
ATOM     83  O   UNL A   1      43.096  22.099  25.049  1.00  0.00    -0.744 OA
ENDBRANCH  77  80
ENDBRANCH  49  73
BRANCH  61  84
ATOM     84  C   UNL A   1      44.874  27.450  34.129  1.00  0.00     0.023 A 
ATOM     85  C   UNL A   1      46.078  28.181  34.091  1.00  0.00     0.012 A 
ATOM     86  C   UNL A   1      44.792  26.297  34.937  1.00  0.00     0.148 A 
ATOM     87  C   UNL A   1      47.188  27.758  34.819  1.00  0.00     0.002 A 
ATOM     88  C   UNL A   1      45.889  25.908  35.696  1.00  0.00     0.091 A 
ATOM     89  F   UNL A   1      43.644  25.604  34.947  1.00  0.00    -0.205 F 
ATOM     90  C   UNL A   1      47.091  26.630  35.630  1.00  0.00     0.022 A 
BRANCH  88  91
ATOM     91  S   UNL A   1      45.824  24.523  36.840  1.00  0.00     0.127 S 
ATOM     92  O   UNL A   1      44.765  24.943  37.756  1.00  0.00    -0.237 OA
ATOM     93  O   UNL A   1      45.463  23.410  35.961  1.00  0.00    -0.237 OA
ATOM     94  O   UNL A   1      47.155  24.423  37.423  1.00  0.00    -0.744 OA
ENDBRANCH  88  91
ENDBRANCH  61  84
ENDBRANCH  35  36
ENDBRANCH  28  30
ENDBRANCH  27  28
ENDBRANCH  26  27
ENDBRANCH  25  26
ENDBRANCH   1  25
TORSDOF 21
ENDMDL
