MODEL 1
REMARK VINA RESULT:     -10.4      0.000      0.000
REMARK SMILES C[C@@H](C(=O)OCCOCCOC(=O)c1ccc(-c2c3nc(c(-c4cccc(S(=O)(=O)[O-])c4F)c4ccc([nH]4)c(-c4cccc(S(=O)(=O)[O-])c4F)c4nc(c(-c5cccc(S(=O)(=O)[O-])c5F)c5ccc2[nH]5)C=C4)C=C3)cc1)c1ccc(=O)n(C(F)F)c1
REMARK SMILES IDX 9 1 8 2 7 3 6 4 5 5 3 6 4 7 2 8 1 9 77 10 78 11 86 12 79 13
REMARK SMILES IDX 82 14 80 15 81 16 83 17 84 18 85 19 10 20 11 21 12 22 13 23
REMARK SMILES IDX 14 24 15 25 76 26 16 27 75 28 17 29 18 30 19 31 69 32 20 33
REMARK SMILES IDX 74 34 68 35 70 36 21 37 73 38 67 39 66 40 22 42 54 43 34 44
REMARK SMILES IDX 53 45 35 46 38 47 52 48 71 49 36 50 37 51 51 53 72 54 39 55
REMARK SMILES IDX 23 56 24 57 32 58 25 59 27 60 33 61 26 62 28 63 29 64 30 65
REMARK SMILES IDX 31 66 55 67 56 68 64 69 57 70 59 71 65 72 58 73 60 74 61 75
REMARK SMILES IDX 62 76 63 77 40 78 41 79 49 80 42 81 44 82 50 83 43 84 45 85
REMARK SMILES IDX 46 86 47 87 48 88
REMARK H PARENT 70 41 38 52
REMARK Flexibility Score: inf
ROOT
ATOM      1  C   UNL A   1      31.128  30.819  25.554  1.00  0.00     0.202 C 
ENDROOT
BRANCH   1   2
ATOM      2  O   UNL A   1      31.742  29.543  25.727  1.00  0.00    -0.374 OA
BRANCH   2   3
ATOM      3  C   UNL A   1      32.624  29.091  24.698  1.00  0.00     0.202 C 
BRANCH   3   4
ATOM      4  C   UNL A   1      32.078  28.013  23.759  1.00  0.00     0.261 C 
BRANCH   4   5
ATOM      5  O   UNL A   1      32.901  26.835  23.793  1.00  0.00    -0.463 OA
BRANCH   5   6
ATOM      6  C   UNL A   1      32.350  25.753  24.400  1.00  0.00     0.313 C 
ATOM      7  O   UNL A   1      32.087  25.691  25.599  1.00  0.00    -0.252 OA
BRANCH   6   8
ATOM      8  C   UNL A   1      32.015  24.614  23.419  1.00  0.00     0.127 C 
ATOM      9  C   UNL A   1      30.516  24.333  23.266  1.00  0.00     0.025 C 
BRANCH   8  10
ATOM     10  C   UNL A   1      32.899  23.412  23.766  1.00  0.00    -0.017 A 
ATOM     11  C   UNL A   1      32.349  22.174  24.293  1.00  0.00     0.012 A 
ATOM     12  C   UNL A   1      34.237  23.488  23.622  1.00  0.00     0.099 A 
ATOM     13  C   UNL A   1      33.147  21.159  24.655  1.00  0.00     0.072 A 
ATOM     14  N   UNL A   1      35.084  22.465  24.007  1.00  0.00    -0.258 N 
ATOM     15  C   UNL A   1      34.626  21.271  24.530  1.00  0.00     0.254 A 
ATOM     16  O   UNL A   1      35.320  20.325  24.889  1.00  0.00    -0.269 OA
BRANCH  14  17
ATOM     17  C   UNL A   1      36.511  22.646  23.928  1.00  0.00     0.451 C 
ATOM     18  F   UNL A   1      36.944  22.560  22.644  1.00  0.00    -0.185 F 
ATOM     19  F   UNL A   1      36.877  23.860  24.408  1.00  0.00    -0.185 F 
ENDBRANCH  14  17
ENDBRANCH   8  10
ENDBRANCH   6   8
ENDBRANCH   5   6
ENDBRANCH   4   5
ENDBRANCH   3   4
ENDBRANCH   2   3
ENDBRANCH   1   2
BRANCH   1  20
ATOM     20  C   UNL A   1      31.493  31.915  26.565  1.00  0.00     0.261 C 
BRANCH  20  21
ATOM     21  O   UNL A   1      32.605  31.552  27.404  1.00  0.00    -0.460 OA
BRANCH  21  22
ATOM     22  C   UNL A   1      33.503  32.547  27.611  1.00  0.00     0.338 C 
ATOM     23  O   UNL A   1      33.273  33.750  27.641  1.00  0.00    -0.246 OA
BRANCH  22  24
ATOM     24  C   UNL A   1      34.814  31.991  27.991  1.00  0.00     0.060 A 
ATOM     25  C   UNL A   1      34.877  30.617  28.259  1.00  0.00     0.016 A 
ATOM     26  C   UNL A   1      35.939  32.800  28.169  1.00  0.00     0.016 A 
ATOM     27  C   UNL A   1      36.050  30.054  28.757  1.00  0.00     0.010 A 
ATOM     28  C   UNL A   1      37.114  32.233  28.678  1.00  0.00     0.010 A 
ATOM     29  C   UNL A   1      37.161  30.867  29.012  1.00  0.00    -0.014 A 
BRANCH  29  30
ATOM     30  C   UNL A   1      38.316  30.308  29.758  1.00  0.00     0.031 A 
ATOM     31  C   UNL A   1      38.554  30.750  31.176  1.00  0.00     0.074 A 
ATOM     32  C   UNL A   1      39.132  29.404  29.188  1.00  0.00     0.049 A 
ATOM     33  N   UNL A   1      39.499  30.394  32.007  1.00  0.00    -0.248 NA
ATOM     34  C   UNL A   1      37.601  31.725  31.732  1.00  0.00     0.031 C 
ATOM     35  C   UNL A   1      39.005  28.894  27.824  1.00  0.00     0.029 A 
ATOM     36  N   UNL A   1      40.246  28.771  29.683  1.00  0.00    -0.354 N 
ATOM     37  C   UNL A   1      39.271  31.114  33.173  1.00  0.00     0.074 A 
ATOM     38  C   UNL A   1      38.106  31.941  32.938  1.00  0.00     0.031 C 
ATOM     39  C   UNL A   1      40.019  28.047  27.579  1.00  0.00     0.029 A 
ATOM     40  C   UNL A   1      40.877  27.970  28.761  1.00  0.00     0.049 A 
ATOM     41  H   UNL A   1      40.562  28.880  30.608  1.00  0.00     0.167 HD
ATOM     42  C   UNL A   1      39.954  31.078  34.342  1.00  0.00     0.034 A 
ATOM     43  C   UNL A   1      42.026  27.270  28.855  1.00  0.00     0.034 A 
ATOM     44  C   UNL A   1      41.097  30.240  34.583  1.00  0.00     0.049 A 
ATOM     45  C   UNL A   1      42.779  27.260  30.159  1.00  0.00     0.074 A 
ATOM     46  C   UNL A   1      41.830  30.100  35.748  1.00  0.00     0.029 A 
ATOM     47  N   UNL A   1      41.681  29.408  33.641  1.00  0.00    -0.354 N 
ATOM     48  N   UNL A   1      42.480  27.851  31.291  1.00  0.00    -0.248 NA
ATOM     49  C   UNL A   1      44.012  26.458  30.211  1.00  0.00     0.031 C 
ATOM     50  C   UNL A   1      42.872  29.199  35.504  1.00  0.00     0.029 A 
ATOM     51  C   UNL A   1      42.773  28.759  34.194  1.00  0.00     0.049 A 
ATOM     52  H   UNL A   1      41.367  29.295  32.715  1.00  0.00     0.167 HD
ATOM     53  C   UNL A   1      43.464  27.467  32.196  1.00  0.00     0.074 A 
ATOM     54  C   UNL A   1      44.357  26.575  31.487  1.00  0.00     0.031 C 
ATOM     55  C   UNL A   1      43.622  27.831  33.493  1.00  0.00     0.034 A 
BRANCH  42  56
ATOM     56  C   UNL A   1      39.461  31.949  35.466  1.00  0.00     0.023 A 
ATOM     57  C   UNL A   1      38.575  31.414  36.423  1.00  0.00     0.012 A 
ATOM     58  C   UNL A   1      39.913  33.274  35.608  1.00  0.00     0.148 A 
ATOM     59  C   UNL A   1      38.124  32.192  37.488  1.00  0.00     0.002 A 
ATOM     60  C   UNL A   1      39.491  34.033  36.695  1.00  0.00     0.091 A 
ATOM     61  F   UNL A   1      40.736  33.773  34.675  1.00  0.00    -0.205 F 
ATOM     62  C   UNL A   1      38.589  33.497  37.629  1.00  0.00     0.022 A 
BRANCH  60  63
ATOM     63  S   UNL A   1      40.091  35.698  37.002  1.00  0.00     0.127 S 
ATOM     64  O   UNL A   1      39.414  36.028  38.256  1.00  0.00    -0.237 OA
ATOM     65  O   UNL A   1      41.534  35.488  37.126  1.00  0.00    -0.237 OA
ATOM     66  O   UNL A   1      39.690  36.488  35.846  1.00  0.00    -0.744 OA
ENDBRANCH  60  63
ENDBRANCH  42  56
BRANCH  43  67
ATOM     67  C   UNL A   1      42.515  26.488  27.684  1.00  0.00     0.023 A 
ATOM     68  C   UNL A   1      43.400  27.087  26.766  1.00  0.00     0.012 A 
ATOM     69  C   UNL A   1      42.124  25.149  27.489  1.00  0.00     0.148 A 
ATOM     70  C   UNL A   1      43.865  26.374  25.659  1.00  0.00     0.002 A 
ATOM     71  C   UNL A   1      42.636  24.428  26.416  1.00  0.00     0.091 A 
ATOM     72  F   UNL A   1      41.265  24.604  28.361  1.00  0.00    -0.205 F 
ATOM     73  C   UNL A   1      43.493  25.043  25.491  1.00  0.00     0.022 A 
BRANCH  71  74
ATOM     74  S   UNL A   1      42.315  22.673  26.201  1.00  0.00     0.127 S 
ATOM     75  O   UNL A   1      42.976  22.402  24.928  1.00  0.00    -0.237 OA
ATOM     76  O   UNL A   1      42.974  22.099  27.375  1.00  0.00    -0.237 OA
ATOM     77  O   UNL A   1      40.864  22.538  26.205  1.00  0.00    -0.744 OA
ENDBRANCH  71  74
ENDBRANCH  43  67
BRANCH  55  78
ATOM     78  C   UNL A   1      44.786  27.245  34.250  1.00  0.00     0.023 A 
ATOM     79  C   UNL A   1      46.018  27.928  34.275  1.00  0.00     0.012 A 
ATOM     80  C   UNL A   1      44.635  26.062  35.001  1.00  0.00     0.148 A 
ATOM     81  C   UNL A   1      47.092  27.427  35.011  1.00  0.00     0.002 A 
ATOM     82  C   UNL A   1      45.694  25.594  35.770  1.00  0.00     0.091 A 
ATOM     83  F   UNL A   1      43.461  25.417  34.950  1.00  0.00    -0.205 F 
ATOM     84  C   UNL A   1      46.927  26.268  35.767  1.00  0.00     0.022 A 
BRANCH  82  85
ATOM     85  S   UNL A   1      45.542  24.163  36.846  1.00  0.00     0.127 S 
ATOM     86  O   UNL A   1      46.891  24.061  37.399  1.00  0.00    -0.237 OA
ATOM     87  O   UNL A   1      44.523  24.599  37.801  1.00  0.00    -0.237 OA
ATOM     88  O   UNL A   1      45.131  23.060  35.988  1.00  0.00    -0.744 OA
ENDBRANCH  82  85
ENDBRANCH  55  78
ENDBRANCH  29  30
ENDBRANCH  22  24
ENDBRANCH  21  22
ENDBRANCH  20  21
ENDBRANCH   1  20
TORSDOF 19
ENDMDL
MODEL 2
REMARK VINA RESULT:     -10.2      3.509      6.328
REMARK SMILES C[C@@H](C(=O)OCCOCCOC(=O)c1ccc(-c2c3nc(c(-c4cccc(S(=O)(=O)[O-])c4F)c4ccc([nH]4)c(-c4cccc(S(=O)(=O)[O-])c4F)c4nc(c(-c5cccc(S(=O)(=O)[O-])c5F)c5ccc2[nH]5)C=C4)C=C3)cc1)c1ccc(=O)n(C(F)F)c1
REMARK SMILES IDX 9 1 8 2 7 3 6 4 5 5 3 6 4 7 2 8 1 9 77 10 78 11 86 12 79 13
REMARK SMILES IDX 82 14 80 15 81 16 83 17 84 18 85 19 10 20 11 21 12 22 13 23
REMARK SMILES IDX 14 24 15 25 76 26 16 27 75 28 17 29 18 30 19 31 69 32 20 33
REMARK SMILES IDX 74 34 68 35 70 36 21 37 73 38 67 39 66 40 22 42 54 43 34 44
REMARK SMILES IDX 53 45 35 46 38 47 52 48 71 49 36 50 37 51 51 53 72 54 39 55
REMARK SMILES IDX 23 56 24 57 32 58 25 59 27 60 33 61 26 62 28 63 29 64 30 65
REMARK SMILES IDX 31 66 55 67 56 68 64 69 57 70 59 71 65 72 58 73 60 74 61 75
REMARK SMILES IDX 62 76 63 77 40 78 41 79 49 80 42 81 44 82 50 83 43 84 45 85
REMARK SMILES IDX 46 86 47 87 48 88
REMARK H PARENT 70 41 38 52
REMARK Flexibility Score: inf
ROOT
ATOM      1  C   UNL A   1      32.524  35.250  28.748  1.00  0.00     0.202 C 
ENDROOT
BRANCH   1   2
ATOM      2  O   UNL A   1      32.980  36.563  29.072  1.00  0.00    -0.374 OA
BRANCH   2   3
ATOM      3  C   UNL A   1      33.294  36.833  30.439  1.00  0.00     0.202 C 
BRANCH   3   4
ATOM      4  C   UNL A   1      32.336  36.253  31.484  1.00  0.00     0.261 C 
BRANCH   4   5
ATOM      5  O   UNL A   1      32.949  35.166  32.198  1.00  0.00    -0.463 OA
BRANCH   5   6
ATOM      6  C   UNL A   1      34.292  35.260  32.366  1.00  0.00     0.313 C 
ATOM      7  O   UNL A   1      34.847  36.128  33.036  1.00  0.00    -0.252 OA
BRANCH   6   8
ATOM      8  C   UNL A   1      35.068  34.119  31.683  1.00  0.00     0.127 C 
ATOM      9  C   UNL A   1      34.423  32.737  31.833  1.00  0.00     0.025 C 
BRANCH   8  10
ATOM     10  C   UNL A   1      36.539  34.229  32.098  1.00  0.00    -0.017 A 
ATOM     11  C   UNL A   1      36.941  34.382  33.487  1.00  0.00     0.012 A 
ATOM     12  C   UNL A   1      37.512  34.222  31.166  1.00  0.00     0.099 A 
ATOM     13  C   UNL A   1      38.229  34.545  33.823  1.00  0.00     0.072 A 
ATOM     14  N   UNL A   1      38.845  34.410  31.481  1.00  0.00    -0.258 N 
ATOM     15  C   UNL A   1      39.290  34.577  32.779  1.00  0.00     0.254 A 
ATOM     16  O   UNL A   1      40.454  34.747  33.128  1.00  0.00    -0.269 OA
BRANCH  14  17
ATOM     17  C   UNL A   1      39.827  34.499  30.431  1.00  0.00     0.451 C 
ATOM     18  F   UNL A   1      40.540  33.350  30.330  1.00  0.00    -0.185 F 
ATOM     19  F   UNL A   1      39.238  34.729  29.231  1.00  0.00    -0.185 F 
ENDBRANCH  14  17
ENDBRANCH   8  10
ENDBRANCH   6   8
ENDBRANCH   5   6
ENDBRANCH   4   5
ENDBRANCH   3   4
ENDBRANCH   2   3
ENDBRANCH   1   2
BRANCH   1  20
ATOM     20  C   UNL A   1      33.522  34.312  28.056  1.00  0.00     0.261 C 
BRANCH  20  21
ATOM     21  O   UNL A   1      33.432  32.955  28.529  1.00  0.00    -0.460 OA
BRANCH  21  22
ATOM     22  C   UNL A   1      33.796  32.016  27.620  1.00  0.00     0.338 C 
ATOM     23  O   UNL A   1      33.244  31.774  26.554  1.00  0.00    -0.246 OA
BRANCH  22  24
ATOM     24  C   UNL A   1      35.090  31.414  27.986  1.00  0.00     0.060 A 
ATOM     25  C   UNL A   1      35.093  30.056  28.333  1.00  0.00     0.016 A 
ATOM     26  C   UNL A   1      36.262  32.171  28.075  1.00  0.00     0.016 A 
ATOM     27  C   UNL A   1      36.254  29.462  28.822  1.00  0.00     0.010 A 
ATOM     28  C   UNL A   1      37.424  31.572  28.575  1.00  0.00     0.010 A 
ATOM     29  C   UNL A   1      37.415  30.227  28.988  1.00  0.00    -0.014 A 
BRANCH  29  30
ATOM     30  C   UNL A   1      38.567  29.651  29.724  1.00  0.00     0.031 A 
ATOM     31  C   UNL A   1      38.762  30.009  31.173  1.00  0.00     0.074 A 
ATOM     32  C   UNL A   1      39.419  28.805  29.118  1.00  0.00     0.049 A 
ATOM     33  N   UNL A   1      39.698  29.624  32.001  1.00  0.00    -0.248 NA
ATOM     34  C   UNL A   1      37.772  30.922  31.766  1.00  0.00     0.031 C 
ATOM     35  C   UNL A   1      39.336  28.380  27.722  1.00  0.00     0.029 A 
ATOM     36  N   UNL A   1      40.538  28.171  29.598  1.00  0.00    -0.354 N 
ATOM     37  C   UNL A   1      39.426  30.264  33.205  1.00  0.00     0.074 A 
ATOM     38  C   UNL A   1      38.245  31.074  32.995  1.00  0.00     0.031 C 
ATOM     39  C   UNL A   1      40.377  27.576  27.448  1.00  0.00     0.029 A 
ATOM     40  C   UNL A   1      41.210  27.445  28.642  1.00  0.00     0.049 A 
ATOM     41  H   UNL A   1      40.831  28.229  30.536  1.00  0.00     0.167 HD
ATOM     42  C   UNL A   1      40.084  30.170  34.385  1.00  0.00     0.034 A 
ATOM     43  C   UNL A   1      42.375  26.770  28.719  1.00  0.00     0.034 A 
ATOM     44  C   UNL A   1      41.243  29.348  34.600  1.00  0.00     0.049 A 
ATOM     45  C   UNL A   1      43.100  26.697  30.038  1.00  0.00     0.074 A 
ATOM     46  C   UNL A   1      41.954  29.153  35.770  1.00  0.00     0.029 A 
ATOM     47  N   UNL A   1      41.870  28.592  33.621  1.00  0.00    -0.354 N 
ATOM     48  N   UNL A   1      42.760  27.207  31.197  1.00  0.00    -0.248 NA
ATOM     49  C   UNL A   1      44.352  25.924  30.068  1.00  0.00     0.031 C 
ATOM     50  C   UNL A   1      43.025  28.295  35.494  1.00  0.00     0.029 A 
ATOM     51  C   UNL A   1      42.966  27.937  34.157  1.00  0.00     0.049 A 
ATOM     52  H   UNL A   1      41.579  28.530  32.682  1.00  0.00     0.167 HD
ATOM     53  C   UNL A   1      43.734  26.791  32.099  1.00  0.00     0.074 A 
ATOM     54  C   UNL A   1      44.666  25.969  31.357  1.00  0.00     0.031 C 
ATOM     55  C   UNL A   1      43.855  27.077  33.419  1.00  0.00     0.034 A 
BRANCH  42  56
ATOM     56  C   UNL A   1      39.543  30.956  35.550  1.00  0.00     0.023 A 
ATOM     57  C   UNL A   1      38.436  30.461  36.267  1.00  0.00     0.012 A 
ATOM     58  C   UNL A   1      40.161  32.150  35.967  1.00  0.00     0.148 A 
ATOM     59  C   UNL A   1      37.932  31.157  37.365  1.00  0.00     0.002 A 
ATOM     60  C   UNL A   1      39.678  32.818  37.088  1.00  0.00     0.091 A 
ATOM     61  F   UNL A   1      41.197  32.617  35.257  1.00  0.00    -0.205 F 
ATOM     62  C   UNL A   1      38.559  32.329  37.781  1.00  0.00     0.022 A 
BRANCH  60  63
ATOM     63  S   UNL A   1      40.462  34.296  37.743  1.00  0.00     0.127 S 
ATOM     64  O   UNL A   1      39.543  34.665  38.818  1.00  0.00    -0.237 OA
ATOM     65  O   UNL A   1      41.756  33.783  38.198  1.00  0.00    -0.237 OA
ATOM     66  O   UNL A   1      40.539  35.234  36.632  1.00  0.00    -0.744 OA
ENDBRANCH  60  63
ENDBRANCH  42  56
BRANCH  43  67
ATOM     67  C   UNL A   1      42.910  26.077  27.513  1.00  0.00     0.023 A 
ATOM     68  C   UNL A   1      43.831  26.739  26.678  1.00  0.00     0.012 A 
ATOM     69  C   UNL A   1      42.527  24.757  27.203  1.00  0.00     0.148 A 
ATOM     70  C   UNL A   1      44.339  26.110  25.541  1.00  0.00     0.002 A 
ATOM     71  C   UNL A   1      43.080  24.117  26.101  1.00  0.00     0.091 A 
ATOM     72  F   UNL A   1      41.634  24.152  27.997  1.00  0.00    -0.205 F 
ATOM     73  C   UNL A   1      43.974  24.797  25.259  1.00  0.00     0.022 A 
BRANCH  71  74
ATOM     74  S   UNL A   1      42.768  22.384  25.742  1.00  0.00     0.127 S 
ATOM     75  O   UNL A   1      43.418  22.225  24.445  1.00  0.00    -0.237 OA
ATOM     76  O   UNL A   1      43.443  21.718  26.858  1.00  0.00    -0.237 OA
ATOM     77  O   UNL A   1      41.318  22.239  25.749  1.00  0.00    -0.744 OA
ENDBRANCH  71  74
ENDBRANCH  43  67
BRANCH  55  78
ATOM     78  C   UNL A   1      45.017  26.474  34.165  1.00  0.00     0.023 A 
ATOM     79  C   UNL A   1      46.235  27.176  34.247  1.00  0.00     0.012 A 
ATOM     80  C   UNL A   1      44.876  25.250  34.851  1.00  0.00     0.148 A 
ATOM     81  C   UNL A   1      47.305  26.657  34.975  1.00  0.00     0.002 A 
ATOM     82  C   UNL A   1      45.931  24.762  35.613  1.00  0.00     0.091 A 
ATOM     83  F   UNL A   1      43.716  24.587  34.746  1.00  0.00    -0.205 F 
ATOM     84  C   UNL A   1      47.151  25.458  35.667  1.00  0.00     0.022 A 
BRANCH  82  85
ATOM     85  S   UNL A   1      45.789  23.275  36.611  1.00  0.00     0.127 S 
ATOM     86  O   UNL A   1      44.863  22.470  35.817  1.00  0.00    -0.237 OA
ATOM     87  O   UNL A   1      47.166  22.780  36.630  1.00  0.00    -0.237 OA
ATOM     88  O   UNL A   1      45.288  23.710  37.908  1.00  0.00    -0.744 OA
ENDBRANCH  82  85
ENDBRANCH  55  78
ENDBRANCH  29  30
ENDBRANCH  22  24
ENDBRANCH  21  22
ENDBRANCH  20  21
ENDBRANCH   1  20
TORSDOF 19
ENDMDL
MODEL 3
REMARK VINA RESULT:     -10.2      3.549      8.943
REMARK SMILES C[C@@H](C(=O)OCCOCCOC(=O)c1ccc(-c2c3nc(c(-c4cccc(S(=O)(=O)[O-])c4F)c4ccc([nH]4)c(-c4cccc(S(=O)(=O)[O-])c4F)c4nc(c(-c5cccc(S(=O)(=O)[O-])c5F)c5ccc2[nH]5)C=C4)C=C3)cc1)c1ccc(=O)n(C(F)F)c1
REMARK SMILES IDX 9 1 8 2 7 3 6 4 5 5 3 6 4 7 2 8 1 9 77 10 78 11 86 12 79 13
REMARK SMILES IDX 82 14 80 15 81 16 83 17 84 18 85 19 10 20 11 21 12 22 13 23
REMARK SMILES IDX 14 24 15 25 76 26 16 27 75 28 17 29 18 30 19 31 69 32 20 33
REMARK SMILES IDX 74 34 68 35 70 36 21 37 73 38 67 39 66 40 22 42 54 43 34 44
REMARK SMILES IDX 53 45 35 46 38 47 52 48 71 49 36 50 37 51 51 53 72 54 39 55
REMARK SMILES IDX 23 56 24 57 32 58 25 59 27 60 33 61 26 62 28 63 29 64 30 65
REMARK SMILES IDX 31 66 55 67 56 68 64 69 57 70 59 71 65 72 58 73 60 74 61 75
REMARK SMILES IDX 62 76 63 77 40 78 41 79 49 80 42 81 44 82 50 83 43 84 45 85
REMARK SMILES IDX 46 86 47 87 48 88
REMARK H PARENT 70 41 38 52
REMARK Flexibility Score: inf
ROOT
ATOM      1  C   UNL A   1      33.738  30.559  26.790  1.00  0.00     0.202 C 
ENDROOT
BRANCH   1   2
ATOM      2  O   UNL A   1      32.987  30.072  25.678  1.00  0.00    -0.374 OA
BRANCH   2   3
ATOM      3  C   UNL A   1      33.532  28.975  24.944  1.00  0.00     0.202 C 
BRANCH   3   4
ATOM      4  C   UNL A   1      32.525  27.981  24.359  1.00  0.00     0.261 C 
BRANCH   4   5
ATOM      5  O   UNL A   1      32.149  28.356  23.023  1.00  0.00    -0.463 OA
BRANCH   5   6
ATOM      6  C   UNL A   1      30.954  27.875  22.595  1.00  0.00     0.313 C 
ATOM      7  O   UNL A   1      30.811  27.145  21.617  1.00  0.00    -0.252 OA
BRANCH   6   8
ATOM      8  C   UNL A   1      29.778  28.281  23.503  1.00  0.00     0.127 C 
ATOM      9  C   UNL A   1      28.598  27.304  23.484  1.00  0.00     0.025 C 
BRANCH   8  10
ATOM     10  C   UNL A   1      29.447  29.751  23.223  1.00  0.00    -0.017 A 
ATOM     11  C   UNL A   1      29.672  30.796  24.208  1.00  0.00     0.012 A 
ATOM     12  C   UNL A   1      28.896  30.112  22.048  1.00  0.00     0.099 A 
ATOM     13  C   UNL A   1      29.313  32.065  23.968  1.00  0.00     0.072 A 
ATOM     14  N   UNL A   1      28.495  31.408  21.782  1.00  0.00    -0.258 N 
ATOM     15  C   UNL A   1      28.666  32.443  22.682  1.00  0.00     0.254 A 
ATOM     16  O   UNL A   1      28.337  33.613  22.510  1.00  0.00    -0.269 OA
BRANCH  14  17
ATOM     17  C   UNL A   1      27.815  31.712  20.549  1.00  0.00     0.451 C 
ATOM     18  F   UNL A   1      28.579  32.497  19.749  1.00  0.00    -0.185 F 
ATOM     19  F   UNL A   1      27.522  30.580  19.861  1.00  0.00    -0.185 F 
ENDBRANCH  14  17
ENDBRANCH   8  10
ENDBRANCH   6   8
ENDBRANCH   5   6
ENDBRANCH   4   5
ENDBRANCH   3   4
ENDBRANCH   2   3
ENDBRANCH   1   2
BRANCH   1  20
ATOM     20  C   UNL A   1      33.086  31.645  27.655  1.00  0.00     0.261 C 
BRANCH  20  21
ATOM     21  O   UNL A   1      33.415  32.978  27.221  1.00  0.00    -0.460 OA
BRANCH  21  22
ATOM     22  C   UNL A   1      33.414  33.909  28.207  1.00  0.00     0.338 C 
ATOM     23  O   UNL A   1      32.582  34.791  28.383  1.00  0.00    -0.246 OA
BRANCH  22  24
ATOM     24  C   UNL A   1      34.469  33.621  29.194  1.00  0.00     0.060 A 
ATOM     25  C   UNL A   1      35.784  33.959  28.848  1.00  0.00     0.016 A 
ATOM     26  C   UNL A   1      34.202  32.957  30.394  1.00  0.00     0.016 A 
ATOM     27  C   UNL A   1      36.843  33.588  29.673  1.00  0.00     0.010 A 
ATOM     28  C   UNL A   1      35.268  32.578  31.218  1.00  0.00     0.010 A 
ATOM     29  C   UNL A   1      36.596  32.856  30.841  1.00  0.00    -0.014 A 
BRANCH  29  30
ATOM     30  C   UNL A   1      37.735  32.265  31.585  1.00  0.00     0.031 A 
ATOM     31  C   UNL A   1      38.523  31.151  30.951  1.00  0.00     0.074 A 
ATOM     32  C   UNL A   1      38.078  32.726  32.801  1.00  0.00     0.049 A 
ATOM     33  N   UNL A   1      39.550  30.492  31.422  1.00  0.00    -0.248 NA
ATOM     34  C   UNL A   1      38.097  30.721  29.609  1.00  0.00     0.031 C 
ATOM     35  C   UNL A   1      37.395  33.801  33.518  1.00  0.00     0.029 A 
ATOM     36  N   UNL A   1      39.075  32.329  33.657  1.00  0.00    -0.354 N 
ATOM     37  C   UNL A   1      39.879  29.556  30.449  1.00  0.00     0.074 A 
ATOM     38  C   UNL A   1      38.933  29.721  29.366  1.00  0.00     0.031 C 
ATOM     39  C   UNL A   1      37.975  33.960  34.720  1.00  0.00     0.029 A 
ATOM     40  C   UNL A   1      39.056  32.987  34.864  1.00  0.00     0.049 A 
ATOM     41  H   UNL A   1      39.739  31.640  33.428  1.00  0.00     0.167 HD
ATOM     42  C   UNL A   1      40.890  28.653  30.445  1.00  0.00     0.034 A 
ATOM     43  C   UNL A   1      39.813  32.809  35.966  1.00  0.00     0.034 A 
ATOM     44  C   UNL A   1      41.843  28.504  31.510  1.00  0.00     0.049 A 
ATOM     45  C   UNL A   1      40.919  31.785  35.945  1.00  0.00     0.074 A 
ATOM     46  C   UNL A   1      42.928  27.649  31.580  1.00  0.00     0.029 A 
ATOM     47  N   UNL A   1      41.821  29.218  32.698  1.00  0.00    -0.354 N 
ATOM     48  N   UNL A   1      41.293  30.994  34.968  1.00  0.00    -0.248 NA
ATOM     49  C   UNL A   1      41.729  31.654  37.166  1.00  0.00     0.031 C 
ATOM     50  C   UNL A   1      43.550  27.830  32.820  1.00  0.00     0.029 A 
ATOM     51  C   UNL A   1      42.866  28.816  33.513  1.00  0.00     0.049 A 
ATOM     52  H   UNL A   1      41.159  29.909  32.930  1.00  0.00     0.167 HD
ATOM     53  C   UNL A   1      42.400  30.298  35.443  1.00  0.00     0.074 A 
ATOM     54  C   UNL A   1      42.648  30.775  36.787  1.00  0.00     0.031 C 
ATOM     55  C   UNL A   1      43.135  29.338  34.827  1.00  0.00     0.034 A 
BRANCH  42  56
ATOM     56  C   UNL A   1      41.036  27.776  29.230  1.00  0.00     0.023 A 
ATOM     57  C   UNL A   1      40.370  26.535  29.185  1.00  0.00     0.012 A 
ATOM     58  C   UNL A   1      41.785  28.200  28.116  1.00  0.00     0.148 A 
ATOM     59  C   UNL A   1      40.469  25.716  28.061  1.00  0.00     0.002 A 
ATOM     60  C   UNL A   1      41.847  27.396  26.983  1.00  0.00     0.091 A 
ATOM     61  F   UNL A   1      42.432  29.372  28.188  1.00  0.00    -0.205 F 
ATOM     62  C   UNL A   1      41.198  26.151  26.958  1.00  0.00     0.022 A 
BRANCH  60  63
ATOM     63  S   UNL A   1      42.701  27.902  25.486  1.00  0.00     0.127 S 
ATOM     64  O   UNL A   1      42.483  26.746  24.618  1.00  0.00    -0.237 OA
ATOM     65  O   UNL A   1      41.959  29.102  25.098  1.00  0.00    -0.237 OA
ATOM     66  O   UNL A   1      44.083  28.142  25.875  1.00  0.00    -0.744 OA
ENDBRANCH  60  63
ENDBRANCH  42  56
BRANCH  43  67
ATOM     67  C   UNL A   1      39.572  33.648  37.174  1.00  0.00     0.023 A 
ATOM     68  C   UNL A   1      40.099  34.953  37.234  1.00  0.00     0.012 A 
ATOM     69  C   UNL A   1      38.806  33.166  38.253  1.00  0.00     0.148 A 
ATOM     70  C   UNL A   1      39.890  35.753  38.358  1.00  0.00     0.002 A 
ATOM     71  C   UNL A   1      38.554  33.988  39.345  1.00  0.00     0.091 A 
ATOM     72  F   UNL A   1      38.331  31.915  38.186  1.00  0.00    -0.205 F 
ATOM     73  C   UNL A   1      39.109  35.276  39.407  1.00  0.00     0.022 A 
BRANCH  71  74
ATOM     74  S   UNL A   1      37.448  33.502  40.676  1.00  0.00     0.127 S 
ATOM     75  O   UNL A   1      36.263  33.073  39.939  1.00  0.00    -0.237 OA
ATOM     76  O   UNL A   1      38.202  32.424  41.316  1.00  0.00    -0.237 OA
ATOM     77  O   UNL A   1      37.287  34.691  41.503  1.00  0.00    -0.744 OA
ENDBRANCH  71  74
ENDBRANCH  43  67
BRANCH  55  78
ATOM     78  C   UNL A   1      44.303  28.756  35.582  1.00  0.00     0.023 A 
ATOM     79  C   UNL A   1      45.583  29.325  35.435  1.00  0.00     0.012 A 
ATOM     80  C   UNL A   1      44.116  27.699  36.495  1.00  0.00     0.148 A 
ATOM     81  C   UNL A   1      46.666  28.832  36.164  1.00  0.00     0.002 A 
ATOM     82  C   UNL A   1      45.189  27.243  37.252  1.00  0.00     0.091 A 
ATOM     83  F   UNL A   1      42.894  27.157  36.606  1.00  0.00    -0.205 F 
ATOM     84  C   UNL A   1      46.467  27.800  37.079  1.00  0.00     0.022 A 
BRANCH  82  85
ATOM     85  S   UNL A   1      45.006  25.984  38.520  1.00  0.00     0.127 S 
ATOM     86  O   UNL A   1      44.212  26.686  39.525  1.00  0.00    -0.237 OA
ATOM     87  O   UNL A   1      44.289  24.926  37.806  1.00  0.00    -0.237 OA
ATOM     88  O   UNL A   1      46.358  25.626  38.926  1.00  0.00    -0.744 OA
ENDBRANCH  82  85
ENDBRANCH  55  78
ENDBRANCH  29  30
ENDBRANCH  22  24
ENDBRANCH  21  22
ENDBRANCH  20  21
ENDBRANCH   1  20
TORSDOF 19
ENDMDL
