MODEL 1
REMARK VINA RESULT:     -10.0      0.000      0.000
REMARK SMILES CC[C@@H](C)NC(=O)Cn1cccc1C(=O)OCCOCCOC(=O)c1ccc(-c2c3nc(c(-c4cccc(S(=O)(=O)[O-])c4F)c4ccc([nH]4)c(-c4cccc(S(=O)(=O)[O-])c4F)c4nc(c(-c5cccc(S(=O)(=O)[O-])c5F)c5ccc2[nH]5)C=C4)C=C3)cc1
REMARK SMILES IDX 18 1 17 2 16 3 14 4 15 5 13 6 9 7 10 8 11 9 12 10 8 11 6 12
REMARK SMILES IDX 5 13 7 15 3 16 4 17 2 18 1 19 19 20 20 21 21 22 22 23 23 24
REMARK SMILES IDX 24 25 25 26 26 27 87 28 27 29 86 30 28 31 29 32 30 33 80 34
REMARK SMILES IDX 31 35 85 36 79 37 81 38 32 39 84 40 78 41 77 42 33 44 65 45
REMARK SMILES IDX 45 46 64 47 46 48 49 49 63 50 82 51 47 52 48 53 62 55 83 56
REMARK SMILES IDX 50 57 34 58 35 59 43 60 36 61 38 62 44 63 37 64 39 65 40 66
REMARK SMILES IDX 41 67 42 68 66 69 67 70 75 71 68 72 70 73 76 74 69 75 71 76
REMARK SMILES IDX 72 77 73 78 74 79 51 80 52 81 60 82 53 83 55 84 61 85 54 86
REMARK SMILES IDX 56 87 57 88 58 89 59 90
REMARK H PARENT 5 14 81 43 49 54
REMARK Flexibility Score: inf
ROOT
ATOM      1  C   UNL A   1      36.757  23.031  25.176  1.00  0.00     0.202 C 
ENDROOT
BRANCH   1   2
ATOM      2  C   UNL A   1      35.266  23.290  25.373  1.00  0.00     0.261 C 
BRANCH   2   3
ATOM      3  O   UNL A   1      34.439  22.562  24.459  1.00  0.00    -0.459 OA
BRANCH   3   4
ATOM      4  C   UNL A   1      34.174  23.239  23.311  1.00  0.00     0.355 C 
ATOM      5  O   UNL A   1      34.955  23.336  22.375  1.00  0.00    -0.244 OA
BRANCH   4   6
ATOM      6  C   UNL A   1      32.839  23.802  23.313  1.00  0.00     0.128 A 
ATOM      7  N   UNL A   1      32.436  25.126  23.240  1.00  0.00    -0.333 N 
ATOM      8  C   UNL A   1      31.058  25.178  23.232  1.00  0.00     0.087 A 
ATOM      9  C   UNL A   1      30.569  23.895  23.242  1.00  0.00     0.020 A 
ATOM     10  C   UNL A   1      31.680  23.035  23.279  1.00  0.00     0.035 A 
BRANCH   7  11
ATOM     11  C   UNL A   1      33.261  26.325  23.127  1.00  0.00     0.222 C 
BRANCH  11  12
ATOM     12  C   UNL A   1      32.543  27.598  23.556  1.00  0.00     0.240 C 
ATOM     13  N   UNL A   1      32.311  27.872  24.878  1.00  0.00    -0.352 N 
ATOM     14  H   UNL A   1      31.706  28.629  25.053  1.00  0.00     0.163 HD
ATOM     15  O   UNL A   1      32.098  28.397  22.729  1.00  0.00    -0.273 OA
BRANCH  13  16
ATOM     16  C   UNL A   1      32.831  27.200  26.061  1.00  0.00     0.078 C 
ATOM     17  C   UNL A   1      31.839  26.170  26.584  1.00  0.00     0.031 C 
BRANCH  16  18
ATOM     18  C   UNL A   1      33.251  28.247  27.105  1.00  0.00     0.021 C 
ATOM     19  C   UNL A   1      34.520  29.017  26.768  1.00  0.00     0.006 C 
ENDBRANCH  16  18
ENDBRANCH  13  16
ENDBRANCH  11  12
ENDBRANCH   7  11
ENDBRANCH   4   6
ENDBRANCH   3   4
ENDBRANCH   2   3
ENDBRANCH   1   2
BRANCH   1  20
ATOM     20  O   UNL A   1      37.428  22.087  26.005  1.00  0.00    -0.374 OA
BRANCH  20  21
ATOM     21  C   UNL A   1      38.823  21.828  25.897  1.00  0.00     0.202 C 
BRANCH  21  22
ATOM     22  C   UNL A   1      39.867  22.707  26.575  1.00  0.00     0.261 C 
BRANCH  22  23
ATOM     23  O   UNL A   1      39.540  24.082  26.621  1.00  0.00    -0.460 OA
BRANCH  23  24
ATOM     24  C   UNL A   1      40.514  24.761  27.268  1.00  0.00     0.338 C 
ATOM     25  O   UNL A   1      41.609  24.340  27.608  1.00  0.00    -0.246 OA
BRANCH  24  26
ATOM     26  C   UNL A   1      40.016  26.047  27.715  1.00  0.00     0.060 A 
ATOM     27  C   UNL A   1      40.581  27.156  27.081  1.00  0.00     0.016 A 
ATOM     28  C   UNL A   1      39.434  26.096  28.984  1.00  0.00     0.016 A 
ATOM     29  C   UNL A   1      40.729  28.305  27.814  1.00  0.00     0.010 A 
ATOM     30  C   UNL A   1      39.638  27.224  29.735  1.00  0.00     0.010 A 
ATOM     31  C   UNL A   1      40.307  28.302  29.150  1.00  0.00    -0.014 A 
BRANCH  31  32
ATOM     32  C   UNL A   1      40.391  29.566  29.874  1.00  0.00     0.031 A 
ATOM     33  C   UNL A   1      39.139  30.405  29.500  1.00  0.00     0.074 A 
ATOM     34  C   UNL A   1      41.546  29.734  30.597  1.00  0.00     0.049 A 
ATOM     35  N   UNL A   1      39.025  31.675  29.259  1.00  0.00    -0.248 NA
ATOM     36  C   UNL A   1      37.853  29.706  29.177  1.00  0.00     0.031 C 
ATOM     37  C   UNL A   1      42.603  28.707  30.815  1.00  0.00     0.029 A 
ATOM     38  N   UNL A   1      42.083  30.788  31.299  1.00  0.00    -0.354 N 
ATOM     39  C   UNL A   1      37.646  31.938  29.051  1.00  0.00     0.074 A 
ATOM     40  C   UNL A   1      37.020  30.682  28.815  1.00  0.00     0.031 C 
ATOM     41  C   UNL A   1      43.660  29.219  31.494  1.00  0.00     0.029 A 
ATOM     42  C   UNL A   1      43.401  30.611  31.808  1.00  0.00     0.049 A 
ATOM     43  H   UNL A   1      41.581  31.623  31.443  1.00  0.00     0.167 HD
ATOM     44  C   UNL A   1      37.082  33.158  29.288  1.00  0.00     0.034 A 
ATOM     45  C   UNL A   1      44.221  31.553  32.385  1.00  0.00     0.034 A 
ATOM     46  C   UNL A   1      38.097  34.039  29.762  1.00  0.00     0.049 A 
ATOM     47  C   UNL A   1      43.369  32.746  32.482  1.00  0.00     0.074 A 
ATOM     48  C   UNL A   1      39.136  34.666  29.129  1.00  0.00     0.029 A 
ATOM     49  N   UNL A   1      38.338  33.974  31.116  1.00  0.00    -0.354 N 
ATOM     50  N   UNL A   1      42.382  32.881  33.316  1.00  0.00    -0.248 NA
ATOM     51  C   UNL A   1      43.513  33.787  31.459  1.00  0.00     0.031 C 
ATOM     52  C   UNL A   1      40.189  34.512  30.051  1.00  0.00     0.029 A 
ATOM     53  C   UNL A   1      39.693  34.080  31.288  1.00  0.00     0.049 A 
ATOM     54  H   UNL A   1      37.664  33.870  31.826  1.00  0.00     0.167 HD
ATOM     55  C   UNL A   1      41.598  33.809  32.678  1.00  0.00     0.074 A 
ATOM     56  C   UNL A   1      42.474  34.545  31.790  1.00  0.00     0.031 C 
ATOM     57  C   UNL A   1      40.266  33.584  32.515  1.00  0.00     0.034 A 
BRANCH  44  58
ATOM     58  C   UNL A   1      35.665  33.657  29.431  1.00  0.00     0.023 A 
ATOM     59  C   UNL A   1      35.009  33.947  28.199  1.00  0.00     0.012 A 
ATOM     60  C   UNL A   1      35.076  34.153  30.606  1.00  0.00     0.148 A 
ATOM     61  C   UNL A   1      33.929  34.819  28.113  1.00  0.00     0.002 A 
ATOM     62  C   UNL A   1      33.954  34.983  30.518  1.00  0.00     0.091 A 
ATOM     63  F   UNL A   1      35.642  33.894  31.789  1.00  0.00    -0.205 F 
ATOM     64  C   UNL A   1      33.413  35.355  29.277  1.00  0.00     0.022 A 
BRANCH  62  65
ATOM     65  S   UNL A   1      33.121  35.663  31.958  1.00  0.00     0.127 S 
ATOM     66  O   UNL A   1      32.703  34.455  32.665  1.00  0.00    -0.237 OA
ATOM     67  O   UNL A   1      34.206  36.401  32.609  1.00  0.00    -0.237 OA
ATOM     68  O   UNL A   1      32.056  36.510  31.437  1.00  0.00    -0.744 OA
ENDBRANCH  62  65
ENDBRANCH  44  58
BRANCH  45  69
ATOM     69  C   UNL A   1      45.675  31.727  32.787  1.00  0.00     0.023 A 
ATOM     70  C   UNL A   1      46.644  32.397  32.026  1.00  0.00     0.012 A 
ATOM     71  C   UNL A   1      46.129  31.236  34.057  1.00  0.00     0.148 A 
ATOM     72  C   UNL A   1      47.940  32.642  32.542  1.00  0.00     0.002 A 
ATOM     73  C   UNL A   1      47.354  31.590  34.614  1.00  0.00     0.091 A 
ATOM     74  F   UNL A   1      45.385  30.358  34.736  1.00  0.00    -0.205 F 
ATOM     75  C   UNL A   1      48.279  32.287  33.848  1.00  0.00     0.022 A 
BRANCH  73  76
ATOM     76  S   UNL A   1      47.728  31.296  36.359  1.00  0.00     0.127 S 
ATOM     77  O   UNL A   1      47.674  29.840  36.451  1.00  0.00    -0.237 OA
ATOM     78  O   UNL A   1      49.069  31.870  36.471  1.00  0.00    -0.237 OA
ATOM     79  O   UNL A   1      46.709  32.004  37.123  1.00  0.00    -0.744 OA
ENDBRANCH  73  76
ENDBRANCH  45  69
BRANCH  57  80
ATOM     80  C   UNL A   1      39.635  32.611  33.518  1.00  0.00     0.023 A 
ATOM     81  C   UNL A   1      39.204  31.372  33.005  1.00  0.00     0.012 A 
ATOM     82  C   UNL A   1      39.345  32.869  34.882  1.00  0.00     0.148 A 
ATOM     83  C   UNL A   1      38.509  30.445  33.789  1.00  0.00     0.002 A 
ATOM     84  C   UNL A   1      38.627  31.952  35.664  1.00  0.00     0.091 A 
ATOM     85  F   UNL A   1      39.776  34.005  35.423  1.00  0.00    -0.205 F 
ATOM     86  C   UNL A   1      38.215  30.735  35.115  1.00  0.00     0.022 A 
BRANCH  84  87
ATOM     87  S   UNL A   1      38.109  32.255  37.371  1.00  0.00     0.127 S 
ATOM     88  O   UNL A   1      37.350  31.045  37.694  1.00  0.00    -0.237 OA
ATOM     89  O   UNL A   1      39.387  32.361  38.071  1.00  0.00    -0.237 OA
ATOM     90  O   UNL A   1      37.305  33.472  37.348  1.00  0.00    -0.744 OA
ENDBRANCH  84  87
ENDBRANCH  57  80
ENDBRANCH  31  32
ENDBRANCH  24  26
ENDBRANCH  23  24
ENDBRANCH  22  23
ENDBRANCH  21  22
ENDBRANCH  20  21
ENDBRANCH   1  20
TORSDOF 21
ENDMDL
MODEL 2
REMARK VINA RESULT:      -9.7      1.840      2.762
REMARK SMILES CC[C@@H](C)NC(=O)Cn1cccc1C(=O)OCCOCCOC(=O)c1ccc(-c2c3nc(c(-c4cccc(S(=O)(=O)[O-])c4F)c4ccc([nH]4)c(-c4cccc(S(=O)(=O)[O-])c4F)c4nc(c(-c5cccc(S(=O)(=O)[O-])c5F)c5ccc2[nH]5)C=C4)C=C3)cc1
REMARK SMILES IDX 18 1 17 2 16 3 14 4 15 5 13 6 9 7 10 8 11 9 12 10 8 11 6 12
REMARK SMILES IDX 5 13 7 15 3 16 4 17 2 18 1 19 19 20 20 21 21 22 22 23 23 24
REMARK SMILES IDX 24 25 25 26 26 27 87 28 27 29 86 30 28 31 29 32 30 33 80 34
REMARK SMILES IDX 31 35 85 36 79 37 81 38 32 39 84 40 78 41 77 42 33 44 65 45
REMARK SMILES IDX 45 46 64 47 46 48 49 49 63 50 82 51 47 52 48 53 62 55 83 56
REMARK SMILES IDX 50 57 34 58 35 59 43 60 36 61 38 62 44 63 37 64 39 65 40 66
REMARK SMILES IDX 41 67 42 68 66 69 67 70 75 71 68 72 70 73 76 74 69 75 71 76
REMARK SMILES IDX 72 77 73 78 74 79 51 80 52 81 60 82 53 83 55 84 61 85 54 86
REMARK SMILES IDX 56 87 57 88 58 89 59 90
REMARK H PARENT 5 14 81 43 49 54
REMARK Flexibility Score: inf
ROOT
ATOM      1  C   UNL A   1      34.060  24.904  25.496  1.00  0.00     0.202 C 
ENDROOT
BRANCH   1   2
ATOM      2  C   UNL A   1      33.301  25.965  24.705  1.00  0.00     0.261 C 
BRANCH   2   3
ATOM      3  O   UNL A   1      31.879  25.857  24.831  1.00  0.00    -0.459 OA
BRANCH   3   4
ATOM      4  C   UNL A   1      31.392  26.413  25.971  1.00  0.00     0.355 C 
ATOM      5  O   UNL A   1      30.911  25.774  26.896  1.00  0.00    -0.244 OA
BRANCH   4   6
ATOM      6  C   UNL A   1      31.545  27.855  25.975  1.00  0.00     0.128 A 
ATOM      7  N   UNL A   1      31.121  28.792  25.046  1.00  0.00    -0.333 N 
ATOM      8  C   UNL A   1      31.454  30.053  25.496  1.00  0.00     0.087 A 
ATOM      9  C   UNL A   1      32.039  29.939  26.734  1.00  0.00     0.020 A 
ATOM     10  C   UNL A   1      32.084  28.568  27.039  1.00  0.00     0.035 A 
BRANCH   7  11
ATOM     11  C   UNL A   1      30.386  28.578  23.804  1.00  0.00     0.222 C 
BRANCH  11  12
ATOM     12  C   UNL A   1      30.911  29.405  22.638  1.00  0.00     0.240 C 
ATOM     13  N   UNL A   1      30.118  30.327  22.006  1.00  0.00    -0.352 N 
ATOM     14  H   UNL A   1      30.484  30.696  21.170  1.00  0.00     0.163 HD
ATOM     15  O   UNL A   1      32.046  29.234  22.186  1.00  0.00    -0.273 OA
BRANCH  13  16
ATOM     16  C   UNL A   1      28.811  30.837  22.397  1.00  0.00     0.078 C 
ATOM     17  C   UNL A   1      27.698  29.931  21.887  1.00  0.00     0.031 C 
BRANCH  16  18
ATOM     18  C   UNL A   1      28.675  32.302  21.953  1.00  0.00     0.021 C 
ATOM     19  C   UNL A   1      29.035  33.330  23.016  1.00  0.00     0.006 C 
ENDBRANCH  16  18
ENDBRANCH  13  16
ENDBRANCH  11  12
ENDBRANCH   7  11
ENDBRANCH   4   6
ENDBRANCH   3   4
ENDBRANCH   2   3
ENDBRANCH   1   2
BRANCH   1  20
ATOM     20  O   UNL A   1      35.482  24.950  25.561  1.00  0.00    -0.374 OA
BRANCH  20  21
ATOM     21  C   UNL A   1      36.295  23.794  25.397  1.00  0.00     0.202 C 
BRANCH  21  22
ATOM     22  C   UNL A   1      37.805  23.828  25.600  1.00  0.00     0.261 C 
BRANCH  22  23
ATOM     23  O   UNL A   1      38.263  24.859  26.453  1.00  0.00    -0.460 OA
BRANCH  23  24
ATOM     24  C   UNL A   1      39.364  24.444  27.118  1.00  0.00     0.338 C 
ATOM     25  O   UNL A   1      39.673  23.296  27.396  1.00  0.00    -0.246 OA
BRANCH  24  26
ATOM     26  C   UNL A   1      40.074  25.582  27.671  1.00  0.00     0.060 A 
ATOM     27  C   UNL A   1      40.201  25.585  29.062  1.00  0.00     0.016 A 
ATOM     28  C   UNL A   1      40.128  26.737  26.887  1.00  0.00     0.016 A 
ATOM     29  C   UNL A   1      40.200  26.797  29.701  1.00  0.00     0.010 A 
ATOM     30  C   UNL A   1      40.066  27.946  27.531  1.00  0.00     0.010 A 
ATOM     31  C   UNL A   1      40.074  27.958  28.927  1.00  0.00    -0.014 A 
BRANCH  31  32
ATOM     32  C   UNL A   1      40.172  29.235  29.628  1.00  0.00     0.031 A 
ATOM     33  C   UNL A   1      38.893  30.051  29.294  1.00  0.00     0.074 A 
ATOM     34  C   UNL A   1      41.353  29.429  30.300  1.00  0.00     0.049 A 
ATOM     35  N   UNL A   1      38.752  31.316  29.039  1.00  0.00    -0.248 NA
ATOM     36  C   UNL A   1      37.604  29.330  29.036  1.00  0.00     0.031 C 
ATOM     37  C   UNL A   1      42.433  28.419  30.488  1.00  0.00     0.029 A 
ATOM     38  N   UNL A   1      41.904  30.501  30.962  1.00  0.00    -0.354 N 
ATOM     39  C   UNL A   1      37.362  31.557  28.885  1.00  0.00     0.074 A 
ATOM     40  C   UNL A   1      36.744  30.290  28.695  1.00  0.00     0.031 C 
ATOM     41  C   UNL A   1      43.509  28.956  31.115  1.00  0.00     0.029 A 
ATOM     42  C   UNL A   1      43.244  30.349  31.418  1.00  0.00     0.049 A 
ATOM     43  H   UNL A   1      41.397  31.331  31.114  1.00  0.00     0.167 HD
ATOM     44  C   UNL A   1      36.791  32.774  29.127  1.00  0.00     0.034 A 
ATOM     45  C   UNL A   1      44.075  31.311  31.946  1.00  0.00     0.034 A 
ATOM     46  C   UNL A   1      37.814  33.675  29.545  1.00  0.00     0.049 A 
ATOM     47  C   UNL A   1      43.212  32.494  32.061  1.00  0.00     0.074 A 
ATOM     48  C   UNL A   1      38.816  34.306  28.859  1.00  0.00     0.029 A 
ATOM     49  N   UNL A   1      38.111  33.634  30.888  1.00  0.00    -0.354 N 
ATOM     50  N   UNL A   1      42.258  32.629  32.934  1.00  0.00    -0.248 NA
ATOM     51  C   UNL A   1      43.298  33.520  31.017  1.00  0.00     0.031 C 
ATOM     52  C   UNL A   1      39.909  34.180  29.739  1.00  0.00     0.029 A 
ATOM     53  C   UNL A   1      39.470  33.760  31.002  1.00  0.00     0.049 A 
ATOM     54  H   UNL A   1      37.469  33.532  31.628  1.00  0.00     0.167 HD
ATOM     55  C   UNL A   1      41.436  33.537  32.315  1.00  0.00     0.074 A 
ATOM     56  C   UNL A   1      42.264  34.270  31.380  1.00  0.00     0.031 C 
ATOM     57  C   UNL A   1      40.101  33.292  32.211  1.00  0.00     0.034 A 
BRANCH  44  58
ATOM     58  C   UNL A   1      35.375  33.256  29.322  1.00  0.00     0.023 A 
ATOM     59  C   UNL A   1      34.592  33.296  28.132  1.00  0.00     0.012 A 
ATOM     60  C   UNL A   1      34.882  33.947  30.441  1.00  0.00     0.148 A 
ATOM     61  C   UNL A   1      33.471  34.111  28.000  1.00  0.00     0.002 A 
ATOM     62  C   UNL A   1      33.722  34.719  30.320  1.00  0.00     0.091 A 
ATOM     63  F   UNL A   1      35.570  33.926  31.587  1.00  0.00    -0.205 F 
ATOM     64  C   UNL A   1      33.048  34.841  29.094  1.00  0.00     0.022 A 
BRANCH  62  65
ATOM     65  S   UNL A   1      33.004  35.634  31.690  1.00  0.00     0.127 S 
ATOM     66  O   UNL A   1      34.032  36.636  31.957  1.00  0.00    -0.237 OA
ATOM     67  O   UNL A   1      31.781  36.168  31.083  1.00  0.00    -0.237 OA
ATOM     68  O   UNL A   1      32.766  34.653  32.740  1.00  0.00    -0.744 OA
ENDBRANCH  62  65
ENDBRANCH  44  58
BRANCH  45  69
ATOM     69  C   UNL A   1      45.542  31.510  32.285  1.00  0.00     0.023 A 
ATOM     70  C   UNL A   1      46.601  31.375  31.375  1.00  0.00     0.012 A 
ATOM     71  C   UNL A   1      45.921  31.923  33.606  1.00  0.00     0.148 A 
ATOM     72  C   UNL A   1      47.926  31.722  31.737  1.00  0.00     0.002 A 
ATOM     73  C   UNL A   1      47.194  32.387  33.920  1.00  0.00     0.091 A 
ATOM     74  F   UNL A   1      45.048  31.818  34.612  1.00  0.00    -0.205 F 
ATOM     75  C   UNL A   1      48.214  32.275  32.985  1.00  0.00     0.022 A 
BRANCH  73  76
ATOM     76  S   UNL A   1      47.533  33.269  35.462  1.00  0.00     0.127 S 
ATOM     77  O   UNL A   1      47.435  32.207  36.460  1.00  0.00    -0.237 OA
ATOM     78  O   UNL A   1      48.889  33.765  35.224  1.00  0.00    -0.237 OA
ATOM     79  O   UNL A   1      46.524  34.315  35.569  1.00  0.00    -0.744 OA
ENDBRANCH  73  76
ENDBRANCH  45  69
BRANCH  57  80
ATOM     80  C   UNL A   1      39.526  32.326  33.254  1.00  0.00     0.023 A 
ATOM     81  C   UNL A   1      39.167  31.044  32.793  1.00  0.00     0.012 A 
ATOM     82  C   UNL A   1      39.220  32.623  34.607  1.00  0.00     0.148 A 
ATOM     83  C   UNL A   1      38.525  30.112  33.616  1.00  0.00     0.002 A 
ATOM     84  C   UNL A   1      38.555  31.699  35.427  1.00  0.00     0.091 A 
ATOM     85  F   UNL A   1      39.585  33.803  35.100  1.00  0.00    -0.205 F 
ATOM     86  C   UNL A   1      38.214  30.439  34.929  1.00  0.00     0.022 A 
BRANCH  84  87
ATOM     87  S   UNL A   1      38.020  32.042  37.121  1.00  0.00     0.127 S 
ATOM     88  O   UNL A   1      37.545  30.734  37.576  1.00  0.00    -0.237 OA
ATOM     89  O   UNL A   1      39.259  32.481  37.757  1.00  0.00    -0.237 OA
ATOM     90  O   UNL A   1      36.973  33.053  37.026  1.00  0.00    -0.744 OA
ENDBRANCH  84  87
ENDBRANCH  57  80
ENDBRANCH  31  32
ENDBRANCH  24  26
ENDBRANCH  23  24
ENDBRANCH  22  23
ENDBRANCH  21  22
ENDBRANCH  20  21
ENDBRANCH   1  20
TORSDOF 21
ENDMDL
MODEL 3
REMARK VINA RESULT:      -9.5      4.606      6.712
REMARK SMILES CC[C@@H](C)NC(=O)Cn1cccc1C(=O)OCCOCCOC(=O)c1ccc(-c2c3nc(c(-c4cccc(S(=O)(=O)[O-])c4F)c4ccc([nH]4)c(-c4cccc(S(=O)(=O)[O-])c4F)c4nc(c(-c5cccc(S(=O)(=O)[O-])c5F)c5ccc2[nH]5)C=C4)C=C3)cc1
REMARK SMILES IDX 18 1 17 2 16 3 14 4 15 5 13 6 9 7 10 8 11 9 12 10 8 11 6 12
REMARK SMILES IDX 5 13 7 15 3 16 4 17 2 18 1 19 19 20 20 21 21 22 22 23 23 24
REMARK SMILES IDX 24 25 25 26 26 27 87 28 27 29 86 30 28 31 29 32 30 33 80 34
REMARK SMILES IDX 31 35 85 36 79 37 81 38 32 39 84 40 78 41 77 42 33 44 65 45
REMARK SMILES IDX 45 46 64 47 46 48 49 49 63 50 82 51 47 52 48 53 62 55 83 56
REMARK SMILES IDX 50 57 34 58 35 59 43 60 36 61 38 62 44 63 37 64 39 65 40 66
REMARK SMILES IDX 41 67 42 68 66 69 67 70 75 71 68 72 70 73 76 74 69 75 71 76
REMARK SMILES IDX 72 77 73 78 74 79 51 80 52 81 60 82 53 83 55 84 61 85 54 86
REMARK SMILES IDX 56 87 57 88 58 89 59 90
REMARK H PARENT 5 14 81 43 49 54
REMARK Flexibility Score: inf
ROOT
ATOM      1  C   UNL A   1      37.506  23.553  25.956  1.00  0.00     0.202 C 
ENDROOT
BRANCH   1   2
ATOM      2  C   UNL A   1      36.204  23.976  25.280  1.00  0.00     0.261 C 
BRANCH   2   3
ATOM      3  O   UNL A   1      35.859  23.161  24.156  1.00  0.00    -0.459 OA
BRANCH   3   4
ATOM      4  C   UNL A   1      34.566  23.301  23.762  1.00  0.00     0.355 C 
ATOM      5  O   UNL A   1      34.172  24.169  22.996  1.00  0.00    -0.244 OA
BRANCH   4   6
ATOM      6  C   UNL A   1      33.714  22.275  24.330  1.00  0.00     0.128 A 
ATOM      7  N   UNL A   1      32.337  22.251  24.480  1.00  0.00    -0.333 N 
ATOM      8  C   UNL A   1      31.966  21.044  25.036  1.00  0.00     0.087 A 
ATOM      9  C   UNL A   1      33.087  20.267  25.192  1.00  0.00     0.020 A 
ATOM     10  C   UNL A   1      34.178  21.030  24.740  1.00  0.00     0.035 A 
BRANCH   7  11
ATOM     11  C   UNL A   1      31.358  23.261  24.090  1.00  0.00     0.222 C 
BRANCH  11  12
ATOM     12  C   UNL A   1      31.251  24.416  25.077  1.00  0.00     0.240 C 
ATOM     13  N   UNL A   1      30.902  25.674  24.665  1.00  0.00    -0.352 N 
ATOM     14  H   UNL A   1      31.013  26.385  25.337  1.00  0.00     0.163 HD
ATOM     15  O   UNL A   1      31.529  24.270  26.270  1.00  0.00    -0.273 OA
BRANCH  13  16
ATOM     16  C   UNL A   1      30.392  26.109  23.372  1.00  0.00     0.078 C 
ATOM     17  C   UNL A   1      31.528  26.547  22.457  1.00  0.00     0.031 C 
BRANCH  16  18
ATOM     18  C   UNL A   1      29.310  27.181  23.578  1.00  0.00     0.021 C 
ATOM     19  C   UNL A   1      29.826  28.613  23.618  1.00  0.00     0.006 C 
ENDBRANCH  16  18
ENDBRANCH  13  16
ENDBRANCH  11  12
ENDBRANCH   7  11
ENDBRANCH   4   6
ENDBRANCH   3   4
ENDBRANCH   2   3
ENDBRANCH   1   2
BRANCH   1  20
ATOM     20  O   UNL A   1      38.304  22.525  25.378  1.00  0.00    -0.374 OA
BRANCH  20  21
ATOM     21  C   UNL A   1      39.218  21.745  26.139  1.00  0.00     0.202 C 
BRANCH  21  22
ATOM     22  C   UNL A   1      39.685  20.368  25.683  1.00  0.00     0.261 C 
BRANCH  22  23
ATOM     23  O   UNL A   1      40.432  19.650  26.645  1.00  0.00    -0.460 OA
BRANCH  23  24
ATOM     24  C   UNL A   1      41.669  19.393  26.162  1.00  0.00     0.338 C 
ATOM     25  O   UNL A   1      42.070  18.349  25.671  1.00  0.00    -0.246 OA
BRANCH  24  26
ATOM     26  C   UNL A   1      42.571  20.480  26.490  1.00  0.00     0.060 A 
ATOM     27  C   UNL A   1      42.528  20.908  27.819  1.00  0.00     0.016 A 
ATOM     28  C   UNL A   1      43.008  21.283  25.433  1.00  0.00     0.016 A 
ATOM     29  C   UNL A   1      42.757  22.236  28.070  1.00  0.00     0.010 A 
ATOM     30  C   UNL A   1      43.176  22.621  25.678  1.00  0.00     0.010 A 
ATOM     31  C   UNL A   1      43.021  23.084  26.987  1.00  0.00    -0.014 A 
BRANCH  31  32
ATOM     32  C   UNL A   1      43.352  24.470  27.297  1.00  0.00     0.031 A 
ATOM     33  C   UNL A   1      42.017  25.238  27.495  1.00  0.00     0.074 A 
ATOM     34  C   UNL A   1      44.693  24.763  27.246  1.00  0.00     0.049 A 
ATOM     35  N   UNL A   1      41.674  26.431  27.114  1.00  0.00    -0.248 NA
ATOM     36  C   UNL A   1      40.825  24.515  28.048  1.00  0.00     0.031 C 
ATOM     37  C   UNL A   1      45.799  23.782  27.058  1.00  0.00     0.029 A 
ATOM     38  N   UNL A   1      45.415  25.930  27.336  1.00  0.00    -0.354 N 
ATOM     39  C   UNL A   1      40.373  26.674  27.627  1.00  0.00     0.074 A 
ATOM     40  C   UNL A   1      39.838  25.411  28.007  1.00  0.00     0.031 C 
ATOM     41  C   UNL A   1      47.000  24.404  26.957  1.00  0.00     0.029 A 
ATOM     42  C   UNL A   1      46.814  25.836  27.088  1.00  0.00     0.049 A 
ATOM     43  H   UNL A   1      44.986  26.787  27.562  1.00  0.00     0.167 HD
ATOM     44  C   UNL A   1      39.904  27.929  27.889  1.00  0.00     0.034 A 
ATOM     45  C   UNL A   1      47.721  26.860  26.946  1.00  0.00     0.034 A 
ATOM     46  C   UNL A   1      40.928  28.868  27.570  1.00  0.00     0.049 A 
ATOM     47  C   UNL A   1      46.938  28.065  27.252  1.00  0.00     0.074 A 
ATOM     48  C   UNL A   1      41.415  29.322  26.375  1.00  0.00     0.029 A 
ATOM     49  N   UNL A   1      41.848  29.086  28.571  1.00  0.00    -0.354 N 
ATOM     50  N   UNL A   1      46.528  28.397  28.440  1.00  0.00    -0.248 NA
ATOM     51  C   UNL A   1      46.424  28.861  26.132  1.00  0.00     0.031 C 
ATOM     52  C   UNL A   1      42.804  29.345  26.603  1.00  0.00     0.029 A 
ATOM     53  C   UNL A   1      43.075  29.196  27.971  1.00  0.00     0.049 A 
ATOM     54  H   UNL A   1      41.660  29.150  29.535  1.00  0.00     0.167 HD
ATOM     55  C   UNL A   1      45.442  29.185  28.154  1.00  0.00     0.074 A 
ATOM     56  C   UNL A   1      45.647  29.695  26.814  1.00  0.00     0.031 C 
ATOM     57  C   UNL A   1      44.250  28.960  28.771  1.00  0.00     0.034 A 
BRANCH  44  58
ATOM     58  C   UNL A   1      38.733  28.478  28.666  1.00  0.00     0.023 A 
ATOM     59  C   UNL A   1      37.847  29.296  27.906  1.00  0.00     0.012 A 
ATOM     60  C   UNL A   1      38.619  28.532  30.065  1.00  0.00     0.148 A 
ATOM     61  C   UNL A   1      37.012  30.242  28.495  1.00  0.00     0.002 A 
ATOM     62  C   UNL A   1      37.735  29.443  30.651  1.00  0.00     0.091 A 
ATOM     63  F   UNL A   1      39.414  27.770  30.822  1.00  0.00    -0.205 F 
ATOM     64  C   UNL A   1      36.972  30.328  29.873  1.00  0.00     0.022 A 
BRANCH  62  65
ATOM     65  S   UNL A   1      37.507  29.586  32.428  1.00  0.00     0.127 S 
ATOM     66  O   UNL A   1      37.493  28.186  32.846  1.00  0.00    -0.237 OA
ATOM     67  O   UNL A   1      38.710  30.324  32.824  1.00  0.00    -0.237 OA
ATOM     68  O   UNL A   1      36.267  30.328  32.611  1.00  0.00    -0.744 OA
ENDBRANCH  62  65
ENDBRANCH  44  58
BRANCH  45  69
ATOM     69  C   UNL A   1      49.146  27.083  26.470  1.00  0.00     0.023 A 
ATOM     70  C   UNL A   1      49.525  27.266  25.133  1.00  0.00     0.012 A 
ATOM     71  C   UNL A   1      50.212  27.178  27.426  1.00  0.00     0.148 A 
ATOM     72  C   UNL A   1      50.855  27.616  24.790  1.00  0.00     0.002 A 
ATOM     73  C   UNL A   1      51.481  27.648  27.103  1.00  0.00     0.091 A 
ATOM     74  F   UNL A   1      50.023  26.754  28.679  1.00  0.00    -0.205 F 
ATOM     75  C   UNL A   1      51.816  27.856  25.772  1.00  0.00     0.022 A 
BRANCH  73  76
ATOM     76  S   UNL A   1      52.669  28.136  28.376  1.00  0.00     0.127 S 
ATOM     77  O   UNL A   1      51.816  28.781  29.371  1.00  0.00    -0.237 OA
ATOM     78  O   UNL A   1      53.213  26.839  28.782  1.00  0.00    -0.237 OA
ATOM     79  O   UNL A   1      53.635  29.011  27.725  1.00  0.00    -0.744 OA
ENDBRANCH  73  76
ENDBRANCH  45  69
BRANCH  57  80
ATOM     80  C   UNL A   1      44.335  28.236  30.121  1.00  0.00     0.023 A 
ATOM     81  C   UNL A   1      44.013  26.865  30.119  1.00  0.00     0.012 A 
ATOM     82  C   UNL A   1      44.600  28.825  31.383  1.00  0.00     0.148 A 
ATOM     83  C   UNL A   1      43.939  26.118  31.300  1.00  0.00     0.002 A 
ATOM     84  C   UNL A   1      44.502  28.085  32.571  1.00  0.00     0.091 A 
ATOM     85  F   UNL A   1      44.956  30.105  31.429  1.00  0.00    -0.205 F 
ATOM     86  C   UNL A   1      44.177  26.727  32.526  1.00  0.00     0.022 A 
BRANCH  84  87
ATOM     87  S   UNL A   1      44.702  28.787  34.227  1.00  0.00     0.127 S 
ATOM     88  O   UNL A   1      45.222  27.651  34.993  1.00  0.00    -0.237 OA
ATOM     89  O   UNL A   1      45.678  29.849  34.000  1.00  0.00    -0.237 OA
ATOM     90  O   UNL A   1      43.379  29.231  34.649  1.00  0.00    -0.744 OA
ENDBRANCH  84  87
ENDBRANCH  57  80
ENDBRANCH  31  32
ENDBRANCH  24  26
ENDBRANCH  23  24
ENDBRANCH  22  23
ENDBRANCH  21  22
ENDBRANCH  20  21
ENDBRANCH   1  20
TORSDOF 21
ENDMDL
