MODEL 1
REMARK VINA RESULT:     -10.1      0.000      0.000
REMARK SMILES CCc1ccc(OCC(=O)Nc2cc(C)c(O)c(C(=O)OCCOCCOC(=O)c3ccc(-c4c5nc(c(-c6cccc(S(=O)(=O)[O-])c6F)c6ccc([nH]6)c(-c6cccc(S(=O)(=O)[O-])c6F)c6nc(c(-c7cccc(S(=O)(=O)[O-])c7F)c7ccc4[nH]7)C=C6)C=C5)cc3)c2)cc1
REMARK SMILES IDX 23 1 22 2 21 3 19 4 20 5 18 6 12 7 13 8 93 9 14 10 15 11
REMARK SMILES IDX 16 12 11 13 9 14 10 15 8 17 7 18 6 19 3 20 4 21 95 22 5 23
REMARK SMILES IDX 94 24 2 25 1 26 17 27 24 29 25 30 26 31 27 32 28 33 29 34
REMARK SMILES IDX 30 35 31 36 92 37 32 38 91 39 33 40 34 41 35 42 85 43 36 44
REMARK SMILES IDX 90 45 84 46 86 47 37 48 89 49 83 50 82 51 38 53 70 54 50 55
REMARK SMILES IDX 69 56 51 57 54 58 68 59 87 60 52 61 53 62 67 64 88 65 55 66
REMARK SMILES IDX 39 67 40 68 48 69 41 70 43 71 49 72 42 73 44 74 45 75 46 76
REMARK SMILES IDX 47 77 71 78 72 79 80 80 73 81 75 82 81 83 74 84 76 85 77 86
REMARK SMILES IDX 78 87 79 88 56 89 57 90 65 91 58 92 60 93 66 94 59 95 61 96
REMARK SMILES IDX 62 97 63 98 64 99
REMARK H PARENT 11 16 17 28 86 52 54 63
REMARK Flexibility Score: inf
ROOT
ATOM      1  C   UNL A   1      34.900  31.194  27.875  1.00  0.00     0.202 C 
ENDROOT
BRANCH   1   2
ATOM      2  C   UNL A   1      34.327  30.140  26.923  1.00  0.00     0.261 C 
BRANCH   2   3
ATOM      3  O   UNL A   1      33.085  29.631  27.432  1.00  0.00    -0.460 OA
BRANCH   3   4
ATOM      4  C   UNL A   1      31.991  29.890  26.679  1.00  0.00     0.342 C 
ATOM      5  O   UNL A   1      31.533  30.987  26.396  1.00  0.00    -0.246 OA
BRANCH   4   6
ATOM      6  C   UNL A   1      31.492  28.650  26.037  1.00  0.00     0.104 A 
ATOM      7  C   UNL A   1      31.037  26.265  26.123  1.00  0.00     0.042 A 
ATOM      8  C   UNL A   1      30.686  26.314  24.765  1.00  0.00     0.033 A 
ATOM      9  C   UNL A   1      31.470  27.435  26.736  1.00  0.00     0.045 A 
ATOM     10  C   UNL A   1      30.708  27.518  24.039  1.00  0.00    -0.006 A 
ATOM     11  C   UNL A   1      30.251  27.523  22.609  1.00  0.00     0.048 C 
ATOM     12  C   UNL A   1      31.095  28.690  24.694  1.00  0.00     0.133 A 
BRANCH   7  13
ATOM     13  N   UNL A   1      30.937  25.015  26.751  1.00  0.00    -0.323 N 
ATOM     14  C   UNL A   1      31.799  23.971  26.927  1.00  0.00     0.262 C 
ATOM     15  O   UNL A   1      31.367  23.000  27.564  1.00  0.00    -0.271 OA
ATOM     16  H   UNL A   1      30.054  24.857  27.155  1.00  0.00     0.170 HD
BRANCH  14  17
ATOM     17  C   UNL A   1      33.276  24.017  26.499  1.00  0.00     0.329 C 
BRANCH  17  18
ATOM     18  O   UNL A   1      33.722  23.281  25.376  1.00  0.00    -0.484 OA
BRANCH  18  19
ATOM     19  C   UNL A   1      33.533  23.854  24.153  1.00  0.00     0.120 A 
ATOM     20  C   UNL A   1      33.211  25.245  21.735  1.00  0.00    -0.048 A 
ATOM     21  C   UNL A   1      33.715  25.887  22.872  1.00  0.00     0.007 A 
ATOM     22  C   UNL A   1      32.895  23.888  21.822  1.00  0.00     0.007 A 
ATOM     23  C   UNL A   1      33.881  25.198  24.070  1.00  0.00     0.047 A 
ATOM     24  C   UNL A   1      33.065  23.191  23.022  1.00  0.00     0.047 A 
BRANCH  20  25
ATOM     25  C   UNL A   1      33.078  25.983  20.425  1.00  0.00     0.032 C 
ATOM     26  C   UNL A   1      31.960  25.444  19.542  1.00  0.00     0.009 C 
ENDBRANCH  20  25
ENDBRANCH  18  19
ENDBRANCH  17  18
ENDBRANCH  14  17
ENDBRANCH   7  13
BRANCH  12  27
ATOM     27  O   UNL A   1      31.099  29.854  23.967  1.00  0.00    -0.507 OA
ATOM     28  H   UNL A   1      30.331  30.118  23.502  1.00  0.00     0.293 HD
ENDBRANCH  12  27
ENDBRANCH   4   6
ENDBRANCH   3   4
ENDBRANCH   2   3
ENDBRANCH   1   2
BRANCH   1  29
ATOM     29  O   UNL A   1      33.924  32.039  28.493  1.00  0.00    -0.374 OA
BRANCH  29  30
ATOM     30  C   UNL A   1      33.554  33.203  27.752  1.00  0.00     0.202 C 
BRANCH  30  31
ATOM     31  C   UNL A   1      33.640  34.538  28.499  1.00  0.00     0.261 C 
BRANCH  31  32
ATOM     32  O   UNL A   1      32.833  34.557  29.684  1.00  0.00    -0.460 OA
BRANCH  32  33
ATOM     33  C   UNL A   1      33.459  35.005  30.800  1.00  0.00     0.338 C 
ATOM     34  O   UNL A   1      33.081  35.877  31.566  1.00  0.00    -0.246 OA
BRANCH  33  35
ATOM     35  C   UNL A   1      34.645  34.164  31.034  1.00  0.00     0.060 A 
ATOM     36  C   UNL A   1      34.515  32.964  31.740  1.00  0.00     0.016 A 
ATOM     37  C   UNL A   1      35.888  34.568  30.559  1.00  0.00     0.016 A 
ATOM     38  C   UNL A   1      35.645  32.178  31.998  1.00  0.00     0.010 A 
ATOM     39  C   UNL A   1      37.001  33.757  30.784  1.00  0.00     0.010 A 
ATOM     40  C   UNL A   1      36.910  32.576  31.542  1.00  0.00    -0.014 A 
BRANCH  40  41
ATOM     41  C   UNL A   1      38.155  31.861  31.955  1.00  0.00     0.031 A 
ATOM     42  C   UNL A   1      38.823  32.239  33.262  1.00  0.00     0.074 A 
ATOM     43  C   UNL A   1      38.732  30.923  31.173  1.00  0.00     0.049 A 
ATOM     44  N   UNL A   1      39.934  31.788  33.787  1.00  0.00    -0.248 NA
ATOM     45  C   UNL A   1      38.189  33.303  34.060  1.00  0.00     0.031 C 
ATOM     46  C   UNL A   1      38.277  30.522  29.840  1.00  0.00     0.029 A 
ATOM     47  N   UNL A   1      39.850  30.147  31.384  1.00  0.00    -0.354 N 
ATOM     48  C   UNL A   1      40.165  32.567  34.918  1.00  0.00     0.074 A 
ATOM     49  C   UNL A   1      39.111  33.551  34.975  1.00  0.00     0.031 C 
ATOM     50  C   UNL A   1      39.096  29.567  29.362  1.00  0.00     0.029 A 
ATOM     51  C   UNL A   1      40.148  29.299  30.340  1.00  0.00     0.049 A 
ATOM     52  H   UNL A   1      40.388  30.194  32.207  1.00  0.00     0.167 HD
ATOM     53  C   UNL A   1      41.131  32.451  35.858  1.00  0.00     0.034 A 
ATOM     54  C   UNL A   1      41.151  28.408  30.192  1.00  0.00     0.034 A 
ATOM     55  C   UNL A   1      42.105  31.397  35.880  1.00  0.00     0.049 A 
ATOM     56  C   UNL A   1      42.146  28.217  31.312  1.00  0.00     0.074 A 
ATOM     57  C   UNL A   1      43.018  31.095  36.874  1.00  0.00     0.029 A 
ATOM     58  N   UNL A   1      42.290  30.473  34.867  1.00  0.00    -0.354 N 
ATOM     59  N   UNL A   1      42.219  28.831  32.469  1.00  0.00    -0.248 NA
ATOM     60  C   UNL A   1      43.173  27.178  31.126  1.00  0.00     0.031 C 
ATOM     61  C   UNL A   1      43.781  30.006  36.446  1.00  0.00     0.029 A 
ATOM     62  C   UNL A   1      43.313  29.606  35.205  1.00  0.00     0.049 A 
ATOM     63  H   UNL A   1      41.771  30.438  34.032  1.00  0.00     0.167 HD
ATOM     64  C   UNL A   1      43.267  28.226  33.158  1.00  0.00     0.074 A 
ATOM     65  C   UNL A   1      43.779  27.176  32.303  1.00  0.00     0.031 C 
ATOM     66  C   UNL A   1      43.772  28.522  34.380  1.00  0.00     0.034 A 
BRANCH  53  67
ATOM     67  C   UNL A   1      41.149  33.448  36.987  1.00  0.00     0.023 A 
ATOM     68  C   UNL A   1      41.949  34.605  36.897  1.00  0.00     0.012 A 
ATOM     69  C   UNL A   1      40.307  33.275  38.103  1.00  0.00     0.148 A 
ATOM     70  C   UNL A   1      41.943  35.555  37.917  1.00  0.00     0.002 A 
ATOM     71  C   UNL A   1      40.263  34.254  39.088  1.00  0.00     0.091 A 
ATOM     72  F   UNL A   1      39.565  32.161  38.179  1.00  0.00    -0.205 F 
ATOM     73  C   UNL A   1      41.091  35.386  39.003  1.00  0.00     0.022 A 
BRANCH  71  74
ATOM     74  S   UNL A   1      39.130  34.183  40.480  1.00  0.00     0.127 S 
ATOM     75  O   UNL A   1      39.805  33.230  41.360  1.00  0.00    -0.237 OA
ATOM     76  O   UNL A   1      39.144  35.567  40.953  1.00  0.00    -0.237 OA
ATOM     77  O   UNL A   1      37.854  33.733  39.940  1.00  0.00    -0.744 OA
ENDBRANCH  71  74
ENDBRANCH  53  67
BRANCH  54  78
ATOM     78  C   UNL A   1      41.251  27.564  28.961  1.00  0.00     0.023 A 
ATOM     79  C   UNL A   1      40.425  26.428  28.828  1.00  0.00     0.012 A 
ATOM     80  C   UNL A   1      42.186  27.850  27.948  1.00  0.00     0.148 A 
ATOM     81  C   UNL A   1      40.570  25.562  27.743  1.00  0.00     0.002 A 
ATOM     82  C   UNL A   1      42.284  27.015  26.840  1.00  0.00     0.091 A 
ATOM     83  F   UNL A   1      42.972  28.926  28.094  1.00  0.00    -0.205 F 
ATOM     84  C   UNL A   1      41.494  25.858  26.747  1.00  0.00     0.022 A 
BRANCH  82  85
ATOM     85  S   UNL A   1      43.359  27.380  25.448  1.00  0.00     0.127 S 
ATOM     86  O   UNL A   1      43.819  26.047  25.067  1.00  0.00    -0.237 OA
ATOM     87  O   UNL A   1      42.430  28.004  24.504  1.00  0.00    -0.237 OA
ATOM     88  O   UNL A   1      44.381  28.278  25.967  1.00  0.00    -0.744 OA
ENDBRANCH  82  85
ENDBRANCH  54  78
BRANCH  66  89
ATOM     89  C   UNL A   1      44.900  27.674  34.907  1.00  0.00     0.023 A 
ATOM     90  C   UNL A   1      46.236  28.090  34.742  1.00  0.00     0.012 A 
ATOM     91  C   UNL A   1      44.628  26.502  35.641  1.00  0.00     0.148 A 
ATOM     92  C   UNL A   1      47.284  27.330  35.260  1.00  0.00     0.002 A 
ATOM     93  C   UNL A   1      45.675  25.781  36.203  1.00  0.00     0.091 A 
ATOM     94  F   UNL A   1      43.352  26.114  35.778  1.00  0.00    -0.205 F 
ATOM     95  C   UNL A   1      47.003  26.184  36.001  1.00  0.00     0.022 A 
BRANCH  93  96
ATOM     96  S   UNL A   1      45.401  24.354  37.260  1.00  0.00     0.127 S 
ATOM     97  O   UNL A   1      44.469  24.891  38.250  1.00  0.00    -0.237 OA
ATOM     98  O   UNL A   1      44.815  23.387  36.331  1.00  0.00    -0.237 OA
ATOM     99  O   UNL A   1      46.711  23.977  37.775  1.00  0.00    -0.744 OA
ENDBRANCH  93  96
ENDBRANCH  66  89
ENDBRANCH  40  41
ENDBRANCH  33  35
ENDBRANCH  32  33
ENDBRANCH  31  32
ENDBRANCH  30  31
ENDBRANCH  29  30
ENDBRANCH   1  29
TORSDOF 23
ENDMDL
MODEL 2
REMARK VINA RESULT:     -10.0      1.914      2.516
REMARK SMILES CCc1ccc(OCC(=O)Nc2cc(C)c(O)c(C(=O)OCCOCCOC(=O)c3ccc(-c4c5nc(c(-c6cccc(S(=O)(=O)[O-])c6F)c6ccc([nH]6)c(-c6cccc(S(=O)(=O)[O-])c6F)c6nc(c(-c7cccc(S(=O)(=O)[O-])c7F)c7ccc4[nH]7)C=C6)C=C5)cc3)c2)cc1
REMARK SMILES IDX 23 1 22 2 21 3 19 4 20 5 18 6 12 7 13 8 93 9 14 10 15 11
REMARK SMILES IDX 16 12 11 13 9 14 10 15 8 17 7 18 6 19 3 20 4 21 95 22 5 23
REMARK SMILES IDX 94 24 2 25 1 26 17 27 24 29 25 30 26 31 27 32 28 33 29 34
REMARK SMILES IDX 30 35 31 36 92 37 32 38 91 39 33 40 34 41 35 42 85 43 36 44
REMARK SMILES IDX 90 45 84 46 86 47 37 48 89 49 83 50 82 51 38 53 70 54 50 55
REMARK SMILES IDX 69 56 51 57 54 58 68 59 87 60 52 61 53 62 67 64 88 65 55 66
REMARK SMILES IDX 39 67 40 68 48 69 41 70 43 71 49 72 42 73 44 74 45 75 46 76
REMARK SMILES IDX 47 77 71 78 72 79 80 80 73 81 75 82 81 83 74 84 76 85 77 86
REMARK SMILES IDX 78 87 79 88 56 89 57 90 65 91 58 92 60 93 66 94 59 95 61 96
REMARK SMILES IDX 62 97 63 98 64 99
REMARK H PARENT 11 16 17 28 86 52 54 63
REMARK Flexibility Score: inf
ROOT
ATOM      1  C   UNL A   1      34.955  30.991  27.630  1.00  0.00     0.202 C 
ENDROOT
BRANCH   1   2
ATOM      2  C   UNL A   1      34.309  29.838  26.856  1.00  0.00     0.261 C 
BRANCH   2   3
ATOM      3  O   UNL A   1      32.944  29.665  27.267  1.00  0.00    -0.460 OA
BRANCH   3   4
ATOM      4  C   UNL A   1      32.013  29.848  26.302  1.00  0.00     0.342 C 
ATOM      5  O   UNL A   1      31.647  30.910  25.821  1.00  0.00    -0.246 OA
BRANCH   4   6
ATOM      6  C   UNL A   1      31.602  28.548  25.718  1.00  0.00     0.104 A 
ATOM      7  C   UNL A   1      30.914  26.235  25.994  1.00  0.00     0.042 A 
ATOM      8  C   UNL A   1      30.972  26.082  24.600  1.00  0.00     0.033 A 
ATOM      9  C   UNL A   1      31.264  27.464  26.540  1.00  0.00     0.045 A 
ATOM     10  C   UNL A   1      31.318  27.152  23.755  1.00  0.00    -0.006 A 
ATOM     11  C   UNL A   1      31.291  26.951  22.267  1.00  0.00     0.048 C 
ATOM     12  C   UNL A   1      31.611  28.393  24.326  1.00  0.00     0.133 A 
BRANCH   7  13
ATOM     13  N   UNL A   1      30.519  25.108  26.731  1.00  0.00    -0.323 N 
ATOM     14  C   UNL A   1      30.687  23.763  26.570  1.00  0.00     0.262 C 
ATOM     15  O   UNL A   1      30.202  23.038  27.449  1.00  0.00    -0.271 OA
ATOM     16  H   UNL A   1      30.010  25.338  27.542  1.00  0.00     0.170 HD
BRANCH  14  17
ATOM     17  C   UNL A   1      31.548  23.151  25.452  1.00  0.00     0.329 C 
BRANCH  17  18
ATOM     18  O   UNL A   1      32.885  22.764  25.705  1.00  0.00    -0.484 OA
BRANCH  18  19
ATOM     19  C   UNL A   1      33.238  21.500  25.336  1.00  0.00     0.120 A 
ATOM     20  C   UNL A   1      34.196  18.972  24.576  1.00  0.00    -0.048 A 
ATOM     21  C   UNL A   1      35.079  20.016  24.873  1.00  0.00     0.007 A 
ATOM     22  C   UNL A   1      32.824  19.208  24.690  1.00  0.00     0.007 A 
ATOM     23  C   UNL A   1      34.607  21.268  25.256  1.00  0.00     0.047 A 
ATOM     24  C   UNL A   1      32.346  20.463  25.080  1.00  0.00     0.047 A 
BRANCH  20  25
ATOM     25  C   UNL A   1      34.712  17.602  24.208  1.00  0.00     0.032 C 
ATOM     26  C   UNL A   1      33.782  16.840  23.274  1.00  0.00     0.009 C 
ENDBRANCH  20  25
ENDBRANCH  18  19
ENDBRANCH  17  18
ENDBRANCH  14  17
ENDBRANCH   7  13
BRANCH  12  27
ATOM     27  O   UNL A   1      31.935  29.423  23.479  1.00  0.00    -0.507 OA
ATOM     28  H   UNL A   1      32.148  30.266  23.827  1.00  0.00     0.293 HD
ENDBRANCH  12  27
ENDBRANCH   4   6
ENDBRANCH   3   4
ENDBRANCH   2   3
ENDBRANCH   1   2
BRANCH   1  29
ATOM     29  O   UNL A   1      34.058  31.730  28.466  1.00  0.00    -0.374 OA
BRANCH  29  30
ATOM     30  C   UNL A   1      33.547  32.941  27.907  1.00  0.00     0.202 C 
BRANCH  30  31
ATOM     31  C   UNL A   1      33.864  34.229  28.674  1.00  0.00     0.261 C 
BRANCH  31  32
ATOM     32  O   UNL A   1      33.096  34.354  29.878  1.00  0.00    -0.460 OA
BRANCH  32  33
ATOM     33  C   UNL A   1      33.779  34.821  30.952  1.00  0.00     0.338 C 
ATOM     34  O   UNL A   1      33.456  35.727  31.703  1.00  0.00    -0.246 OA
BRANCH  33  35
ATOM     35  C   UNL A   1      34.950  33.955  31.167  1.00  0.00     0.060 A 
ATOM     36  C   UNL A   1      34.802  32.747  31.856  1.00  0.00     0.016 A 
ATOM     37  C   UNL A   1      36.198  34.343  30.690  1.00  0.00     0.016 A 
ATOM     38  C   UNL A   1      35.919  31.936  32.096  1.00  0.00     0.010 A 
ATOM     39  C   UNL A   1      37.296  33.508  30.896  1.00  0.00     0.010 A 
ATOM     40  C   UNL A   1      37.188  32.318  31.637  1.00  0.00    -0.014 A 
BRANCH  40  41
ATOM     41  C   UNL A   1      38.423  31.574  32.032  1.00  0.00     0.031 A 
ATOM     42  C   UNL A   1      39.122  31.940  33.326  1.00  0.00     0.074 A 
ATOM     43  C   UNL A   1      38.963  30.619  31.244  1.00  0.00     0.049 A 
ATOM     44  N   UNL A   1      40.231  31.464  33.834  1.00  0.00    -0.248 NA
ATOM     45  C   UNL A   1      38.528  33.023  34.130  1.00  0.00     0.031 C 
ATOM     46  C   UNL A   1      38.475  30.224  29.921  1.00  0.00     0.029 A 
ATOM     47  N   UNL A   1      40.065  29.817  31.439  1.00  0.00    -0.354 N 
ATOM     48  C   UNL A   1      40.500  32.242  34.957  1.00  0.00     0.074 A 
ATOM     49  C   UNL A   1      39.472  33.252  35.028  1.00  0.00     0.031 C 
ATOM     50  C   UNL A   1      39.262  29.247  29.433  1.00  0.00     0.029 A 
ATOM     51  C   UNL A   1      40.323  28.957  30.394  1.00  0.00     0.049 A 
ATOM     52  H   UNL A   1      40.618  29.854  32.253  1.00  0.00     0.167 HD
ATOM     53  C   UNL A   1      41.479  32.106  35.880  1.00  0.00     0.034 A 
ATOM     54  C   UNL A   1      41.301  28.041  30.232  1.00  0.00     0.034 A 
ATOM     55  C   UNL A   1      42.427  31.028  35.890  1.00  0.00     0.049 A 
ATOM     56  C   UNL A   1      42.311  27.831  31.337  1.00  0.00     0.074 A 
ATOM     57  C   UNL A   1      43.350  30.708  36.870  1.00  0.00     0.029 A 
ATOM     58  N   UNL A   1      42.572  30.096  34.879  1.00  0.00    -0.354 N 
ATOM     59  N   UNL A   1      42.419  28.447  32.489  1.00  0.00    -0.248 NA
ATOM     60  C   UNL A   1      43.309  26.766  31.137  1.00  0.00     0.031 C 
ATOM     61  C   UNL A   1      44.078  29.599  36.434  1.00  0.00     0.029 A 
ATOM     62  C   UNL A   1      43.579  29.206  35.203  1.00  0.00     0.049 A 
ATOM     63  H   UNL A   1      42.038  30.070  34.052  1.00  0.00     0.167 HD
ATOM     64  C   UNL A   1      43.463  27.819  33.163  1.00  0.00     0.074 A 
ATOM     65  C   UNL A   1      43.935  26.753  32.304  1.00  0.00     0.031 C 
ATOM     66  C   UNL A   1      43.997  28.107  34.375  1.00  0.00     0.034 A 
BRANCH  53  67
ATOM     67  C   UNL A   1      41.541  33.106  37.005  1.00  0.00     0.023 A 
ATOM     68  C   UNL A   1      40.729  32.939  38.146  1.00  0.00     0.012 A 
ATOM     69  C   UNL A   1      42.465  34.168  36.965  1.00  0.00     0.148 A 
ATOM     70  C   UNL A   1      40.806  33.835  39.210  1.00  0.00     0.002 A 
ATOM     71  C   UNL A   1      42.578  35.022  38.055  1.00  0.00     0.091 A 
ATOM     72  F   UNL A   1      43.218  34.320  35.866  1.00  0.00    -0.205 F 
ATOM     73  C   UNL A   1      41.738  34.866  39.170  1.00  0.00     0.022 A 
BRANCH  71  74
ATOM     74  S   UNL A   1      43.813  36.322  38.147  1.00  0.00     0.127 S 
ATOM     75  O   UNL A   1      43.186  37.381  37.358  1.00  0.00    -0.237 OA
ATOM     76  O   UNL A   1      43.871  36.584  39.585  1.00  0.00    -0.237 OA
ATOM     77  O   UNL A   1      45.032  35.764  37.578  1.00  0.00    -0.744 OA
ENDBRANCH  71  74
ENDBRANCH  53  67
BRANCH  54  78
ATOM     78  C   UNL A   1      41.360  27.191  29.004  1.00  0.00     0.023 A 
ATOM     79  C   UNL A   1      40.646  25.975  28.966  1.00  0.00     0.012 A 
ATOM     80  C   UNL A   1      42.150  27.552  27.896  1.00  0.00     0.148 A 
ATOM     81  C   UNL A   1      40.766  25.109  27.878  1.00  0.00     0.002 A 
ATOM     82  C   UNL A   1      42.218  26.711  26.790  1.00  0.00     0.091 A 
ATOM     83  F   UNL A   1      42.832  28.704  27.951  1.00  0.00    -0.205 F 
ATOM     84  C   UNL A   1      41.546  25.479  26.789  1.00  0.00     0.022 A 
BRANCH  82  85
ATOM     85  S   UNL A   1      43.100  27.159  25.291  1.00  0.00     0.127 S 
ATOM     86  O   UNL A   1      44.421  27.501  25.810  1.00  0.00    -0.237 OA
ATOM     87  O   UNL A   1      43.043  25.914  24.523  1.00  0.00    -0.237 OA
ATOM     88  O   UNL A   1      42.345  28.258  24.705  1.00  0.00    -0.744 OA
ENDBRANCH  82  85
ENDBRANCH  54  78
BRANCH  66  89
ATOM     89  C   UNL A   1      45.113  27.234  34.886  1.00  0.00     0.023 A 
ATOM     90  C   UNL A   1      46.454  27.570  34.619  1.00  0.00     0.012 A 
ATOM     91  C   UNL A   1      44.830  26.121  35.704  1.00  0.00     0.148 A 
ATOM     92  C   UNL A   1      47.494  26.788  35.121  1.00  0.00     0.002 A 
ATOM     93  C   UNL A   1      45.872  25.381  36.248  1.00  0.00     0.091 A 
ATOM     94  F   UNL A   1      43.547  25.809  35.938  1.00  0.00    -0.205 F 
ATOM     95  C   UNL A   1      47.204  25.703  35.945  1.00  0.00     0.022 A 
BRANCH  93  96
ATOM     96  S   UNL A   1      45.595  24.033  37.403  1.00  0.00     0.127 S 
ATOM     97  O   UNL A   1      46.928  23.853  37.975  1.00  0.00    -0.237 OA
ATOM     98  O   UNL A   1      44.610  24.608  38.319  1.00  0.00    -0.237 OA
ATOM     99  O   UNL A   1      45.100  22.917  36.608  1.00  0.00    -0.744 OA
ENDBRANCH  93  96
ENDBRANCH  66  89
ENDBRANCH  40  41
ENDBRANCH  33  35
ENDBRANCH  32  33
ENDBRANCH  31  32
ENDBRANCH  30  31
ENDBRANCH  29  30
ENDBRANCH   1  29
TORSDOF 23
ENDMDL
MODEL 3
REMARK VINA RESULT:      -9.9      2.696      3.662
REMARK SMILES CCc1ccc(OCC(=O)Nc2cc(C)c(O)c(C(=O)OCCOCCOC(=O)c3ccc(-c4c5nc(c(-c6cccc(S(=O)(=O)[O-])c6F)c6ccc([nH]6)c(-c6cccc(S(=O)(=O)[O-])c6F)c6nc(c(-c7cccc(S(=O)(=O)[O-])c7F)c7ccc4[nH]7)C=C6)C=C5)cc3)c2)cc1
REMARK SMILES IDX 23 1 22 2 21 3 19 4 20 5 18 6 12 7 13 8 93 9 14 10 15 11
REMARK SMILES IDX 16 12 11 13 9 14 10 15 8 17 7 18 6 19 3 20 4 21 95 22 5 23
REMARK SMILES IDX 94 24 2 25 1 26 17 27 24 29 25 30 26 31 27 32 28 33 29 34
REMARK SMILES IDX 30 35 31 36 92 37 32 38 91 39 33 40 34 41 35 42 85 43 36 44
REMARK SMILES IDX 90 45 84 46 86 47 37 48 89 49 83 50 82 51 38 53 70 54 50 55
REMARK SMILES IDX 69 56 51 57 54 58 68 59 87 60 52 61 53 62 67 64 88 65 55 66
REMARK SMILES IDX 39 67 40 68 48 69 41 70 43 71 49 72 42 73 44 74 45 75 46 76
REMARK SMILES IDX 47 77 71 78 72 79 80 80 73 81 75 82 81 83 74 84 76 85 77 86
REMARK SMILES IDX 78 87 79 88 56 89 57 90 65 91 58 92 60 93 66 94 59 95 61 96
REMARK SMILES IDX 62 97 63 98 64 99
REMARK H PARENT 11 16 17 28 86 52 54 63
REMARK Flexibility Score: inf
ROOT
ATOM      1  C   UNL A   1      34.060  31.570  27.659  1.00  0.00     0.202 C 
ENDROOT
BRANCH   1   2
ATOM      2  C   UNL A   1      34.242  30.111  27.230  1.00  0.00     0.261 C 
BRANCH   2   3
ATOM      3  O   UNL A   1      33.453  29.831  26.064  1.00  0.00    -0.460 OA
BRANCH   3   4
ATOM      4  C   UNL A   1      32.119  29.742  26.265  1.00  0.00     0.342 C 
ATOM      5  O   UNL A   1      31.381  30.604  26.719  1.00  0.00    -0.246 OA
BRANCH   4   6
ATOM      6  C   UNL A   1      31.581  28.497  25.666  1.00  0.00     0.104 A 
ATOM      7  C   UNL A   1      30.773  26.218  25.904  1.00  0.00     0.042 A 
ATOM      8  C   UNL A   1      30.709  26.126  24.506  1.00  0.00     0.033 A 
ATOM      9  C   UNL A   1      31.242  27.398  26.468  1.00  0.00     0.045 A 
ATOM     10  C   UNL A   1      31.052  27.209  23.678  1.00  0.00    -0.006 A 
ATOM     11  C   UNL A   1      30.894  27.077  22.191  1.00  0.00     0.048 C 
ATOM     12  C   UNL A   1      31.469  28.404  24.272  1.00  0.00     0.133 A 
BRANCH   7  13
ATOM     13  N   UNL A   1      30.368  25.085  26.626  1.00  0.00    -0.323 N 
ATOM     14  C   UNL A   1      30.844  23.810  26.736  1.00  0.00     0.262 C 
ATOM     15  O   UNL A   1      30.227  23.055  27.498  1.00  0.00    -0.271 OA
ATOM     16  H   UNL A   1      29.566  25.245  27.175  1.00  0.00     0.170 HD
BRANCH  14  17
ATOM     17  C   UNL A   1      32.153  23.342  26.077  1.00  0.00     0.329 C 
BRANCH  17  18
ATOM     18  O   UNL A   1      32.160  22.889  24.737  1.00  0.00    -0.484 OA
BRANCH  18  19
ATOM     19  C   UNL A   1      32.408  21.563  24.539  1.00  0.00     0.120 A 
ATOM     20  C   UNL A   1      32.998  18.823  24.361  1.00  0.00    -0.048 A 
ATOM     21  C   UNL A   1      33.138  19.512  25.572  1.00  0.00     0.007 A 
ATOM     22  C   UNL A   1      32.534  19.525  23.246  1.00  0.00     0.007 A 
ATOM     23  C   UNL A   1      32.840  20.869  25.664  1.00  0.00     0.047 A 
ATOM     24  C   UNL A   1      32.229  20.886  23.336  1.00  0.00     0.047 A 
BRANCH  20  25
ATOM     25  C   UNL A   1      33.275  17.342  24.277  1.00  0.00     0.032 C 
ATOM     26  C   UNL A   1      33.943  16.929  22.972  1.00  0.00     0.009 C 
ENDBRANCH  20  25
ENDBRANCH  18  19
ENDBRANCH  17  18
ENDBRANCH  14  17
ENDBRANCH   7  13
BRANCH  12  27
ATOM     27  O   UNL A   1      31.788  29.450  23.443  1.00  0.00    -0.507 OA
ATOM     28  H   UNL A   1      32.644  29.827  23.475  1.00  0.00     0.293 HD
ENDBRANCH  12  27
ENDBRANCH   4   6
ENDBRANCH   3   4
ENDBRANCH   2   3
ENDBRANCH   1   2
BRANCH   1  29
ATOM     29  O   UNL A   1      35.264  32.344  27.681  1.00  0.00    -0.374 OA
BRANCH  29  30
ATOM     30  C   UNL A   1      35.111  33.716  28.049  1.00  0.00     0.202 C 
BRANCH  30  31
ATOM     31  C   UNL A   1      34.333  33.988  29.341  1.00  0.00     0.261 C 
BRANCH  31  32
ATOM     32  O   UNL A   1      35.180  34.008  30.498  1.00  0.00    -0.460 OA
BRANCH  32  33
ATOM     33  C   UNL A   1      35.062  32.934  31.317  1.00  0.00     0.338 C 
ATOM     34  O   UNL A   1      34.070  32.569  31.929  1.00  0.00    -0.246 OA
BRANCH  33  35
ATOM     35  C   UNL A   1      36.317  32.167  31.258  1.00  0.00     0.060 A 
ATOM     36  C   UNL A   1      36.347  30.849  31.723  1.00  0.00     0.016 A 
ATOM     37  C   UNL A   1      37.469  32.757  30.748  1.00  0.00     0.016 A 
ATOM     38  C   UNL A   1      37.547  30.126  31.704  1.00  0.00     0.010 A 
ATOM     39  C   UNL A   1      38.649  32.015  30.694  1.00  0.00     0.010 A 
ATOM     40  C   UNL A   1      38.721  30.709  31.208  1.00  0.00    -0.014 A 
BRANCH  40  41
ATOM     41  C   UNL A   1      40.050  30.036  31.343  1.00  0.00     0.031 A 
ATOM     42  C   UNL A   1      40.966  30.436  32.482  1.00  0.00     0.074 A 
ATOM     43  C   UNL A   1      40.479  29.120  30.448  1.00  0.00     0.049 A 
ATOM     44  N   UNL A   1      42.178  30.022  32.756  1.00  0.00    -0.248 NA
ATOM     45  C   UNL A   1      40.480  31.477  33.405  1.00  0.00     0.031 C 
ATOM     46  C   UNL A   1      39.765  28.705  29.239  1.00  0.00     0.029 A 
ATOM     47  N   UNL A   1      41.641  28.382  30.411  1.00  0.00    -0.354 N 
ATOM     48  C   UNL A   1      42.616  30.807  33.819  1.00  0.00     0.074 A 
ATOM     49  C   UNL A   1      41.567  31.755  34.106  1.00  0.00     0.031 C 
ATOM     50  C   UNL A   1      40.495  27.779  28.590  1.00  0.00     0.029 A 
ATOM     51  C   UNL A   1      41.739  27.546  29.321  1.00  0.00     0.049 A 
ATOM     52  H   UNL A   1      42.339  28.447  31.103  1.00  0.00     0.167 HD
ATOM     53  C   UNL A   1      43.763  30.724  34.532  1.00  0.00     0.034 A 
ATOM     54  C   UNL A   1      42.717  26.690  28.957  1.00  0.00     0.034 A 
ATOM     55  C   UNL A   1      44.754  29.704  34.339  1.00  0.00     0.049 A 
ATOM     56  C   UNL A   1      43.932  26.532  29.840  1.00  0.00     0.074 A 
ATOM     57  C   UNL A   1      45.867  29.432  35.115  1.00  0.00     0.029 A 
ATOM     58  N   UNL A   1      44.751  28.788  33.302  1.00  0.00    -0.354 N 
ATOM     59  N   UNL A   1      44.228  27.147  30.959  1.00  0.00    -0.248 NA
ATOM     60  C   UNL A   1      44.930  25.529  29.432  1.00  0.00     0.031 C 
ATOM     61  C   UNL A   1      46.558  28.370  34.526  1.00  0.00     0.029 A 
ATOM     62  C   UNL A   1      45.851  27.956  33.409  1.00  0.00     0.049 A 
ATOM     63  H   UNL A   1      44.069  28.736  32.595  1.00  0.00     0.167 HD
ATOM     64  C   UNL A   1      45.417  26.577  31.406  1.00  0.00     0.074 A 
ATOM     65  C   UNL A   1      45.772  25.547  30.454  1.00  0.00     0.031 C 
ATOM     66  C   UNL A   1      46.160  26.889  32.496  1.00  0.00     0.034 A 
BRANCH  53  67
ATOM     67  C   UNL A   1      43.987  31.719  35.640  1.00  0.00     0.023 A 
ATOM     68  C   UNL A   1      44.641  32.939  35.374  1.00  0.00     0.012 A 
ATOM     69  C   UNL A   1      43.473  31.478  36.929  1.00  0.00     0.148 A 
ATOM     70  C   UNL A   1      44.818  33.886  36.381  1.00  0.00     0.002 A 
ATOM     71  C   UNL A   1      43.601  32.451  37.913  1.00  0.00     0.091 A 
ATOM     72  F   UNL A   1      42.867  30.306  37.168  1.00  0.00    -0.205 F 
ATOM     73  C   UNL A   1      44.287  33.647  37.645  1.00  0.00     0.022 A 
BRANCH  71  74
ATOM     74  S   UNL A   1      42.868  32.287  39.544  1.00  0.00     0.127 S 
ATOM     75  O   UNL A   1      41.488  31.934  39.213  1.00  0.00    -0.237 OA
ATOM     76  O   UNL A   1      43.655  31.198  40.121  1.00  0.00    -0.237 OA
ATOM     77  O   UNL A   1      43.039  33.578  40.197  1.00  0.00    -0.744 OA
ENDBRANCH  71  74
ENDBRANCH  53  67
BRANCH  54  78
ATOM     78  C   UNL A   1      42.582  25.852  27.726  1.00  0.00     0.023 A 
ATOM     79  C   UNL A   1      42.939  26.394  26.473  1.00  0.00     0.012 A 
ATOM     80  C   UNL A   1      42.063  24.544  27.779  1.00  0.00     0.148 A 
ATOM     81  C   UNL A   1      42.725  25.676  25.296  1.00  0.00     0.002 A 
ATOM     82  C   UNL A   1      41.907  23.812  26.607  1.00  0.00     0.091 A 
ATOM     83  F   UNL A   1      41.717  24.046  28.975  1.00  0.00    -0.205 F 
ATOM     84  C   UNL A   1      42.215  24.384  25.363  1.00  0.00     0.022 A 
BRANCH  82  85
ATOM     85  S   UNL A   1      41.372  22.097  26.603  1.00  0.00     0.127 S 
ATOM     86  O   UNL A   1      40.062  22.193  25.964  1.00  0.00    -0.237 OA
ATOM     87  O   UNL A   1      42.409  21.459  25.791  1.00  0.00    -0.237 OA
ATOM     88  O   UNL A   1      41.367  21.685  28.000  1.00  0.00    -0.744 OA
ENDBRANCH  82  85
ENDBRANCH  54  78
BRANCH  66  89
ATOM     89  C   UNL A   1      47.402  26.080  32.766  1.00  0.00     0.023 A 
ATOM     90  C   UNL A   1      48.631  26.455  32.188  1.00  0.00     0.012 A 
ATOM     91  C   UNL A   1      47.363  24.992  33.661  1.00  0.00     0.148 A 
ATOM     92  C   UNL A   1      49.792  25.733  32.463  1.00  0.00     0.002 A 
ATOM     93  C   UNL A   1      48.535  24.314  33.974  1.00  0.00     0.091 A 
ATOM     94  F   UNL A   1      46.183  24.642  34.193  1.00  0.00    -0.205 F 
ATOM     95  C   UNL A   1      49.747  24.673  33.365  1.00  0.00     0.022 A 
BRANCH  93  96
ATOM     96  S   UNL A   1      48.590  23.005  35.204  1.00  0.00     0.127 S 
ATOM     97  O   UNL A   1      50.027  22.765  35.320  1.00  0.00    -0.237 OA
ATOM     98  O   UNL A   1      47.983  23.649  36.369  1.00  0.00    -0.237 OA
ATOM     99  O   UNL A   1      47.815  21.902  34.653  1.00  0.00    -0.744 OA
ENDBRANCH  93  96
ENDBRANCH  66  89
ENDBRANCH  40  41
ENDBRANCH  33  35
ENDBRANCH  32  33
ENDBRANCH  31  32
ENDBRANCH  30  31
ENDBRANCH  29  30
ENDBRANCH   1  29
TORSDOF 23
ENDMDL
