MODEL 1
REMARK VINA RESULT:     -11.5      0.000      0.000
REMARK SMILES CC1=C2C(=O)CC(C)(C)CC2=N[C@@H]1C(=O)OCCOCCOC(=O)c1ccc(-c2c3nc(c(-c4cccc(S(=O)(=O)[O-])c4F)c4ccc([nH]4)c(-c4cccc(S(=O)(=O)[O-])c4F)c4nc(c(-c5cccc(S(=O)(=O)[O-])c5F)c5ccc2[nH]5)C=C4)C=C3)cc1
REMARK SMILES IDX 20 1 19 2 18 3 17 4 16 5 14 6 15 7 13 8 1 9 2 10 3 11 4 12
REMARK SMILES IDX 11 13 12 14 5 15 6 16 10 17 7 18 8 19 9 20 21 21 22 22 23 23
REMARK SMILES IDX 24 24 25 25 26 26 87 27 27 28 86 29 28 30 29 31 30 32 80 33
REMARK SMILES IDX 31 34 85 35 79 36 81 37 32 38 84 39 78 40 77 41 33 43 65 44
REMARK SMILES IDX 45 45 64 46 46 47 49 48 63 49 82 50 47 51 48 52 62 54 83 55
REMARK SMILES IDX 50 56 34 57 35 58 43 59 36 60 38 61 44 62 37 63 39 64 40 65
REMARK SMILES IDX 41 66 42 67 66 68 67 69 75 70 68 71 70 72 76 73 69 74 71 75
REMARK SMILES IDX 72 76 73 77 74 78 51 79 52 80 60 81 53 82 55 83 61 84 54 85
REMARK SMILES IDX 56 86 57 87 58 88 59 89
REMARK H PARENT 81 42 49 53
REMARK Flexibility Score: inf
ROOT
ATOM      1  C   UNL A   1      38.978  21.345  25.965  1.00  0.00     0.202 C 
ENDROOT
BRANCH   1   2
ATOM      2  O   UNL A   1      37.584  21.598  25.827  1.00  0.00    -0.374 OA
BRANCH   2   3
ATOM      3  C   UNL A   1      36.845  21.032  24.745  1.00  0.00     0.202 C 
BRANCH   3   4
ATOM      4  C   UNL A   1      35.349  20.806  24.936  1.00  0.00     0.261 C 
BRANCH   4   5
ATOM      5  O   UNL A   1      34.589  21.858  24.345  1.00  0.00    -0.461 OA
BRANCH   5   6
ATOM      6  C   UNL A   1      33.355  22.077  24.888  1.00  0.00     0.335 C 
ATOM      7  O   UNL A   1      32.315  21.550  24.513  1.00  0.00    -0.249 OA
BRANCH   6   8
ATOM      8  C   UNL A   1      33.482  23.121  26.030  1.00  0.00     0.242 C 
ATOM      9  C   UNL A   1      30.971  23.055  26.851  1.00  0.00     0.043 C 
ATOM     10  C   UNL A   1      32.175  23.804  26.389  1.00  0.00    -0.025 C 
ATOM     11  C   UNL A   1      32.209  25.084  26.002  1.00  0.00     0.040 C 
ATOM     12  C   UNL A   1      31.204  26.143  25.865  1.00  0.00     0.165 C 
ATOM     13  C   UNL A   1      33.329  25.005  25.085  1.00  0.00     0.048 C 
ATOM     14  N   UNL A   1      34.294  24.186  25.367  1.00  0.00    -0.269 NA
ATOM     15  O   UNL A   1      30.671  26.653  26.845  1.00  0.00    -0.294 OA
ATOM     16  C   UNL A   1      30.939  26.621  24.441  1.00  0.00     0.088 C 
ATOM     17  C   UNL A   1      33.154  25.585  23.720  1.00  0.00     0.063 C 
ATOM     18  C   UNL A   1      31.637  25.736  23.371  1.00  0.00    -0.023 C 
ATOM     19  C   UNL A   1      30.848  24.402  23.259  1.00  0.00     0.012 C 
ATOM     20  C   UNL A   1      31.573  26.373  21.976  1.00  0.00     0.012 C 
ENDBRANCH   6   8
ENDBRANCH   5   6
ENDBRANCH   4   5
ENDBRANCH   3   4
ENDBRANCH   2   3
ENDBRANCH   1   2
BRANCH   1  21
ATOM     21  C   UNL A   1      39.583  20.061  25.419  1.00  0.00     0.261 C 
BRANCH  21  22
ATOM     22  O   UNL A   1      40.572  19.482  26.257  1.00  0.00    -0.460 OA
BRANCH  22  23
ATOM     23  C   UNL A   1      41.829  19.767  25.833  1.00  0.00     0.338 C 
ATOM     24  O   UNL A   1      42.527  19.073  25.120  1.00  0.00    -0.246 OA
BRANCH  23  25
ATOM     25  C   UNL A   1      42.326  20.956  26.534  1.00  0.00     0.060 A 
ATOM     26  C   UNL A   1      42.120  20.971  27.913  1.00  0.00     0.016 A 
ATOM     27  C   UNL A   1      42.712  22.104  25.826  1.00  0.00     0.016 A 
ATOM     28  C   UNL A   1      42.122  22.185  28.558  1.00  0.00     0.010 A 
ATOM     29  C   UNL A   1      42.717  23.320  26.476  1.00  0.00     0.010 A 
ATOM     30  C   UNL A   1      42.351  23.353  27.818  1.00  0.00    -0.014 A 
BRANCH  30  31
ATOM     31  C   UNL A   1      42.389  24.598  28.558  1.00  0.00     0.031 A 
ATOM     32  C   UNL A   1      41.193  25.420  28.278  1.00  0.00     0.074 A 
ATOM     33  C   UNL A   1      43.373  24.950  29.407  1.00  0.00     0.049 A 
ATOM     34  N   UNL A   1      41.150  26.475  27.535  1.00  0.00    -0.248 NA
ATOM     35  C   UNL A   1      39.872  24.888  28.647  1.00  0.00     0.031 C 
ATOM     36  C   UNL A   1      44.467  24.119  29.910  1.00  0.00     0.029 A 
ATOM     37  N   UNL A   1      43.525  26.110  30.104  1.00  0.00    -0.354 N 
ATOM     38  C   UNL A   1      39.833  26.904  27.601  1.00  0.00     0.074 A 
ATOM     39  C   UNL A   1      39.065  25.781  28.070  1.00  0.00     0.031 C 
ATOM     40  C   UNL A   1      44.997  24.706  31.008  1.00  0.00     0.029 A 
ATOM     41  C   UNL A   1      44.364  25.999  31.209  1.00  0.00     0.049 A 
ATOM     42  H   UNL A   1      43.082  26.952  29.849  1.00  0.00     0.167 HD
ATOM     43  C   UNL A   1      39.558  28.235  27.600  1.00  0.00     0.034 A 
ATOM     44  C   UNL A   1      44.456  26.869  32.250  1.00  0.00     0.034 A 
ATOM     45  C   UNL A   1      40.669  28.999  27.078  1.00  0.00     0.049 A 
ATOM     46  C   UNL A   1      43.941  28.178  31.782  1.00  0.00     0.074 A 
ATOM     47  C   UNL A   1      41.425  28.955  25.921  1.00  0.00     0.029 A 
ATOM     48  N   UNL A   1      41.413  29.716  27.985  1.00  0.00    -0.354 N 
ATOM     49  N   UNL A   1      44.557  28.907  30.896  1.00  0.00    -0.248 NA
ATOM     50  C   UNL A   1      42.523  28.454  31.947  1.00  0.00     0.031 C 
ATOM     51  C   UNL A   1      42.762  29.220  26.345  1.00  0.00     0.029 A 
ATOM     52  C   UNL A   1      42.735  29.498  27.712  1.00  0.00     0.049 A 
ATOM     53  H   UNL A   1      41.056  30.287  28.704  1.00  0.00     0.167 HD
ATOM     54  C   UNL A   1      43.539  29.336  30.056  1.00  0.00     0.074 A 
ATOM     55  C   UNL A   1      42.305  29.123  30.813  1.00  0.00     0.031 C 
ATOM     56  C   UNL A   1      43.765  29.531  28.723  1.00  0.00     0.034 A 
BRANCH  43  57
ATOM     57  C   UNL A   1      38.511  28.868  28.490  1.00  0.00     0.023 A 
ATOM     58  C   UNL A   1      37.623  29.779  27.877  1.00  0.00     0.012 A 
ATOM     59  C   UNL A   1      38.548  28.861  29.904  1.00  0.00     0.148 A 
ATOM     60  C   UNL A   1      36.878  30.690  28.632  1.00  0.00     0.002 A 
ATOM     61  C   UNL A   1      37.742  29.709  30.651  1.00  0.00     0.091 A 
ATOM     62  F   UNL A   1      39.460  28.138  30.556  1.00  0.00    -0.205 F 
ATOM     63  C   UNL A   1      36.934  30.654  30.020  1.00  0.00     0.022 A 
BRANCH  61  64
ATOM     64  S   UNL A   1      37.748  29.671  32.449  1.00  0.00     0.127 S 
ATOM     65  O   UNL A   1      37.452  28.265  32.710  1.00  0.00    -0.237 OA
ATOM     66  O   UNL A   1      39.118  30.086  32.746  1.00  0.00    -0.237 OA
ATOM     67  O   UNL A   1      36.731  30.627  32.868  1.00  0.00    -0.744 OA
ENDBRANCH  61  64
ENDBRANCH  43  57
BRANCH  44  68
ATOM     68  C   UNL A   1      44.689  26.605  33.693  1.00  0.00     0.023 A 
ATOM     69  C   UNL A   1      45.959  26.860  34.256  1.00  0.00     0.012 A 
ATOM     70  C   UNL A   1      43.608  26.393  34.576  1.00  0.00     0.148 A 
ATOM     71  C   UNL A   1      46.135  26.943  35.643  1.00  0.00     0.002 A 
ATOM     72  C   UNL A   1      43.789  26.469  35.954  1.00  0.00     0.091 A 
ATOM     73  F   UNL A   1      42.384  26.215  34.069  1.00  0.00    -0.205 F 
ATOM     74  C   UNL A   1      45.049  26.757  36.493  1.00  0.00     0.022 A 
BRANCH  72  75
ATOM     75  S   UNL A   1      42.421  26.267  37.104  1.00  0.00     0.127 S 
ATOM     76  O   UNL A   1      41.963  24.911  36.796  1.00  0.00    -0.237 OA
ATOM     77  O   UNL A   1      43.087  26.410  38.396  1.00  0.00    -0.237 OA
ATOM     78  O   UNL A   1      41.461  27.311  36.770  1.00  0.00    -0.744 OA
ENDBRANCH  72  75
ENDBRANCH  44  68
BRANCH  56  79
ATOM     79  C   UNL A   1      45.193  29.562  28.237  1.00  0.00     0.023 A 
ATOM     80  C   UNL A   1      45.917  28.402  27.889  1.00  0.00     0.012 A 
ATOM     81  C   UNL A   1      45.778  30.819  28.007  1.00  0.00     0.148 A 
ATOM     82  C   UNL A   1      47.210  28.496  27.363  1.00  0.00     0.002 A 
ATOM     83  C   UNL A   1      47.042  30.909  27.441  1.00  0.00     0.091 A 
ATOM     84  F   UNL A   1      45.078  31.915  28.339  1.00  0.00    -0.205 F 
ATOM     85  C   UNL A   1      47.768  29.751  27.129  1.00  0.00     0.022 A 
BRANCH  83  86
ATOM     86  S   UNL A   1      47.759  32.500  27.023  1.00  0.00     0.127 S 
ATOM     87  O   UNL A   1      47.843  33.149  28.329  1.00  0.00    -0.237 OA
ATOM     88  O   UNL A   1      49.049  32.122  26.443  1.00  0.00    -0.237 OA
ATOM     89  O   UNL A   1      46.839  33.112  26.072  1.00  0.00    -0.744 OA
ENDBRANCH  83  86
ENDBRANCH  56  79
ENDBRANCH  30  31
ENDBRANCH  23  25
ENDBRANCH  22  23
ENDBRANCH  21  22
ENDBRANCH   1  21
TORSDOF 17
ENDMDL
MODEL 2
REMARK VINA RESULT:     -11.3      2.790      7.296
REMARK SMILES CC1=C2C(=O)CC(C)(C)CC2=N[C@@H]1C(=O)OCCOCCOC(=O)c1ccc(-c2c3nc(c(-c4cccc(S(=O)(=O)[O-])c4F)c4ccc([nH]4)c(-c4cccc(S(=O)(=O)[O-])c4F)c4nc(c(-c5cccc(S(=O)(=O)[O-])c5F)c5ccc2[nH]5)C=C4)C=C3)cc1
REMARK SMILES IDX 20 1 19 2 18 3 17 4 16 5 14 6 15 7 13 8 1 9 2 10 3 11 4 12
REMARK SMILES IDX 11 13 12 14 5 15 6 16 10 17 7 18 8 19 9 20 21 21 22 22 23 23
REMARK SMILES IDX 24 24 25 25 26 26 87 27 27 28 86 29 28 30 29 31 30 32 80 33
REMARK SMILES IDX 31 34 85 35 79 36 81 37 32 38 84 39 78 40 77 41 33 43 65 44
REMARK SMILES IDX 45 45 64 46 46 47 49 48 63 49 82 50 47 51 48 52 62 54 83 55
REMARK SMILES IDX 50 56 34 57 35 58 43 59 36 60 38 61 44 62 37 63 39 64 40 65
REMARK SMILES IDX 41 66 42 67 66 68 67 69 75 70 68 71 70 72 76 73 69 74 71 75
REMARK SMILES IDX 72 76 73 77 74 78 51 79 52 80 60 81 53 82 55 83 61 84 54 85
REMARK SMILES IDX 56 86 57 87 58 88 59 89
REMARK H PARENT 81 42 49 53
REMARK Flexibility Score: inf
ROOT
ATOM      1  C   UNL A   1      32.009  29.836  25.336  1.00  0.00     0.202 C 
ENDROOT
BRANCH   1   2
ATOM      2  O   UNL A   1      30.736  29.792  24.701  1.00  0.00    -0.374 OA
BRANCH   2   3
ATOM      3  C   UNL A   1      30.605  29.309  23.364  1.00  0.00     0.202 C 
BRANCH   3   4
ATOM      4  C   UNL A   1      31.709  28.413  22.812  1.00  0.00     0.261 C 
BRANCH   4   5
ATOM      5  O   UNL A   1      31.179  27.179  22.331  1.00  0.00    -0.461 OA
BRANCH   5   6
ATOM      6  C   UNL A   1      31.877  26.058  22.677  1.00  0.00     0.335 C 
ATOM      7  O   UNL A   1      33.085  25.908  22.539  1.00  0.00    -0.249 OA
BRANCH   6   8
ATOM      8  C   UNL A   1      30.891  25.000  23.240  1.00  0.00     0.242 C 
ATOM      9  C   UNL A   1      30.287  26.243  25.494  1.00  0.00     0.043 C 
ATOM     10  C   UNL A   1      30.747  25.034  24.751  1.00  0.00    -0.025 C 
ATOM     11  C   UNL A   1      31.310  23.945  25.287  1.00  0.00     0.040 C 
ATOM     12  C   UNL A   1      31.683  23.544  26.647  1.00  0.00     0.165 C 
ATOM     13  C   UNL A   1      32.106  23.529  24.149  1.00  0.00     0.048 C 
ATOM     14  N   UNL A   1      31.629  23.730  22.961  1.00  0.00    -0.269 NA
ATOM     15  O   UNL A   1      30.836  23.289  27.497  1.00  0.00    -0.294 OA
ATOM     16  C   UNL A   1      33.178  23.382  26.900  1.00  0.00     0.088 C 
ATOM     17  C   UNL A   1      33.550  23.229  24.382  1.00  0.00     0.063 C 
ATOM     18  C   UNL A   1      34.046  23.885  25.713  1.00  0.00    -0.023 C 
ATOM     19  C   UNL A   1      34.032  25.439  25.730  1.00  0.00     0.012 C 
ATOM     20  C   UNL A   1      35.519  23.482  25.875  1.00  0.00     0.012 C 
ENDBRANCH   6   8
ENDBRANCH   5   6
ENDBRANCH   4   5
ENDBRANCH   3   4
ENDBRANCH   2   3
ENDBRANCH   1   2
BRANCH   1  21
ATOM     21  C   UNL A   1      32.227  30.715  26.558  1.00  0.00     0.261 C 
BRANCH  21  22
ATOM     22  O   UNL A   1      33.319  30.319  27.373  1.00  0.00    -0.460 OA
BRANCH  22  23
ATOM     23  C   UNL A   1      34.043  31.381  27.805  1.00  0.00     0.338 C 
ATOM     24  O   UNL A   1      33.636  32.513  27.976  1.00  0.00    -0.246 OA
BRANCH  23  25
ATOM     25  C   UNL A   1      35.466  31.024  27.842  1.00  0.00     0.060 A 
ATOM     26  C   UNL A   1      35.747  29.662  27.750  1.00  0.00     0.016 A 
ATOM     27  C   UNL A   1      36.436  31.960  28.233  1.00  0.00     0.016 A 
ATOM     28  C   UNL A   1      36.955  29.212  28.228  1.00  0.00     0.010 A 
ATOM     29  C   UNL A   1      37.647  31.507  28.709  1.00  0.00     0.010 A 
ATOM     30  C   UNL A   1      37.864  30.134  28.768  1.00  0.00    -0.014 A 
BRANCH  30  31
ATOM     31  C   UNL A   1      39.139  29.610  29.212  1.00  0.00     0.031 A 
ATOM     32  C   UNL A   1      39.381  29.935  30.634  1.00  0.00     0.074 A 
ATOM     33  C   UNL A   1      39.981  28.900  28.440  1.00  0.00     0.049 A 
ATOM     34  N   UNL A   1      40.191  30.835  31.082  1.00  0.00    -0.248 NA
ATOM     35  C   UNL A   1      38.461  29.393  31.646  1.00  0.00     0.031 C 
ATOM     36  C   UNL A   1      39.732  28.347  27.109  1.00  0.00     0.029 A 
ATOM     37  N   UNL A   1      41.216  28.412  28.747  1.00  0.00    -0.354 N 
ATOM     38  C   UNL A   1      40.091  30.747  32.463  1.00  0.00     0.074 A 
ATOM     39  C   UNL A   1      38.863  30.050  32.736  1.00  0.00     0.031 C 
ATOM     40  C   UNL A   1      40.660  27.398  26.845  1.00  0.00     0.029 A 
ATOM     41  C   UNL A   1      41.630  27.365  27.928  1.00  0.00     0.049 A 
ATOM     42  H   UNL A   1      41.767  28.769  29.481  1.00  0.00     0.167 HD
ATOM     43  C   UNL A   1      41.196  30.945  33.231  1.00  0.00     0.034 A 
ATOM     44  C   UNL A   1      42.637  26.488  28.178  1.00  0.00     0.034 A 
ATOM     45  C   UNL A   1      42.219  31.660  32.502  1.00  0.00     0.049 A 
ATOM     46  C   UNL A   1      43.548  27.125  29.159  1.00  0.00     0.074 A 
ATOM     47  C   UNL A   1      42.263  32.844  31.791  1.00  0.00     0.029 A 
ATOM     48  N   UNL A   1      43.313  30.935  32.092  1.00  0.00    -0.354 N 
ATOM     49  N   UNL A   1      44.287  28.158  28.875  1.00  0.00    -0.248 NA
ATOM     50  C   UNL A   1      43.288  26.908  30.574  1.00  0.00     0.031 C 
ATOM     51  C   UNL A   1      43.086  32.563  30.659  1.00  0.00     0.029 A 
ATOM     52  C   UNL A   1      43.569  31.261  30.789  1.00  0.00     0.049 A 
ATOM     53  H   UNL A   1      43.822  30.295  32.640  1.00  0.00     0.167 HD
ATOM     54  C   UNL A   1      44.142  28.984  29.981  1.00  0.00     0.074 A 
ATOM     55  C   UNL A   1      43.613  28.118  31.036  1.00  0.00     0.031 C 
ATOM     56  C   UNL A   1      44.170  30.343  29.850  1.00  0.00     0.034 A 
BRANCH  43  57
ATOM     57  C   UNL A   1      41.529  30.099  34.440  1.00  0.00     0.023 A 
ATOM     58  C   UNL A   1      42.104  30.766  35.543  1.00  0.00     0.012 A 
ATOM     59  C   UNL A   1      41.601  28.686  34.436  1.00  0.00     0.148 A 
ATOM     60  C   UNL A   1      42.786  30.067  36.544  1.00  0.00     0.002 A 
ATOM     61  C   UNL A   1      42.204  27.991  35.475  1.00  0.00     0.091 A 
ATOM     62  F   UNL A   1      41.213  27.989  33.367  1.00  0.00    -0.205 F 
ATOM     63  C   UNL A   1      42.834  28.678  36.512  1.00  0.00     0.022 A 
BRANCH  61  64
ATOM     64  S   UNL A   1      42.254  26.194  35.502  1.00  0.00     0.127 S 
ATOM     65  O   UNL A   1      43.064  25.909  34.321  1.00  0.00    -0.237 OA
ATOM     66  O   UNL A   1      42.909  25.939  36.784  1.00  0.00    -0.237 OA
ATOM     67  O   UNL A   1      40.865  25.758  35.444  1.00  0.00    -0.744 OA
ENDBRANCH  61  64
ENDBRANCH  43  57
BRANCH  44  68
ATOM     68  C   UNL A   1      42.741  25.041  27.858  1.00  0.00     0.023 A 
ATOM     69  C   UNL A   1      41.695  24.166  28.221  1.00  0.00     0.012 A 
ATOM     70  C   UNL A   1      43.709  24.568  26.945  1.00  0.00     0.148 A 
ATOM     71  C   UNL A   1      41.593  22.885  27.663  1.00  0.00     0.002 A 
ATOM     72  C   UNL A   1      43.609  23.292  26.399  1.00  0.00     0.091 A 
ATOM     73  F   UNL A   1      44.674  25.399  26.535  1.00  0.00    -0.205 F 
ATOM     74  C   UNL A   1      42.544  22.450  26.744  1.00  0.00     0.022 A 
BRANCH  72  75
ATOM     75  S   UNL A   1      44.789  22.682  25.186  1.00  0.00     0.127 S 
ATOM     76  O   UNL A   1      45.978  22.453  26.008  1.00  0.00    -0.237 OA
ATOM     77  O   UNL A   1      44.132  21.468  24.708  1.00  0.00    -0.237 OA
ATOM     78  O   UNL A   1      44.938  23.748  24.203  1.00  0.00    -0.744 OA
ENDBRANCH  72  75
ENDBRANCH  44  68
BRANCH  56  79
ATOM     79  C   UNL A   1      44.655  30.926  28.546  1.00  0.00     0.023 A 
ATOM     80  C   UNL A   1      43.787  31.373  27.528  1.00  0.00     0.012 A 
ATOM     81  C   UNL A   1      46.036  31.142  28.400  1.00  0.00     0.148 A 
ATOM     82  C   UNL A   1      44.290  31.984  26.375  1.00  0.00     0.002 A 
ATOM     83  C   UNL A   1      46.528  31.791  27.276  1.00  0.00     0.091 A 
ATOM     84  F   UNL A   1      46.852  30.715  29.377  1.00  0.00    -0.205 F 
ATOM     85  C   UNL A   1      45.660  32.203  26.253  1.00  0.00     0.022 A 
BRANCH  83  86
ATOM     86  S   UNL A   1      48.270  32.189  27.124  1.00  0.00     0.127 S 
ATOM     87  O   UNL A   1      48.274  33.110  25.990  1.00  0.00    -0.237 OA
ATOM     88  O   UNL A   1      48.566  32.809  28.417  1.00  0.00    -0.237 OA
ATOM     89  O   UNL A   1      48.951  30.919  26.907  1.00  0.00    -0.744 OA
ENDBRANCH  83  86
ENDBRANCH  56  79
ENDBRANCH  30  31
ENDBRANCH  23  25
ENDBRANCH  22  23
ENDBRANCH  21  22
ENDBRANCH   1  21
TORSDOF 17
ENDMDL
MODEL 3
REMARK VINA RESULT:     -11.2      1.617      1.953
REMARK SMILES CC1=C2C(=O)CC(C)(C)CC2=N[C@@H]1C(=O)OCCOCCOC(=O)c1ccc(-c2c3nc(c(-c4cccc(S(=O)(=O)[O-])c4F)c4ccc([nH]4)c(-c4cccc(S(=O)(=O)[O-])c4F)c4nc(c(-c5cccc(S(=O)(=O)[O-])c5F)c5ccc2[nH]5)C=C4)C=C3)cc1
REMARK SMILES IDX 20 1 19 2 18 3 17 4 16 5 14 6 15 7 13 8 1 9 2 10 3 11 4 12
REMARK SMILES IDX 11 13 12 14 5 15 6 16 10 17 7 18 8 19 9 20 21 21 22 22 23 23
REMARK SMILES IDX 24 24 25 25 26 26 87 27 27 28 86 29 28 30 29 31 30 32 80 33
REMARK SMILES IDX 31 34 85 35 79 36 81 37 32 38 84 39 78 40 77 41 33 43 65 44
REMARK SMILES IDX 45 45 64 46 46 47 49 48 63 49 82 50 47 51 48 52 62 54 83 55
REMARK SMILES IDX 50 56 34 57 35 58 43 59 36 60 38 61 44 62 37 63 39 64 40 65
REMARK SMILES IDX 41 66 42 67 66 68 67 69 75 70 68 71 70 72 76 73 69 74 71 75
REMARK SMILES IDX 72 76 73 77 74 78 51 79 52 80 60 81 53 82 55 83 61 84 54 85
REMARK SMILES IDX 56 86 57 87 58 88 59 89
REMARK H PARENT 81 42 49 53
REMARK Flexibility Score: inf
ROOT
ATOM      1  C   UNL A   1      38.284  19.981  24.986  1.00  0.00     0.202 C 
ENDROOT
BRANCH   1   2
ATOM      2  O   UNL A   1      37.123  20.789  24.829  1.00  0.00    -0.374 OA
BRANCH   2   3
ATOM      3  C   UNL A   1      35.819  20.229  24.987  1.00  0.00     0.202 C 
BRANCH   3   4
ATOM      4  C   UNL A   1      34.679  21.163  25.379  1.00  0.00     0.261 C 
BRANCH   4   5
ATOM      5  O   UNL A   1      34.375  22.077  24.328  1.00  0.00    -0.461 OA
BRANCH   5   6
ATOM      6  C   UNL A   1      34.406  23.400  24.664  1.00  0.00     0.335 C 
ATOM      7  O   UNL A   1      35.329  24.168  24.421  1.00  0.00    -0.249 OA
BRANCH   6   8
ATOM      8  C   UNL A   1      33.103  23.760  25.426  1.00  0.00     0.242 C 
ATOM      9  C   UNL A   1      31.394  23.206  23.487  1.00  0.00     0.043 C 
ATOM     10  C   UNL A   1      31.942  24.131  24.522  1.00  0.00    -0.025 C 
ATOM     11  C   UNL A   1      31.678  25.437  24.632  1.00  0.00     0.040 C 
ATOM     12  C   UNL A   1      30.864  26.390  23.870  1.00  0.00     0.165 C 
ATOM     13  C   UNL A   1      32.916  25.858  25.257  1.00  0.00     0.048 C 
ATOM     14  N   UNL A   1      33.491  25.044  26.085  1.00  0.00    -0.269 NA
ATOM     15  O   UNL A   1      29.638  26.337  23.877  1.00  0.00    -0.294 OA
ATOM     16  C   UNL A   1      31.637  27.490  23.150  1.00  0.00     0.088 C 
ATOM     17  C   UNL A   1      33.637  27.022  24.660  1.00  0.00     0.063 C 
ATOM     18  C   UNL A   1      33.174  27.265  23.186  1.00  0.00    -0.023 C 
ATOM     19  C   UNL A   1      33.519  26.125  22.187  1.00  0.00     0.012 C 
ATOM     20  C   UNL A   1      33.941  28.499  22.687  1.00  0.00     0.012 C 
ENDBRANCH   6   8
ENDBRANCH   5   6
ENDBRANCH   4   5
ENDBRANCH   3   4
ENDBRANCH   2   3
ENDBRANCH   1   2
BRANCH   1  21
ATOM     21  C   UNL A   1      39.514  20.533  25.691  1.00  0.00     0.261 C 
BRANCH  21  22
ATOM     22  O   UNL A   1      40.400  19.538  26.180  1.00  0.00    -0.460 OA
BRANCH  22  23
ATOM     23  C   UNL A   1      41.683  19.772  25.808  1.00  0.00     0.338 C 
ATOM     24  O   UNL A   1      42.380  19.050  25.122  1.00  0.00    -0.246 OA
BRANCH  23  25
ATOM     25  C   UNL A   1      42.201  20.938  26.532  1.00  0.00     0.060 A 
ATOM     26  C   UNL A   1      41.935  20.963  27.900  1.00  0.00     0.016 A 
ATOM     27  C   UNL A   1      42.668  22.068  25.843  1.00  0.00     0.016 A 
ATOM     28  C   UNL A   1      41.961  22.176  28.547  1.00  0.00     0.010 A 
ATOM     29  C   UNL A   1      42.697  23.282  26.494  1.00  0.00     0.010 A 
ATOM     30  C   UNL A   1      42.274  23.333  27.818  1.00  0.00    -0.014 A 
BRANCH  30  31
ATOM     31  C   UNL A   1      42.334  24.576  28.561  1.00  0.00     0.031 A 
ATOM     32  C   UNL A   1      41.155  25.421  28.278  1.00  0.00     0.074 A 
ATOM     33  C   UNL A   1      43.321  24.906  29.414  1.00  0.00     0.049 A 
ATOM     34  N   UNL A   1      41.136  26.478  27.537  1.00  0.00    -0.248 NA
ATOM     35  C   UNL A   1      39.823  24.915  28.642  1.00  0.00     0.031 C 
ATOM     36  C   UNL A   1      44.397  24.052  29.920  1.00  0.00     0.029 A 
ATOM     37  N   UNL A   1      43.494  26.062  30.114  1.00  0.00    -0.354 N 
ATOM     38  C   UNL A   1      39.827  26.933  27.600  1.00  0.00     0.074 A 
ATOM     39  C   UNL A   1      39.036  25.825  28.063  1.00  0.00     0.031 C 
ATOM     40  C   UNL A   1      44.934  24.628  31.021  1.00  0.00     0.029 A 
ATOM     41  C   UNL A   1      44.327  25.933  31.222  1.00  0.00     0.049 A 
ATOM     42  H   UNL A   1      43.069  26.913  29.859  1.00  0.00     0.167 HD
ATOM     43  C   UNL A   1      39.579  28.269  27.600  1.00  0.00     0.034 A 
ATOM     44  C   UNL A   1      44.432  26.798  32.265  1.00  0.00     0.034 A 
ATOM     45  C   UNL A   1      40.707  29.012  27.084  1.00  0.00     0.049 A 
ATOM     46  C   UNL A   1      43.945  28.118  31.798  1.00  0.00     0.074 A 
ATOM     47  C   UNL A   1      41.465  28.955  25.929  1.00  0.00     0.029 A 
ATOM     48  N   UNL A   1      41.461  29.713  27.995  1.00  0.00    -0.354 N 
ATOM     49  N   UNL A   1      44.578  28.836  30.915  1.00  0.00    -0.248 NA
ATOM     50  C   UNL A   1      42.531  28.421  31.958  1.00  0.00     0.031 C 
ATOM     51  C   UNL A   1      42.806  29.193  26.358  1.00  0.00     0.029 A 
ATOM     52  C   UNL A   1      42.780  29.469  27.725  1.00  0.00     0.049 A 
ATOM     53  H   UNL A   1      41.113  30.289  28.713  1.00  0.00     0.167 HD
ATOM     54  C   UNL A   1      43.571  29.287  30.072  1.00  0.00     0.074 A 
ATOM     55  C   UNL A   1      42.331  29.097  30.824  1.00  0.00     0.031 C 
ATOM     56  C   UNL A   1      43.807  29.480  28.741  1.00  0.00     0.034 A 
BRANCH  43  57
ATOM     57  C   UNL A   1      38.541  28.922  28.487  1.00  0.00     0.023 A 
ATOM     58  C   UNL A   1      37.696  29.875  27.881  1.00  0.00     0.012 A 
ATOM     59  C   UNL A   1      38.557  28.885  29.901  1.00  0.00     0.148 A 
ATOM     60  C   UNL A   1      36.971  30.797  28.642  1.00  0.00     0.002 A 
ATOM     61  C   UNL A   1      37.770  29.746  30.654  1.00  0.00     0.091 A 
ATOM     62  F   UNL A   1      39.432  28.117  30.551  1.00  0.00    -0.205 F 
ATOM     63  C   UNL A   1      37.005  30.731  30.030  1.00  0.00     0.022 A 
BRANCH  61  64
ATOM     64  S   UNL A   1      37.747  29.672  32.450  1.00  0.00     0.127 S 
ATOM     65  O   UNL A   1      39.105  30.095  32.776  1.00  0.00    -0.237 OA
ATOM     66  O   UNL A   1      36.698  30.640  32.769  1.00  0.00    -0.237 OA
ATOM     67  O   UNL A   1      37.409  28.295  32.786  1.00  0.00    -0.744 OA
ENDBRANCH  61  64
ENDBRANCH  43  57
BRANCH  44  68
ATOM     68  C   UNL A   1      44.655  26.527  33.709  1.00  0.00     0.023 A 
ATOM     69  C   UNL A   1      45.928  26.752  34.275  1.00  0.00     0.012 A 
ATOM     70  C   UNL A   1      43.566  26.339  34.588  1.00  0.00     0.148 A 
ATOM     71  C   UNL A   1      46.101  26.830  35.663  1.00  0.00     0.002 A 
ATOM     72  C   UNL A   1      43.744  26.408  35.967  1.00  0.00     0.091 A 
ATOM     73  F   UNL A   1      42.339  26.188  34.077  1.00  0.00    -0.205 F 
ATOM     74  C   UNL A   1      45.009  26.667  36.510  1.00  0.00     0.022 A 
BRANCH  72  75
ATOM     75  S   UNL A   1      42.369  26.235  37.112  1.00  0.00     0.127 S 
ATOM     76  O   UNL A   1      41.871  24.897  36.789  1.00  0.00    -0.237 OA
ATOM     77  O   UNL A   1      43.036  26.345  38.406  1.00  0.00    -0.237 OA
ATOM     78  O   UNL A   1      41.440  27.311  36.787  1.00  0.00    -0.744 OA
ENDBRANCH  72  75
ENDBRANCH  44  68
BRANCH  56  79
ATOM     79  C   UNL A   1      45.236  29.484  28.260  1.00  0.00     0.023 A 
ATOM     80  C   UNL A   1      46.063  30.627  28.302  1.00  0.00     0.012 A 
ATOM     81  C   UNL A   1      45.798  28.257  27.867  1.00  0.00     0.148 A 
ATOM     82  C   UNL A   1      47.407  30.552  27.922  1.00  0.00     0.002 A 
ATOM     83  C   UNL A   1      47.143  28.178  27.535  1.00  0.00     0.091 A 
ATOM     84  F   UNL A   1      45.002  27.176  27.834  1.00  0.00    -0.205 F 
ATOM     85  C   UNL A   1      47.950  29.325  27.549  1.00  0.00     0.022 A 
BRANCH  83  86
ATOM     86  S   UNL A   1      47.912  26.603  27.152  1.00  0.00     0.127 S 
ATOM     87  O   UNL A   1      49.300  26.991  26.916  1.00  0.00    -0.237 OA
ATOM     88  O   UNL A   1      47.691  25.836  28.381  1.00  0.00    -0.237 OA
ATOM     89  O   UNL A   1      47.196  26.082  25.994  1.00  0.00    -0.744 OA
ENDBRANCH  83  86
ENDBRANCH  56  79
ENDBRANCH  30  31
ENDBRANCH  23  25
ENDBRANCH  22  23
ENDBRANCH  21  22
ENDBRANCH   1  21
TORSDOF 17
ENDMDL
