MODEL 1
REMARK VINA RESULT:     -10.9      0.000      0.000
REMARK SMILES O=C(OCCOCCOC(=O)c1cccc(S(=O)(=O)NC[C@@H]2CCOC2)c1)c1ccc(-c2c3nc(c(-c4cccc(S(=O)(=O)[O-])c4F)c4ccc([nH]4)c(-c4cccc(S(=O)(=O)[O-])c4F)c4nc(c(-c5cccc(S(=O)(=O)[O-])c5F)c5ccc2[nH]5)C=C4)C=C3)cc1
REMARK SMILES IDX 7 1 6 2 5 3 4 4 3 5 2 6 1 7 28 8 29 9 90 10 30 11 89 12
REMARK SMILES IDX 31 13 32 14 33 15 83 16 34 17 88 18 82 19 84 20 35 21 87 22
REMARK SMILES IDX 81 23 80 24 36 26 68 27 48 28 67 29 49 30 52 31 66 32 85 33
REMARK SMILES IDX 50 34 51 35 65 37 86 38 53 39 37 40 38 41 46 42 39 43 41 44
REMARK SMILES IDX 47 45 40 46 42 47 43 48 44 49 45 50 69 51 70 52 78 53 71 54
REMARK SMILES IDX 73 55 79 56 72 57 74 58 75 59 76 60 77 61 54 62 55 63 63 64
REMARK SMILES IDX 56 65 58 66 64 67 57 68 59 69 60 70 61 71 62 72 8 73 9 74
REMARK SMILES IDX 10 75 11 76 12 77 13 78 27 79 14 80 16 81 15 82 17 83 18 84
REMARK SMILES IDX 19 85 20 86 21 88 22 89 23 90 26 91 24 92 25 93
REMARK H PARENT 84 25 52 36 20 87
REMARK Flexibility Score: inf
ROOT
ATOM      1  C   UNL A   1      31.567  27.967  23.588  1.00  0.00     0.202 C 
ENDROOT
BRANCH   1   2
ATOM      2  O   UNL A   1      31.622  27.404  24.904  1.00  0.00    -0.374 OA
BRANCH   2   3
ATOM      3  C   UNL A   1      31.742  28.319  25.985  1.00  0.00     0.202 C 
BRANCH   3   4
ATOM      4  C   UNL A   1      31.567  29.769  25.543  1.00  0.00     0.261 C 
BRANCH   4   5
ATOM      5  O   UNL A   1      32.802  30.476  25.737  1.00  0.00    -0.460 OA
BRANCH   5   6
ATOM      6  C   UNL A   1      33.243  31.153  26.821  1.00  0.00     0.338 C 
ATOM      7  O   UNL A   1      32.511  32.027  27.283  1.00  0.00    -0.246 OA
BRANCH   6   8
ATOM      8  C   UNL A   1      34.561  30.916  27.497  1.00  0.00     0.060 A 
ATOM      9  C   UNL A   1      35.528  31.888  27.771  1.00  0.00     0.016 A 
ATOM     10  C   UNL A   1      34.778  29.620  27.997  1.00  0.00     0.016 A 
ATOM     11  C   UNL A   1      36.684  31.584  28.491  1.00  0.00     0.010 A 
ATOM     12  C   UNL A   1      35.920  29.313  28.744  1.00  0.00     0.010 A 
ATOM     13  C   UNL A   1      36.881  30.298  28.989  1.00  0.00    -0.014 A 
BRANCH  13  14
ATOM     14  C   UNL A   1      38.099  29.998  29.765  1.00  0.00     0.031 A 
ATOM     15  C   UNL A   1      39.130  29.084  29.184  1.00  0.00     0.074 A 
ATOM     16  C   UNL A   1      38.267  30.566  30.973  1.00  0.00     0.049 A 
ATOM     17  N   UNL A   1      40.252  28.672  29.708  1.00  0.00    -0.248 NA
ATOM     18  C   UNL A   1      38.872  28.572  27.826  1.00  0.00     0.031 C 
ATOM     19  C   UNL A   1      37.326  31.494  31.604  1.00  0.00     0.029 A 
ATOM     20  N   UNL A   1      39.277  30.439  31.890  1.00  0.00    -0.354 N 
ATOM     21  C   UNL A   1      40.817  27.825  28.766  1.00  0.00     0.074 A 
ATOM     22  C   UNL A   1      39.926  27.792  27.627  1.00  0.00     0.031 C 
ATOM     23  C   UNL A   1      37.796  31.841  32.812  1.00  0.00     0.029 A 
ATOM     24  C   UNL A   1      39.050  31.134  33.056  1.00  0.00     0.049 A 
ATOM     25  H   UNL A   1      40.087  29.903  31.730  1.00  0.00     0.167 HD
ATOM     26  C   UNL A   1      41.980  27.139  28.847  1.00  0.00     0.034 A 
ATOM     27  C   UNL A   1      39.764  31.168  34.197  1.00  0.00     0.034 A 
ATOM     28  C   UNL A   1      42.863  27.196  29.978  1.00  0.00     0.049 A 
ATOM     29  C   UNL A   1      41.034  30.364  34.270  1.00  0.00     0.074 A 
ATOM     30  C   UNL A   1      44.081  26.566  30.153  1.00  0.00     0.029 A 
ATOM     31  N   UNL A   1      42.611  27.918  31.136  1.00  0.00    -0.354 N 
ATOM     32  N   UNL A   1      41.614  29.654  33.331  1.00  0.00    -0.248 NA
ATOM     33  C   UNL A   1      41.752  30.366  35.552  1.00  0.00     0.031 C 
ATOM     34  C   UNL A   1      44.556  26.891  31.428  1.00  0.00     0.029 A 
ATOM     35  C   UNL A   1      43.636  27.727  32.043  1.00  0.00     0.049 A 
ATOM     36  H   UNL A   1      41.818  28.480  31.289  1.00  0.00     0.167 HD
ATOM     37  C   UNL A   1      42.765  29.128  33.904  1.00  0.00     0.074 A 
ATOM     38  C   UNL A   1      42.821  29.635  35.262  1.00  0.00     0.031 C 
ATOM     39  C   UNL A   1      43.679  28.280  33.373  1.00  0.00     0.034 A 
BRANCH  26  40
ATOM     40  C   UNL A   1      42.356  26.278  27.678  1.00  0.00     0.023 A 
ATOM     41  C   UNL A   1      43.108  26.830  26.623  1.00  0.00     0.012 A 
ATOM     42  C   UNL A   1      41.983  24.921  27.633  1.00  0.00     0.148 A 
ATOM     43  C   UNL A   1      43.471  26.046  25.528  1.00  0.00     0.002 A 
ATOM     44  C   UNL A   1      42.368  24.140  26.550  1.00  0.00     0.091 A 
ATOM     45  F   UNL A   1      41.246  24.429  28.638  1.00  0.00    -0.205 F 
ATOM     46  C   UNL A   1      43.107  24.702  25.496  1.00  0.00     0.022 A 
BRANCH  44  47
ATOM     47  S   UNL A   1      41.973  22.393  26.422  1.00  0.00     0.127 S 
ATOM     48  O   UNL A   1      40.516  22.431  26.291  1.00  0.00    -0.237 OA
ATOM     49  O   UNL A   1      42.685  22.006  25.206  1.00  0.00    -0.237 OA
ATOM     50  O   UNL A   1      42.469  21.777  27.645  1.00  0.00    -0.744 OA
ENDBRANCH  44  47
ENDBRANCH  26  40
BRANCH  27  51
ATOM     51  C   UNL A   1      39.302  31.997  35.349  1.00  0.00     0.023 A 
ATOM     52  C   UNL A   1      38.407  31.448  36.285  1.00  0.00     0.012 A 
ATOM     53  C   UNL A   1      39.765  33.313  35.539  1.00  0.00     0.148 A 
ATOM     54  C   UNL A   1      37.967  32.201  37.378  1.00  0.00     0.002 A 
ATOM     55  C   UNL A   1      39.369  34.037  36.660  1.00  0.00     0.091 A 
ATOM     56  F   UNL A   1      40.592  33.843  34.627  1.00  0.00    -0.205 F 
ATOM     57  C   UNL A   1      38.458  33.489  37.573  1.00  0.00     0.022 A 
BRANCH  55  58
ATOM     58  S   UNL A   1      40.095  35.640  37.025  1.00  0.00     0.127 S 
ATOM     59  O   UNL A   1      39.607  36.456  35.919  1.00  0.00    -0.237 OA
ATOM     60  O   UNL A   1      39.520  35.965  38.330  1.00  0.00    -0.237 OA
ATOM     61  O   UNL A   1      41.531  35.386  37.062  1.00  0.00    -0.744 OA
ENDBRANCH  55  58
ENDBRANCH  27  51
BRANCH  39  62
ATOM     62  C   UNL A   1      44.799  27.827  34.266  1.00  0.00     0.023 A 
ATOM     63  C   UNL A   1      45.958  28.621  34.362  1.00  0.00     0.012 A 
ATOM     64  C   UNL A   1      44.668  26.684  35.075  1.00  0.00     0.148 A 
ATOM     65  C   UNL A   1      46.981  28.274  35.243  1.00  0.00     0.002 A 
ATOM     66  C   UNL A   1      45.674  26.366  35.980  1.00  0.00     0.091 A 
ATOM     67  F   UNL A   1      43.566  25.930  34.949  1.00  0.00    -0.205 F 
ATOM     68  C   UNL A   1      46.832  27.157  36.062  1.00  0.00     0.022 A 
BRANCH  66  69
ATOM     69  S   UNL A   1      45.517  24.999  37.134  1.00  0.00     0.127 S 
ATOM     70  O   UNL A   1      45.350  23.863  36.231  1.00  0.00    -0.237 OA
ATOM     71  O   UNL A   1      46.799  25.033  37.842  1.00  0.00    -0.237 OA
ATOM     72  O   UNL A   1      44.366  25.318  37.969  1.00  0.00    -0.744 OA
ENDBRANCH  66  69
ENDBRANCH  39  62
ENDBRANCH  13  14
ENDBRANCH   6   8
ENDBRANCH   5   6
ENDBRANCH   4   5
ENDBRANCH   3   4
ENDBRANCH   2   3
ENDBRANCH   1   2
BRANCH   1  73
ATOM     73  C   UNL A   1      31.623  26.813  22.582  1.00  0.00     0.261 C 
BRANCH  73  74
ATOM     74  O   UNL A   1      32.253  25.702  23.242  1.00  0.00    -0.460 OA
BRANCH  74  75
ATOM     75  C   UNL A   1      33.411  25.284  22.665  1.00  0.00     0.338 C 
ATOM     76  O   UNL A   1      33.988  25.789  21.720  1.00  0.00    -0.246 OA
BRANCH  75  77
ATOM     77  C   UNL A   1      33.925  24.107  23.406  1.00  0.00     0.061 A 
ATOM     78  C   UNL A   1      35.306  23.918  23.528  1.00  0.00     0.016 A 
ATOM     79  C   UNL A   1      33.050  23.150  23.920  1.00  0.00     0.037 A 
ATOM     80  C   UNL A   1      35.803  22.742  24.093  1.00  0.00     0.002 A 
ATOM     81  C   UNL A   1      33.545  21.918  24.325  1.00  0.00     0.083 A 
ATOM     82  C   UNL A   1      34.923  21.716  24.447  1.00  0.00     0.022 A 
BRANCH  81  83
ATOM     83  S   UNL A   1      32.445  20.533  24.461  1.00  0.00     0.240 S 
ATOM     84  O   UNL A   1      31.403  20.896  25.394  1.00  0.00    -0.207 OA
ATOM     85  O   UNL A   1      32.141  20.108  23.113  1.00  0.00    -0.207 OA
BRANCH  83  86
ATOM     86  N   UNL A   1      33.333  19.284  25.141  1.00  0.00    -0.211 NA
ATOM     87  H   UNL A   1      33.940  19.740  25.823  1.00  0.00     0.141 HD
BRANCH  86  88
ATOM     88  C   UNL A   1      32.826  18.086  25.835  1.00  0.00     0.105 C 
BRANCH  88  89
ATOM     89  C   UNL A   1      32.673  16.820  24.992  1.00  0.00     0.032 C 
ATOM     90  C   UNL A   1      33.467  15.666  25.592  1.00  0.00     0.036 C 
ATOM     91  C   UNL A   1      33.390  16.976  23.663  1.00  0.00     0.165 C 
ATOM     92  C   UNL A   1      34.884  15.959  25.144  1.00  0.00     0.160 C 
ATOM     93  O   UNL A   1      34.780  16.702  23.919  1.00  0.00    -0.381 OA
ENDBRANCH  88  89
ENDBRANCH  86  88
ENDBRANCH  83  86
ENDBRANCH  81  83
ENDBRANCH  75  77
ENDBRANCH  74  75
ENDBRANCH  73  74
ENDBRANCH   1  73
TORSDOF 21
ENDMDL
MODEL 2
REMARK VINA RESULT:     -10.8      1.813      2.451
REMARK SMILES O=C(OCCOCCOC(=O)c1cccc(S(=O)(=O)NC[C@@H]2CCOC2)c1)c1ccc(-c2c3nc(c(-c4cccc(S(=O)(=O)[O-])c4F)c4ccc([nH]4)c(-c4cccc(S(=O)(=O)[O-])c4F)c4nc(c(-c5cccc(S(=O)(=O)[O-])c5F)c5ccc2[nH]5)C=C4)C=C3)cc1
REMARK SMILES IDX 7 1 6 2 5 3 4 4 3 5 2 6 1 7 28 8 29 9 90 10 30 11 89 12
REMARK SMILES IDX 31 13 32 14 33 15 83 16 34 17 88 18 82 19 84 20 35 21 87 22
REMARK SMILES IDX 81 23 80 24 36 26 68 27 48 28 67 29 49 30 52 31 66 32 85 33
REMARK SMILES IDX 50 34 51 35 65 37 86 38 53 39 37 40 38 41 46 42 39 43 41 44
REMARK SMILES IDX 47 45 40 46 42 47 43 48 44 49 45 50 69 51 70 52 78 53 71 54
REMARK SMILES IDX 73 55 79 56 72 57 74 58 75 59 76 60 77 61 54 62 55 63 63 64
REMARK SMILES IDX 56 65 58 66 64 67 57 68 59 69 60 70 61 71 62 72 8 73 9 74
REMARK SMILES IDX 10 75 11 76 12 77 13 78 27 79 14 80 16 81 15 82 17 83 18 84
REMARK SMILES IDX 19 85 20 86 21 88 22 89 23 90 26 91 24 92 25 93
REMARK H PARENT 84 25 52 36 20 87
REMARK Flexibility Score: inf
ROOT
ATOM      1  C   UNL A   1      30.231  28.222  22.416  1.00  0.00     0.202 C 
ENDROOT
BRANCH   1   2
ATOM      2  O   UNL A   1      29.941  28.667  23.746  1.00  0.00    -0.374 OA
BRANCH   2   3
ATOM      3  C   UNL A   1      30.678  29.787  24.219  1.00  0.00     0.202 C 
BRANCH   3   4
ATOM      4  C   UNL A   1      31.457  29.475  25.493  1.00  0.00     0.261 C 
BRANCH   4   5
ATOM      5  O   UNL A   1      32.541  30.408  25.627  1.00  0.00    -0.460 OA
BRANCH   5   6
ATOM      6  C   UNL A   1      32.959  31.087  26.719  1.00  0.00     0.338 C 
ATOM      7  O   UNL A   1      32.201  31.937  27.185  1.00  0.00    -0.246 OA
BRANCH   6   8
ATOM      8  C   UNL A   1      34.280  30.881  27.398  1.00  0.00     0.060 A 
ATOM      9  C   UNL A   1      35.245  31.866  27.630  1.00  0.00     0.016 A 
ATOM     10  C   UNL A   1      34.503  29.606  27.948  1.00  0.00     0.016 A 
ATOM     11  C   UNL A   1      36.405  31.594  28.357  1.00  0.00     0.010 A 
ATOM     12  C   UNL A   1      35.649  29.332  28.701  1.00  0.00     0.010 A 
ATOM     13  C   UNL A   1      36.608  30.329  28.904  1.00  0.00    -0.014 A 
BRANCH  13  14
ATOM     14  C   UNL A   1      37.830  30.063  29.686  1.00  0.00     0.031 A 
ATOM     15  C   UNL A   1      38.898  29.193  29.102  1.00  0.00     0.074 A 
ATOM     16  C   UNL A   1      37.968  30.622  30.902  1.00  0.00     0.049 A 
ATOM     17  N   UNL A   1      40.029  28.816  29.631  1.00  0.00    -0.248 NA
ATOM     18  C   UNL A   1      38.668  28.689  27.737  1.00  0.00     0.031 C 
ATOM     19  C   UNL A   1      36.990  31.508  31.536  1.00  0.00     0.029 A 
ATOM     20  N   UNL A   1      38.975  30.520  31.826  1.00  0.00    -0.354 N 
ATOM     21  C   UNL A   1      40.632  28.000  28.683  1.00  0.00     0.074 A 
ATOM     22  C   UNL A   1      39.751  27.950  27.537  1.00  0.00     0.031 C 
ATOM     23  C   UNL A   1      37.438  31.857  32.752  1.00  0.00     0.029 A 
ATOM     24  C   UNL A   1      38.714  31.192  32.998  1.00  0.00     0.049 A 
ATOM     25  H   UNL A   1      39.805  30.015  31.666  1.00  0.00     0.167 HD
ATOM     26  C   UNL A   1      41.817  27.356  28.766  1.00  0.00     0.034 A 
ATOM     27  C   UNL A   1      39.418  31.238  34.145  1.00  0.00     0.034 A 
ATOM     28  C   UNL A   1      42.689  27.430  29.904  1.00  0.00     0.049 A 
ATOM     29  C   UNL A   1      40.716  30.478  34.218  1.00  0.00     0.074 A 
ATOM     30  C   UNL A   1      43.927  26.842  30.082  1.00  0.00     0.029 A 
ATOM     31  N   UNL A   1      42.403  28.128  31.068  1.00  0.00    -0.354 N 
ATOM     32  N   UNL A   1      41.328  29.801  33.276  1.00  0.00    -0.248 NA
ATOM     33  C   UNL A   1      41.423  30.491  35.506  1.00  0.00     0.031 C 
ATOM     34  C   UNL A   1      44.381  27.169  31.364  1.00  0.00     0.029 A 
ATOM     35  C   UNL A   1      43.427  27.964  31.981  1.00  0.00     0.049 A 
ATOM     36  H   UNL A   1      41.589  28.661  31.222  1.00  0.00     0.167 HD
ATOM     37  C   UNL A   1      42.492  29.310  33.852  1.00  0.00     0.074 A 
ATOM     38  C   UNL A   1      42.519  29.802  35.217  1.00  0.00     0.031 C 
ATOM     39  C   UNL A   1      43.440  28.502  33.318  1.00  0.00     0.034 A 
BRANCH  26  40
ATOM     40  C   UNL A   1      42.233  26.523  27.589  1.00  0.00     0.023 A 
ATOM     41  C   UNL A   1      42.918  27.128  26.518  1.00  0.00     0.012 A 
ATOM     42  C   UNL A   1      41.963  25.141  27.553  1.00  0.00     0.148 A 
ATOM     43  C   UNL A   1      43.317  26.371  25.416  1.00  0.00     0.002 A 
ATOM     44  C   UNL A   1      42.384  24.389  26.463  1.00  0.00     0.091 A 
ATOM     45  F   UNL A   1      41.287  24.597  28.575  1.00  0.00    -0.205 F 
ATOM     46  C   UNL A   1      43.055  25.003  25.393  1.00  0.00     0.022 A 
BRANCH  44  47
ATOM     47  S   UNL A   1      42.120  22.617  26.345  1.00  0.00     0.127 S 
ATOM     48  O   UNL A   1      42.847  22.293  25.117  1.00  0.00    -0.237 OA
ATOM     49  O   UNL A   1      42.749  22.132  27.573  1.00  0.00    -0.237 OA
ATOM     50  O   UNL A   1      40.677  22.428  26.279  1.00  0.00    -0.744 OA
ENDBRANCH  44  47
ENDBRANCH  26  40
BRANCH  27  51
ATOM     51  C   UNL A   1      38.918  32.035  35.303  1.00  0.00     0.023 A 
ATOM     52  C   UNL A   1      38.947  33.441  35.243  1.00  0.00     0.012 A 
ATOM     53  C   UNL A   1      38.387  31.413  36.449  1.00  0.00     0.148 A 
ATOM     54  C   UNL A   1      38.475  34.210  36.310  1.00  0.00     0.002 A 
ATOM     55  C   UNL A   1      37.865  32.184  37.483  1.00  0.00     0.091 A 
ATOM     56  F   UNL A   1      38.391  30.074  36.515  1.00  0.00    -0.205 F 
ATOM     57  C   UNL A   1      37.921  33.583  37.424  1.00  0.00     0.022 A 
BRANCH  55  58
ATOM     58  S   UNL A   1      37.009  31.415  38.863  1.00  0.00     0.127 S 
ATOM     59  O   UNL A   1      37.997  31.517  39.931  1.00  0.00    -0.237 OA
ATOM     60  O   UNL A   1      35.833  32.270  39.030  1.00  0.00    -0.237 OA
ATOM     61  O   UNL A   1      36.697  30.071  38.391  1.00  0.00    -0.744 OA
ENDBRANCH  55  58
ENDBRANCH  27  51
BRANCH  39  62
ATOM     62  C   UNL A   1      44.569  28.077  34.215  1.00  0.00     0.023 A 
ATOM     63  C   UNL A   1      45.668  28.942  34.383  1.00  0.00     0.012 A 
ATOM     64  C   UNL A   1      44.500  26.886  34.959  1.00  0.00     0.148 A 
ATOM     65  C   UNL A   1      46.692  28.619  35.270  1.00  0.00     0.002 A 
ATOM     66  C   UNL A   1      45.505  26.589  35.872  1.00  0.00     0.091 A 
ATOM     67  F   UNL A   1      43.456  26.067  34.764  1.00  0.00    -0.205 F 
ATOM     68  C   UNL A   1      46.603  27.450  36.025  1.00  0.00     0.022 A 
BRANCH  66  69
ATOM     69  S   UNL A   1      45.417  25.153  36.947  1.00  0.00     0.127 S 
ATOM     70  O   UNL A   1      45.263  24.066  35.983  1.00  0.00    -0.237 OA
ATOM     71  O   UNL A   1      46.714  25.187  37.627  1.00  0.00    -0.237 OA
ATOM     72  O   UNL A   1      44.278  25.387  37.825  1.00  0.00    -0.744 OA
ENDBRANCH  66  69
ENDBRANCH  39  62
ENDBRANCH  13  14
ENDBRANCH   6   8
ENDBRANCH   5   6
ENDBRANCH   4   5
ENDBRANCH   3   4
ENDBRANCH   2   3
ENDBRANCH   1   2
BRANCH   1  73
ATOM     73  C   UNL A   1      30.994  26.898  22.522  1.00  0.00     0.261 C 
BRANCH  73  74
ATOM     74  O   UNL A   1      32.377  27.219  22.743  1.00  0.00    -0.460 OA
BRANCH  74  75
ATOM     75  C   UNL A   1      33.252  26.262  22.333  1.00  0.00     0.338 C 
ATOM     76  O   UNL A   1      33.610  26.030  21.193  1.00  0.00    -0.246 OA
BRANCH  75  77
ATOM     77  C   UNL A   1      33.775  25.542  23.520  1.00  0.00     0.061 A 
ATOM     78  C   UNL A   1      33.559  26.069  24.797  1.00  0.00     0.016 A 
ATOM     79  C   UNL A   1      34.540  24.386  23.371  1.00  0.00     0.037 A 
ATOM     80  C   UNL A   1      34.169  25.483  25.907  1.00  0.00     0.002 A 
ATOM     81  C   UNL A   1      35.275  23.909  24.448  1.00  0.00     0.083 A 
ATOM     82  C   UNL A   1      35.071  24.431  25.728  1.00  0.00     0.022 A 
BRANCH  81  83
ATOM     83  S   UNL A   1      36.636  22.808  24.161  1.00  0.00     0.240 S 
ATOM     84  O   UNL A   1      36.756  22.627  22.733  1.00  0.00    -0.207 OA
ATOM     85  O   UNL A   1      37.740  23.293  24.959  1.00  0.00    -0.207 OA
BRANCH  83  86
ATOM     86  N   UNL A   1      36.205  21.333  24.832  1.00  0.00    -0.211 NA
ATOM     87  H   UNL A   1      36.809  21.235  25.649  1.00  0.00     0.141 HD
BRANCH  86  88
ATOM     88  C   UNL A   1      34.875  20.904  25.298  1.00  0.00     0.105 C 
BRANCH  88  89
ATOM     89  C   UNL A   1      33.935  20.318  24.243  1.00  0.00     0.032 C 
ATOM     90  C   UNL A   1      32.973  21.378  23.721  1.00  0.00     0.036 C 
ATOM     91  C   UNL A   1      32.952  19.355  24.883  1.00  0.00     0.165 C 
ATOM     92  C   UNL A   1      31.924  21.453  24.813  1.00  0.00     0.160 C 
ATOM     93  O   UNL A   1      31.902  20.164  25.447  1.00  0.00    -0.381 OA
ENDBRANCH  88  89
ENDBRANCH  86  88
ENDBRANCH  83  86
ENDBRANCH  81  83
ENDBRANCH  75  77
ENDBRANCH  74  75
ENDBRANCH  73  74
ENDBRANCH   1  73
TORSDOF 21
ENDMDL
MODEL 3
REMARK VINA RESULT:     -10.7      5.219     10.247
REMARK SMILES O=C(OCCOCCOC(=O)c1cccc(S(=O)(=O)NC[C@@H]2CCOC2)c1)c1ccc(-c2c3nc(c(-c4cccc(S(=O)(=O)[O-])c4F)c4ccc([nH]4)c(-c4cccc(S(=O)(=O)[O-])c4F)c4nc(c(-c5cccc(S(=O)(=O)[O-])c5F)c5ccc2[nH]5)C=C4)C=C3)cc1
REMARK SMILES IDX 7 1 6 2 5 3 4 4 3 5 2 6 1 7 28 8 29 9 90 10 30 11 89 12
REMARK SMILES IDX 31 13 32 14 33 15 83 16 34 17 88 18 82 19 84 20 35 21 87 22
REMARK SMILES IDX 81 23 80 24 36 26 68 27 48 28 67 29 49 30 52 31 66 32 85 33
REMARK SMILES IDX 50 34 51 35 65 37 86 38 53 39 37 40 38 41 46 42 39 43 41 44
REMARK SMILES IDX 47 45 40 46 42 47 43 48 44 49 45 50 69 51 70 52 78 53 71 54
REMARK SMILES IDX 73 55 79 56 72 57 74 58 75 59 76 60 77 61 54 62 55 63 63 64
REMARK SMILES IDX 56 65 58 66 64 67 57 68 59 69 60 70 61 71 62 72 8 73 9 74
REMARK SMILES IDX 10 75 11 76 12 77 13 78 27 79 14 80 16 81 15 82 17 83 18 84
REMARK SMILES IDX 19 85 20 86 21 88 22 89 23 90 26 91 24 92 25 93
REMARK H PARENT 84 25 52 36 20 87
REMARK Flexibility Score: inf
ROOT
ATOM      1  C   UNL A   1      33.755  21.076  26.583  1.00  0.00     0.202 C 
ENDROOT
BRANCH   1   2
ATOM      2  O   UNL A   1      35.124  21.250  26.202  1.00  0.00    -0.374 OA
BRANCH   2   3
ATOM      3  C   UNL A   1      35.546  20.585  25.019  1.00  0.00     0.202 C 
BRANCH   3   4
ATOM      4  C   UNL A   1      37.050  20.326  25.000  1.00  0.00     0.261 C 
BRANCH   4   5
ATOM      5  O   UNL A   1      37.729  21.430  25.619  1.00  0.00    -0.460 OA
BRANCH   5   6
ATOM      6  C   UNL A   1      38.979  21.491  26.131  1.00  0.00     0.338 C 
ATOM      7  O   UNL A   1      39.644  20.456  26.133  1.00  0.00    -0.246 OA
BRANCH   6   8
ATOM      8  C   UNL A   1      39.610  22.728  26.698  1.00  0.00     0.060 A 
ATOM      9  C   UNL A   1      40.631  22.764  27.653  1.00  0.00     0.016 A 
ATOM     10  C   UNL A   1      39.210  23.948  26.124  1.00  0.00     0.016 A 
ATOM     11  C   UNL A   1      41.218  23.967  28.048  1.00  0.00     0.010 A 
ATOM     12  C   UNL A   1      39.812  25.154  26.494  1.00  0.00     0.010 A 
ATOM     13  C   UNL A   1      40.818  25.166  27.463  1.00  0.00    -0.014 A 
BRANCH  13  14
ATOM     14  C   UNL A   1      41.462  26.427  27.878  1.00  0.00     0.031 A 
ATOM     15  C   UNL A   1      40.656  27.455  28.607  1.00  0.00     0.074 A 
ATOM     16  C   UNL A   1      42.766  26.620  27.609  1.00  0.00     0.049 A 
ATOM     17  N   UNL A   1      41.022  28.633  29.034  1.00  0.00    -0.248 NA
ATOM     18  C   UNL A   1      39.256  27.109  28.906  1.00  0.00     0.031 C 
ATOM     19  C   UNL A   1      43.636  25.657  26.929  1.00  0.00     0.029 A 
ATOM     20  N   UNL A   1      43.584  27.690  27.860  1.00  0.00    -0.354 N 
ATOM     21  C   UNL A   1      39.891  29.187  29.618  1.00  0.00     0.074 A 
ATOM     22  C   UNL A   1      38.829  28.211  29.508  1.00  0.00     0.031 C 
ATOM     23  C   UNL A   1      44.862  26.187  26.804  1.00  0.00     0.029 A 
ATOM     24  C   UNL A   1      44.857  27.536  27.360  1.00  0.00     0.049 A 
ATOM     25  H   UNL A   1      43.290  28.490  28.351  1.00  0.00     0.167 HD
ATOM     26  C   UNL A   1      39.757  30.401  30.196  1.00  0.00     0.034 A 
ATOM     27  C   UNL A   1      45.887  28.403  27.333  1.00  0.00     0.034 A 
ATOM     28  C   UNL A   1      40.826  31.352  30.313  1.00  0.00     0.049 A 
ATOM     29  C   UNL A   1      45.694  29.762  27.952  1.00  0.00     0.074 A 
ATOM     30  C   UNL A   1      40.809  32.600  30.906  1.00  0.00     0.029 A 
ATOM     31  N   UNL A   1      42.105  31.162  29.808  1.00  0.00    -0.354 N 
ATOM     32  N   UNL A   1      44.654  30.232  28.599  1.00  0.00    -0.248 NA
ATOM     33  C   UNL A   1      46.813  30.709  27.843  1.00  0.00     0.031 C 
ATOM     34  C   UNL A   1      42.075  33.175  30.742  1.00  0.00     0.029 A 
ATOM     35  C   UNL A   1      42.879  32.281  30.051  1.00  0.00     0.049 A 
ATOM     36  H   UNL A   1      42.414  30.351  29.344  1.00  0.00     0.167 HD
ATOM     37  C   UNL A   1      44.992  31.525  28.978  1.00  0.00     0.074 A 
ATOM     38  C   UNL A   1      46.350  31.750  28.521  1.00  0.00     0.031 C 
ATOM     39  C   UNL A   1      44.242  32.456  29.617  1.00  0.00     0.034 A 
BRANCH  26  40
ATOM     40  C   UNL A   1      38.408  30.758  30.747  1.00  0.00     0.023 A 
ATOM     41  C   UNL A   1      38.073  30.380  32.061  1.00  0.00     0.012 A 
ATOM     42  C   UNL A   1      37.482  31.483  29.972  1.00  0.00     0.148 A 
ATOM     43  C   UNL A   1      36.826  30.705  32.594  1.00  0.00     0.002 A 
ATOM     44  C   UNL A   1      36.250  31.823  30.517  1.00  0.00     0.091 A 
ATOM     45  F   UNL A   1      37.818  31.807  28.715  1.00  0.00    -0.205 F 
ATOM     46  C   UNL A   1      35.919  31.431  31.824  1.00  0.00     0.022 A 
BRANCH  44  47
ATOM     47  S   UNL A   1      35.021  32.777  29.621  1.00  0.00     0.127 S 
ATOM     48  O   UNL A   1      34.210  33.312  30.715  1.00  0.00    -0.237 OA
ATOM     49  O   UNL A   1      35.846  33.768  28.932  1.00  0.00    -0.237 OA
ATOM     50  O   UNL A   1      34.337  31.835  28.747  1.00  0.00    -0.744 OA
ENDBRANCH  44  47
ENDBRANCH  26  40
BRANCH  27  51
ATOM     51  C   UNL A   1      47.186  28.009  26.713  1.00  0.00     0.023 A 
ATOM     52  C   UNL A   1      48.259  27.618  27.536  1.00  0.00     0.012 A 
ATOM     53  C   UNL A   1      47.356  27.988  25.316  1.00  0.00     0.148 A 
ATOM     54  C   UNL A   1      49.482  27.235  26.979  1.00  0.00     0.002 A 
ATOM     55  C   UNL A   1      48.557  27.549  24.765  1.00  0.00     0.091 A 
ATOM     56  F   UNL A   1      46.342  28.391  24.537  1.00  0.00    -0.205 F 
ATOM     57  C   UNL A   1      49.627  27.187  25.594  1.00  0.00     0.022 A 
BRANCH  55  58
ATOM     58  S   UNL A   1      48.731  27.330  22.990  1.00  0.00     0.127 S 
ATOM     59  O   UNL A   1      50.153  27.586  22.788  1.00  0.00    -0.237 OA
ATOM     60  O   UNL A   1      48.323  25.939  22.796  1.00  0.00    -0.237 OA
ATOM     61  O   UNL A   1      47.806  28.300  22.414  1.00  0.00    -0.744 OA
ENDBRANCH  55  58
ENDBRANCH  27  51
BRANCH  39  62
ATOM     62  C   UNL A   1      44.861  33.807  29.837  1.00  0.00     0.023 A 
ATOM     63  C   UNL A   1      45.609  34.031  31.009  1.00  0.00     0.012 A 
ATOM     64  C   UNL A   1      44.790  34.810  28.854  1.00  0.00     0.148 A 
ATOM     65  C   UNL A   1      46.267  35.244  31.207  1.00  0.00     0.002 A 
ATOM     66  C   UNL A   1      45.481  36.002  29.039  1.00  0.00     0.091 A 
ATOM     67  F   UNL A   1      44.052  34.582  27.757  1.00  0.00    -0.205 F 
ATOM     68  C   UNL A   1      46.215  36.222  30.216  1.00  0.00     0.022 A 
BRANCH  66  69
ATOM     69  S   UNL A   1      45.540  37.272  27.771  1.00  0.00     0.127 S 
ATOM     70  O   UNL A   1      46.465  38.238  28.359  1.00  0.00    -0.237 OA
ATOM     71  O   UNL A   1      46.071  36.543  26.617  1.00  0.00    -0.237 OA
ATOM     72  O   UNL A   1      44.167  37.730  27.607  1.00  0.00    -0.744 OA
ENDBRANCH  66  69
ENDBRANCH  39  62
ENDBRANCH  13  14
ENDBRANCH   6   8
ENDBRANCH   5   6
ENDBRANCH   4   5
ENDBRANCH   3   4
ENDBRANCH   2   3
ENDBRANCH   1   2
BRANCH   1  73
ATOM     73  C   UNL A   1      33.176  19.933  25.744  1.00  0.00     0.261 C 
BRANCH  73  74
ATOM     74  O   UNL A   1      31.987  20.431  25.108  1.00  0.00    -0.460 OA
BRANCH  74  75
ATOM     75  C   UNL A   1      32.152  20.798  23.809  1.00  0.00     0.338 C 
ATOM     76  O   UNL A   1      32.192  20.067  22.836  1.00  0.00    -0.246 OA
BRANCH  75  77
ATOM     77  C   UNL A   1      32.227  22.277  23.728  1.00  0.00     0.061 A 
ATOM     78  C   UNL A   1      33.230  22.875  22.957  1.00  0.00     0.016 A 
ATOM     79  C   UNL A   1      31.356  23.076  24.468  1.00  0.00     0.037 A 
ATOM     80  C   UNL A   1      33.403  24.260  22.990  1.00  0.00     0.002 A 
ATOM     81  C   UNL A   1      31.636  24.426  24.628  1.00  0.00     0.083 A 
ATOM     82  C   UNL A   1      32.638  25.034  23.866  1.00  0.00     0.022 A 
BRANCH  81  83
ATOM     83  S   UNL A   1      30.887  25.325  25.961  1.00  0.00     0.240 S 
ATOM     84  O   UNL A   1      29.518  25.595  25.587  1.00  0.00    -0.207 OA
ATOM     85  O   UNL A   1      31.214  24.615  27.178  1.00  0.00    -0.207 OA
BRANCH  83  86
ATOM     86  N   UNL A   1      31.693  26.792  26.060  1.00  0.00    -0.211 NA
ATOM     87  H   UNL A   1      31.304  27.352  25.300  1.00  0.00     0.141 HD
BRANCH  86  88
ATOM     88  C   UNL A   1      31.759  27.713  27.208  1.00  0.00     0.105 C 
BRANCH  88  89
ATOM     89  C   UNL A   1      32.733  28.886  27.090  1.00  0.00     0.032 C 
ATOM     90  C   UNL A   1      31.984  30.201  26.910  1.00  0.00     0.036 C 
ATOM     91  C   UNL A   1      33.484  28.823  25.773  1.00  0.00     0.165 C 
ATOM     92  C   UNL A   1      31.613  30.183  25.441  1.00  0.00     0.160 C 
ATOM     93  O   UNL A   1      32.606  29.384  24.779  1.00  0.00    -0.381 OA
ENDBRANCH  88  89
ENDBRANCH  86  88
ENDBRANCH  83  86
ENDBRANCH  81  83
ENDBRANCH  75  77
ENDBRANCH  74  75
ENDBRANCH  73  74
ENDBRANCH   1  73
TORSDOF 21
ENDMDL
