MODEL 1
REMARK VINA RESULT:     -11.7      0.000      0.000
REMARK SMILES CC(C)c1ccc(C(=O)NNC(=O)[C@@H]2CC=CC[C@@H]2C(=O)OCCOCCOC(=O)c2ccc(-c3c4nc(c(-c5cccc(S(=O)(=O)[O-])c5F)c5ccc([nH]5)c(-c5cccc(S(=O)(=O)[O-])c5F)c5nc(c(-c6cccc(S(=O)(=O)[O-])c6F)c6ccc3[nH]6)C=C5)C=C4)cc2)cc1
REMARK SMILES IDX 24 1 23 2 22 3 20 4 21 5 19 6 14 7 15 8 16 9 18 10 17 11
REMARK SMILES IDX 12 12 11 13 13 15 10 16 8 17 9 18 7 20 4 21 5 22 95 23 6 24
REMARK SMILES IDX 94 25 2 26 1 27 3 28 25 29 26 30 27 31 28 32 29 33 30 34
REMARK SMILES IDX 31 35 32 36 93 37 33 38 92 39 34 40 35 41 36 42 86 43 37 44
REMARK SMILES IDX 91 45 85 46 87 47 38 48 90 49 84 50 83 51 39 53 71 54 51 55
REMARK SMILES IDX 70 56 52 57 55 58 69 59 88 60 53 61 54 62 68 64 89 65 56 66
REMARK SMILES IDX 40 67 41 68 49 69 42 70 44 71 50 72 43 73 45 74 46 75 47 76
REMARK SMILES IDX 48 77 72 78 73 79 81 80 74 81 76 82 82 83 75 84 77 85 78 86
REMARK SMILES IDX 79 87 80 88 57 89 58 90 66 91 59 92 61 93 67 94 60 95 62 96
REMARK SMILES IDX 63 97 64 98 65 99
REMARK H PARENT 11 14 10 19 87 52 55 63
REMARK Flexibility Score: inf
ROOT
ATOM      1  C   UNL A   1      34.461  20.280  25.033  1.00  0.00     0.202 C 
ENDROOT
BRANCH   1   2
ATOM      2  C   UNL A   1      33.313  20.663  24.095  1.00  0.00     0.261 C 
BRANCH   2   3
ATOM      3  O   UNL A   1      32.633  21.879  24.455  1.00  0.00    -0.463 OA
BRANCH   3   4
ATOM      4  C   UNL A   1      32.564  22.808  23.459  1.00  0.00     0.310 C 
ATOM      5  O   UNL A   1      32.880  22.592  22.298  1.00  0.00    -0.252 OA
BRANCH   4   6
ATOM      6  C   UNL A   1      32.076  24.151  23.995  1.00  0.00     0.116 C 
ATOM      7  C   UNL A   1      32.898  25.370  23.540  1.00  0.00     0.098 C 
ATOM      8  C   UNL A   1      34.386  25.217  23.929  1.00  0.00     0.041 C 
ATOM      9  C   UNL A   1      34.558  24.751  25.348  1.00  0.00    -0.030 C 
ATOM     10  C   UNL A   1      32.151  24.066  25.539  1.00  0.00     0.043 C 
ATOM     11  C   UNL A   1      33.546  24.263  26.083  1.00  0.00    -0.030 C 
BRANCH   7  12
ATOM     12  C   UNL A   1      32.795  25.872  22.100  1.00  0.00     0.242 C 
ATOM     13  N   UNL A   1      31.838  26.794  21.761  1.00  0.00    -0.267 N 
ATOM     14  H   UNL A   1      32.065  27.433  21.047  1.00  0.00     0.191 HD
ATOM     15  O   UNL A   1      33.651  25.611  21.251  1.00  0.00    -0.273 OA
BRANCH  13  16
ATOM     16  N   UNL A   1      30.593  26.909  22.327  1.00  0.00    -0.263 N 
ATOM     17  C   UNL A   1      30.279  27.513  23.537  1.00  0.00     0.269 C 
ATOM     18  O   UNL A   1      29.085  27.500  23.851  1.00  0.00    -0.267 OA
ATOM     19  H   UNL A   1      29.842  26.522  21.821  1.00  0.00     0.191 HD
BRANCH  17  20
ATOM     20  C   UNL A   1      31.262  28.145  24.492  1.00  0.00     0.041 A 
ATOM     21  C   UNL A   1      33.001  29.206  26.505  1.00  0.00    -0.045 A 
ATOM     22  C   UNL A   1      32.119  28.163  26.797  1.00  0.00     0.005 A 
ATOM     23  C   UNL A   1      33.016  29.697  25.197  1.00  0.00     0.005 A 
ATOM     24  C   UNL A   1      31.274  27.639  25.806  1.00  0.00     0.014 A 
ATOM     25  C   UNL A   1      32.157  29.180  24.214  1.00  0.00     0.014 A 
BRANCH  21  26
ATOM     26  C   UNL A   1      33.925  29.754  27.578  1.00  0.00     0.013 C 
ATOM     27  C   UNL A   1      35.348  29.223  27.384  1.00  0.00     0.012 C 
ATOM     28  C   UNL A   1      33.929  31.286  27.640  1.00  0.00     0.012 C 
ENDBRANCH  21  26
ENDBRANCH  17  20
ENDBRANCH  13  16
ENDBRANCH   7  12
ENDBRANCH   4   6
ENDBRANCH   3   4
ENDBRANCH   2   3
ENDBRANCH   1   2
BRANCH   1  29
ATOM     29  O   UNL A   1      35.312  19.203  24.648  1.00  0.00    -0.374 OA
BRANCH  29  30
ATOM     30  C   UNL A   1      36.698  19.311  24.952  1.00  0.00     0.202 C 
BRANCH  30  31
ATOM     31  C   UNL A   1      37.394  20.631  24.619  1.00  0.00     0.261 C 
BRANCH  31  32
ATOM     32  O   UNL A   1      37.747  21.398  25.784  1.00  0.00    -0.460 OA
BRANCH  32  33
ATOM     33  C   UNL A   1      39.056  21.316  26.127  1.00  0.00     0.338 C 
ATOM     34  O   UNL A   1      39.845  20.432  25.810  1.00  0.00    -0.246 OA
BRANCH  33  35
ATOM     35  C   UNL A   1      39.507  22.550  26.794  1.00  0.00     0.060 A 
ATOM     36  C   UNL A   1      38.850  23.742  26.463  1.00  0.00     0.016 A 
ATOM     37  C   UNL A   1      40.625  22.568  27.627  1.00  0.00     0.016 A 
ATOM     38  C   UNL A   1      39.344  24.961  26.921  1.00  0.00     0.010 A 
ATOM     39  C   UNL A   1      41.128  23.794  28.076  1.00  0.00     0.010 A 
ATOM     40  C   UNL A   1      40.514  24.999  27.692  1.00  0.00    -0.014 A 
BRANCH  40  41
ATOM     41  C   UNL A   1      41.154  26.303  27.979  1.00  0.00     0.031 A 
ATOM     42  C   UNL A   1      42.554  26.559  27.491  1.00  0.00     0.074 A 
ATOM     43  C   UNL A   1      40.488  27.255  28.657  1.00  0.00     0.049 A 
ATOM     44  N   UNL A   1      43.280  27.643  27.591  1.00  0.00    -0.248 NA
ATOM     45  C   UNL A   1      43.227  25.447  26.801  1.00  0.00     0.031 C 
ATOM     46  C   UNL A   1      39.137  27.113  29.197  1.00  0.00     0.029 A 
ATOM     47  N   UNL A   1      40.868  28.522  29.021  1.00  0.00    -0.354 N 
ATOM     48  C   UNL A   1      44.496  27.342  26.988  1.00  0.00     0.074 A 
ATOM     49  C   UNL A   1      44.420  25.967  26.545  1.00  0.00     0.031 C 
ATOM     50  C   UNL A   1      38.810  28.242  29.849  1.00  0.00     0.029 A 
ATOM     51  C   UNL A   1      39.928  29.180  29.778  1.00  0.00     0.049 A 
ATOM     52  H   UNL A   1      41.730  28.922  28.765  1.00  0.00     0.167 HD
ATOM     53  C   UNL A   1      45.570  28.145  26.800  1.00  0.00     0.034 A 
ATOM     54  C   UNL A   1      39.970  30.399  30.354  1.00  0.00     0.034 A 
ATOM     55  C   UNL A   1      45.637  29.515  27.232  1.00  0.00     0.049 A 
ATOM     56  C   UNL A   1      41.176  31.273  30.132  1.00  0.00     0.074 A 
ATOM     57  C   UNL A   1      46.659  30.429  27.044  1.00  0.00     0.029 A 
ATOM     58  N   UNL A   1      44.645  30.168  27.947  1.00  0.00    -0.354 N 
ATOM     59  N   UNL A   1      42.259  31.025  29.433  1.00  0.00    -0.248 NA
ATOM     60  C   UNL A   1      41.153  32.609  30.743  1.00  0.00     0.031 C 
ATOM     61  C   UNL A   1      46.292  31.628  27.665  1.00  0.00     0.029 A 
ATOM     62  C   UNL A   1      45.033  31.467  28.221  1.00  0.00     0.049 A 
ATOM     63  H   UNL A   1      43.790  29.764  28.222  1.00  0.00     0.167 HD
ATOM     64  C   UNL A   1      43.028  32.182  29.494  1.00  0.00     0.074 A 
ATOM     65  C   UNL A   1      42.277  33.139  30.281  1.00  0.00     0.031 C 
ATOM     66  C   UNL A   1      44.251  32.425  28.961  1.00  0.00     0.034 A 
BRANCH  53  67
ATOM     67  C   UNL A   1      46.748  27.572  26.057  1.00  0.00     0.023 A 
ATOM     68  C   UNL A   1      46.834  27.746  24.660  1.00  0.00     0.012 A 
ATOM     69  C   UNL A   1      47.788  26.908  26.735  1.00  0.00     0.148 A 
ATOM     70  C   UNL A   1      47.922  27.244  23.946  1.00  0.00     0.002 A 
ATOM     71  C   UNL A   1      48.888  26.443  26.022  1.00  0.00     0.091 A 
ATOM     72  F   UNL A   1      47.677  26.730  28.060  1.00  0.00    -0.205 F 
ATOM     73  C   UNL A   1      48.952  26.602  24.628  1.00  0.00     0.022 A 
BRANCH  71  74
ATOM     74  S   UNL A   1      50.297  25.661  26.818  1.00  0.00     0.127 S 
ATOM     75  O   UNL A   1      51.192  25.442  25.684  1.00  0.00    -0.237 OA
ATOM     76  O   UNL A   1      50.739  26.697  27.753  1.00  0.00    -0.237 OA
ATOM     77  O   UNL A   1      49.779  24.456  27.450  1.00  0.00    -0.744 OA
ENDBRANCH  71  74
ENDBRANCH  53  67
BRANCH  54  78
ATOM     78  C   UNL A   1      38.804  30.881  31.146  1.00  0.00     0.023 A 
ATOM     79  C   UNL A   1      38.669  30.493  32.492  1.00  0.00     0.012 A 
ATOM     80  C   UNL A   1      37.851  31.753  30.583  1.00  0.00     0.148 A 
ATOM     81  C   UNL A   1      37.592  30.944  33.257  1.00  0.00     0.002 A 
ATOM     82  C   UNL A   1      36.812  32.241  31.365  1.00  0.00     0.091 A 
ATOM     83  F   UNL A   1      37.987  32.095  29.293  1.00  0.00    -0.205 F 
ATOM     84  C   UNL A   1      36.671  31.826  32.699  1.00  0.00     0.022 A 
BRANCH  82  85
ATOM     85  S   UNL A   1      35.660  33.484  30.765  1.00  0.00     0.127 S 
ATOM     86  O   UNL A   1      36.226  33.811  29.460  1.00  0.00    -0.237 OA
ATOM     87  O   UNL A   1      34.402  32.736  30.722  1.00  0.00    -0.237 OA
ATOM     88  O   UNL A   1      35.687  34.551  31.756  1.00  0.00    -0.744 OA
ENDBRANCH  82  85
ENDBRANCH  54  78
BRANCH  66  89
ATOM     89  C   UNL A   1      44.854  33.787  29.187  1.00  0.00     0.023 A 
ATOM     90  C   UNL A   1      45.711  33.996  30.285  1.00  0.00     0.012 A 
ATOM     91  C   UNL A   1      44.638  34.834  28.269  1.00  0.00     0.148 A 
ATOM     92  C   UNL A   1      46.321  35.234  30.483  1.00  0.00     0.002 A 
ATOM     93  C   UNL A   1      45.285  36.052  28.448  1.00  0.00     0.091 A 
ATOM     94  F   UNL A   1      43.804  34.622  27.241  1.00  0.00    -0.205 F 
ATOM     95  C   UNL A   1      46.119  36.256  29.559  1.00  0.00     0.022 A 
BRANCH  93  96
ATOM     96  S   UNL A   1      45.154  37.391  27.258  1.00  0.00     0.127 S 
ATOM     97  O   UNL A   1      43.733  37.353  26.919  1.00  0.00    -0.237 OA
ATOM     98  O   UNL A   1      45.560  38.554  28.050  1.00  0.00    -0.237 OA
ATOM     99  O   UNL A   1      46.068  37.054  26.175  1.00  0.00    -0.744 OA
ENDBRANCH  93  96
ENDBRANCH  66  89
ENDBRANCH  40  41
ENDBRANCH  33  35
ENDBRANCH  32  33
ENDBRANCH  31  32
ENDBRANCH  30  31
ENDBRANCH  29  30
ENDBRANCH   1  29
TORSDOF 21
ENDMDL
MODEL 2
REMARK VINA RESULT:     -11.6      1.592      2.502
REMARK SMILES CC(C)c1ccc(C(=O)NNC(=O)[C@@H]2CC=CC[C@@H]2C(=O)OCCOCCOC(=O)c2ccc(-c3c4nc(c(-c5cccc(S(=O)(=O)[O-])c5F)c5ccc([nH]5)c(-c5cccc(S(=O)(=O)[O-])c5F)c5nc(c(-c6cccc(S(=O)(=O)[O-])c6F)c6ccc3[nH]6)C=C5)C=C4)cc2)cc1
REMARK SMILES IDX 24 1 23 2 22 3 20 4 21 5 19 6 14 7 15 8 16 9 18 10 17 11
REMARK SMILES IDX 12 12 11 13 13 15 10 16 8 17 9 18 7 20 4 21 5 22 95 23 6 24
REMARK SMILES IDX 94 25 2 26 1 27 3 28 25 29 26 30 27 31 28 32 29 33 30 34
REMARK SMILES IDX 31 35 32 36 93 37 33 38 92 39 34 40 35 41 36 42 86 43 37 44
REMARK SMILES IDX 91 45 85 46 87 47 38 48 90 49 84 50 83 51 39 53 71 54 51 55
REMARK SMILES IDX 70 56 52 57 55 58 69 59 88 60 53 61 54 62 68 64 89 65 56 66
REMARK SMILES IDX 40 67 41 68 49 69 42 70 44 71 50 72 43 73 45 74 46 75 47 76
REMARK SMILES IDX 48 77 72 78 73 79 81 80 74 81 76 82 82 83 75 84 77 85 78 86
REMARK SMILES IDX 79 87 80 88 57 89 58 90 66 91 59 92 61 93 67 94 60 95 62 96
REMARK SMILES IDX 63 97 64 98 65 99
REMARK H PARENT 11 14 10 19 87 52 55 63
REMARK Flexibility Score: inf
ROOT
ATOM      1  C   UNL A   1      33.935  21.342  26.333  1.00  0.00     0.202 C 
ENDROOT
BRANCH   1   2
ATOM      2  C   UNL A   1      33.134  22.284  25.430  1.00  0.00     0.261 C 
BRANCH   2   3
ATOM      3  O   UNL A   1      33.485  23.674  25.563  1.00  0.00    -0.463 OA
BRANCH   3   4
ATOM      4  C   UNL A   1      33.970  24.249  24.425  1.00  0.00     0.310 C 
ATOM      5  O   UNL A   1      34.709  23.681  23.632  1.00  0.00    -0.252 OA
BRANCH   4   6
ATOM      6  C   UNL A   1      33.498  25.694  24.298  1.00  0.00     0.116 C 
ATOM      7  C   UNL A   1      32.034  25.938  24.707  1.00  0.00     0.098 C 
ATOM      8  C   UNL A   1      31.071  25.050  23.886  1.00  0.00     0.041 C 
ATOM      9  C   UNL A   1      31.396  25.063  22.419  1.00  0.00    -0.030 C 
ATOM     10  C   UNL A   1      33.656  26.082  22.808  1.00  0.00     0.043 C 
ATOM     11  C   UNL A   1      32.545  25.556  21.930  1.00  0.00    -0.030 C 
BRANCH   7  12
ATOM     12  C   UNL A   1      31.632  25.903  26.180  1.00  0.00     0.242 C 
ATOM     13  N   UNL A   1      31.894  26.979  26.989  1.00  0.00    -0.267 N 
ATOM     14  H   UNL A   1      31.257  27.156  27.718  1.00  0.00     0.191 HD
ATOM     15  O   UNL A   1      30.921  25.008  26.646  1.00  0.00    -0.273 OA
BRANCH  13  16
ATOM     16  N   UNL A   1      32.963  27.832  26.874  1.00  0.00    -0.263 N 
ATOM     17  C   UNL A   1      32.983  29.063  26.232  1.00  0.00     0.269 C 
ATOM     18  O   UNL A   1      34.061  29.664  26.253  1.00  0.00    -0.267 OA
ATOM     19  H   UNL A   1      33.805  27.541  27.291  1.00  0.00     0.191 HD
BRANCH  17  20
ATOM     20  C   UNL A   1      31.825  29.698  25.502  1.00  0.00     0.041 A 
ATOM     21  C   UNL A   1      29.671  30.720  23.915  1.00  0.00    -0.045 A 
ATOM     22  C   UNL A   1      30.303  29.521  23.578  1.00  0.00     0.005 A 
ATOM     23  C   UNL A   1      30.113  31.389  25.059  1.00  0.00     0.005 A 
ATOM     24  C   UNL A   1      31.354  29.018  24.362  1.00  0.00     0.014 A 
ATOM     25  C   UNL A   1      31.175  30.890  25.831  1.00  0.00     0.014 A 
BRANCH  21  26
ATOM     26  C   UNL A   1      28.523  31.247  23.071  1.00  0.00     0.013 C 
ATOM     27  C   UNL A   1      28.806  32.681  22.615  1.00  0.00     0.012 C 
ATOM     28  C   UNL A   1      28.209  30.354  21.865  1.00  0.00     0.012 C 
ENDBRANCH  21  26
ENDBRANCH  17  20
ENDBRANCH  13  16
ENDBRANCH   7  12
ENDBRANCH   4   6
ENDBRANCH   3   4
ENDBRANCH   2   3
ENDBRANCH   1   2
BRANCH   1  29
ATOM     29  O   UNL A   1      35.345  21.266  26.139  1.00  0.00    -0.374 OA
BRANCH  29  30
ATOM     30  C   UNL A   1      35.823  20.520  25.025  1.00  0.00     0.202 C 
BRANCH  30  31
ATOM     31  C   UNL A   1      37.297  20.111  25.029  1.00  0.00     0.261 C 
BRANCH  31  32
ATOM     32  O   UNL A   1      38.196  21.226  25.162  1.00  0.00    -0.460 OA
BRANCH  32  33
ATOM     33  C   UNL A   1      39.242  20.999  25.995  1.00  0.00     0.338 C 
ATOM     34  O   UNL A   1      39.900  19.969  26.085  1.00  0.00    -0.246 OA
BRANCH  33  35
ATOM     35  C   UNL A   1      39.649  22.238  26.682  1.00  0.00     0.060 A 
ATOM     36  C   UNL A   1      39.029  23.431  26.289  1.00  0.00     0.016 A 
ATOM     37  C   UNL A   1      40.698  22.257  27.600  1.00  0.00     0.016 A 
ATOM     38  C   UNL A   1      39.495  24.652  26.771  1.00  0.00     0.010 A 
ATOM     39  C   UNL A   1      41.174  23.484  28.074  1.00  0.00     0.010 A 
ATOM     40  C   UNL A   1      40.602  24.689  27.630  1.00  0.00    -0.014 A 
BRANCH  40  41
ATOM     41  C   UNL A   1      41.228  25.992  27.953  1.00  0.00     0.031 A 
ATOM     42  C   UNL A   1      42.635  26.266  27.495  1.00  0.00     0.074 A 
ATOM     43  C   UNL A   1      40.544  26.927  28.638  1.00  0.00     0.049 A 
ATOM     44  N   UNL A   1      43.352  27.352  27.627  1.00  0.00    -0.248 NA
ATOM     45  C   UNL A   1      43.327  25.171  26.796  1.00  0.00     0.031 C 
ATOM     46  C   UNL A   1      39.185  26.766  29.151  1.00  0.00     0.029 A 
ATOM     47  N   UNL A   1      40.909  28.189  29.032  1.00  0.00    -0.354 N 
ATOM     48  C   UNL A   1      44.579  27.071  27.040  1.00  0.00     0.074 A 
ATOM     49  C   UNL A   1      44.520  25.704  26.570  1.00  0.00     0.031 C 
ATOM     50  C   UNL A   1      38.839  27.880  29.818  1.00  0.00     0.029 A 
ATOM     51  C   UNL A   1      39.952  28.826  29.784  1.00  0.00     0.049 A 
ATOM     52  H   UNL A   1      41.773  28.599  28.798  1.00  0.00     0.167 HD
ATOM     53  C   UNL A   1      45.651  27.884  26.886  1.00  0.00     0.034 A 
ATOM     54  C   UNL A   1      39.976  30.034  30.384  1.00  0.00     0.034 A 
ATOM     55  C   UNL A   1      45.702  29.247  27.344  1.00  0.00     0.049 A 
ATOM     56  C   UNL A   1      41.180  30.920  30.200  1.00  0.00     0.074 A 
ATOM     57  C   UNL A   1      46.721  30.170  27.192  1.00  0.00     0.029 A 
ATOM     58  N   UNL A   1      44.692  29.879  28.055  1.00  0.00    -0.354 N 
ATOM     59  N   UNL A   1      42.276  30.692  29.515  1.00  0.00    -0.248 NA
ATOM     60  C   UNL A   1      41.136  32.244  30.835  1.00  0.00     0.031 C 
ATOM     61  C   UNL A   1      46.335  31.355  27.829  1.00  0.00     0.029 A 
ATOM     62  C   UNL A   1      45.067  31.175  28.360  1.00  0.00     0.049 A 
ATOM     63  H   UNL A   1      43.836  29.464  28.307  1.00  0.00     0.167 HD
ATOM     64  C   UNL A   1      43.036  31.853  29.611  1.00  0.00     0.074 A 
ATOM     65  C   UNL A   1      42.265  32.790  30.402  1.00  0.00     0.031 C 
ATOM     66  C   UNL A   1      44.266  32.114  29.104  1.00  0.00     0.034 A 
BRANCH  53  67
ATOM     67  C   UNL A   1      46.846  27.333  26.152  1.00  0.00     0.023 A 
ATOM     68  C   UNL A   1      46.922  27.477  24.752  1.00  0.00     0.012 A 
ATOM     69  C   UNL A   1      47.909  26.720  26.843  1.00  0.00     0.148 A 
ATOM     70  C   UNL A   1      48.025  26.995  24.047  1.00  0.00     0.002 A 
ATOM     71  C   UNL A   1      49.022  26.275  26.138  1.00  0.00     0.091 A 
ATOM     72  F   UNL A   1      47.807  26.570  28.172  1.00  0.00    -0.205 F 
ATOM     73  C   UNL A   1      49.077  26.403  24.740  1.00  0.00     0.022 A 
BRANCH  71  74
ATOM     74  S   UNL A   1      50.458  25.559  26.947  1.00  0.00     0.127 S 
ATOM     75  O   UNL A   1      50.874  26.649  27.827  1.00  0.00    -0.237 OA
ATOM     76  O   UNL A   1      49.881  24.405  27.638  1.00  0.00    -0.237 OA
ATOM     77  O   UNL A   1      51.390  25.223  25.881  1.00  0.00    -0.744 OA
ENDBRANCH  71  74
ENDBRANCH  53  67
BRANCH  54  78
ATOM     78  C   UNL A   1      38.793  30.494  31.165  1.00  0.00     0.023 A 
ATOM     79  C   UNL A   1      38.717  30.214  32.542  1.00  0.00     0.012 A 
ATOM     80  C   UNL A   1      37.763  31.239  30.556  1.00  0.00     0.148 A 
ATOM     81  C   UNL A   1      37.625  30.647  33.295  1.00  0.00     0.002 A 
ATOM     82  C   UNL A   1      36.706  31.713  31.324  1.00  0.00     0.091 A 
ATOM     83  F   UNL A   1      37.845  31.478  29.239  1.00  0.00    -0.205 F 
ATOM     84  C   UNL A   1      36.627  31.406  32.691  1.00  0.00     0.022 A 
BRANCH  82  85
ATOM     85  S   UNL A   1      35.449  32.809  30.653  1.00  0.00     0.127 S 
ATOM     86  O   UNL A   1      34.359  32.633  31.608  1.00  0.00    -0.237 OA
ATOM     87  O   UNL A   1      36.117  34.110  30.712  1.00  0.00    -0.237 OA
ATOM     88  O   UNL A   1      35.194  32.329  29.302  1.00  0.00    -0.744 OA
ENDBRANCH  82  85
ENDBRANCH  54  78
BRANCH  66  89
ATOM     89  C   UNL A   1      44.856  33.475  29.366  1.00  0.00     0.023 A 
ATOM     90  C   UNL A   1      45.650  33.682  30.511  1.00  0.00     0.012 A 
ATOM     91  C   UNL A   1      44.692  34.524  28.439  1.00  0.00     0.148 A 
ATOM     92  C   UNL A   1      46.248  34.920  30.745  1.00  0.00     0.002 A 
ATOM     93  C   UNL A   1      45.328  35.741  28.656  1.00  0.00     0.091 A 
ATOM     94  F   UNL A   1      43.917  34.315  27.366  1.00  0.00    -0.205 F 
ATOM     95  C   UNL A   1      46.098  35.943  29.813  1.00  0.00     0.022 A 
BRANCH  93  96
ATOM     96  S   UNL A   1      45.264  37.083  27.463  1.00  0.00     0.127 S 
ATOM     97  O   UNL A   1      45.988  38.142  28.165  1.00  0.00    -0.237 OA
ATOM     98  O   UNL A   1      45.975  36.516  26.316  1.00  0.00    -0.237 OA
ATOM     99  O   UNL A   1      43.850  37.339  27.226  1.00  0.00    -0.744 OA
ENDBRANCH  93  96
ENDBRANCH  66  89
ENDBRANCH  40  41
ENDBRANCH  33  35
ENDBRANCH  32  33
ENDBRANCH  31  32
ENDBRANCH  30  31
ENDBRANCH  29  30
ENDBRANCH   1  29
TORSDOF 21
ENDMDL
MODEL 3
REMARK VINA RESULT:     -11.2      2.637      3.764
REMARK SMILES CC(C)c1ccc(C(=O)NNC(=O)[C@@H]2CC=CC[C@@H]2C(=O)OCCOCCOC(=O)c2ccc(-c3c4nc(c(-c5cccc(S(=O)(=O)[O-])c5F)c5ccc([nH]5)c(-c5cccc(S(=O)(=O)[O-])c5F)c5nc(c(-c6cccc(S(=O)(=O)[O-])c6F)c6ccc3[nH]6)C=C5)C=C4)cc2)cc1
REMARK SMILES IDX 24 1 23 2 22 3 20 4 21 5 19 6 14 7 15 8 16 9 18 10 17 11
REMARK SMILES IDX 12 12 11 13 13 15 10 16 8 17 9 18 7 20 4 21 5 22 95 23 6 24
REMARK SMILES IDX 94 25 2 26 1 27 3 28 25 29 26 30 27 31 28 32 29 33 30 34
REMARK SMILES IDX 31 35 32 36 93 37 33 38 92 39 34 40 35 41 36 42 86 43 37 44
REMARK SMILES IDX 91 45 85 46 87 47 38 48 90 49 84 50 83 51 39 53 71 54 51 55
REMARK SMILES IDX 70 56 52 57 55 58 69 59 88 60 53 61 54 62 68 64 89 65 56 66
REMARK SMILES IDX 40 67 41 68 49 69 42 70 44 71 50 72 43 73 45 74 46 75 47 76
REMARK SMILES IDX 48 77 72 78 73 79 81 80 74 81 76 82 82 83 75 84 77 85 78 86
REMARK SMILES IDX 79 87 80 88 57 89 58 90 66 91 59 92 61 93 67 94 60 95 62 96
REMARK SMILES IDX 63 97 64 98 65 99
REMARK H PARENT 11 14 10 19 87 52 55 63
REMARK Flexibility Score: inf
ROOT
ATOM      1  C   UNL A   1      34.945  22.871  24.026  1.00  0.00     0.202 C 
ENDROOT
BRANCH   1   2
ATOM      2  C   UNL A   1      33.750  23.811  24.207  1.00  0.00     0.261 C 
BRANCH   2   3
ATOM      3  O   UNL A   1      34.102  25.201  24.328  1.00  0.00    -0.463 OA
BRANCH   3   4
ATOM      4  C   UNL A   1      33.239  25.943  25.080  1.00  0.00     0.310 C 
ATOM      5  O   UNL A   1      32.260  25.485  25.650  1.00  0.00    -0.252 OA
BRANCH   4   6
ATOM      6  C   UNL A   1      33.642  27.416  25.082  1.00  0.00     0.116 C 
ATOM      7  C   UNL A   1      32.610  28.370  25.710  1.00  0.00     0.098 C 
ATOM      8  C   UNL A   1      31.240  28.254  25.004  1.00  0.00     0.041 C 
ATOM      9  C   UNL A   1      31.370  28.255  23.506  1.00  0.00    -0.030 C 
ATOM     10  C   UNL A   1      33.840  27.823  23.601  1.00  0.00     0.043 C 
ATOM     11  C   UNL A   1      32.543  28.093  22.875  1.00  0.00    -0.030 C 
BRANCH   7  12
ATOM     12  C   UNL A   1      32.406  28.391  27.224  1.00  0.00     0.242 C 
ATOM     13  N   UNL A   1      33.264  29.102  28.023  1.00  0.00    -0.267 N 
ATOM     14  H   UNL A   1      32.888  29.499  28.841  1.00  0.00     0.191 HD
ATOM     15  O   UNL A   1      31.391  27.931  27.756  1.00  0.00    -0.273 OA
BRANCH  13  16
ATOM     16  N   UNL A   1      34.600  29.311  27.785  1.00  0.00    -0.263 N 
ATOM     17  C   UNL A   1      35.307  30.490  27.979  1.00  0.00     0.269 C 
ATOM     18  O   UNL A   1      36.508  30.450  27.698  1.00  0.00    -0.267 OA
ATOM     19  H   UNL A   1      35.111  28.544  27.440  1.00  0.00     0.191 HD
BRANCH  17  20
ATOM     20  C   UNL A   1      34.731  31.796  28.470  1.00  0.00     0.041 A 
ATOM     21  C   UNL A   1      33.539  34.311  29.147  1.00  0.00    -0.045 A 
ATOM     22  C   UNL A   1      33.255  33.688  27.929  1.00  0.00     0.005 A 
ATOM     23  C   UNL A   1      34.406  33.656  30.025  1.00  0.00     0.005 A 
ATOM     24  C   UNL A   1      33.835  32.451  27.603  1.00  0.00     0.014 A 
ATOM     25  C   UNL A   1      34.996  32.427  29.687  1.00  0.00     0.014 A 
BRANCH  21  26
ATOM     26  C   UNL A   1      32.893  35.640  29.498  1.00  0.00     0.013 C 
ATOM     27  C   UNL A   1      32.873  35.842  31.016  1.00  0.00     0.012 C 
ATOM     28  C   UNL A   1      33.565  36.832  28.807  1.00  0.00     0.012 C 
ENDBRANCH  21  26
ENDBRANCH  17  20
ENDBRANCH  13  16
ENDBRANCH   7  12
ENDBRANCH   4   6
ENDBRANCH   3   4
ENDBRANCH   2   3
ENDBRANCH   1   2
BRANCH   1  29
ATOM     29  O   UNL A   1      34.794  21.510  24.423  1.00  0.00    -0.374 OA
BRANCH  29  30
ATOM     30  C   UNL A   1      35.937  20.838  24.940  1.00  0.00     0.202 C 
BRANCH  30  31
ATOM     31  C   UNL A   1      37.293  21.530  24.787  1.00  0.00     0.261 C 
BRANCH  31  32
ATOM     32  O   UNL A   1      37.733  22.188  25.989  1.00  0.00    -0.460 OA
BRANCH  32  33
ATOM     33  C   UNL A   1      39.053  22.028  26.257  1.00  0.00     0.338 C 
ATOM     34  O   UNL A   1      39.767  21.096  25.906  1.00  0.00    -0.246 OA
BRANCH  33  35
ATOM     35  C   UNL A   1      39.616  23.238  26.883  1.00  0.00     0.060 A 
ATOM     36  C   UNL A   1      39.103  24.477  26.476  1.00  0.00     0.016 A 
ATOM     37  C   UNL A   1      40.703  23.176  27.753  1.00  0.00     0.016 A 
ATOM     38  C   UNL A   1      39.713  25.656  26.895  1.00  0.00     0.010 A 
ATOM     39  C   UNL A   1      41.323  24.361  28.164  1.00  0.00     0.010 A 
ATOM     40  C   UNL A   1      40.856  25.605  27.704  1.00  0.00    -0.014 A 
BRANCH  40  41
ATOM     41  C   UNL A   1      41.627  26.845  27.954  1.00  0.00     0.031 A 
ATOM     42  C   UNL A   1      43.015  26.976  27.389  1.00  0.00     0.074 A 
ATOM     43  C   UNL A   1      41.088  27.850  28.668  1.00  0.00     0.049 A 
ATOM     44  N   UNL A   1      43.841  27.989  27.447  1.00  0.00    -0.248 NA
ATOM     45  C   UNL A   1      43.546  25.810  26.663  1.00  0.00     0.031 C 
ATOM     46  C   UNL A   1      39.762  27.828  29.282  1.00  0.00     0.029 A 
ATOM     47  N   UNL A   1      41.600  29.076  29.009  1.00  0.00    -0.354 N 
ATOM     48  C   UNL A   1      44.989  27.583  26.778  1.00  0.00     0.074 A 
ATOM     49  C   UNL A   1      44.764  26.222  26.341  1.00  0.00     0.031 C 
ATOM     50  C   UNL A   1      39.574  28.979  29.950  1.00  0.00     0.029 A 
ATOM     51  C   UNL A   1      40.768  29.813  29.817  1.00  0.00     0.049 A 
ATOM     52  H   UNL A   1      42.480  29.397  28.705  1.00  0.00     0.167 HD
ATOM     53  C   UNL A   1      46.119  28.286  26.530  1.00  0.00     0.034 A 
ATOM     54  C   UNL A   1      40.951  31.020  30.388  1.00  0.00     0.034 A 
ATOM     55  C   UNL A   1      46.333  29.643  26.956  1.00  0.00     0.049 A 
ATOM     56  C   UNL A   1      42.217  31.783  30.100  1.00  0.00     0.074 A 
ATOM     57  C   UNL A   1      47.422  30.462  26.712  1.00  0.00     0.029 A 
ATOM     58  N   UNL A   1      45.445  30.379  27.726  1.00  0.00    -0.354 N 
ATOM     59  N   UNL A   1      43.233  31.441  29.342  1.00  0.00    -0.248 NA
ATOM     60  C   UNL A   1      42.348  33.113  30.710  1.00  0.00     0.031 C 
ATOM     61  C   UNL A   1      47.199  31.686  27.351  1.00  0.00     0.029 A 
ATOM     62  C   UNL A   1      45.963  31.637  27.976  1.00  0.00     0.049 A 
ATOM     63  H   UNL A   1      44.574  30.053  28.047  1.00  0.00     0.167 HD
ATOM     64  C   UNL A   1      44.105  32.524  29.359  1.00  0.00     0.074 A 
ATOM     65  C   UNL A   1      43.488  33.542  30.185  1.00  0.00     0.031 C 
ATOM     66  C   UNL A   1      45.313  32.658  28.758  1.00  0.00     0.034 A 
BRANCH  53  67
ATOM     67  C   UNL A   1      47.197  27.612  25.722  1.00  0.00     0.023 A 
ATOM     68  C   UNL A   1      47.978  26.603  26.321  1.00  0.00     0.012 A 
ATOM     69  C   UNL A   1      47.407  27.938  24.368  1.00  0.00     0.148 A 
ATOM     70  C   UNL A   1      48.971  25.946  25.593  1.00  0.00     0.002 A 
ATOM     71  C   UNL A   1      48.373  27.253  23.639  1.00  0.00     0.091 A 
ATOM     72  F   UNL A   1      46.672  28.918  23.824  1.00  0.00    -0.205 F 
ATOM     73  C   UNL A   1      49.162  26.265  24.251  1.00  0.00     0.022 A 
BRANCH  71  74
ATOM     74  S   UNL A   1      48.650  27.546  21.887  1.00  0.00     0.127 S 
ATOM     75  O   UNL A   1      49.540  28.705  21.918  1.00  0.00    -0.237 OA
ATOM     76  O   UNL A   1      49.286  26.299  21.462  1.00  0.00    -0.237 OA
ATOM     77  O   UNL A   1      47.334  27.781  21.310  1.00  0.00    -0.744 OA
ENDBRANCH  71  74
ENDBRANCH  53  67
BRANCH  54  78
ATOM     78  C   UNL A   1      39.879  31.602  31.244  1.00  0.00     0.023 A 
ATOM     79  C   UNL A   1      38.888  32.413  30.663  1.00  0.00     0.012 A 
ATOM     80  C   UNL A   1      39.818  31.323  32.625  1.00  0.00     0.148 A 
ATOM     81  C   UNL A   1      37.867  32.958  31.444  1.00  0.00     0.002 A 
ATOM     82  C   UNL A   1      38.769  31.824  33.386  1.00  0.00     0.091 A 
ATOM     83  F   UNL A   1      40.784  30.565  33.163  1.00  0.00    -0.205 F 
ATOM     84  C   UNL A   1      37.800  32.654  32.801  1.00  0.00     0.022 A 
BRANCH  82  85
ATOM     85  S   UNL A   1      38.533  31.374  35.110  1.00  0.00     0.127 S 
ATOM     86  O   UNL A   1      38.427  29.921  35.028  1.00  0.00    -0.237 OA
ATOM     87  O   UNL A   1      39.767  31.868  35.725  1.00  0.00    -0.237 OA
ATOM     88  O   UNL A   1      37.331  32.076  35.536  1.00  0.00    -0.744 OA
ENDBRANCH  82  85
ENDBRANCH  54  78
BRANCH  66  89
ATOM     89  C   UNL A   1      46.049  33.960  28.950  1.00  0.00     0.023 A 
ATOM     90  C   UNL A   1      46.966  34.092  30.010  1.00  0.00     0.012 A 
ATOM     91  C   UNL A   1      45.891  35.019  28.034  1.00  0.00     0.148 A 
ATOM     92  C   UNL A   1      47.696  35.269  30.173  1.00  0.00     0.002 A 
ATOM     93  C   UNL A   1      46.655  36.173  28.177  1.00  0.00     0.091 A 
ATOM     94  F   UNL A   1      44.998  34.883  27.043  1.00  0.00    -0.205 F 
ATOM     95  C   UNL A   1      47.550  36.302  29.251  1.00  0.00     0.022 A 
BRANCH  93  96
ATOM     96  S   UNL A   1      46.597  37.515  26.985  1.00  0.00     0.127 S 
ATOM     97  O   UNL A   1      45.173  37.844  26.972  1.00  0.00    -0.237 OA
ATOM     98  O   UNL A   1      47.451  38.527  27.611  1.00  0.00    -0.237 OA
ATOM     99  O   UNL A   1      47.127  36.969  25.743  1.00  0.00    -0.744 OA
ENDBRANCH  93  96
ENDBRANCH  66  89
ENDBRANCH  40  41
ENDBRANCH  33  35
ENDBRANCH  32  33
ENDBRANCH  31  32
ENDBRANCH  30  31
ENDBRANCH  29  30
ENDBRANCH   1  29
TORSDOF 21
ENDMDL
