MODEL 1
REMARK VINA RESULT:     -10.4      0.000      0.000
REMARK SMILES C[C@H]1[C@H](C(=O)OCCOCCOC(=O)c2ccc(-c3c4nc(c(-c5cccc(S(=O)(=O)[O-])c5F)c5ccc([nH]5)c(-c5cccc(S(=O)(=O)[O-])c5F)c5nc(c(-c6cccc(S(=O)(=O)[O-])c6F)c6ccc3[nH]6)C=C5)C=C4)cc2)CCN1S(=O)(=O)[C@@H](C)C#N
REMARK SMILES IDX 9 1 8 2 7 3 6 4 4 5 5 6 3 7 1 8 2 9 80 10 78 11 79 12 81 13
REMARK SMILES IDX 82 14 83 15 84 16 85 17 86 18 87 19 10 20 11 21 12 22 13 23
REMARK SMILES IDX 14 24 15 25 16 26 77 27 17 28 76 29 18 30 19 31 20 32 70 33
REMARK SMILES IDX 21 34 75 35 69 36 71 37 22 38 74 39 68 40 67 41 23 43 55 44
REMARK SMILES IDX 35 45 54 46 36 47 39 48 53 49 72 50 37 51 38 52 52 54 73 55
REMARK SMILES IDX 40 56 24 57 25 58 33 59 26 60 28 61 34 62 27 63 29 64 30 65
REMARK SMILES IDX 31 66 32 67 56 68 57 69 65 70 58 71 60 72 66 73 59 74 61 75
REMARK SMILES IDX 62 76 63 77 64 78 41 79 42 80 50 81 43 82 45 83 51 84 44 85
REMARK SMILES IDX 46 86 47 87 48 88 49 89
REMARK H PARENT 71 42 39 53
REMARK Flexibility Score: inf
ROOT
ATOM      1  O   UNL A   1      34.329  20.530  25.242  1.00  0.00    -0.374 OA
ENDROOT
BRANCH   1   2
ATOM      2  C   UNL A   1      33.273  21.222  25.906  1.00  0.00     0.202 C 
BRANCH   2   3
ATOM      3  C   UNL A   1      31.992  21.463  25.099  1.00  0.00     0.261 C 
BRANCH   3   4
ATOM      4  O   UNL A   1      31.657  22.848  24.921  1.00  0.00    -0.463 OA
BRANCH   4   5
ATOM      5  C   UNL A   1      31.301  23.530  26.038  1.00  0.00     0.310 C 
ATOM      6  O   UNL A   1      30.355  23.247  26.767  1.00  0.00    -0.252 OA
BRANCH   5   7
ATOM      7  C   UNL A   1      32.154  24.755  26.295  1.00  0.00     0.118 C 
ATOM      8  C   UNL A   1      34.402  25.180  25.206  1.00  0.00     0.027 C 
ATOM      9  C   UNL A   1      32.885  25.358  25.082  1.00  0.00     0.084 C 
ATOM     10  N   UNL A   1      32.603  26.846  25.103  1.00  0.00    -0.197 NA
ATOM     11  C   UNL A   1      31.283  25.879  26.834  1.00  0.00     0.034 C 
ATOM     12  C   UNL A   1      32.052  27.128  26.464  1.00  0.00     0.103 C 
BRANCH  10  13
ATOM     13  S   UNL A   1      31.631  27.457  23.827  1.00  0.00     0.230 S 
ATOM     14  O   UNL A   1      30.770  26.386  23.390  1.00  0.00    -0.211 OA
ATOM     15  O   UNL A   1      31.057  28.698  24.317  1.00  0.00    -0.211 OA
BRANCH  13  16
ATOM     16  C   UNL A   1      32.766  27.918  22.515  1.00  0.00     0.223 C 
ATOM     17  C   UNL A   1      34.053  28.531  23.042  1.00  0.00     0.043 C 
BRANCH  16  18
ATOM     18  C   UNL A   1      33.057  26.673  21.694  1.00  0.00     0.083 C 
ATOM     19  N   UNL A   1      33.298  25.640  21.012  1.00  0.00    -0.197 NA
ENDBRANCH  16  18
ENDBRANCH  13  16
ENDBRANCH  10  13
ENDBRANCH   5   7
ENDBRANCH   4   5
ENDBRANCH   3   4
ENDBRANCH   2   3
ENDBRANCH   1   2
BRANCH   1  20
ATOM     20  C   UNL A   1      35.501  21.285  24.918  1.00  0.00     0.202 C 
BRANCH  20  21
ATOM     21  C   UNL A   1      36.841  20.586  25.159  1.00  0.00     0.261 C 
BRANCH  21  22
ATOM     22  O   UNL A   1      37.927  21.507  24.992  1.00  0.00    -0.460 OA
BRANCH  22  23
ATOM     23  C   UNL A   1      39.000  21.230  25.767  1.00  0.00     0.338 C 
ATOM     24  O   UNL A   1      39.653  20.199  25.781  1.00  0.00    -0.246 OA
BRANCH  23  25
ATOM     25  C   UNL A   1      39.341  22.415  26.570  1.00  0.00     0.060 A 
ATOM     26  C   UNL A   1      38.644  23.606  26.361  1.00  0.00     0.016 A 
ATOM     27  C   UNL A   1      40.459  22.386  27.407  1.00  0.00     0.016 A 
ATOM     28  C   UNL A   1      39.123  24.790  26.926  1.00  0.00     0.010 A 
ATOM     29  C   UNL A   1      40.894  23.557  28.028  1.00  0.00     0.010 A 
ATOM     30  C   UNL A   1      40.280  24.781  27.725  1.00  0.00    -0.014 A 
BRANCH  30  31
ATOM     31  C   UNL A   1      40.943  26.060  28.091  1.00  0.00     0.031 A 
ATOM     32  C   UNL A   1      42.348  26.332  27.606  1.00  0.00     0.074 A 
ATOM     33  C   UNL A   1      40.304  26.981  28.834  1.00  0.00     0.049 A 
ATOM     34  N   UNL A   1      43.081  27.407  27.751  1.00  0.00    -0.248 NA
ATOM     35  C   UNL A   1      43.026  25.247  26.874  1.00  0.00     0.031 C 
ATOM     36  C   UNL A   1      38.973  26.824  29.417  1.00  0.00     0.029 A 
ATOM     37  N   UNL A   1      40.699  28.234  29.235  1.00  0.00    -0.354 N 
ATOM     38  C   UNL A   1      44.305  27.120  27.157  1.00  0.00     0.074 A 
ATOM     39  C   UNL A   1      44.234  25.756  26.683  1.00  0.00     0.031 C 
ATOM     40  C   UNL A   1      38.657  27.939  30.096  1.00  0.00     0.029 A 
ATOM     41  C   UNL A   1      39.765  28.889  30.001  1.00  0.00     0.049 A 
ATOM     42  H   UNL A   1      41.570  28.626  28.996  1.00  0.00     0.167 HD
ATOM     43  C   UNL A   1      45.379  27.925  26.980  1.00  0.00     0.034 A 
ATOM     44  C   UNL A   1      39.793  30.120  30.550  1.00  0.00     0.034 A 
ATOM     45  C   UNL A   1      45.434  29.299  27.397  1.00  0.00     0.049 A 
ATOM     46  C   UNL A   1      40.976  31.017  30.292  1.00  0.00     0.074 A 
ATOM     47  C   UNL A   1      46.446  30.220  27.195  1.00  0.00     0.029 A 
ATOM     48  N   UNL A   1      44.432  29.951  28.097  1.00  0.00    -0.354 N 
ATOM     49  N   UNL A   1      42.055  30.781  29.586  1.00  0.00    -0.248 NA
ATOM     50  C   UNL A   1      40.922  32.370  30.868  1.00  0.00     0.031 C 
ATOM     51  C   UNL A   1      46.059  31.430  27.782  1.00  0.00     0.029 A 
ATOM     52  C   UNL A   1      44.802  31.264  28.338  1.00  0.00     0.049 A 
ATOM     53  H   UNL A   1      43.583  29.542  28.380  1.00  0.00     0.167 HD
ATOM     54  C   UNL A   1      42.790  31.962  29.603  1.00  0.00     0.074 A 
ATOM     55  C   UNL A   1      42.020  32.921  30.369  1.00  0.00     0.031 C 
ATOM     56  C   UNL A   1      44.000  32.225  29.049  1.00  0.00     0.034 A 
BRANCH  43  57
ATOM     57  C   UNL A   1      46.563  27.357  26.242  1.00  0.00     0.023 A 
ATOM     58  C   UNL A   1      46.641  27.507  24.841  1.00  0.00     0.012 A 
ATOM     59  C   UNL A   1      47.618  26.726  26.928  1.00  0.00     0.148 A 
ATOM     60  C   UNL A   1      47.734  27.011  24.132  1.00  0.00     0.002 A 
ATOM     61  C   UNL A   1      48.724  26.269  26.218  1.00  0.00     0.091 A 
ATOM     62  F   UNL A   1      47.516  26.568  28.255  1.00  0.00    -0.205 F 
ATOM     63  C   UNL A   1      48.779  26.402  24.821  1.00  0.00     0.022 A 
BRANCH  61  64
ATOM     64  S   UNL A   1      50.153  25.537  27.024  1.00  0.00     0.127 S 
ATOM     65  O   UNL A   1      49.578  24.323  27.600  1.00  0.00    -0.237 OA
ATOM     66  O   UNL A   1      51.061  25.307  25.900  1.00  0.00    -0.237 OA
ATOM     67  O   UNL A   1      50.620  26.528  27.984  1.00  0.00    -0.744 OA
ENDBRANCH  61  64
ENDBRANCH  43  57
BRANCH  44  68
ATOM     68  C   UNL A   1      38.618  30.612  31.324  1.00  0.00     0.023 A 
ATOM     69  C   UNL A   1      38.588  30.433  32.721  1.00  0.00     0.012 A 
ATOM     70  C   UNL A   1      37.550  31.274  30.693  1.00  0.00     0.148 A 
ATOM     71  C   UNL A   1      37.501  30.881  33.473  1.00  0.00     0.002 A 
ATOM     72  C   UNL A   1      36.494  31.765  31.453  1.00  0.00     0.091 A 
ATOM     73  F   UNL A   1      37.588  31.417  29.360  1.00  0.00    -0.205 F 
ATOM     74  C   UNL A   1      36.460  31.556  32.841  1.00  0.00     0.022 A 
BRANCH  72  75
ATOM     75  S   UNL A   1      35.175  32.753  30.738  1.00  0.00     0.127 S 
ATOM     76  O   UNL A   1      35.866  34.005  30.443  1.00  0.00    -0.237 OA
ATOM     77  O   UNL A   1      34.805  31.963  29.563  1.00  0.00    -0.237 OA
ATOM     78  O   UNL A   1      34.143  32.821  31.762  1.00  0.00    -0.744 OA
ENDBRANCH  72  75
ENDBRANCH  44  68
BRANCH  56  79
ATOM     79  C   UNL A   1      44.565  33.610  29.227  1.00  0.00     0.023 A 
ATOM     80  C   UNL A   1      44.280  34.606  28.273  1.00  0.00     0.012 A 
ATOM     81  C   UNL A   1      45.317  33.944  30.371  1.00  0.00     0.148 A 
ATOM     82  C   UNL A   1      44.763  35.904  28.435  1.00  0.00     0.002 A 
ATOM     83  C   UNL A   1      45.758  35.251  30.548  1.00  0.00     0.091 A 
ATOM     84  F   UNL A   1      45.597  32.980  31.260  1.00  0.00    -0.205 F 
ATOM     85  C   UNL A   1      45.492  36.229  29.577  1.00  0.00     0.022 A 
BRANCH  83  86
ATOM     86  S   UNL A   1      46.623  35.768  32.036  1.00  0.00     0.127 S 
ATOM     87  O   UNL A   1      46.881  37.180  31.759  1.00  0.00    -0.237 OA
ATOM     88  O   UNL A   1      45.629  35.525  33.082  1.00  0.00    -0.237 OA
ATOM     89  O   UNL A   1      47.801  34.915  32.121  1.00  0.00    -0.744 OA
ENDBRANCH  83  86
ENDBRANCH  56  79
ENDBRANCH  30  31
ENDBRANCH  23  25
ENDBRANCH  22  23
ENDBRANCH  21  22
ENDBRANCH  20  21
ENDBRANCH   1  20
TORSDOF 20
ENDMDL
MODEL 2
REMARK VINA RESULT:     -10.2      4.708      9.714
REMARK SMILES C[C@H]1[C@H](C(=O)OCCOCCOC(=O)c2ccc(-c3c4nc(c(-c5cccc(S(=O)(=O)[O-])c5F)c5ccc([nH]5)c(-c5cccc(S(=O)(=O)[O-])c5F)c5nc(c(-c6cccc(S(=O)(=O)[O-])c6F)c6ccc3[nH]6)C=C5)C=C4)cc2)CCN1S(=O)(=O)[C@@H](C)C#N
REMARK SMILES IDX 9 1 8 2 7 3 6 4 4 5 5 6 3 7 1 8 2 9 80 10 78 11 79 12 81 13
REMARK SMILES IDX 82 14 83 15 84 16 85 17 86 18 87 19 10 20 11 21 12 22 13 23
REMARK SMILES IDX 14 24 15 25 16 26 77 27 17 28 76 29 18 30 19 31 20 32 70 33
REMARK SMILES IDX 21 34 75 35 69 36 71 37 22 38 74 39 68 40 67 41 23 43 55 44
REMARK SMILES IDX 35 45 54 46 36 47 39 48 53 49 72 50 37 51 38 52 52 54 73 55
REMARK SMILES IDX 40 56 24 57 25 58 33 59 26 60 28 61 34 62 27 63 29 64 30 65
REMARK SMILES IDX 31 66 32 67 56 68 57 69 65 70 58 71 60 72 66 73 59 74 61 75
REMARK SMILES IDX 62 76 63 77 64 78 41 79 42 80 50 81 43 82 45 83 51 84 44 85
REMARK SMILES IDX 46 86 47 87 48 88 49 89
REMARK H PARENT 71 42 39 53
REMARK Flexibility Score: inf
ROOT
ATOM      1  O   UNL A   1      31.415  29.096  26.034  1.00  0.00    -0.374 OA
ENDROOT
BRANCH   1   2
ATOM      2  C   UNL A   1      32.300  28.077  26.499  1.00  0.00     0.202 C 
BRANCH   2   3
ATOM      3  C   UNL A   1      31.671  26.722  26.844  1.00  0.00     0.261 C 
BRANCH   3   4
ATOM      4  O   UNL A   1      32.423  25.588  26.388  1.00  0.00    -0.463 OA
BRANCH   4   5
ATOM      5  C   UNL A   1      31.771  24.399  26.373  1.00  0.00     0.310 C 
ATOM      6  O   UNL A   1      31.532  23.713  27.362  1.00  0.00    -0.252 OA
BRANCH   5   7
ATOM      7  C   UNL A   1      31.401  23.930  24.981  1.00  0.00     0.118 C 
ATOM      8  C   UNL A   1      29.662  25.050  23.517  1.00  0.00     0.027 C 
ATOM      9  C   UNL A   1      31.138  25.023  23.929  1.00  0.00     0.084 C 
ATOM     10  N   UNL A   1      31.941  24.643  22.702  1.00  0.00    -0.197 NA
ATOM     11  C   UNL A   1      32.530  23.089  24.408  1.00  0.00     0.034 C 
ATOM     12  C   UNL A   1      32.341  23.218  22.913  1.00  0.00     0.103 C 
BRANCH  10  13
ATOM     13  S   UNL A   1      33.252  25.674  22.299  1.00  0.00     0.230 S 
ATOM     14  O   UNL A   1      34.448  25.089  22.855  1.00  0.00    -0.211 OA
ATOM     15  O   UNL A   1      33.154  25.908  20.868  1.00  0.00    -0.211 OA
BRANCH  13  16
ATOM     16  C   UNL A   1      32.906  27.250  23.084  1.00  0.00     0.223 C 
ATOM     17  C   UNL A   1      34.030  28.255  22.902  1.00  0.00     0.043 C 
BRANCH  16  18
ATOM     18  C   UNL A   1      31.606  27.782  22.503  1.00  0.00     0.083 C 
ATOM     19  N   UNL A   1      30.527  28.223  22.021  1.00  0.00    -0.197 NA
ENDBRANCH  16  18
ENDBRANCH  13  16
ENDBRANCH  10  13
ENDBRANCH   5   7
ENDBRANCH   4   5
ENDBRANCH   3   4
ENDBRANCH   2   3
ENDBRANCH   1   2
BRANCH   1  20
ATOM     20  C   UNL A   1      32.007  30.322  25.593  1.00  0.00     0.202 C 
BRANCH  20  21
ATOM     21  C   UNL A   1      31.969  31.484  26.588  1.00  0.00     0.261 C 
BRANCH  21  22
ATOM     22  O   UNL A   1      32.926  31.282  27.637  1.00  0.00    -0.460 OA
BRANCH  22  23
ATOM     23  C   UNL A   1      33.768  32.324  27.814  1.00  0.00     0.338 C 
ATOM     24  O   UNL A   1      33.473  33.505  27.895  1.00  0.00    -0.246 OA
BRANCH  23  25
ATOM     25  C   UNL A   1      35.140  31.820  27.984  1.00  0.00     0.060 A 
ATOM     26  C   UNL A   1      35.368  30.443  27.970  1.00  0.00     0.016 A 
ATOM     27  C   UNL A   1      36.167  32.705  28.321  1.00  0.00     0.016 A 
ATOM     28  C   UNL A   1      36.609  29.949  28.381  1.00  0.00     0.010 A 
ATOM     29  C   UNL A   1      37.426  32.213  28.663  1.00  0.00     0.010 A 
ATOM     30  C   UNL A   1      37.631  30.829  28.775  1.00  0.00    -0.014 A 
BRANCH  30  31
ATOM     31  C   UNL A   1      38.838  30.308  29.470  1.00  0.00     0.031 A 
ATOM     32  C   UNL A   1      39.173  30.813  30.854  1.00  0.00     0.074 A 
ATOM     33  C   UNL A   1      39.623  29.384  28.889  1.00  0.00     0.049 A 
ATOM     34  N   UNL A   1      40.134  30.441  31.661  1.00  0.00    -0.248 NA
ATOM     35  C   UNL A   1      38.325  31.890  31.398  1.00  0.00     0.031 C 
ATOM     36  C   UNL A   1      39.450  28.855  27.537  1.00  0.00     0.029 A 
ATOM     37  N   UNL A   1      40.735  28.733  29.364  1.00  0.00    -0.354 N 
ATOM     38  C   UNL A   1      40.023  31.250  32.787  1.00  0.00     0.074 A 
ATOM     39  C   UNL A   1      38.927  32.162  32.546  1.00  0.00     0.031 C 
ATOM     40  C   UNL A   1      40.419  27.956  27.292  1.00  0.00     0.029 A 
ATOM     41  C   UNL A   1      41.282  27.847  28.467  1.00  0.00     0.049 A 
ATOM     42  H   UNL A   1      41.106  28.887  30.263  1.00  0.00     0.167 HD
ATOM     43  C   UNL A   1      40.737  31.216  33.938  1.00  0.00     0.034 A 
ATOM     44  C   UNL A   1      42.348  27.031  28.585  1.00  0.00     0.034 A 
ATOM     45  C   UNL A   1      41.788  30.275  34.206  1.00  0.00     0.049 A 
ATOM     46  C   UNL A   1      43.092  26.971  29.894  1.00  0.00     0.074 A 
ATOM     47  C   UNL A   1      42.518  30.108  35.370  1.00  0.00     0.029 A 
ATOM     48  N   UNL A   1      42.257  29.336  33.301  1.00  0.00    -0.354 N 
ATOM     49  N   UNL A   1      42.865  27.630  31.005  1.00  0.00    -0.248 NA
ATOM     50  C   UNL A   1      44.209  26.017  29.981  1.00  0.00     0.031 C 
ATOM     51  C   UNL A   1      43.437  29.072  35.164  1.00  0.00     0.029 A 
ATOM     52  C   UNL A   1      43.269  28.588  33.878  1.00  0.00     0.049 A 
ATOM     53  H   UNL A   1      41.920  29.219  32.384  1.00  0.00     0.167 HD
ATOM     54  C   UNL A   1      43.785  27.148  31.930  1.00  0.00     0.074 A 
ATOM     55  C   UNL A   1      44.557  26.122  31.257  1.00  0.00     0.031 C 
ATOM     56  C   UNL A   1      43.987  27.529  33.216  1.00  0.00     0.034 A 
BRANCH  43  57
ATOM     57  C   UNL A   1      40.355  32.187  35.024  1.00  0.00     0.023 A 
ATOM     58  C   UNL A   1      41.068  33.398  35.150  1.00  0.00     0.012 A 
ATOM     59  C   UNL A   1      39.269  31.933  35.883  1.00  0.00     0.148 A 
ATOM     60  C   UNL A   1      40.725  34.326  36.132  1.00  0.00     0.002 A 
ATOM     61  C   UNL A   1      38.908  32.881  36.835  1.00  0.00     0.091 A 
ATOM     62  F   UNL A   1      38.619  30.766  35.768  1.00  0.00    -0.205 F 
ATOM     63  C   UNL A   1      39.640  34.073  36.967  1.00  0.00     0.022 A 
BRANCH  61  64
ATOM     64  S   UNL A   1      37.480  32.678  37.907  1.00  0.00     0.127 S 
ATOM     65  O   UNL A   1      37.817  33.565  39.018  1.00  0.00    -0.237 OA
ATOM     66  O   UNL A   1      36.385  33.152  37.059  1.00  0.00    -0.237 OA
ATOM     67  O   UNL A   1      37.423  31.260  38.229  1.00  0.00    -0.744 OA
ENDBRANCH  61  64
ENDBRANCH  43  57
BRANCH  44  68
ATOM     68  C   UNL A   1      42.721  26.133  27.455  1.00  0.00     0.023 A 
ATOM     69  C   UNL A   1      43.610  26.598  26.467  1.00  0.00     0.012 A 
ATOM     70  C   UNL A   1      42.224  24.819  27.369  1.00  0.00     0.148 A 
ATOM     71  C   UNL A   1      43.975  25.781  25.397  1.00  0.00     0.002 A 
ATOM     72  C   UNL A   1      42.632  23.992  26.329  1.00  0.00     0.091 A 
ATOM     73  F   UNL A   1      41.363  24.401  28.308  1.00  0.00    -0.205 F 
ATOM     74  C   UNL A   1      43.496  24.476  25.334  1.00  0.00     0.022 A 
BRANCH  72  75
ATOM     75  S   UNL A   1      42.162  22.260  26.240  1.00  0.00     0.127 S 
ATOM     76  O   UNL A   1      42.661  21.749  27.513  1.00  0.00    -0.237 OA
ATOM     77  O   UNL A   1      40.705  22.345  26.138  1.00  0.00    -0.237 OA
ATOM     78  O   UNL A   1      42.816  21.743  25.046  1.00  0.00    -0.744 OA
ENDBRANCH  72  75
ENDBRANCH  44  68
BRANCH  56  79
ATOM     79  C   UNL A   1      45.067  26.825  33.995  1.00  0.00     0.023 A 
ATOM     80  C   UNL A   1      46.386  27.318  33.957  1.00  0.00     0.012 A 
ATOM     81  C   UNL A   1      44.765  25.722  34.818  1.00  0.00     0.148 A 
ATOM     82  C   UNL A   1      47.395  26.704  34.698  1.00  0.00     0.002 A 
ATOM     83  C   UNL A   1      45.767  25.142  35.588  1.00  0.00     0.091 A 
ATOM     84  F   UNL A   1      43.510  25.252  34.826  1.00  0.00    -0.205 F 
ATOM     85  C   UNL A   1      47.084  25.624  35.521  1.00  0.00     0.022 A 
BRANCH  83  86
ATOM     86  S   UNL A   1      45.426  23.807  36.741  1.00  0.00     0.127 S 
ATOM     87  O   UNL A   1      46.764  23.487  37.235  1.00  0.00    -0.237 OA
ATOM     88  O   UNL A   1      44.552  24.450  37.722  1.00  0.00    -0.237 OA
ATOM     89  O   UNL A   1      44.777  22.766  35.955  1.00  0.00    -0.744 OA
ENDBRANCH  83  86
ENDBRANCH  56  79
ENDBRANCH  30  31
ENDBRANCH  23  25
ENDBRANCH  22  23
ENDBRANCH  21  22
ENDBRANCH  20  21
ENDBRANCH   1  20
TORSDOF 20
ENDMDL
MODEL 3
REMARK VINA RESULT:     -10.2      4.644      9.835
REMARK SMILES C[C@H]1[C@H](C(=O)OCCOCCOC(=O)c2ccc(-c3c4nc(c(-c5cccc(S(=O)(=O)[O-])c5F)c5ccc([nH]5)c(-c5cccc(S(=O)(=O)[O-])c5F)c5nc(c(-c6cccc(S(=O)(=O)[O-])c6F)c6ccc3[nH]6)C=C5)C=C4)cc2)CCN1S(=O)(=O)[C@@H](C)C#N
REMARK SMILES IDX 9 1 8 2 7 3 6 4 4 5 5 6 3 7 1 8 2 9 80 10 78 11 79 12 81 13
REMARK SMILES IDX 82 14 83 15 84 16 85 17 86 18 87 19 10 20 11 21 12 22 13 23
REMARK SMILES IDX 14 24 15 25 16 26 77 27 17 28 76 29 18 30 19 31 20 32 70 33
REMARK SMILES IDX 21 34 75 35 69 36 71 37 22 38 74 39 68 40 67 41 23 43 55 44
REMARK SMILES IDX 35 45 54 46 36 47 39 48 53 49 72 50 37 51 38 52 52 54 73 55
REMARK SMILES IDX 40 56 24 57 25 58 33 59 26 60 28 61 34 62 27 63 29 64 30 65
REMARK SMILES IDX 31 66 32 67 56 68 57 69 65 70 58 71 60 72 66 73 59 74 61 75
REMARK SMILES IDX 62 76 63 77 64 78 41 79 42 80 50 81 43 82 45 83 51 84 44 85
REMARK SMILES IDX 46 86 47 87 48 88 49 89
REMARK H PARENT 71 42 39 53
REMARK Flexibility Score: inf
ROOT
ATOM      1  O   UNL A   1      30.546  29.365  24.459  1.00  0.00    -0.374 OA
ENDROOT
BRANCH   1   2
ATOM      2  C   UNL A   1      30.895  29.318  23.077  1.00  0.00     0.202 C 
BRANCH   2   3
ATOM      3  C   UNL A   1      31.199  27.935  22.489  1.00  0.00     0.261 C 
BRANCH   3   4
ATOM      4  O   UNL A   1      32.597  27.668  22.299  1.00  0.00    -0.463 OA
BRANCH   4   5
ATOM      5  C   UNL A   1      32.981  26.371  22.396  1.00  0.00     0.310 C 
ATOM      6  O   UNL A   1      33.627  25.761  21.550  1.00  0.00    -0.252 OA
BRANCH   5   7
ATOM      7  C   UNL A   1      32.477  25.684  23.648  1.00  0.00     0.118 C 
ATOM      8  C   UNL A   1      30.749  23.830  23.658  1.00  0.00     0.027 C 
ATOM      9  C   UNL A   1      32.241  24.165  23.558  1.00  0.00     0.084 C 
ATOM     10  N   UNL A   1      32.922  23.550  24.763  1.00  0.00    -0.197 NA
ATOM     11  C   UNL A   1      33.486  25.864  24.771  1.00  0.00     0.034 C 
ATOM     12  C   UNL A   1      33.209  24.691  25.685  1.00  0.00     0.103 C 
BRANCH  10  13
ATOM     13  S   UNL A   1      34.289  22.562  24.445  1.00  0.00     0.230 S 
ATOM     14  O   UNL A   1      33.802  21.246  24.113  1.00  0.00    -0.211 OA
ATOM     15  O   UNL A   1      35.105  23.297  23.495  1.00  0.00    -0.211 OA
BRANCH  13  16
ATOM     16  C   UNL A   1      35.230  22.510  25.972  1.00  0.00     0.223 C 
ATOM     17  C   UNL A   1      34.552  21.683  27.051  1.00  0.00     0.043 C 
BRANCH  16  18
ATOM     18  C   UNL A   1      36.607  21.953  25.650  1.00  0.00     0.083 C 
ATOM     19  N   UNL A   1      37.750  21.491  25.382  1.00  0.00    -0.197 NA
ENDBRANCH  16  18
ENDBRANCH  13  16
ENDBRANCH  10  13
ENDBRANCH   5   7
ENDBRANCH   4   5
ENDBRANCH   3   4
ENDBRANCH   2   3
ENDBRANCH   1   2
BRANCH   1  20
ATOM     20  C   UNL A   1      31.622  29.366  25.403  1.00  0.00     0.202 C 
BRANCH  20  21
ATOM     21  C   UNL A   1      31.734  30.604  26.295  1.00  0.00     0.261 C 
BRANCH  21  22
ATOM     22  O   UNL A   1      33.049  31.170  26.210  1.00  0.00    -0.460 OA
BRANCH  22  23
ATOM     23  C   UNL A   1      33.488  31.707  27.370  1.00  0.00     0.338 C 
ATOM     24  O   UNL A   1      32.849  32.389  28.154  1.00  0.00    -0.246 OA
BRANCH  23  25
ATOM     25  C   UNL A   1      34.873  31.277  27.615  1.00  0.00     0.060 A 
ATOM     26  C   UNL A   1      35.164  29.912  27.676  1.00  0.00     0.016 A 
ATOM     27  C   UNL A   1      35.845  32.224  27.946  1.00  0.00     0.016 A 
ATOM     28  C   UNL A   1      36.409  29.498  28.156  1.00  0.00     0.010 A 
ATOM     29  C   UNL A   1      37.111  31.808  28.358  1.00  0.00     0.010 A 
ATOM     30  C   UNL A   1      37.374  30.443  28.545  1.00  0.00    -0.014 A 
BRANCH  30  31
ATOM     31  C   UNL A   1      38.575  30.012  29.308  1.00  0.00     0.031 A 
ATOM     32  C   UNL A   1      38.753  30.478  30.735  1.00  0.00     0.074 A 
ATOM     33  C   UNL A   1      39.493  29.202  28.751  1.00  0.00     0.049 A 
ATOM     34  N   UNL A   1      39.687  30.165  31.597  1.00  0.00    -0.248 NA
ATOM     35  C   UNL A   1      37.761  31.435  31.256  1.00  0.00     0.031 C 
ATOM     36  C   UNL A   1      39.475  28.727  27.369  1.00  0.00     0.029 A 
ATOM     37  N   UNL A   1      40.629  28.644  29.283  1.00  0.00    -0.354 N 
ATOM     38  C   UNL A   1      39.411  30.901  32.744  1.00  0.00     0.074 A 
ATOM     39  C   UNL A   1      38.246  31.708  32.458  1.00  0.00     0.031 C 
ATOM     40  C   UNL A   1      40.547  27.944  27.161  1.00  0.00     0.029 A 
ATOM     41  C   UNL A   1      41.329  27.864  28.394  1.00  0.00     0.049 A 
ATOM     42  H   UNL A   1      40.915  28.789  30.213  1.00  0.00     0.167 HD
ATOM     43  C   UNL A   1      40.038  30.882  33.944  1.00  0.00     0.034 A 
ATOM     44  C   UNL A   1      42.464  27.155  28.559  1.00  0.00     0.034 A 
ATOM     45  C   UNL A   1      41.160  30.039  34.253  1.00  0.00     0.049 A 
ATOM     46  C   UNL A   1      43.113  27.105  29.918  1.00  0.00     0.074 A 
ATOM     47  C   UNL A   1      41.817  29.889  35.461  1.00  0.00     0.029 A 
ATOM     48  N   UNL A   1      41.789  29.199  33.348  1.00  0.00    -0.354 N 
ATOM     49  N   UNL A   1      42.738  27.681  31.035  1.00  0.00    -0.248 NA
ATOM     50  C   UNL A   1      44.314  26.266  30.050  1.00  0.00     0.031 C 
ATOM     51  C   UNL A   1      42.852  28.963  35.284  1.00  0.00     0.029 A 
ATOM     52  C   UNL A   1      42.829  28.529  33.969  1.00  0.00     0.049 A 
ATOM     53  H   UNL A   1      41.534  29.095  32.403  1.00  0.00     0.167 HD
ATOM     54  C   UNL A   1      43.634  27.248  32.007  1.00  0.00     0.074 A 
ATOM     55  C   UNL A   1      44.555  26.341  31.353  1.00  0.00     0.031 C 
ATOM     56  C   UNL A   1      43.700  27.583  33.320  1.00  0.00     0.034 A 
BRANCH  43  57
ATOM     57  C   UNL A   1      39.480  31.753  35.038  1.00  0.00     0.023 A 
ATOM     58  C   UNL A   1      38.505  31.226  35.911  1.00  0.00     0.012 A 
ATOM     59  C   UNL A   1      39.949  33.065  35.239  1.00  0.00     0.148 A 
ATOM     60  C   UNL A   1      37.984  32.001  36.946  1.00  0.00     0.002 A 
ATOM     61  C   UNL A   1      39.453  33.818  36.298  1.00  0.00     0.091 A 
ATOM     62  F   UNL A   1      40.856  33.560  34.385  1.00  0.00    -0.205 F 
ATOM     63  C   UNL A   1      38.465  33.292  37.146  1.00  0.00     0.022 A 
BRANCH  61  64
ATOM     64  S   UNL A   1      40.064  35.464  36.682  1.00  0.00     0.127 S 
ATOM     65  O   UNL A   1      41.509  35.245  36.702  1.00  0.00    -0.237 OA
ATOM     66  O   UNL A   1      39.582  36.248  35.544  1.00  0.00    -0.237 OA
ATOM     67  O   UNL A   1      39.464  35.824  37.959  1.00  0.00    -0.744 OA
ENDBRANCH  61  64
ENDBRANCH  43  57
BRANCH  44  68
ATOM     68  C   UNL A   1      43.009  26.357  27.425  1.00  0.00     0.023 A 
ATOM     69  C   UNL A   1      43.965  26.938  26.568  1.00  0.00     0.012 A 
ATOM     70  C   UNL A   1      42.609  25.026  27.206  1.00  0.00     0.148 A 
ATOM     71  C   UNL A   1      44.492  26.216  25.497  1.00  0.00     0.002 A 
ATOM     72  C   UNL A   1      43.177  24.295  26.168  1.00  0.00     0.091 A 
ATOM     73  F   UNL A   1      41.684  24.497  28.020  1.00  0.00    -0.205 F 
ATOM     74  C   UNL A   1      44.107  24.892  25.304  1.00  0.00     0.022 A 
BRANCH  72  75
ATOM     75  S   UNL A   1      42.831  22.549  25.925  1.00  0.00     0.127 S 
ATOM     76  O   UNL A   1      43.586  22.261  24.709  1.00  0.00    -0.237 OA
ATOM     77  O   UNL A   1      43.380  21.956  27.145  1.00  0.00    -0.237 OA
ATOM     78  O   UNL A   1      41.383  22.453  25.813  1.00  0.00    -0.744 OA
ENDBRANCH  72  75
ENDBRANCH  44  68
BRANCH  56  79
ATOM     79  C   UNL A   1      44.789  26.954  34.150  1.00  0.00     0.023 A 
ATOM     80  C   UNL A   1      46.058  27.562  34.209  1.00  0.00     0.012 A 
ATOM     81  C   UNL A   1      44.536  25.804  34.924  1.00  0.00     0.148 A 
ATOM     82  C   UNL A   1      47.070  27.017  34.999  1.00  0.00     0.002 A 
ATOM     83  C   UNL A   1      45.537  25.291  35.743  1.00  0.00     0.091 A 
ATOM     84  F   UNL A   1      43.330  25.225  34.840  1.00  0.00    -0.205 F 
ATOM     85  C   UNL A   1      46.806  25.889  35.773  1.00  0.00     0.022 A 
BRANCH  83  86
ATOM     86  S   UNL A   1      45.246  23.897  36.839  1.00  0.00     0.127 S 
ATOM     87  O   UNL A   1      46.588  23.633  37.352  1.00  0.00    -0.237 OA
ATOM     88  O   UNL A   1      44.316  24.455  37.822  1.00  0.00    -0.237 OA
ATOM     89  O   UNL A   1      44.672  22.853  36.001  1.00  0.00    -0.744 OA
ENDBRANCH  83  86
ENDBRANCH  56  79
ENDBRANCH  30  31
ENDBRANCH  23  25
ENDBRANCH  22  23
ENDBRANCH  21  22
ENDBRANCH  20  21
ENDBRANCH   1  20
TORSDOF 20
ENDMDL
