MODEL 1
REMARK VINA RESULT:     -11.9      0.000      0.000
REMARK SMILES CC[C@H]1Sc2ccc(S(=O)(=O)N3CCC(C(=O)OCCOCCOC(=O)c4ccc(-c5c6nc(c(-c7cccc(S(=O)(=O)[O-])c7F)c7ccc([nH]7)c(-c7cccc(S(=O)(=O)[O-])c7F)c7nc(c(-c8cccc(S(=O)(=O)[O-])c8F)c8ccc5[nH]8)C=C7)C=C6)cc4)CC3)cc2NC1=O
REMARK SMILES IDX 21 1 20 2 19 3 18 4 16 5 17 6 15 7 12 8 13 9 91 10 14 11
REMARK SMILES IDX 90 12 9 13 10 14 11 15 8 16 3 17 4 18 95 19 5 20 94 21 96 22
REMARK SMILES IDX 6 23 93 24 7 26 92 27 2 28 1 29 22 30 23 31 24 32 25 33
REMARK SMILES IDX 26 34 27 35 28 36 89 37 29 38 88 39 30 40 31 41 32 42 82 43
REMARK SMILES IDX 33 44 87 45 81 46 83 47 34 48 86 49 80 50 79 51 35 53 67 54
REMARK SMILES IDX 47 55 66 56 48 57 51 58 65 59 84 60 49 61 50 62 64 64 85 65
REMARK SMILES IDX 52 66 36 67 37 68 45 69 38 70 40 71 46 72 39 73 41 74 42 75
REMARK SMILES IDX 43 76 44 77 68 78 69 79 77 80 70 81 72 82 78 83 71 84 73 85
REMARK SMILES IDX 74 86 75 87 76 88 53 89 54 90 62 91 55 92 57 93 63 94 56 95
REMARK SMILES IDX 58 96 59 97 60 98 61 99
REMARK H PARENT 94 25 83 52 51 63
REMARK Flexibility Score: inf
ROOT
ATOM      1  O   UNL A   1      31.969  29.987  25.321  1.00  0.00    -0.374 OA
ENDROOT
BRANCH   1   2
ATOM      2  C   UNL A   1      30.867  29.571  24.517  1.00  0.00     0.202 C 
BRANCH   2   3
ATOM      3  C   UNL A   1      31.144  29.236  23.049  1.00  0.00     0.261 C 
BRANCH   3   4
ATOM      4  O   UNL A   1      31.290  27.825  22.834  1.00  0.00    -0.463 OA
BRANCH   4   5
ATOM      5  C   UNL A   1      32.564  27.364  22.835  1.00  0.00     0.309 C 
ATOM      6  O   UNL A   1      33.494  27.834  22.190  1.00  0.00    -0.252 OA
BRANCH   5   7
ATOM      7  C   UNL A   1      32.746  26.160  23.727  1.00  0.00     0.102 C 
ATOM      8  N   UNL A   1      33.171  24.412  25.953  1.00  0.00    -0.198 NA
ATOM      9  C   UNL A   1      34.226  24.524  24.916  1.00  0.00     0.103 C 
ATOM     10  C   UNL A   1      31.847  25.044  25.755  1.00  0.00     0.103 C 
ATOM     11  C   UNL A   1      34.177  25.833  24.138  1.00  0.00     0.032 C 
ATOM     12  C   UNL A   1      31.921  26.348  24.987  1.00  0.00     0.032 C 
BRANCH   8  13
ATOM     13  S   UNL A   1      33.168  22.969  26.868  1.00  0.00     0.243 S 
ATOM     14  O   UNL A   1      31.909  22.887  27.576  1.00  0.00    -0.207 OA
ATOM     15  O   UNL A   1      34.441  22.866  27.547  1.00  0.00    -0.207 OA
BRANCH  13  16
ATOM     16  C   UNL A   1      33.144  21.613  25.701  1.00  0.00     0.084 A 
ATOM     17  C   UNL A   1      33.244  16.766  24.043  1.00  0.00     0.141 C 
ATOM     18  S   UNL A   1      32.584  18.033  22.898  1.00  0.00    -0.111 SA
ATOM     19  C   UNL A   1      34.647  17.162  24.489  1.00  0.00     0.237 C 
ATOM     20  C   UNL A   1      32.850  19.451  23.950  1.00  0.00     0.032 A 
ATOM     21  N   UNL A   1      34.824  18.423  24.992  1.00  0.00    -0.324 N 
ATOM     22  O   UNL A   1      35.572  16.350  24.536  1.00  0.00    -0.273 OA
ATOM     23  C   UNL A   1      31.979  20.541  23.866  1.00  0.00     0.018 A 
ATOM     24  C   UNL A   1      33.903  19.477  24.878  1.00  0.00     0.056 A 
ATOM     25  H   UNL A   1      35.664  18.606  25.472  1.00  0.00     0.170 HD
ATOM     26  C   UNL A   1      32.118  21.615  24.748  1.00  0.00     0.023 A 
ATOM     27  C   UNL A   1      34.060  20.563  25.737  1.00  0.00     0.049 A 
BRANCH  17  28
ATOM     28  C   UNL A   1      32.278  16.570  25.229  1.00  0.00     0.021 C 
ATOM     29  C   UNL A   1      32.217  15.140  25.754  1.00  0.00     0.005 C 
ENDBRANCH  17  28
ENDBRANCH  13  16
ENDBRANCH   8  13
ENDBRANCH   5   7
ENDBRANCH   4   5
ENDBRANCH   3   4
ENDBRANCH   2   3
ENDBRANCH   1   2
BRANCH   1  30
ATOM     30  C   UNL A   1      31.690  30.522  26.613  1.00  0.00     0.202 C 
BRANCH  30  31
ATOM     31  C   UNL A   1      31.522  32.042  26.749  1.00  0.00     0.261 C 
BRANCH  31  32
ATOM     32  O   UNL A   1      32.742  32.771  26.530  1.00  0.00    -0.460 OA
BRANCH  32  33
ATOM     33  C   UNL A   1      33.262  33.342  27.648  1.00  0.00     0.338 C 
ATOM     34  O   UNL A   1      32.728  34.179  28.358  1.00  0.00    -0.246 OA
BRANCH  33  35
ATOM     35  C   UNL A   1      34.514  32.669  28.036  1.00  0.00     0.060 A 
ATOM     36  C   UNL A   1      34.424  31.337  28.460  1.00  0.00     0.016 A 
ATOM     37  C   UNL A   1      35.732  33.348  28.082  1.00  0.00     0.016 A 
ATOM     38  C   UNL A   1      35.544  30.689  28.976  1.00  0.00     0.010 A 
ATOM     39  C   UNL A   1      36.856  32.697  28.608  1.00  0.00     0.010 A 
ATOM     40  C   UNL A   1      36.759  31.378  29.089  1.00  0.00    -0.014 A 
BRANCH  40  41
ATOM     41  C   UNL A   1      37.888  30.749  29.818  1.00  0.00     0.031 A 
ATOM     42  C   UNL A   1      38.159  31.142  31.244  1.00  0.00     0.074 A 
ATOM     43  C   UNL A   1      38.655  29.822  29.216  1.00  0.00     0.049 A 
ATOM     44  N   UNL A   1      39.102  30.730  32.051  1.00  0.00    -0.248 NA
ATOM     45  C   UNL A   1      37.247  32.131  31.843  1.00  0.00     0.031 C 
ATOM     46  C   UNL A   1      38.484  29.350  27.842  1.00  0.00     0.029 A 
ATOM     47  N   UNL A   1      39.744  29.128  29.677  1.00  0.00    -0.354 N 
ATOM     48  C   UNL A   1      38.921  31.430  33.238  1.00  0.00     0.074 A 
ATOM     49  C   UNL A   1      37.780  32.300  33.045  1.00  0.00     0.031 C 
ATOM     50  C   UNL A   1      39.455  28.463  27.563  1.00  0.00     0.029 A 
ATOM     51  C   UNL A   1      40.330  28.329  28.725  1.00  0.00     0.049 A 
ATOM     52  H   UNL A   1      40.076  29.197  30.603  1.00  0.00     0.167 HD
ATOM     53  C   UNL A   1      39.630  31.347  34.389  1.00  0.00     0.034 A 
ATOM     54  C   UNL A   1      41.459  27.596  28.775  1.00  0.00     0.034 A 
ATOM     55  C   UNL A   1      40.753  30.469  34.583  1.00  0.00     0.049 A 
ATOM     56  C   UNL A   1      42.250  27.547  30.056  1.00  0.00     0.074 A 
ATOM     57  C   UNL A   1      41.505  30.276  35.729  1.00  0.00     0.029 A 
ATOM     58  N   UNL A   1      41.300  29.652  33.605  1.00  0.00    -0.354 N 
ATOM     59  N   UNL A   1      41.998  28.125  31.205  1.00  0.00    -0.248 NA
ATOM     60  C   UNL A   1      43.465  26.719  30.056  1.00  0.00     0.031 C 
ATOM     61  C   UNL A   1      42.531  29.372  35.432  1.00  0.00     0.029 A 
ATOM     62  C   UNL A   1      42.391  28.969  34.114  1.00  0.00     0.049 A 
ATOM     63  H   UNL A   1      40.961  29.570  32.684  1.00  0.00     0.167 HD
ATOM     64  C   UNL A   1      42.998  27.702  32.073  1.00  0.00     0.074 A 
ATOM     65  C   UNL A   1      43.848  26.802  31.323  1.00  0.00     0.031 C 
ATOM     66  C   UNL A   1      43.204  28.039  33.372  1.00  0.00     0.034 A 
BRANCH  53  67
ATOM     67  C   UNL A   1      39.208  32.223  35.541  1.00  0.00     0.023 A 
ATOM     68  C   UNL A   1      38.336  31.717  36.525  1.00  0.00     0.012 A 
ATOM     69  C   UNL A   1      39.727  33.525  35.681  1.00  0.00     0.148 A 
ATOM     70  C   UNL A   1      37.963  32.503  37.615  1.00  0.00     0.002 A 
ATOM     71  C   UNL A   1      39.388  34.286  36.793  1.00  0.00     0.091 A 
ATOM     72  F   UNL A   1      40.539  33.996  34.724  1.00  0.00    -0.205 F 
ATOM     73  C   UNL A   1      38.497  33.781  37.754  1.00  0.00     0.022 A 
BRANCH  71  74
ATOM     74  S   UNL A   1      40.084  35.911  37.106  1.00  0.00     0.127 S 
ATOM     75  O   UNL A   1      41.507  35.603  37.236  1.00  0.00    -0.237 OA
ATOM     76  O   UNL A   1      39.725  36.638  35.888  1.00  0.00    -0.237 OA
ATOM     77  O   UNL A   1      39.439  36.399  38.319  1.00  0.00    -0.744 OA
ENDBRANCH  71  74
ENDBRANCH  53  67
BRANCH  54  78
ATOM     78  C   UNL A   1      41.905  26.831  27.574  1.00  0.00     0.023 A 
ATOM     79  C   UNL A   1      42.549  27.500  26.518  1.00  0.00     0.012 A 
ATOM     80  C   UNL A   1      41.698  25.441  27.483  1.00  0.00     0.148 A 
ATOM     81  C   UNL A   1      42.950  26.806  25.376  1.00  0.00     0.002 A 
ATOM     82  C   UNL A   1      42.154  24.745  26.370  1.00  0.00     0.091 A 
ATOM     83  F   UNL A   1      41.068  24.824  28.493  1.00  0.00    -0.205 F 
ATOM     84  C   UNL A   1      42.763  25.428  25.307  1.00  0.00     0.022 A 
BRANCH  82  85
ATOM     85  S   UNL A   1      42.077  22.955  26.256  1.00  0.00     0.127 S 
ATOM     86  O   UNL A   1      40.639  22.712  26.341  1.00  0.00    -0.237 OA
ATOM     87  O   UNL A   1      42.666  22.713  24.938  1.00  0.00    -0.237 OA
ATOM     88  O   UNL A   1      42.870  22.454  27.369  1.00  0.00    -0.744 OA
ENDBRANCH  82  85
ENDBRANCH  54  78
BRANCH  66  89
ATOM     89  C   UNL A   1      44.368  27.400  34.086  1.00  0.00     0.023 A 
ATOM     90  C   UNL A   1      45.605  28.071  34.161  1.00  0.00     0.012 A 
ATOM     91  C   UNL A   1      44.213  26.162  34.742  1.00  0.00     0.148 A 
ATOM     92  C   UNL A   1      46.679  27.503  34.844  1.00  0.00     0.002 A 
ATOM     93  C   UNL A   1      45.272  25.627  35.465  1.00  0.00     0.091 A 
ATOM     94  F   UNL A   1      43.034  25.531  34.646  1.00  0.00    -0.205 F 
ATOM     95  C   UNL A   1      46.510  26.289  35.506  1.00  0.00     0.022 A 
BRANCH  93  96
ATOM     96  S   UNL A   1      45.119  24.119  36.429  1.00  0.00     0.127 S 
ATOM     97  O   UNL A   1      44.584  24.625  37.691  1.00  0.00    -0.237 OA
ATOM     98  O   UNL A   1      44.171  23.338  35.634  1.00  0.00    -0.237 OA
ATOM     99  O   UNL A   1      46.459  23.551  36.504  1.00  0.00    -0.744 OA
ENDBRANCH  93  96
ENDBRANCH  66  89
ENDBRANCH  40  41
ENDBRANCH  33  35
ENDBRANCH  32  33
ENDBRANCH  31  32
ENDBRANCH  30  31
ENDBRANCH   1  30
TORSDOF 20
ENDMDL
MODEL 2
REMARK VINA RESULT:     -11.1      5.792     11.412
REMARK SMILES CC[C@H]1Sc2ccc(S(=O)(=O)N3CCC(C(=O)OCCOCCOC(=O)c4ccc(-c5c6nc(c(-c7cccc(S(=O)(=O)[O-])c7F)c7ccc([nH]7)c(-c7cccc(S(=O)(=O)[O-])c7F)c7nc(c(-c8cccc(S(=O)(=O)[O-])c8F)c8ccc5[nH]8)C=C7)C=C6)cc4)CC3)cc2NC1=O
REMARK SMILES IDX 21 1 20 2 19 3 18 4 16 5 17 6 15 7 12 8 13 9 91 10 14 11
REMARK SMILES IDX 90 12 9 13 10 14 11 15 8 16 3 17 4 18 95 19 5 20 94 21 96 22
REMARK SMILES IDX 6 23 93 24 7 26 92 27 2 28 1 29 22 30 23 31 24 32 25 33
REMARK SMILES IDX 26 34 27 35 28 36 89 37 29 38 88 39 30 40 31 41 32 42 82 43
REMARK SMILES IDX 33 44 87 45 81 46 83 47 34 48 86 49 80 50 79 51 35 53 67 54
REMARK SMILES IDX 47 55 66 56 48 57 51 58 65 59 84 60 49 61 50 62 64 64 85 65
REMARK SMILES IDX 52 66 36 67 37 68 45 69 38 70 40 71 46 72 39 73 41 74 42 75
REMARK SMILES IDX 43 76 44 77 68 78 69 79 77 80 70 81 72 82 78 83 71 84 73 85
REMARK SMILES IDX 74 86 75 87 76 88 53 89 54 90 62 91 55 92 57 93 63 94 56 95
REMARK SMILES IDX 58 96 59 97 60 98 61 99
REMARK H PARENT 94 25 83 52 51 63
REMARK Flexibility Score: inf
ROOT
ATOM      1  O   UNL A   1      43.652  22.411  24.773  1.00  0.00    -0.374 OA
ENDROOT
BRANCH   1   2
ATOM      2  C   UNL A   1      42.491  22.665  25.560  1.00  0.00     0.202 C 
BRANCH   2   3
ATOM      3  C   UNL A   1      42.440  23.975  26.350  1.00  0.00     0.261 C 
BRANCH   3   4
ATOM      4  O   UNL A   1      41.123  24.546  26.368  1.00  0.00    -0.463 OA
BRANCH   4   5
ATOM      5  C   UNL A   1      41.075  25.899  26.412  1.00  0.00     0.309 C 
ATOM      6  O   UNL A   1      41.250  26.652  25.461  1.00  0.00    -0.252 OA
BRANCH   5   7
ATOM      7  C   UNL A   1      40.787  26.425  27.797  1.00  0.00     0.102 C 
ATOM      8  N   UNL A   1      39.626  27.702  30.081  1.00  0.00    -0.198 NA
ATOM      9  C   UNL A   1      40.871  28.262  29.499  1.00  0.00     0.103 C 
ATOM     10  C   UNL A   1      39.092  26.402  29.611  1.00  0.00     0.103 C 
ATOM     11  C   UNL A   1      41.072  27.904  28.033  1.00  0.00     0.032 C 
ATOM     12  C   UNL A   1      39.332  26.161  28.135  1.00  0.00     0.032 C 
BRANCH   8  13
ATOM     13  S   UNL A   1      39.334  28.067  31.724  1.00  0.00     0.243 S 
ATOM     14  O   UNL A   1      40.593  28.436  32.334  1.00  0.00    -0.207 OA
ATOM     15  O   UNL A   1      38.490  27.028  32.271  1.00  0.00    -0.207 OA
BRANCH  13  16
ATOM     16  C   UNL A   1      38.337  29.552  31.757  1.00  0.00     0.084 A 
ATOM     17  C   UNL A   1      37.276  34.563  31.862  1.00  0.00     0.141 C 
ATOM     18  S   UNL A   1      35.939  33.431  31.328  1.00  0.00    -0.111 SA
ATOM     19  C   UNL A   1      37.784  34.140  33.235  1.00  0.00     0.237 C 
ATOM     20  C   UNL A   1      36.835  31.903  31.546  1.00  0.00     0.032 A 
ATOM     21  N   UNL A   1      38.149  32.831  33.404  1.00  0.00    -0.324 N 
ATOM     22  O   UNL A   1      38.002  34.956  34.132  1.00  0.00    -0.273 OA
ATOM     23  C   UNL A   1      36.552  30.817  30.713  1.00  0.00     0.018 A 
ATOM     24  C   UNL A   1      37.837  31.784  32.523  1.00  0.00     0.056 A 
ATOM     25  H   UNL A   1      38.670  32.606  34.208  1.00  0.00     0.170 HD
ATOM     26  C   UNL A   1      37.310  29.647  30.810  1.00  0.00     0.023 A 
ATOM     27  C   UNL A   1      38.571  30.605  32.640  1.00  0.00     0.049 A 
BRANCH  17  28
ATOM     28  C   UNL A   1      38.393  34.601  30.800  1.00  0.00     0.021 C 
ATOM     29  C   UNL A   1      37.930  34.235  29.394  1.00  0.00     0.005 C 
ENDBRANCH  17  28
ENDBRANCH  13  16
ENDBRANCH   8  13
ENDBRANCH   5   7
ENDBRANCH   4   5
ENDBRANCH   3   4
ENDBRANCH   2   3
ENDBRANCH   1   2
BRANCH   1  30
ATOM     30  C   UNL A   1      44.925  22.503  25.409  1.00  0.00     0.202 C 
BRANCH  30  31
ATOM     31  C   UNL A   1      46.061  23.215  24.659  1.00  0.00     0.261 C 
BRANCH  31  32
ATOM     32  O   UNL A   1      45.843  24.628  24.504  1.00  0.00    -0.460 OA
BRANCH  32  33
ATOM     33  C   UNL A   1      46.817  25.407  25.044  1.00  0.00     0.338 C 
ATOM     34  O   UNL A   1      47.985  25.464  24.697  1.00  0.00    -0.246 OA
BRANCH  33  35
ATOM     35  C   UNL A   1      46.239  26.359  26.009  1.00  0.00     0.060 A 
ATOM     36  C   UNL A   1      47.095  26.886  26.985  1.00  0.00     0.016 A 
ATOM     37  C   UNL A   1      44.876  26.656  26.025  1.00  0.00     0.016 A 
ATOM     38  C   UNL A   1      46.584  27.677  28.010  1.00  0.00     0.010 A 
ATOM     39  C   UNL A   1      44.362  27.445  27.063  1.00  0.00     0.010 A 
ATOM     40  C   UNL A   1      45.208  27.929  28.078  1.00  0.00    -0.014 A 
BRANCH  40  41
ATOM     41  C   UNL A   1      44.649  28.602  29.277  1.00  0.00     0.031 A 
ATOM     42  C   UNL A   1      44.469  27.819  30.549  1.00  0.00     0.074 A 
ATOM     43  C   UNL A   1      44.319  29.906  29.234  1.00  0.00     0.049 A 
ATOM     44  N   UNL A   1      43.982  28.209  31.698  1.00  0.00    -0.248 NA
ATOM     45  C   UNL A   1      44.894  26.410  30.524  1.00  0.00     0.031 C 
ATOM     46  C   UNL A   1      44.458  30.772  28.064  1.00  0.00     0.029 A 
ATOM     47  N   UNL A   1      43.780  30.722  30.196  1.00  0.00    -0.354 N 
ATOM     48  C   UNL A   1      44.010  27.090  32.523  1.00  0.00     0.074 A 
ATOM     49  C   UNL A   1      44.555  26.002  31.739  1.00  0.00     0.031 C 
ATOM     50  C   UNL A   1      43.988  31.994  28.369  1.00  0.00     0.029 A 
ATOM     51  C   UNL A   1      43.489  31.986  29.742  1.00  0.00     0.049 A 
ATOM     52  H   UNL A   1      43.616  30.430  31.123  1.00  0.00     0.167 HD
ATOM     53  C   UNL A   1      43.628  26.981  33.817  1.00  0.00     0.034 A 
ATOM     54  C   UNL A   1      42.864  33.011  30.355  1.00  0.00     0.034 A 
ATOM     55  C   UNL A   1      43.101  28.069  34.598  1.00  0.00     0.049 A 
ATOM     56  C   UNL A   1      42.419  32.853  31.785  1.00  0.00     0.074 A 
ATOM     57  C   UNL A   1      42.735  28.069  35.933  1.00  0.00     0.029 A 
ATOM     58  N   UNL A   1      42.848  29.343  34.114  1.00  0.00    -0.354 N 
ATOM     59  N   UNL A   1      42.558  31.824  32.586  1.00  0.00    -0.248 NA
ATOM     60  C   UNL A   1      41.756  34.009  32.407  1.00  0.00     0.031 C 
ATOM     61  C   UNL A   1      42.222  29.334  36.245  1.00  0.00     0.029 A 
ATOM     62  C   UNL A   1      42.310  30.133  35.116  1.00  0.00     0.049 A 
ATOM     63  H   UNL A   1      43.024  29.642  33.193  1.00  0.00     0.167 HD
ATOM     64  C   UNL A   1      42.037  32.221  33.812  1.00  0.00     0.074 A 
ATOM     65  C   UNL A   1      41.598  33.592  33.655  1.00  0.00     0.031 C 
ATOM     66  C   UNL A   1      41.920  31.511  34.963  1.00  0.00     0.034 A 
BRANCH  53  67
ATOM     67  C   UNL A   1      43.775  25.637  34.484  1.00  0.00     0.023 A 
ATOM     68  C   UNL A   1      42.682  24.749  34.522  1.00  0.00     0.012 A 
ATOM     69  C   UNL A   1      45.016  25.229  35.014  1.00  0.00     0.148 A 
ATOM     70  C   UNL A   1      42.811  23.488  35.105  1.00  0.00     0.002 A 
ATOM     71  C   UNL A   1      45.150  23.955  35.551  1.00  0.00     0.091 A 
ATOM     72  F   UNL A   1      46.038  26.095  34.986  1.00  0.00    -0.205 F 
ATOM     73  C   UNL A   1      44.046  23.088  35.608  1.00  0.00     0.022 A 
BRANCH  71  74
ATOM     74  S   UNL A   1      46.716  23.314  36.151  1.00  0.00     0.127 S 
ATOM     75  O   UNL A   1      46.337  21.972  36.590  1.00  0.00    -0.237 OA
ATOM     76  O   UNL A   1      47.545  23.351  34.946  1.00  0.00    -0.237 OA
ATOM     77  O   UNL A   1      47.142  24.219  37.211  1.00  0.00    -0.744 OA
ENDBRANCH  71  74
ENDBRANCH  53  67
BRANCH  54  78
ATOM     78  C   UNL A   1      42.637  34.290  29.622  1.00  0.00     0.023 A 
ATOM     79  C   UNL A   1      41.438  34.485  28.912  1.00  0.00     0.012 A 
ATOM     80  C   UNL A   1      43.602  35.315  29.636  1.00  0.00     0.148 A 
ATOM     81  C   UNL A   1      41.217  35.665  28.200  1.00  0.00     0.002 A 
ATOM     82  C   UNL A   1      43.351  36.511  28.975  1.00  0.00     0.091 A 
ATOM     83  F   UNL A   1      44.744  35.104  30.306  1.00  0.00    -0.205 F 
ATOM     84  C   UNL A   1      42.168  36.681  28.241  1.00  0.00     0.022 A 
BRANCH  82  85
ATOM     85  S   UNL A   1      44.456  37.922  29.084  1.00  0.00     0.127 S 
ATOM     86  O   UNL A   1      43.970  38.767  27.997  1.00  0.00    -0.237 OA
ATOM     87  O   UNL A   1      44.172  38.422  30.429  1.00  0.00    -0.237 OA
ATOM     88  O   UNL A   1      45.800  37.385  28.915  1.00  0.00    -0.744 OA
ENDBRANCH  82  85
ENDBRANCH  54  78
BRANCH  66  89
ATOM     89  C   UNL A   1      41.332  32.211  36.162  1.00  0.00     0.023 A 
ATOM     90  C   UNL A   1      42.118  33.110  36.910  1.00  0.00     0.012 A 
ATOM     91  C   UNL A   1      39.978  32.027  36.506  1.00  0.00     0.148 A 
ATOM     92  C   UNL A   1      41.578  33.785  38.003  1.00  0.00     0.002 A 
ATOM     93  C   UNL A   1      39.431  32.743  37.563  1.00  0.00     0.091 A 
ATOM     94  F   UNL A   1      39.250  31.156  35.793  1.00  0.00    -0.205 F 
ATOM     95  C   UNL A   1      40.233  33.612  38.322  1.00  0.00     0.022 A 
BRANCH  93  96
ATOM     96  S   UNL A   1      37.687  32.659  37.987  1.00  0.00     0.127 S 
ATOM     97  O   UNL A   1      37.497  31.223  38.180  1.00  0.00    -0.237 OA
ATOM     98  O   UNL A   1      37.629  33.453  39.215  1.00  0.00    -0.237 OA
ATOM     99  O   UNL A   1      36.970  33.237  36.858  1.00  0.00    -0.744 OA
ENDBRANCH  93  96
ENDBRANCH  66  89
ENDBRANCH  40  41
ENDBRANCH  33  35
ENDBRANCH  32  33
ENDBRANCH  31  32
ENDBRANCH  30  31
ENDBRANCH   1  30
TORSDOF 20
ENDMDL
MODEL 3
REMARK VINA RESULT:     -10.6      1.878      2.196
REMARK SMILES CC[C@H]1Sc2ccc(S(=O)(=O)N3CCC(C(=O)OCCOCCOC(=O)c4ccc(-c5c6nc(c(-c7cccc(S(=O)(=O)[O-])c7F)c7ccc([nH]7)c(-c7cccc(S(=O)(=O)[O-])c7F)c7nc(c(-c8cccc(S(=O)(=O)[O-])c8F)c8ccc5[nH]8)C=C7)C=C6)cc4)CC3)cc2NC1=O
REMARK SMILES IDX 21 1 20 2 19 3 18 4 16 5 17 6 15 7 12 8 13 9 91 10 14 11
REMARK SMILES IDX 90 12 9 13 10 14 11 15 8 16 3 17 4 18 95 19 5 20 94 21 96 22
REMARK SMILES IDX 6 23 93 24 7 26 92 27 2 28 1 29 22 30 23 31 24 32 25 33
REMARK SMILES IDX 26 34 27 35 28 36 89 37 29 38 88 39 30 40 31 41 32 42 82 43
REMARK SMILES IDX 33 44 87 45 81 46 83 47 34 48 86 49 80 50 79 51 35 53 67 54
REMARK SMILES IDX 47 55 66 56 48 57 51 58 65 59 84 60 49 61 50 62 64 64 85 65
REMARK SMILES IDX 52 66 36 67 37 68 45 69 38 70 40 71 46 72 39 73 41 74 42 75
REMARK SMILES IDX 43 76 44 77 68 78 69 79 77 80 70 81 72 82 78 83 71 84 73 85
REMARK SMILES IDX 74 86 75 87 76 88 53 89 54 90 62 91 55 92 57 93 63 94 56 95
REMARK SMILES IDX 58 96 59 97 60 98 61 99
REMARK H PARENT 94 25 83 52 51 63
REMARK Flexibility Score: inf
ROOT
ATOM      1  O   UNL A   1      32.580  29.932  25.607  1.00  0.00    -0.374 OA
ENDROOT
BRANCH   1   2
ATOM      2  C   UNL A   1      31.259  29.638  25.159  1.00  0.00     0.202 C 
BRANCH   2   3
ATOM      3  C   UNL A   1      31.064  29.326  23.673  1.00  0.00     0.261 C 
BRANCH   3   4
ATOM      4  O   UNL A   1      31.064  27.915  23.411  1.00  0.00    -0.463 OA
BRANCH   4   5
ATOM      5  C   UNL A   1      32.277  27.370  23.153  1.00  0.00     0.309 C 
ATOM      6  O   UNL A   1      33.084  27.780  22.327  1.00  0.00    -0.252 OA
BRANCH   5   7
ATOM      7  C   UNL A   1      32.558  26.151  23.999  1.00  0.00     0.102 C 
ATOM      8  N   UNL A   1      33.156  24.361  26.150  1.00  0.00    -0.198 NA
ATOM      9  C   UNL A   1      34.168  24.568  25.085  1.00  0.00     0.103 C 
ATOM     10  C   UNL A   1      31.791  24.921  26.015  1.00  0.00     0.103 C 
ATOM     11  C   UNL A   1      34.018  25.896  24.354  1.00  0.00     0.032 C 
ATOM     12  C   UNL A   1      31.765  26.250  25.289  1.00  0.00     0.032 C 
BRANCH   8  13
ATOM     13  S   UNL A   1      33.266  22.892  27.015  1.00  0.00     0.243 S 
ATOM     14  O   UNL A   1      32.064  22.743  27.806  1.00  0.00    -0.207 OA
ATOM     15  O   UNL A   1      34.587  22.815  27.601  1.00  0.00    -0.207 OA
BRANCH  13  16
ATOM     16  C   UNL A   1      33.207  21.572  25.809  1.00  0.00     0.084 A 
ATOM     17  C   UNL A   1      33.191  16.775  24.010  1.00  0.00     0.141 C 
ATOM     18  S   UNL A   1      32.555  18.090  22.905  1.00  0.00    -0.111 SA
ATOM     19  C   UNL A   1      34.605  17.126  24.459  1.00  0.00     0.237 C 
ATOM     20  C   UNL A   1      32.857  19.470  23.997  1.00  0.00     0.032 A 
ATOM     21  N   UNL A   1      34.812  18.368  24.999  1.00  0.00    -0.324 N 
ATOM     22  O   UNL A   1      35.511  16.293  24.477  1.00  0.00    -0.273 OA
ATOM     23  C   UNL A   1      32.010  20.580  23.950  1.00  0.00     0.018 A 
ATOM     24  C   UNL A   1      33.914  19.444  24.920  1.00  0.00     0.056 A 
ATOM     25  H   UNL A   1      35.658  18.518  25.479  1.00  0.00     0.170 HD
ATOM     26  C   UNL A   1      32.177  21.625  24.862  1.00  0.00     0.023 A 
ATOM     27  C   UNL A   1      34.099  20.501  25.810  1.00  0.00     0.049 A 
BRANCH  17  28
ATOM     28  C   UNL A   1      32.226  16.565  25.194  1.00  0.00     0.021 C 
ATOM     29  C   UNL A   1      32.190  15.137  25.724  1.00  0.00     0.005 C 
ENDBRANCH  17  28
ENDBRANCH  13  16
ENDBRANCH   8  13
ENDBRANCH   5   7
ENDBRANCH   4   5
ENDBRANCH   3   4
ENDBRANCH   2   3
ENDBRANCH   1   2
BRANCH   1  30
ATOM     30  C   UNL A   1      32.744  30.402  26.943  1.00  0.00     0.202 C 
BRANCH  30  31
ATOM     31  C   UNL A   1      32.365  31.857  27.254  1.00  0.00     0.261 C 
BRANCH  31  32
ATOM     32  O   UNL A   1      33.470  32.770  27.137  1.00  0.00    -0.460 OA
BRANCH  32  33
ATOM     33  C   UNL A   1      33.982  33.184  28.326  1.00  0.00     0.338 C 
ATOM     34  O   UNL A   1      33.453  33.936  29.128  1.00  0.00    -0.246 OA
BRANCH  33  35
ATOM     35  C   UNL A   1      35.214  32.440  28.643  1.00  0.00     0.060 A 
ATOM     36  C   UNL A   1      35.081  31.267  29.398  1.00  0.00     0.016 A 
ATOM     37  C   UNL A   1      36.477  32.925  28.301  1.00  0.00     0.016 A 
ATOM     38  C   UNL A   1      36.213  30.597  29.854  1.00  0.00     0.010 A 
ATOM     39  C   UNL A   1      37.614  32.253  28.767  1.00  0.00     0.010 A 
ATOM     40  C   UNL A   1      37.488  31.107  29.574  1.00  0.00    -0.014 A 
BRANCH  40  41
ATOM     41  C   UNL A   1      38.675  30.501  30.227  1.00  0.00     0.031 A 
ATOM     42  C   UNL A   1      39.099  30.984  31.586  1.00  0.00     0.074 A 
ATOM     43  C   UNL A   1      39.358  29.516  29.617  1.00  0.00     0.049 A 
ATOM     44  N   UNL A   1      40.113  30.605  32.320  1.00  0.00    -0.248 NA
ATOM     45  C   UNL A   1      38.272  32.035  32.203  1.00  0.00     0.031 C 
ATOM     46  C   UNL A   1      39.038  28.955  28.304  1.00  0.00     0.029 A 
ATOM     47  N   UNL A   1      40.477  28.828  30.013  1.00  0.00    -0.354 N 
ATOM     48  C   UNL A   1      40.068  31.389  33.467  1.00  0.00     0.074 A 
ATOM     49  C   UNL A   1      38.930  32.273  33.329  1.00  0.00     0.031 C 
ATOM     50  C   UNL A   1      39.958  28.027  27.991  1.00  0.00     0.029 A 
ATOM     51  C   UNL A   1      40.946  27.951  29.064  1.00  0.00     0.049 A 
ATOM     52  H   UNL A   1      40.904  28.952  30.893  1.00  0.00     0.167 HD
ATOM     53  C   UNL A   1      40.891  31.367  34.542  1.00  0.00     0.034 A 
ATOM     54  C   UNL A   1      42.061  27.194  29.051  1.00  0.00     0.034 A 
ATOM     55  C   UNL A   1      42.013  30.477  34.682  1.00  0.00     0.049 A 
ATOM     56  C   UNL A   1      42.979  27.214  30.245  1.00  0.00     0.074 A 
ATOM     57  C   UNL A   1      42.875  30.344  35.756  1.00  0.00     0.029 A 
ATOM     58  N   UNL A   1      42.440  29.581  33.714  1.00  0.00    -0.354 N 
ATOM     59  N   UNL A   1      42.858  27.876  31.370  1.00  0.00    -0.248 NA
ATOM     60  C   UNL A   1      44.172  26.357  30.180  1.00  0.00     0.031 C 
ATOM     61  C   UNL A   1      43.848  29.396  35.421  1.00  0.00     0.029 A 
ATOM     62  C   UNL A   1      43.566  28.907  34.156  1.00  0.00     0.049 A 
ATOM     63  H   UNL A   1      42.007  29.445  32.841  1.00  0.00     0.167 HD
ATOM     64  C   UNL A   1      43.935  27.489  32.160  1.00  0.00     0.074 A 
ATOM     65  C   UNL A   1      44.687  26.518  31.392  1.00  0.00     0.031 C 
ATOM     66  C   UNL A   1      44.280  27.908  33.403  1.00  0.00     0.034 A 
BRANCH  53  67
ATOM     67  C   UNL A   1      40.607  32.331  35.666  1.00  0.00     0.023 A 
ATOM     68  C   UNL A   1      41.293  33.560  35.728  1.00  0.00     0.012 A 
ATOM     69  C   UNL A   1      39.612  32.046  36.622  1.00  0.00     0.148 A 
ATOM     70  C   UNL A   1      41.018  34.477  36.742  1.00  0.00     0.002 A 
ATOM     71  C   UNL A   1      39.310  32.984  37.602  1.00  0.00     0.091 A 
ATOM     72  F   UNL A   1      38.984  30.864  36.558  1.00  0.00    -0.205 F 
ATOM     73  C   UNL A   1      40.020  34.194  37.671  1.00  0.00     0.022 A 
BRANCH  71  74
ATOM     74  S   UNL A   1      37.988  32.750  38.795  1.00  0.00     0.127 S 
ATOM     75  O   UNL A   1      38.638  31.899  39.792  1.00  0.00    -0.237 OA
ATOM     76  O   UNL A   1      37.729  34.120  39.238  1.00  0.00    -0.237 OA
ATOM     77  O   UNL A   1      36.892  32.128  38.065  1.00  0.00    -0.744 OA
ENDBRANCH  71  74
ENDBRANCH  53  67
BRANCH  54  78
ATOM     78  C   UNL A   1      42.366  26.338  27.869  1.00  0.00     0.023 A 
ATOM     79  C   UNL A   1      43.181  26.836  26.835  1.00  0.00     0.012 A 
ATOM     80  C   UNL A   1      41.857  25.028  27.772  1.00  0.00     0.148 A 
ATOM     81  C   UNL A   1      43.456  26.058  25.710  1.00  0.00     0.002 A 
ATOM     82  C   UNL A   1      42.185  24.237  26.678  1.00  0.00     0.091 A 
ATOM     83  F   UNL A   1      41.071  24.577  28.760  1.00  0.00    -0.205 F 
ATOM     84  C   UNL A   1      42.968  24.757  25.637  1.00  0.00     0.022 A 
BRANCH  82  85
ATOM     85  S   UNL A   1      41.713  22.509  26.563  1.00  0.00     0.127 S 
ATOM     86  O   UNL A   1      42.333  21.950  27.762  1.00  0.00    -0.237 OA
ATOM     87  O   UNL A   1      40.253  22.592  26.606  1.00  0.00    -0.237 OA
ATOM     88  O   UNL A   1      42.250  22.036  25.295  1.00  0.00    -0.744 OA
ENDBRANCH  82  85
ENDBRANCH  54  78
BRANCH  66  89
ATOM     89  C   UNL A   1      45.500  27.291  34.038  1.00  0.00     0.023 A 
ATOM     90  C   UNL A   1      45.378  26.117  34.810  1.00  0.00     0.012 A 
ATOM     91  C   UNL A   1      46.779  27.837  33.812  1.00  0.00     0.148 A 
ATOM     92  C   UNL A   1      46.503  25.521  35.377  1.00  0.00     0.002 A 
ATOM     93  C   UNL A   1      47.901  27.208  34.336  1.00  0.00     0.091 A 
ATOM     94  F   UNL A   1      46.874  28.962  33.089  1.00  0.00    -0.205 F 
ATOM     95  C   UNL A   1      47.764  26.058  35.131  1.00  0.00     0.022 A 
BRANCH  93  96
ATOM     96  S   UNL A   1      49.573  27.770  33.992  1.00  0.00     0.127 S 
ATOM     97  O   UNL A   1      49.547  27.907  32.537  1.00  0.00    -0.237 OA
ATOM     98  O   UNL A   1      49.630  29.036  34.723  1.00  0.00    -0.237 OA
ATOM     99  O   UNL A   1      50.460  26.735  34.505  1.00  0.00    -0.744 OA
ENDBRANCH  93  96
ENDBRANCH  66  89
ENDBRANCH  40  41
ENDBRANCH  33  35
ENDBRANCH  32  33
ENDBRANCH  31  32
ENDBRANCH  30  31
ENDBRANCH   1  30
TORSDOF 20
ENDMDL
