MODEL 1
REMARK VINA RESULT:     -11.5      0.000      0.000
REMARK SMILES Cc1cc(S(=O)(=O)Nc2ccc(F)c(F)c2)sc1C(=O)OCCOCCOC(=O)c1ccc(-c2c3nc(c(-c4cccc(S(=O)(=O)[O-])c4F)c4ccc([nH]4)c(-c4cccc(S(=O)(=O)[O-])c4F)c4nc(c(-c5cccc(S(=O)(=O)[O-])c5F)c5ccc2[nH]5)C=C4)C=C3)cc1
REMARK SMILES IDX 24 1 23 2 22 3 21 4 19 5 20 6 18 7 1 8 2 9 3 10 4 11 17 12
REMARK SMILES IDX 5 13 6 14 7 15 8 16 9 18 10 19 16 20 11 21 14 22 12 23 15 24
REMARK SMILES IDX 13 25 25 26 26 27 27 28 28 29 29 30 30 31 31 32 92 33 32 34
REMARK SMILES IDX 91 35 33 36 34 37 35 38 85 39 36 40 90 41 84 42 86 43 37 44
REMARK SMILES IDX 89 45 83 46 82 47 38 49 70 50 50 51 69 52 51 53 54 54 68 55
REMARK SMILES IDX 87 56 52 57 53 58 67 60 88 61 55 62 39 63 40 64 48 65 41 66
REMARK SMILES IDX 43 67 49 68 42 69 44 70 45 71 46 72 47 73 71 74 72 75 80 76
REMARK SMILES IDX 73 77 75 78 81 79 74 80 76 81 77 82 78 83 79 84 56 85 57 86
REMARK SMILES IDX 65 87 58 88 60 89 66 90 59 91 61 92 62 93 63 94 64 95
REMARK H PARENT 8 17 86 48 54 59
REMARK Flexibility Score: inf
ROOT
ATOM      1  O   UNL A   1      31.965  30.440  26.806  1.00  0.00    -0.374 OA
ENDROOT
BRANCH   1   2
ATOM      2  C   UNL A   1      31.842  29.242  26.037  1.00  0.00     0.202 C 
BRANCH   2   3
ATOM      3  C   UNL A   1      31.341  29.410  24.599  1.00  0.00     0.261 C 
BRANCH   3   4
ATOM      4  O   UNL A   1      30.316  28.449  24.296  1.00  0.00    -0.459 OA
BRANCH   4   5
ATOM      5  C   UNL A   1      30.569  27.588  23.271  1.00  0.00     0.348 C 
ATOM      6  O   UNL A   1      30.412  27.869  22.086  1.00  0.00    -0.245 OA
BRANCH   5   7
ATOM      7  C   UNL A   1      31.192  26.366  23.774  1.00  0.00     0.116 A 
ATOM      8  C   UNL A   1      32.969  25.698  21.999  1.00  0.00     0.046 C 
ATOM      9  C   UNL A   1      32.145  25.504  23.236  1.00  0.00    -0.024 A 
ATOM     10  C   UNL A   1      32.265  24.320  24.042  1.00  0.00     0.038 A 
ATOM     11  C   UNL A   1      31.438  24.311  25.148  1.00  0.00     0.141 A 
ATOM     12  S   UNL A   1      30.670  25.814  25.326  1.00  0.00    -0.115 S 
BRANCH  11  13
ATOM     13  S   UNL A   1      31.164  23.040  26.361  1.00  0.00     0.271 S 
ATOM     14  O   UNL A   1      31.956  23.470  27.495  1.00  0.00    -0.200 OA
ATOM     15  O   UNL A   1      29.724  22.930  26.461  1.00  0.00    -0.200 OA
BRANCH  13  16
ATOM     16  N   UNL A   1      31.688  21.499  25.949  1.00  0.00    -0.279 N 
ATOM     17  H   UNL A   1      31.014  20.786  25.870  1.00  0.00     0.180 HD
BRANCH  16  18
ATOM     18  C   UNL A   1      33.045  21.164  25.708  1.00  0.00     0.052 A 
ATOM     19  C   UNL A   1      34.114  21.983  26.082  1.00  0.00     0.030 A 
ATOM     20  C   UNL A   1      33.290  19.935  25.088  1.00  0.00     0.069 A 
ATOM     21  C   UNL A   1      35.423  21.607  25.753  1.00  0.00     0.044 A 
ATOM     22  C   UNL A   1      34.593  19.567  24.774  1.00  0.00     0.160 A 
ATOM     23  C   UNL A   1      35.652  20.404  25.091  1.00  0.00     0.158 A 
ATOM     24  F   UNL A   1      34.810  18.395  24.160  1.00  0.00    -0.204 F 
ATOM     25  F   UNL A   1      36.906  20.050  24.775  1.00  0.00    -0.204 F 
ENDBRANCH  16  18
ENDBRANCH  13  16
ENDBRANCH  11  13
ENDBRANCH   5   7
ENDBRANCH   4   5
ENDBRANCH   3   4
ENDBRANCH   2   3
ENDBRANCH   1   2
BRANCH   1  26
ATOM     26  C   UNL A   1      31.419  31.634  26.244  1.00  0.00     0.202 C 
BRANCH  26  27
ATOM     27  C   UNL A   1      31.866  32.964  26.868  1.00  0.00     0.261 C 
BRANCH  27  28
ATOM     28  O   UNL A   1      32.821  32.788  27.927  1.00  0.00    -0.460 OA
BRANCH  28  29
ATOM     29  C   UNL A   1      33.914  33.587  27.843  1.00  0.00     0.338 C 
ATOM     30  O   UNL A   1      33.932  34.786  27.619  1.00  0.00    -0.246 OA
BRANCH  29  31
ATOM     31  C   UNL A   1      35.114  32.836  28.252  1.00  0.00     0.060 A 
ATOM     32  C   UNL A   1      34.940  31.512  28.674  1.00  0.00     0.016 A 
ATOM     33  C   UNL A   1      36.376  33.433  28.286  1.00  0.00     0.016 A 
ATOM     34  C   UNL A   1      36.022  30.791  29.176  1.00  0.00     0.010 A 
ATOM     35  C   UNL A   1      37.460  32.707  28.794  1.00  0.00     0.010 A 
ATOM     36  C   UNL A   1      37.282  31.395  29.272  1.00  0.00    -0.014 A 
BRANCH  36  37
ATOM     37  C   UNL A   1      38.384  30.699  29.980  1.00  0.00     0.031 A 
ATOM     38  C   UNL A   1      38.702  31.074  31.401  1.00  0.00     0.074 A 
ATOM     39  C   UNL A   1      39.100  29.743  29.358  1.00  0.00     0.049 A 
ATOM     40  N   UNL A   1      39.647  30.625  32.184  1.00  0.00    -0.248 NA
ATOM     41  C   UNL A   1      37.843  32.097  32.020  1.00  0.00     0.031 C 
ATOM     42  C   UNL A   1      38.887  29.288  27.985  1.00  0.00     0.029 A 
ATOM     43  N   UNL A   1      40.170  29.003  29.798  1.00  0.00    -0.354 N 
ATOM     44  C   UNL A   1      39.519  31.329  33.376  1.00  0.00     0.074 A 
ATOM     45  C   UNL A   1      38.413  32.247  33.207  1.00  0.00     0.031 C 
ATOM     46  C   UNL A   1      39.817  28.367  27.683  1.00  0.00     0.029 A 
ATOM     47  C   UNL A   1      40.706  28.189  28.829  1.00  0.00     0.049 A 
ATOM     48  H   UNL A   1      40.517  29.050  30.718  1.00  0.00     0.167 HD
ATOM     49  C   UNL A   1      40.247  31.215  34.512  1.00  0.00     0.034 A 
ATOM     50  C   UNL A   1      41.808  27.411  28.854  1.00  0.00     0.034 A 
ATOM     51  C   UNL A   1      41.337  30.290  34.682  1.00  0.00     0.049 A 
ATOM     52  C   UNL A   1      42.618  27.321  30.120  1.00  0.00     0.074 A 
ATOM     53  C   UNL A   1      42.104  30.064  35.812  1.00  0.00     0.029 A 
ATOM     54  N   UNL A   1      41.828  29.453  33.693  1.00  0.00    -0.354 N 
ATOM     55  N   UNL A   1      42.416  27.909  31.275  1.00  0.00    -0.248 NA
ATOM     56  C   UNL A   1      43.791  26.434  30.098  1.00  0.00     0.031 C 
ATOM     57  C   UNL A   1      43.082  29.118  35.494  1.00  0.00     0.029 A 
ATOM     58  C   UNL A   1      42.897  28.721  34.180  1.00  0.00     0.049 A 
ATOM     59  H   UNL A   1      41.469  29.389  32.778  1.00  0.00     0.167 HD
ATOM     60  C   UNL A   1      43.409  27.434  32.125  1.00  0.00     0.074 A 
ATOM     61  C   UNL A   1      44.201  26.496  31.358  1.00  0.00     0.031 C 
ATOM     62  C   UNL A   1      43.649  27.753  33.422  1.00  0.00     0.034 A 
BRANCH  49  63
ATOM     63  C   UNL A   1      39.881  32.104  35.673  1.00  0.00     0.023 A 
ATOM     64  C   UNL A   1      40.525  33.346  35.836  1.00  0.00     0.012 A 
ATOM     65  C   UNL A   1      38.859  31.733  36.568  1.00  0.00     0.148 A 
ATOM     66  C   UNL A   1      40.183  34.191  36.892  1.00  0.00     0.002 A 
ATOM     67  C   UNL A   1      38.491  32.600  37.591  1.00  0.00     0.091 A 
ATOM     68  F   UNL A   1      38.272  30.538  36.409  1.00  0.00    -0.205 F 
ATOM     69  C   UNL A   1      39.159  33.822  37.762  1.00  0.00     0.022 A 
BRANCH  67  70
ATOM     70  S   UNL A   1      37.132  32.254  38.712  1.00  0.00     0.127 S 
ATOM     71  O   UNL A   1      37.092  30.792  38.684  1.00  0.00    -0.237 OA
ATOM     72  O   UNL A   1      37.617  32.826  39.968  1.00  0.00    -0.237 OA
ATOM     73  O   UNL A   1      35.965  32.919  38.150  1.00  0.00    -0.744 OA
ENDBRANCH  67  70
ENDBRANCH  49  63
BRANCH  50  74
ATOM     74  C   UNL A   1      42.198  26.636  27.643  1.00  0.00     0.023 A 
ATOM     75  C   UNL A   1      42.788  27.299  26.550  1.00  0.00     0.012 A 
ATOM     76  C   UNL A   1      41.996  25.243  27.574  1.00  0.00     0.148 A 
ATOM     77  C   UNL A   1      43.141  26.595  25.397  1.00  0.00     0.002 A 
ATOM     78  C   UNL A   1      42.404  24.539  26.448  1.00  0.00     0.091 A 
ATOM     79  F   UNL A   1      41.419  24.634  28.620  1.00  0.00    -0.205 F 
ATOM     80  C   UNL A   1      42.958  25.215  25.351  1.00  0.00     0.022 A 
BRANCH  78  81
ATOM     81  S   UNL A   1      42.330  22.747  26.354  1.00  0.00     0.127 S 
ATOM     82  O   UNL A   1      43.403  22.356  27.264  1.00  0.00    -0.237 OA
ATOM     83  O   UNL A   1      40.977  22.478  26.842  1.00  0.00    -0.237 OA
ATOM     84  O   UNL A   1      42.540  22.416  24.952  1.00  0.00    -0.744 OA
ENDBRANCH  78  81
ENDBRANCH  50  74
BRANCH  62  85
ATOM     85  C   UNL A   1      44.785  27.049  34.120  1.00  0.00     0.023 A 
ATOM     86  C   UNL A   1      46.080  27.603  34.101  1.00  0.00     0.012 A 
ATOM     87  C   UNL A   1      44.549  25.871  34.859  1.00  0.00     0.148 A 
ATOM     88  C   UNL A   1      47.129  26.977  34.775  1.00  0.00     0.002 A 
ATOM     89  C   UNL A   1      45.588  25.283  35.570  1.00  0.00     0.091 A 
ATOM     90  F   UNL A   1      43.314  25.349  34.851  1.00  0.00    -0.205 F 
ATOM     91  C   UNL A   1      46.881  25.826  35.518  1.00  0.00     0.022 A 
BRANCH  89  92
ATOM     92  S   UNL A   1      45.341  23.856  36.634  1.00  0.00     0.127 S 
ATOM     93  O   UNL A   1      46.718  23.478  36.948  1.00  0.00    -0.237 OA
ATOM     94  O   UNL A   1      44.595  24.432  37.754  1.00  0.00    -0.237 OA
ATOM     95  O   UNL A   1      44.594  22.888  35.842  1.00  0.00    -0.744 OA
ENDBRANCH  89  92
ENDBRANCH  62  85
ENDBRANCH  36  37
ENDBRANCH  29  31
ENDBRANCH  28  29
ENDBRANCH  27  28
ENDBRANCH  26  27
ENDBRANCH   1  26
TORSDOF 20
ENDMDL
MODEL 2
REMARK VINA RESULT:     -11.2      2.556      7.951
REMARK SMILES Cc1cc(S(=O)(=O)Nc2ccc(F)c(F)c2)sc1C(=O)OCCOCCOC(=O)c1ccc(-c2c3nc(c(-c4cccc(S(=O)(=O)[O-])c4F)c4ccc([nH]4)c(-c4cccc(S(=O)(=O)[O-])c4F)c4nc(c(-c5cccc(S(=O)(=O)[O-])c5F)c5ccc2[nH]5)C=C4)C=C3)cc1
REMARK SMILES IDX 24 1 23 2 22 3 21 4 19 5 20 6 18 7 1 8 2 9 3 10 4 11 17 12
REMARK SMILES IDX 5 13 6 14 7 15 8 16 9 18 10 19 16 20 11 21 14 22 12 23 15 24
REMARK SMILES IDX 13 25 25 26 26 27 27 28 28 29 29 30 30 31 31 32 92 33 32 34
REMARK SMILES IDX 91 35 33 36 34 37 35 38 85 39 36 40 90 41 84 42 86 43 37 44
REMARK SMILES IDX 89 45 83 46 82 47 38 49 70 50 50 51 69 52 51 53 54 54 68 55
REMARK SMILES IDX 87 56 52 57 53 58 67 60 88 61 55 62 39 63 40 64 48 65 41 66
REMARK SMILES IDX 43 67 49 68 42 69 44 70 45 71 46 72 47 73 71 74 72 75 80 76
REMARK SMILES IDX 73 77 75 78 81 79 74 80 76 81 77 82 78 83 79 84 56 85 57 86
REMARK SMILES IDX 65 87 58 88 60 89 66 90 59 91 61 92 62 93 63 94 64 95
REMARK H PARENT 8 17 86 48 54 59
REMARK Flexibility Score: inf
ROOT
ATOM      1  O   UNL A   1      32.083  30.608  25.841  1.00  0.00    -0.374 OA
ENDROOT
BRANCH   1   2
ATOM      2  C   UNL A   1      32.936  29.603  25.292  1.00  0.00     0.202 C 
BRANCH   2   3
ATOM      3  C   UNL A   1      32.237  28.431  24.595  1.00  0.00     0.261 C 
BRANCH   3   4
ATOM      4  O   UNL A   1      32.033  28.709  23.199  1.00  0.00    -0.459 OA
BRANCH   4   5
ATOM      5  C   UNL A   1      30.967  28.106  22.604  1.00  0.00     0.348 C 
ATOM      6  O   UNL A   1      30.196  28.677  21.839  1.00  0.00    -0.245 OA
BRANCH   5   7
ATOM      7  C   UNL A   1      30.973  26.671  22.883  1.00  0.00     0.116 A 
ATOM      8  C   UNL A   1      28.721  26.178  24.083  1.00  0.00     0.046 C 
ATOM      9  C   UNL A   1      30.087  25.842  23.567  1.00  0.00    -0.024 A 
ATOM     10  C   UNL A   1      30.659  24.535  23.746  1.00  0.00     0.038 A 
ATOM     11  C   UNL A   1      31.920  24.397  23.202  1.00  0.00     0.141 A 
ATOM     12  S   UNL A   1      32.329  25.774  22.299  1.00  0.00    -0.115 S 
BRANCH  11  13
ATOM     13  S   UNL A   1      33.046  23.023  23.259  1.00  0.00     0.271 S 
ATOM     14  O   UNL A   1      32.238  21.896  22.841  1.00  0.00    -0.200 OA
ATOM     15  O   UNL A   1      34.187  23.449  22.475  1.00  0.00    -0.200 OA
BRANCH  13  16
ATOM     16  N   UNL A   1      33.676  22.646  24.769  1.00  0.00    -0.279 N 
ATOM     17  H   UNL A   1      33.046  22.489  25.508  1.00  0.00     0.180 HD
BRANCH  16  18
ATOM     18  C   UNL A   1      35.064  22.539  25.042  1.00  0.00     0.052 A 
ATOM     19  C   UNL A   1      35.805  23.557  25.649  1.00  0.00     0.030 A 
ATOM     20  C   UNL A   1      35.684  21.334  24.696  1.00  0.00     0.069 A 
ATOM     21  C   UNL A   1      37.185  23.396  25.829  1.00  0.00     0.044 A 
ATOM     22  C   UNL A   1      37.052  21.181  24.887  1.00  0.00     0.160 A 
ATOM     23  C   UNL A   1      37.802  22.211  25.436  1.00  0.00     0.158 A 
ATOM     24  F   UNL A   1      37.635  20.029  24.530  1.00  0.00    -0.204 F 
ATOM     25  F   UNL A   1      39.123  22.064  25.606  1.00  0.00    -0.204 F 
ENDBRANCH  16  18
ENDBRANCH  13  16
ENDBRANCH  11  13
ENDBRANCH   5   7
ENDBRANCH   4   5
ENDBRANCH   3   4
ENDBRANCH   2   3
ENDBRANCH   1   2
BRANCH   1  26
ATOM     26  C   UNL A   1      32.479  31.194  27.081  1.00  0.00     0.202 C 
BRANCH  26  27
ATOM     27  C   UNL A   1      32.169  32.685  27.278  1.00  0.00     0.261 C 
BRANCH  27  28
ATOM     28  O   UNL A   1      33.354  33.487  27.409  1.00  0.00    -0.460 OA
BRANCH  28  29
ATOM     29  C   UNL A   1      33.376  34.291  28.500  1.00  0.00     0.338 C 
ATOM     30  O   UNL A   1      32.544  35.125  28.816  1.00  0.00    -0.246 OA
BRANCH  29  31
ATOM     31  C   UNL A   1      34.481  33.894  29.392  1.00  0.00     0.060 A 
ATOM     32  C   UNL A   1      35.780  34.267  29.023  1.00  0.00     0.016 A 
ATOM     33  C   UNL A   1      34.261  33.116  30.530  1.00  0.00     0.016 A 
ATOM     34  C   UNL A   1      36.871  33.825  29.768  1.00  0.00     0.010 A 
ATOM     35  C   UNL A   1      35.360  32.671  31.274  1.00  0.00     0.010 A 
ATOM     36  C   UNL A   1      36.671  32.994  30.878  1.00  0.00    -0.014 A 
BRANCH  36  37
ATOM     37  C   UNL A   1      37.834  32.370  31.553  1.00  0.00     0.031 A 
ATOM     38  C   UNL A   1      38.539  31.216  30.893  1.00  0.00     0.074 A 
ATOM     39  C   UNL A   1      38.256  32.822  32.749  1.00  0.00     0.049 A 
ATOM     40  N   UNL A   1      39.543  30.501  31.327  1.00  0.00    -0.248 NA
ATOM     41  C   UNL A   1      38.042  30.812  29.567  1.00  0.00     0.031 C 
ATOM     42  C   UNL A   1      37.659  33.933  33.489  1.00  0.00     0.029 A 
ATOM     43  N   UNL A   1      39.271  32.381  33.561  1.00  0.00    -0.354 N 
ATOM     44  C   UNL A   1      39.779  29.543  30.348  1.00  0.00     0.074 A 
ATOM     45  C   UNL A   1      38.803  29.761  29.302  1.00  0.00     0.031 C 
ATOM     46  C   UNL A   1      38.301  34.069  34.661  1.00  0.00     0.029 A 
ATOM     47  C   UNL A   1      39.331  33.039  34.767  1.00  0.00     0.049 A 
ATOM     48  H   UNL A   1      39.896  31.665  33.305  1.00  0.00     0.167 HD
ATOM     49  C   UNL A   1      40.728  28.579  30.316  1.00  0.00     0.034 A 
ATOM     50  C   UNL A   1      40.110  32.815  35.846  1.00  0.00     0.034 A 
ATOM     51  C   UNL A   1      41.708  28.375  31.350  1.00  0.00     0.049 A 
ATOM     52  C   UNL A   1      41.140  31.718  35.796  1.00  0.00     0.074 A 
ATOM     53  C   UNL A   1      42.743  27.456  31.386  1.00  0.00     0.029 A 
ATOM     54  N   UNL A   1      41.764  29.084  32.539  1.00  0.00    -0.354 N 
ATOM     55  N   UNL A   1      41.425  30.895  34.816  1.00  0.00    -0.248 NA
ATOM     56  C   UNL A   1      41.980  31.540  36.991  1.00  0.00     0.031 C 
ATOM     57  C   UNL A   1      43.400  27.586  32.613  1.00  0.00     0.029 A 
ATOM     58  C   UNL A   1      42.804  28.615  33.322  1.00  0.00     0.049 A 
ATOM     59  H   UNL A   1      41.153  29.815  32.790  1.00  0.00     0.167 HD
ATOM     60  C   UNL A   1      42.500  30.130  35.260  1.00  0.00     0.074 A 
ATOM     61  C   UNL A   1      42.827  30.602  36.589  1.00  0.00     0.031 C 
ATOM     62  C   UNL A   1      43.151  29.123  34.626  1.00  0.00     0.034 A 
BRANCH  49  63
ATOM     63  C   UNL A   1      40.768  27.673  29.111  1.00  0.00     0.023 A 
ATOM     64  C   UNL A   1      39.873  26.588  29.020  1.00  0.00     0.012 A 
ATOM     65  C   UNL A   1      41.652  27.931  28.045  1.00  0.00     0.148 A 
ATOM     66  C   UNL A   1      39.881  25.753  27.902  1.00  0.00     0.002 A 
ATOM     67  C   UNL A   1      41.622  27.123  26.915  1.00  0.00     0.091 A 
ATOM     68  F   UNL A   1      42.509  28.955  28.160  1.00  0.00    -0.205 F 
ATOM     69  C   UNL A   1      40.747  26.027  26.846  1.00  0.00     0.022 A 
BRANCH  67  70
ATOM     70  S   UNL A   1      42.639  27.441  25.469  1.00  0.00     0.127 S 
ATOM     71  O   UNL A   1      43.982  27.441  26.049  1.00  0.00    -0.237 OA
ATOM     72  O   UNL A   1      42.340  26.285  24.623  1.00  0.00    -0.237 OA
ATOM     73  O   UNL A   1      42.192  28.719  24.934  1.00  0.00    -0.744 OA
ENDBRANCH  67  70
ENDBRANCH  49  63
BRANCH  50  74
ATOM     74  C   UNL A   1      39.957  33.664  37.061  1.00  0.00     0.023 A 
ATOM     75  C   UNL A   1      38.863  33.460  37.923  1.00  0.00     0.012 A 
ATOM     76  C   UNL A   1      40.899  34.666  37.370  1.00  0.00     0.148 A 
ATOM     77  C   UNL A   1      38.690  34.258  39.054  1.00  0.00     0.002 A 
ATOM     78  C   UNL A   1      40.753  35.418  38.530  1.00  0.00     0.091 A 
ATOM     79  F   UNL A   1      41.925  34.854  36.528  1.00  0.00    -0.205 F 
ATOM     80  C   UNL A   1      39.641  35.230  39.363  1.00  0.00     0.022 A 
BRANCH  78  81
ATOM     81  S   UNL A   1      41.994  36.596  39.074  1.00  0.00     0.127 S 
ATOM     82  O   UNL A   1      42.268  37.332  37.843  1.00  0.00    -0.237 OA
ATOM     83  O   UNL A   1      41.264  37.348  40.095  1.00  0.00    -0.237 OA
ATOM     84  O   UNL A   1      43.098  35.798  39.591  1.00  0.00    -0.744 OA
ENDBRANCH  78  81
ENDBRANCH  50  74
BRANCH  62  85
ATOM     85  C   UNL A   1      44.320  28.487  35.334  1.00  0.00     0.023 A 
ATOM     86  C   UNL A   1      45.631  28.941  35.086  1.00  0.00     0.012 A 
ATOM     87  C   UNL A   1      44.109  27.485  36.304  1.00  0.00     0.148 A 
ATOM     88  C   UNL A   1      46.715  28.383  35.764  1.00  0.00     0.002 A 
ATOM     89  C   UNL A   1      45.188  26.972  37.013  1.00  0.00     0.091 A 
ATOM     90  F   UNL A   1      42.857  27.055  36.515  1.00  0.00    -0.205 F 
ATOM     91  C   UNL A   1      46.493  27.408  36.734  1.00  0.00     0.022 A 
BRANCH  89  92
ATOM     92  S   UNL A   1      44.989  25.787  38.349  1.00  0.00     0.127 S 
ATOM     93  O   UNL A   1      43.944  26.419  39.153  1.00  0.00    -0.237 OA
ATOM     94  O   UNL A   1      44.564  24.584  37.632  1.00  0.00    -0.237 OA
ATOM     95  O   UNL A   1      46.291  25.681  38.991  1.00  0.00    -0.744 OA
ENDBRANCH  89  92
ENDBRANCH  62  85
ENDBRANCH  36  37
ENDBRANCH  29  31
ENDBRANCH  28  29
ENDBRANCH  27  28
ENDBRANCH  26  27
ENDBRANCH   1  26
TORSDOF 20
ENDMDL
MODEL 3
REMARK VINA RESULT:     -11.1      5.522      9.172
REMARK SMILES Cc1cc(S(=O)(=O)Nc2ccc(F)c(F)c2)sc1C(=O)OCCOCCOC(=O)c1ccc(-c2c3nc(c(-c4cccc(S(=O)(=O)[O-])c4F)c4ccc([nH]4)c(-c4cccc(S(=O)(=O)[O-])c4F)c4nc(c(-c5cccc(S(=O)(=O)[O-])c5F)c5ccc2[nH]5)C=C4)C=C3)cc1
REMARK SMILES IDX 24 1 23 2 22 3 21 4 19 5 20 6 18 7 1 8 2 9 3 10 4 11 17 12
REMARK SMILES IDX 5 13 6 14 7 15 8 16 9 18 10 19 16 20 11 21 14 22 12 23 15 24
REMARK SMILES IDX 13 25 25 26 26 27 27 28 28 29 29 30 30 31 31 32 92 33 32 34
REMARK SMILES IDX 91 35 33 36 34 37 35 38 85 39 36 40 90 41 84 42 86 43 37 44
REMARK SMILES IDX 89 45 83 46 82 47 38 49 70 50 50 51 69 52 51 53 54 54 68 55
REMARK SMILES IDX 87 56 52 57 53 58 67 60 88 61 55 62 39 63 40 64 48 65 41 66
REMARK SMILES IDX 43 67 49 68 42 69 44 70 45 71 46 72 47 73 71 74 72 75 80 76
REMARK SMILES IDX 73 77 75 78 81 79 74 80 76 81 77 82 78 83 79 84 56 85 57 86
REMARK SMILES IDX 65 87 58 88 60 89 66 90 59 91 61 92 62 93 63 94 64 95
REMARK H PARENT 8 17 86 48 54 59
REMARK Flexibility Score: inf
ROOT
ATOM      1  O   UNL A   1      36.576  20.976  24.385  1.00  0.00    -0.374 OA
ENDROOT
BRANCH   1   2
ATOM      2  C   UNL A   1      35.272  20.836  24.952  1.00  0.00     0.202 C 
BRANCH   2   3
ATOM      3  C   UNL A   1      34.712  22.067  25.672  1.00  0.00     0.261 C 
BRANCH   3   4
ATOM      4  O   UNL A   1      33.393  21.810  26.181  1.00  0.00    -0.459 OA
BRANCH   4   5
ATOM      5  C   UNL A   1      32.436  21.489  25.266  1.00  0.00     0.348 C 
ATOM      6  O   UNL A   1      31.940  20.372  25.157  1.00  0.00    -0.245 OA
BRANCH   5   7
ATOM      7  C   UNL A   1      31.987  22.686  24.559  1.00  0.00     0.116 A 
ATOM      8  C   UNL A   1      33.007  22.519  22.174  1.00  0.00     0.046 C 
ATOM      9  C   UNL A   1      32.266  23.191  23.291  1.00  0.00    -0.024 A 
ATOM     10  C   UNL A   1      31.738  24.520  23.151  1.00  0.00     0.038 A 
ATOM     11  C   UNL A   1      31.078  24.981  24.273  1.00  0.00     0.141 A 
ATOM     12  S   UNL A   1      30.917  23.737  25.417  1.00  0.00    -0.115 S 
BRANCH  11  13
ATOM     13  S   UNL A   1      30.359  26.572  24.605  1.00  0.00     0.271 S 
ATOM     14  O   UNL A   1      28.962  26.397  24.267  1.00  0.00    -0.200 OA
ATOM     15  O   UNL A   1      30.760  26.882  25.962  1.00  0.00    -0.200 OA
BRANCH  13  16
ATOM     16  N   UNL A   1      30.934  27.851  23.681  1.00  0.00    -0.279 N 
ATOM     17  H   UNL A   1      31.846  27.785  23.317  1.00  0.00     0.180 HD
BRANCH  16  18
ATOM     18  C   UNL A   1      30.184  29.020  23.396  1.00  0.00     0.052 A 
ATOM     19  C   UNL A   1      30.178  30.146  24.223  1.00  0.00     0.030 A 
ATOM     20  C   UNL A   1      29.445  29.020  22.208  1.00  0.00     0.069 A 
ATOM     21  C   UNL A   1      29.361  31.238  23.900  1.00  0.00     0.044 A 
ATOM     22  C   UNL A   1      28.645  30.112  21.893  1.00  0.00     0.160 A 
ATOM     23  C   UNL A   1      28.591  31.209  22.740  1.00  0.00     0.158 A 
ATOM     24  F   UNL A   1      27.926  30.088  20.762  1.00  0.00    -0.204 F 
ATOM     25  F   UNL A   1      27.808  32.253  22.438  1.00  0.00    -0.204 F 
ENDBRANCH  16  18
ENDBRANCH  13  16
ENDBRANCH  11  13
ENDBRANCH   5   7
ENDBRANCH   4   5
ENDBRANCH   3   4
ENDBRANCH   2   3
ENDBRANCH   1   2
BRANCH   1  26
ATOM     26  C   UNL A   1      37.677  21.038  25.291  1.00  0.00     0.202 C 
BRANCH  26  27
ATOM     27  C   UNL A   1      38.684  19.879  25.243  1.00  0.00     0.261 C 
BRANCH  27  28
ATOM     28  O   UNL A   1      39.437  19.745  26.460  1.00  0.00    -0.460 OA
BRANCH  28  29
ATOM     29  C   UNL A   1      40.763  19.997  26.336  1.00  0.00     0.338 C 
ATOM     30  O   UNL A   1      41.598  19.292  25.792  1.00  0.00    -0.246 OA
BRANCH  29  31
ATOM     31  C   UNL A   1      41.057  21.365  26.797  1.00  0.00     0.060 A 
ATOM     32  C   UNL A   1      40.750  22.424  25.932  1.00  0.00     0.016 A 
ATOM     33  C   UNL A   1      41.681  21.608  28.023  1.00  0.00     0.016 A 
ATOM     34  C   UNL A   1      41.106  23.727  26.269  1.00  0.00     0.010 A 
ATOM     35  C   UNL A   1      42.041  22.919  28.357  1.00  0.00     0.010 A 
ATOM     36  C   UNL A   1      41.786  23.979  27.468  1.00  0.00    -0.014 A 
BRANCH  36  37
ATOM     37  C   UNL A   1      42.334  25.331  27.737  1.00  0.00     0.031 A 
ATOM     38  C   UNL A   1      41.458  26.365  28.390  1.00  0.00     0.074 A 
ATOM     39  C   UNL A   1      43.599  25.638  27.395  1.00  0.00     0.049 A 
ATOM     40  N   UNL A   1      41.722  27.614  28.673  1.00  0.00    -0.248 NA
ATOM     41  C   UNL A   1      40.103  25.935  28.771  1.00  0.00     0.031 C 
ATOM     42  C   UNL A   1      44.547  24.724  26.760  1.00  0.00     0.029 A 
ATOM     43  N   UNL A   1      44.294  26.816  27.513  1.00  0.00    -0.354 N 
ATOM     44  C   UNL A   1      40.559  28.130  29.235  1.00  0.00     0.074 A 
ATOM     45  C   UNL A   1      39.584  27.060  29.240  1.00  0.00     0.031 C 
ATOM     46  C   UNL A   1      45.692  25.383  26.516  1.00  0.00     0.029 A 
ATOM     47  C   UNL A   1      45.548  26.771  26.951  1.00  0.00     0.049 A 
ATOM     48  H   UNL A   1      43.930  27.615  27.958  1.00  0.00     0.167 HD
ATOM     49  C   UNL A   1      40.328  29.374  29.714  1.00  0.00     0.034 A 
ATOM     50  C   UNL A   1      46.464  27.746  26.779  1.00  0.00     0.034 A 
ATOM     51  C   UNL A   1      41.305  30.431  29.722  1.00  0.00     0.049 A 
ATOM     52  C   UNL A   1      46.172  29.130  27.296  1.00  0.00     0.074 A 
ATOM     53  C   UNL A   1      41.182  31.712  30.232  1.00  0.00     0.029 A 
ATOM     54  N   UNL A   1      42.577  30.338  29.180  1.00  0.00    -0.354 N 
ATOM     55  N   UNL A   1      45.111  29.571  27.927  1.00  0.00    -0.248 NA
ATOM     56  C   UNL A   1      47.220  30.145  27.107  1.00  0.00     0.031 C 
ATOM     57  C   UNL A   1      42.367  32.404  29.964  1.00  0.00     0.029 A 
ATOM     58  C   UNL A   1      43.244  31.541  29.328  1.00  0.00     0.049 A 
ATOM     59  H   UNL A   1      42.951  29.533  28.753  1.00  0.00     0.167 HD
ATOM     60  C   UNL A   1      45.378  30.899  28.244  1.00  0.00     0.074 A 
ATOM     61  C   UNL A   1      46.709  31.185  27.752  1.00  0.00     0.031 C 
ATOM     62  C   UNL A   1      44.588  31.802  28.877  1.00  0.00     0.034 A 
BRANCH  49  63
ATOM     63  C   UNL A   1      38.964  29.663  30.288  1.00  0.00     0.023 A 
ATOM     64  C   UNL A   1      38.652  29.248  31.598  1.00  0.00     0.012 A 
ATOM     65  C   UNL A   1      38.013  30.395  29.549  1.00  0.00     0.148 A 
ATOM     66  C   UNL A   1      37.402  29.526  32.152  1.00  0.00     0.002 A 
ATOM     67  C   UNL A   1      36.787  30.708  30.125  1.00  0.00     0.091 A 
ATOM     68  F   UNL A   1      38.321  30.762  28.298  1.00  0.00    -0.205 F 
ATOM     69  C   UNL A   1      36.475  30.265  31.420  1.00  0.00     0.022 A 
BRANCH  67  70
ATOM     70  S   UNL A   1      35.559  31.723  29.297  1.00  0.00     0.127 S 
ATOM     71  O   UNL A   1      35.034  30.793  28.298  1.00  0.00    -0.237 OA
ATOM     72  O   UNL A   1      34.633  32.035  30.386  1.00  0.00    -0.237 OA
ATOM     73  O   UNL A   1      36.278  32.870  28.762  1.00  0.00    -0.744 OA
ENDBRANCH  67  70
ENDBRANCH  49  63
BRANCH  50  74
ATOM     74  C   UNL A   1      47.756  27.441  26.102  1.00  0.00     0.023 A 
ATOM     75  C   UNL A   1      48.869  27.045  26.867  1.00  0.00     0.012 A 
ATOM     76  C   UNL A   1      47.881  27.533  24.702  1.00  0.00     0.148 A 
ATOM     77  C   UNL A   1      50.094  26.777  26.255  1.00  0.00     0.002 A 
ATOM     78  C   UNL A   1      49.087  27.207  24.093  1.00  0.00     0.091 A 
ATOM     79  F   UNL A   1      46.814  27.926  23.993  1.00  0.00    -0.205 F 
ATOM     80  C   UNL A   1      50.199  26.847  24.867  1.00  0.00     0.022 A 
BRANCH  78  81
ATOM     81  S   UNL A   1      49.276  27.141  22.308  1.00  0.00     0.127 S 
ATOM     82  O   UNL A   1      48.792  28.459  21.908  1.00  0.00    -0.237 OA
ATOM     83  O   UNL A   1      50.719  26.945  22.167  1.00  0.00    -0.237 OA
ATOM     84  O   UNL A   1      48.470  26.012  21.866  1.00  0.00    -0.744 OA
ENDBRANCH  78  81
ENDBRANCH  50  74
BRANCH  62  85
ATOM     85  C   UNL A   1      45.154  33.177  29.126  1.00  0.00     0.023 A 
ATOM     86  C   UNL A   1      46.054  33.391  30.188  1.00  0.00     0.012 A 
ATOM     87  C   UNL A   1      44.845  34.244  28.257  1.00  0.00     0.148 A 
ATOM     88  C   UNL A   1      46.611  34.652  30.403  1.00  0.00     0.002 A 
ATOM     89  C   UNL A   1      45.444  35.484  28.447  1.00  0.00     0.091 A 
ATOM     90  F   UNL A   1      43.973  34.026  27.262  1.00  0.00    -0.205 F 
ATOM     91  C   UNL A   1      46.316  35.694  29.527  1.00  0.00     0.022 A 
BRANCH  89  92
ATOM     92  S   UNL A   1      45.201  36.856  27.312  1.00  0.00     0.127 S 
ATOM     93  O   UNL A   1      45.368  38.007  28.197  1.00  0.00    -0.237 OA
ATOM     94  O   UNL A   1      46.290  36.660  26.354  1.00  0.00    -0.237 OA
ATOM     95  O   UNL A   1      43.866  36.686  26.754  1.00  0.00    -0.744 OA
ENDBRANCH  89  92
ENDBRANCH  62  85
ENDBRANCH  36  37
ENDBRANCH  29  31
ENDBRANCH  28  29
ENDBRANCH  27  28
ENDBRANCH  26  27
ENDBRANCH   1  26
TORSDOF 20
ENDMDL
