MODEL 1
REMARK VINA RESULT:     -11.5      0.000      0.000
REMARK SMILES C[C@@H](C(=O)OCCOCCOC(=O)c1ccc(-c2c3nc(c(-c4cccc(S(=O)(=O)[O-])c4F)c4ccc([nH]4)c(-c4cccc(S(=O)(=O)[O-])c4F)c4nc(c(-c5cccc(S(=O)(=O)[O-])c5F)c5ccc2[nH]5)C=C4)C=C3)cc1)c1ccc2c3cc(Cl)ccc3n(C(=O)c3cocn3)c2c1
REMARK SMILES IDX 8 1 7 2 6 3 5 4 3 5 4 6 2 7 1 8 77 9 78 10 97 11 79 12 96 13
REMARK SMILES IDX 80 14 88 15 81 16 87 17 82 18 86 19 83 20 85 21 84 22 89 23
REMARK SMILES IDX 90 24 91 25 92 26 95 27 93 28 94 29 9 30 10 31 11 32 12 33
REMARK SMILES IDX 13 34 14 35 15 36 76 37 16 38 75 39 17 40 18 41 19 42 69 43
REMARK SMILES IDX 20 44 74 45 68 46 70 47 21 48 73 49 67 50 66 51 22 53 54 54
REMARK SMILES IDX 34 55 53 56 35 57 38 58 52 59 71 60 36 61 37 62 51 64 72 65
REMARK SMILES IDX 39 66 23 67 24 68 32 69 25 70 27 71 33 72 26 73 28 74 29 75
REMARK SMILES IDX 30 76 31 77 55 78 56 79 64 80 57 81 59 82 65 83 58 84 60 85
REMARK SMILES IDX 61 86 62 87 63 88 40 89 41 90 49 91 42 92 44 93 50 94 43 95
REMARK SMILES IDX 45 96 46 97 47 98 48 99
REMARK H PARENT 70 52 38 63
REMARK Flexibility Score: inf
ROOT
ATOM      1  O   UNL A   1      35.454  19.778  25.324  1.00  0.00    -0.374 OA
ENDROOT
BRANCH   1   2
ATOM      2  C   UNL A   1      34.228  19.381  24.712  1.00  0.00     0.202 C 
BRANCH   2   3
ATOM      3  C   UNL A   1      33.185  20.478  24.474  1.00  0.00     0.261 C 
BRANCH   3   4
ATOM      4  O   UNL A   1      32.542  20.845  25.703  1.00  0.00    -0.463 OA
BRANCH   4   5
ATOM      5  C   UNL A   1      33.005  21.978  26.300  1.00  0.00     0.313 C 
ATOM      6  O   UNL A   1      32.991  22.178  27.510  1.00  0.00    -0.252 OA
BRANCH   5   7
ATOM      7  C   UNL A   1      33.676  22.927  25.303  1.00  0.00     0.126 C 
ATOM      8  C   UNL A   1      35.017  23.478  25.807  1.00  0.00     0.025 C 
BRANCH   7   9
ATOM      9  C   UNL A   1      32.753  24.036  24.775  1.00  0.00    -0.032 A 
ATOM     10  C   UNL A   1      31.524  23.688  24.201  1.00  0.00     0.005 A 
ATOM     11  C   UNL A   1      33.077  25.404  24.877  1.00  0.00     0.032 A 
ATOM     12  C   UNL A   1      30.600  24.662  23.801  1.00  0.00     0.011 A 
ATOM     13  C   UNL A   1      32.158  26.387  24.439  1.00  0.00     0.058 A 
ATOM     14  C   UNL A   1      30.904  26.029  23.962  1.00  0.00     0.008 A 
ATOM     15  N   UNL A   1      32.253  27.788  24.421  1.00  0.00    -0.274 N 
ATOM     16  C   UNL A   1      30.167  27.228  23.751  1.00  0.00     0.009 A 
ATOM     17  C   UNL A   1      31.019  28.311  24.005  1.00  0.00     0.057 A 
ATOM     18  C   UNL A   1      28.836  27.465  23.343  1.00  0.00     0.031 A 
ATOM     19  C   UNL A   1      30.586  29.631  23.751  1.00  0.00     0.029 A 
ATOM     20  C   UNL A   1      28.394  28.774  23.163  1.00  0.00     0.041 A 
ATOM     21  C   UNL A   1      29.261  29.843  23.346  1.00  0.00     0.023 A 
ATOM     22  Cl  UNL A   1      26.766  29.063  22.686  1.00  0.00    -0.084 Cl
BRANCH  15  23
ATOM     23  C   UNL A   1      33.447  28.497  24.720  1.00  0.00     0.284 C 
ATOM     24  O   UNL A   1      34.319  28.445  23.860  1.00  0.00    -0.266 OA
BRANCH  23  25
ATOM     25  C   UNL A   1      33.696  29.234  25.960  1.00  0.00     0.167 A 
ATOM     26  C   UNL A   1      34.806  29.221  26.777  1.00  0.00     0.231 A 
ATOM     27  N   UNL A   1      32.822  30.207  26.431  1.00  0.00    -0.211 NA
ATOM     28  O   UNL A   1      34.640  30.161  27.753  1.00  0.00    -0.451 OA
ATOM     29  C   UNL A   1      33.438  30.726  27.463  1.00  0.00     0.308 A 
ENDBRANCH  23  25
ENDBRANCH  15  23
ENDBRANCH   7   9
ENDBRANCH   5   7
ENDBRANCH   4   5
ENDBRANCH   3   4
ENDBRANCH   2   3
ENDBRANCH   1   2
BRANCH   1  30
ATOM     30  C   UNL A   1      36.485  20.296  24.486  1.00  0.00     0.202 C 
BRANCH  30  31
ATOM     31  C   UNL A   1      37.929  20.156  24.986  1.00  0.00     0.261 C 
BRANCH  31  32
ATOM     32  O   UNL A   1      38.309  21.197  25.906  1.00  0.00    -0.460 OA
BRANCH  32  33
ATOM     33  C   UNL A   1      39.592  21.127  26.337  1.00  0.00     0.338 C 
ATOM     34  O   UNL A   1      40.379  20.205  26.171  1.00  0.00    -0.246 OA
BRANCH  33  35
ATOM     35  C   UNL A   1      40.012  22.416  26.915  1.00  0.00     0.060 A 
ATOM     36  C   UNL A   1      39.399  23.575  26.425  1.00  0.00     0.016 A 
ATOM     37  C   UNL A   1      41.058  22.500  27.836  1.00  0.00     0.016 A 
ATOM     38  C   UNL A   1      39.862  24.830  26.817  1.00  0.00     0.010 A 
ATOM     39  C   UNL A   1      41.527  23.761  28.222  1.00  0.00     0.010 A 
ATOM     40  C   UNL A   1      40.956  24.930  27.685  1.00  0.00    -0.014 A 
BRANCH  40  41
ATOM     41  C   UNL A   1      41.582  26.254  27.921  1.00  0.00     0.031 A 
ATOM     42  C   UNL A   1      42.954  26.528  27.368  1.00  0.00     0.074 A 
ATOM     43  C   UNL A   1      40.929  27.209  28.608  1.00  0.00     0.049 A 
ATOM     44  N   UNL A   1      43.688  27.605  27.469  1.00  0.00    -0.248 NA
ATOM     45  C   UNL A   1      43.584  25.441  26.599  1.00  0.00     0.031 C 
ATOM     46  C   UNL A   1      39.596  27.067  29.190  1.00  0.00     0.029 A 
ATOM     47  N   UNL A   1      41.315  28.480  28.953  1.00  0.00    -0.354 N 
ATOM     48  C   UNL A   1      44.874  27.320  26.801  1.00  0.00     0.074 A 
ATOM     49  C   UNL A   1      44.768  25.963  26.312  1.00  0.00     0.031 C 
ATOM     50  C   UNL A   1      39.286  28.197  29.849  1.00  0.00     0.029 A 
ATOM     51  C   UNL A   1      40.406  29.131  29.753  1.00  0.00     0.049 A 
ATOM     52  H   UNL A   1      42.163  28.887  28.658  1.00  0.00     0.167 HD
ATOM     53  C   UNL A   1      45.947  28.122  26.599  1.00  0.00     0.034 A 
ATOM     54  C   UNL A   1      40.479  30.334  30.356  1.00  0.00     0.034 A 
ATOM     55  C   UNL A   1      46.044  29.476  27.070  1.00  0.00     0.049 A 
ATOM     56  C   UNL A   1      41.693  31.199  30.135  1.00  0.00     0.074 A 
ATOM     57  C   UNL A   1      47.071  30.383  26.877  1.00  0.00     0.029 A 
ATOM     58  N   UNL A   1      45.084  30.119  27.838  1.00  0.00    -0.354 N 
ATOM     59  N   UNL A   1      42.754  30.960  29.403  1.00  0.00    -0.248 NA
ATOM     60  C   UNL A   1      41.704  32.513  30.794  1.00  0.00     0.031 C 
ATOM     61  C   UNL A   1      46.745  31.565  27.551  1.00  0.00     0.029 A 
ATOM     62  C   UNL A   1      45.500  31.405  28.138  1.00  0.00     0.049 A 
ATOM     63  H   UNL A   1      44.232  29.718  28.127  1.00  0.00     0.167 HD
ATOM     64  C   UNL A   1      43.542  32.104  29.485  1.00  0.00     0.074 A 
ATOM     65  C   UNL A   1      42.824  33.044  30.323  1.00  0.00     0.031 C 
ATOM     66  C   UNL A   1      44.754  32.350  28.930  1.00  0.00     0.034 A 
BRANCH  53  67
ATOM     67  C   UNL A   1      47.098  27.558  25.806  1.00  0.00     0.023 A 
ATOM     68  C   UNL A   1      48.011  26.683  26.430  1.00  0.00     0.012 A 
ATOM     69  C   UNL A   1      47.248  27.852  24.437  1.00  0.00     0.148 A 
ATOM     70  C   UNL A   1      49.073  26.135  25.712  1.00  0.00     0.002 A 
ATOM     71  C   UNL A   1      48.283  27.268  23.718  1.00  0.00     0.091 A 
ATOM     72  F   UNL A   1      46.384  28.705  23.868  1.00  0.00    -0.205 F 
ATOM     73  C   UNL A   1      49.203  26.419  24.354  1.00  0.00     0.022 A 
BRANCH  71  74
ATOM     74  S   UNL A   1      48.491  27.511  21.950  1.00  0.00     0.127 S 
ATOM     75  O   UNL A   1      47.185  28.046  21.568  1.00  0.00    -0.237 OA
ATOM     76  O   UNL A   1      49.585  28.481  21.897  1.00  0.00    -0.237 OA
ATOM     77  O   UNL A   1      48.816  26.201  21.401  1.00  0.00    -0.744 OA
ENDBRANCH  71  74
ENDBRANCH  53  67
BRANCH  54  78
ATOM     78  C   UNL A   1      39.350  30.804  31.208  1.00  0.00     0.023 A 
ATOM     79  C   UNL A   1      39.348  30.515  32.586  1.00  0.00     0.012 A 
ATOM     80  C   UNL A   1      38.292  31.558  30.662  1.00  0.00     0.148 A 
ATOM     81  C   UNL A   1      38.298  30.945  33.400  1.00  0.00     0.002 A 
ATOM     82  C   UNL A   1      37.279  32.030  31.488  1.00  0.00     0.091 A 
ATOM     83  F   UNL A   1      38.304  31.807  29.344  1.00  0.00    -0.205 F 
ATOM     84  C   UNL A   1      37.272  31.711  32.855  1.00  0.00     0.022 A 
BRANCH  82  85
ATOM     85  S   UNL A   1      35.989  33.131  30.896  1.00  0.00     0.127 S 
ATOM     86  O   UNL A   1      36.746  34.052  30.052  1.00  0.00    -0.237 OA
ATOM     87  O   UNL A   1      35.115  32.208  30.172  1.00  0.00    -0.237 OA
ATOM     88  O   UNL A   1      35.390  33.712  32.090  1.00  0.00    -0.744 OA
ENDBRANCH  82  85
ENDBRANCH  54  78
BRANCH  66  89
ATOM     89  C   UNL A   1      45.378  33.701  29.174  1.00  0.00     0.023 A 
ATOM     90  C   UNL A   1      46.246  33.883  30.268  1.00  0.00     0.012 A 
ATOM     91  C   UNL A   1      45.165  34.765  28.274  1.00  0.00     0.148 A 
ATOM     92  C   UNL A   1      46.867  35.114  30.482  1.00  0.00     0.002 A 
ATOM     93  C   UNL A   1      45.825  35.973  28.467  1.00  0.00     0.091 A 
ATOM     94  F   UNL A   1      44.322  34.576  27.249  1.00  0.00    -0.205 F 
ATOM     95  C   UNL A   1      46.667  36.153  29.577  1.00  0.00     0.022 A 
BRANCH  93  96
ATOM     96  S   UNL A   1      45.702  37.334  27.301  1.00  0.00     0.127 S 
ATOM     97  O   UNL A   1      46.449  36.815  26.157  1.00  0.00    -0.237 OA
ATOM     98  O   UNL A   1      44.257  37.433  27.091  1.00  0.00    -0.237 OA
ATOM     99  O   UNL A   1      46.296  38.487  27.965  1.00  0.00    -0.744 OA
ENDBRANCH  93  96
ENDBRANCH  66  89
ENDBRANCH  40  41
ENDBRANCH  33  35
ENDBRANCH  32  33
ENDBRANCH  31  32
ENDBRANCH  30  31
ENDBRANCH   1  30
TORSDOF 20
ENDMDL
MODEL 2
REMARK VINA RESULT:     -11.2      2.774      7.903
REMARK SMILES C[C@@H](C(=O)OCCOCCOC(=O)c1ccc(-c2c3nc(c(-c4cccc(S(=O)(=O)[O-])c4F)c4ccc([nH]4)c(-c4cccc(S(=O)(=O)[O-])c4F)c4nc(c(-c5cccc(S(=O)(=O)[O-])c5F)c5ccc2[nH]5)C=C4)C=C3)cc1)c1ccc2c3cc(Cl)ccc3n(C(=O)c3cocn3)c2c1
REMARK SMILES IDX 8 1 7 2 6 3 5 4 3 5 4 6 2 7 1 8 77 9 78 10 97 11 79 12 96 13
REMARK SMILES IDX 80 14 88 15 81 16 87 17 82 18 86 19 83 20 85 21 84 22 89 23
REMARK SMILES IDX 90 24 91 25 92 26 95 27 93 28 94 29 9 30 10 31 11 32 12 33
REMARK SMILES IDX 13 34 14 35 15 36 76 37 16 38 75 39 17 40 18 41 19 42 69 43
REMARK SMILES IDX 20 44 74 45 68 46 70 47 21 48 73 49 67 50 66 51 22 53 54 54
REMARK SMILES IDX 34 55 53 56 35 57 38 58 52 59 71 60 36 61 37 62 51 64 72 65
REMARK SMILES IDX 39 66 23 67 24 68 32 69 25 70 27 71 33 72 26 73 28 74 29 75
REMARK SMILES IDX 30 76 31 77 55 78 56 79 64 80 57 81 59 82 65 83 58 84 60 85
REMARK SMILES IDX 61 86 62 87 63 88 40 89 41 90 49 91 42 92 44 93 50 94 43 95
REMARK SMILES IDX 45 96 46 97 47 98 48 99
REMARK H PARENT 70 52 38 63
REMARK Flexibility Score: inf
ROOT
ATOM      1  O   UNL A   1      37.774  20.863  24.792  1.00  0.00    -0.374 OA
ENDROOT
BRANCH   1   2
ATOM      2  C   UNL A   1      36.459  20.356  25.012  1.00  0.00     0.202 C 
BRANCH   2   3
ATOM      3  C   UNL A   1      35.339  21.387  25.184  1.00  0.00     0.261 C 
BRANCH   3   4
ATOM      4  O   UNL A   1      34.345  21.235  24.159  1.00  0.00    -0.463 OA
BRANCH   4   5
ATOM      5  C   UNL A   1      33.098  21.684  24.469  1.00  0.00     0.313 C 
ATOM      6  O   UNL A   1      32.424  21.265  25.404  1.00  0.00    -0.252 OA
BRANCH   5   7
ATOM      7  C   UNL A   1      32.679  22.875  23.602  1.00  0.00     0.126 C 
ATOM      8  C   UNL A   1      33.423  22.935  22.261  1.00  0.00     0.025 C 
BRANCH   7   9
ATOM      9  C   UNL A   1      32.699  24.224  24.340  1.00  0.00    -0.032 A 
ATOM     10  C   UNL A   1      33.689  24.463  25.300  1.00  0.00     0.005 A 
ATOM     11  C   UNL A   1      31.776  25.252  24.064  1.00  0.00     0.032 A 
ATOM     12  C   UNL A   1      33.818  25.710  25.924  1.00  0.00     0.011 A 
ATOM     13  C   UNL A   1      31.884  26.500  24.722  1.00  0.00     0.058 A 
ATOM     14  C   UNL A   1      32.930  26.755  25.600  1.00  0.00     0.008 A 
ATOM     15  N   UNL A   1      31.092  27.656  24.632  1.00  0.00    -0.274 N 
ATOM     16  C   UNL A   1      32.851  28.126  25.972  1.00  0.00     0.009 A 
ATOM     17  C   UNL A   1      31.694  28.667  25.397  1.00  0.00     0.057 A 
ATOM     18  C   UNL A   1      33.678  28.940  26.777  1.00  0.00     0.031 A 
ATOM     19  C   UNL A   1      31.296  29.986  25.706  1.00  0.00     0.029 A 
ATOM     20  C   UNL A   1      33.316  30.263  27.019  1.00  0.00     0.041 A 
ATOM     21  C   UNL A   1      32.132  30.776  26.507  1.00  0.00     0.023 A 
ATOM     22  Cl  UNL A   1      34.335  31.261  27.983  1.00  0.00    -0.084 Cl
BRANCH  15  23
ATOM     23  C   UNL A   1      29.862  27.711  23.922  1.00  0.00     0.284 C 
ATOM     24  O   UNL A   1      29.087  26.787  24.143  1.00  0.00    -0.266 OA
BRANCH  23  25
ATOM     25  C   UNL A   1      29.495  28.751  22.961  1.00  0.00     0.167 A 
ATOM     26  C   UNL A   1      30.263  29.351  21.986  1.00  0.00     0.231 A 
ATOM     27  N   UNL A   1      28.189  29.205  22.824  1.00  0.00    -0.211 NA
ATOM     28  O   UNL A   1      29.464  30.175  21.247  1.00  0.00    -0.451 OA
ATOM     29  C   UNL A   1      28.230  30.015  21.796  1.00  0.00     0.308 A 
ENDBRANCH  23  25
ENDBRANCH  15  23
ENDBRANCH   7   9
ENDBRANCH   5   7
ENDBRANCH   4   5
ENDBRANCH   3   4
ENDBRANCH   2   3
ENDBRANCH   1   2
BRANCH   1  30
ATOM     30  C   UNL A   1      38.297  21.801  25.732  1.00  0.00     0.202 C 
BRANCH  30  31
ATOM     31  C   UNL A   1      39.633  21.450  26.401  1.00  0.00     0.261 C 
BRANCH  31  32
ATOM     32  O   UNL A   1      40.248  20.273  25.844  1.00  0.00    -0.460 OA
BRANCH  32  33
ATOM     33  C   UNL A   1      41.465  19.975  26.360  1.00  0.00     0.338 C 
ATOM     34  O   UNL A   1      41.943  18.862  26.531  1.00  0.00    -0.246 OA
BRANCH  33  35
ATOM     35  C   UNL A   1      42.258  21.202  26.551  1.00  0.00     0.060 A 
ATOM     36  C   UNL A   1      42.526  21.602  27.866  1.00  0.00     0.016 A 
ATOM     37  C   UNL A   1      42.640  22.003  25.473  1.00  0.00     0.016 A 
ATOM     38  C   UNL A   1      43.134  22.831  28.113  1.00  0.00     0.010 A 
ATOM     39  C   UNL A   1      43.243  23.241  25.724  1.00  0.00     0.010 A 
ATOM     40  C   UNL A   1      43.458  23.677  27.045  1.00  0.00    -0.014 A 
BRANCH  40  41
ATOM     41  C   UNL A   1      43.896  25.067  27.322  1.00  0.00     0.031 A 
ATOM     42  C   UNL A   1      42.886  26.074  27.802  1.00  0.00     0.074 A 
ATOM     43  C   UNL A   1      45.182  25.426  27.161  1.00  0.00     0.049 A 
ATOM     44  N   UNL A   1      43.049  27.339  28.086  1.00  0.00    -0.248 NA
ATOM     45  C   UNL A   1      41.507  25.590  27.983  1.00  0.00     0.031 C 
ATOM     46  C   UNL A   1      46.254  24.542  26.706  1.00  0.00     0.029 A 
ATOM     47  N   UNL A   1      45.797  26.640  27.340  1.00  0.00    -0.354 N 
ATOM     48  C   UNL A   1      41.794  27.810  28.455  1.00  0.00     0.074 A 
ATOM     49  C   UNL A   1      40.876  26.698  28.344  1.00  0.00     0.031 C 
ATOM     50  C   UNL A   1      47.391  25.252  26.611  1.00  0.00     0.029 A 
ATOM     51  C   UNL A   1      47.123  26.641  26.976  1.00  0.00     0.049 A 
ATOM     52  H   UNL A   1      45.334  27.434  27.693  1.00  0.00     0.167 HD
ATOM     53  C   UNL A   1      41.441  29.052  28.867  1.00  0.00     0.034 A 
ATOM     54  C   UNL A   1      48.012  27.652  26.924  1.00  0.00     0.034 A 
ATOM     55  C   UNL A   1      42.357  30.152  28.995  1.00  0.00     0.049 A 
ATOM     56  C   UNL A   1      47.590  29.030  27.365  1.00  0.00     0.074 A 
ATOM     57  C   UNL A   1      42.105  31.435  29.446  1.00  0.00     0.029 A 
ATOM     58  N   UNL A   1      43.703  30.105  28.661  1.00  0.00    -0.354 N 
ATOM     59  N   UNL A   1      46.430  29.431  27.824  1.00  0.00    -0.248 NA
ATOM     60  C   UNL A   1      48.611  30.088  27.315  1.00  0.00     0.031 C 
ATOM     61  C   UNL A   1      43.291  32.172  29.360  1.00  0.00     0.029 A 
ATOM     62  C   UNL A   1      44.291  31.339  28.884  1.00  0.00     0.049 A 
ATOM     63  H   UNL A   1      44.171  29.310  28.317  1.00  0.00     0.167 HD
ATOM     64  C   UNL A   1      46.588  30.775  28.149  1.00  0.00     0.074 A 
ATOM     65  C   UNL A   1      47.965  31.113  27.852  1.00  0.00     0.031 C 
ATOM     66  C   UNL A   1      45.675  31.651  28.634  1.00  0.00     0.034 A 
BRANCH  53  67
ATOM     67  C   UNL A   1      39.998  29.280  29.236  1.00  0.00     0.023 A 
ATOM     68  C   UNL A   1      39.031  29.414  28.219  1.00  0.00     0.012 A 
ATOM     69  C   UNL A   1      39.592  29.310  30.584  1.00  0.00     0.148 A 
ATOM     70  C   UNL A   1      37.687  29.606  28.537  1.00  0.00     0.002 A 
ATOM     71  C   UNL A   1      38.245  29.460  30.893  1.00  0.00     0.091 A 
ATOM     72  F   UNL A   1      40.528  29.205  31.537  1.00  0.00    -0.205 F 
ATOM     73  C   UNL A   1      37.293  29.619  29.872  1.00  0.00     0.022 A 
BRANCH  71  74
ATOM     74  S   UNL A   1      37.627  29.414  32.580  1.00  0.00     0.127 S 
ATOM     75  O   UNL A   1      37.737  27.990  32.897  1.00  0.00    -0.237 OA
ATOM     76  O   UNL A   1      38.583  30.270  33.283  1.00  0.00    -0.237 OA
ATOM     77  O   UNL A   1      36.270  29.940  32.523  1.00  0.00    -0.744 OA
ENDBRANCH  71  74
ENDBRANCH  53  67
BRANCH  54  78
ATOM     78  C   UNL A   1      49.404  27.391  26.460  1.00  0.00     0.023 A 
ATOM     79  C   UNL A   1      49.666  27.247  25.084  1.00  0.00     0.012 A 
ATOM     80  C   UNL A   1      50.472  27.309  27.376  1.00  0.00     0.148 A 
ATOM     81  C   UNL A   1      50.962  27.000  24.631  1.00  0.00     0.002 A 
ATOM     82  C   UNL A   1      51.768  27.117  26.912  1.00  0.00     0.091 A 
ATOM     83  F   UNL A   1      50.199  27.429  28.683  1.00  0.00    -0.205 F 
ATOM     84  C   UNL A   1      52.013  26.947  25.541  1.00  0.00     0.022 A 
BRANCH  82  85
ATOM     85  S   UNL A   1      53.197  27.165  28.002  1.00  0.00     0.127 S 
ATOM     86  O   UNL A   1      53.089  28.503  28.576  1.00  0.00    -0.237 OA
ATOM     87  O   UNL A   1      52.905  26.070  28.927  1.00  0.00    -0.237 OA
ATOM     88  O   UNL A   1      54.352  26.934  27.144  1.00  0.00    -0.744 OA
ENDBRANCH  82  85
ENDBRANCH  54  78
BRANCH  66  89
ATOM     89  C   UNL A   1      46.133  33.060  28.914  1.00  0.00     0.023 A 
ATOM     90  C   UNL A   1      46.811  33.350  30.114  1.00  0.00     0.012 A 
ATOM     91  C   UNL A   1      45.960  34.077  27.953  1.00  0.00     0.148 A 
ATOM     92  C   UNL A   1      47.281  34.639  30.368  1.00  0.00     0.002 A 
ATOM     93  C   UNL A   1      46.473  35.346  28.193  1.00  0.00     0.091 A 
ATOM     94  F   UNL A   1      45.296  33.785  26.825  1.00  0.00    -0.205 F 
ATOM     95  C   UNL A   1      47.123  35.632  29.405  1.00  0.00     0.022 A 
BRANCH  93  96
ATOM     96  S   UNL A   1      46.401  36.661  26.970  1.00  0.00     0.127 S 
ATOM     97  O   UNL A   1      47.146  37.727  27.635  1.00  0.00    -0.237 OA
ATOM     98  O   UNL A   1      47.088  36.059  25.826  1.00  0.00    -0.237 OA
ATOM     99  O   UNL A   1      44.985  36.928  26.751  1.00  0.00    -0.744 OA
ENDBRANCH  93  96
ENDBRANCH  66  89
ENDBRANCH  40  41
ENDBRANCH  33  35
ENDBRANCH  32  33
ENDBRANCH  31  32
ENDBRANCH  30  31
ENDBRANCH   1  30
TORSDOF 20
ENDMDL
MODEL 3
REMARK VINA RESULT:     -11.2      5.431      9.925
REMARK SMILES C[C@@H](C(=O)OCCOCCOC(=O)c1ccc(-c2c3nc(c(-c4cccc(S(=O)(=O)[O-])c4F)c4ccc([nH]4)c(-c4cccc(S(=O)(=O)[O-])c4F)c4nc(c(-c5cccc(S(=O)(=O)[O-])c5F)c5ccc2[nH]5)C=C4)C=C3)cc1)c1ccc2c3cc(Cl)ccc3n(C(=O)c3cocn3)c2c1
REMARK SMILES IDX 8 1 7 2 6 3 5 4 3 5 4 6 2 7 1 8 77 9 78 10 97 11 79 12 96 13
REMARK SMILES IDX 80 14 88 15 81 16 87 17 82 18 86 19 83 20 85 21 84 22 89 23
REMARK SMILES IDX 90 24 91 25 92 26 95 27 93 28 94 29 9 30 10 31 11 32 12 33
REMARK SMILES IDX 13 34 14 35 15 36 76 37 16 38 75 39 17 40 18 41 19 42 69 43
REMARK SMILES IDX 20 44 74 45 68 46 70 47 21 48 73 49 67 50 66 51 22 53 54 54
REMARK SMILES IDX 34 55 53 56 35 57 38 58 52 59 71 60 36 61 37 62 51 64 72 65
REMARK SMILES IDX 39 66 23 67 24 68 32 69 25 70 27 71 33 72 26 73 28 74 29 75
REMARK SMILES IDX 30 76 31 77 55 78 56 79 64 80 57 81 59 82 65 83 58 84 60 85
REMARK SMILES IDX 61 86 62 87 63 88 40 89 41 90 49 91 42 92 44 93 50 94 43 95
REMARK SMILES IDX 45 96 46 97 47 98 48 99
REMARK H PARENT 70 52 38 63
REMARK Flexibility Score: inf
ROOT
ATOM      1  O   UNL A   1      44.300  20.832  25.533  1.00  0.00    -0.374 OA
ENDROOT
BRANCH   1   2
ATOM      2  C   UNL A   1      44.779  21.052  24.207  1.00  0.00     0.202 C 
BRANCH   2   3
ATOM      3  C   UNL A   1      45.095  22.499  23.817  1.00  0.00     0.261 C 
BRANCH   3   4
ATOM      4  O   UNL A   1      44.023  23.375  24.197  1.00  0.00    -0.463 OA
BRANCH   4   5
ATOM      5  C   UNL A   1      44.360  24.401  25.026  1.00  0.00     0.313 C 
ATOM      6  O   UNL A   1      43.943  25.549  24.912  1.00  0.00    -0.252 OA
BRANCH   5   7
ATOM      7  C   UNL A   1      45.214  23.934  26.209  1.00  0.00     0.126 C 
ATOM      8  C   UNL A   1      44.463  23.982  27.547  1.00  0.00     0.025 C 
BRANCH   7   9
ATOM      9  C   UNL A   1      46.593  24.608  26.290  1.00  0.00    -0.032 A 
ATOM     10  C   UNL A   1      47.332  24.513  27.475  1.00  0.00     0.005 A 
ATOM     11  C   UNL A   1      47.165  25.295  25.201  1.00  0.00     0.032 A 
ATOM     12  C   UNL A   1      48.635  25.017  27.568  1.00  0.00     0.011 A 
ATOM     13  C   UNL A   1      48.468  25.836  25.307  1.00  0.00     0.058 A 
ATOM     14  C   UNL A   1      49.227  25.649  26.455  1.00  0.00     0.008 A 
ATOM     15  N   UNL A   1      49.238  26.563  24.384  1.00  0.00    -0.274 N 
ATOM     16  C   UNL A   1      50.527  26.169  26.199  1.00  0.00     0.009 A 
ATOM     17  C   UNL A   1      50.515  26.761  24.929  1.00  0.00     0.057 A 
ATOM     18  C   UNL A   1      51.709  26.191  26.971  1.00  0.00     0.031 A 
ATOM     19  C   UNL A   1      51.644  27.472  24.467  1.00  0.00     0.029 A 
ATOM     20  C   UNL A   1      52.842  26.834  26.476  1.00  0.00     0.041 A 
ATOM     21  C   UNL A   1      52.806  27.481  25.250  1.00  0.00     0.023 A 
ATOM     22  Cl  UNL A   1      54.289  26.842  27.409  1.00  0.00    -0.084 Cl
BRANCH  15  23
ATOM     23  C   UNL A   1      48.730  27.046  23.148  1.00  0.00     0.284 C 
ATOM     24  O   UNL A   1      47.719  27.735  23.229  1.00  0.00    -0.266 OA
BRANCH  23  25
ATOM     25  C   UNL A   1      49.306  26.756  21.835  1.00  0.00     0.167 A 
ATOM     26  C   UNL A   1      48.734  26.133  20.746  1.00  0.00     0.231 A 
ATOM     27  N   UNL A   1      50.559  27.224  21.456  1.00  0.00    -0.211 NA
ATOM     28  O   UNL A   1      49.607  26.196  19.699  1.00  0.00    -0.451 OA
ATOM     29  C   UNL A   1      50.667  26.886  20.196  1.00  0.00     0.308 A 
ENDBRANCH  23  25
ENDBRANCH  15  23
ENDBRANCH   7   9
ENDBRANCH   5   7
ENDBRANCH   4   5
ENDBRANCH   3   4
ENDBRANCH   2   3
ENDBRANCH   1   2
BRANCH   1  30
ATOM     30  C   UNL A   1      43.112  20.059  25.697  1.00  0.00     0.202 C 
BRANCH  30  31
ATOM     31  C   UNL A   1      41.953  20.712  26.462  1.00  0.00     0.261 C 
BRANCH  31  32
ATOM     32  O   UNL A   1      41.788  22.107  26.147  1.00  0.00    -0.460 OA
BRANCH  32  33
ATOM     33  C   UNL A   1      40.514  22.559  26.245  1.00  0.00     0.338 C 
ATOM     34  O   UNL A   1      39.487  21.931  26.027  1.00  0.00    -0.246 OA
BRANCH  33  35
ATOM     35  C   UNL A   1      40.490  23.912  26.830  1.00  0.00     0.060 A 
ATOM     36  C   UNL A   1      40.460  24.998  25.947  1.00  0.00     0.016 A 
ATOM     37  C   UNL A   1      40.604  24.117  28.206  1.00  0.00     0.016 A 
ATOM     38  C   UNL A   1      40.594  26.297  26.433  1.00  0.00     0.010 A 
ATOM     39  C   UNL A   1      40.747  25.422  28.691  1.00  0.00     0.010 A 
ATOM     40  C   UNL A   1      40.781  26.515  27.804  1.00  0.00    -0.014 A 
BRANCH  40  41
ATOM     41  C   UNL A   1      41.144  27.869  28.286  1.00  0.00     0.031 A 
ATOM     42  C   UNL A   1      42.593  28.278  28.309  1.00  0.00     0.074 A 
ATOM     43  C   UNL A   1      40.194  28.733  28.686  1.00  0.00     0.049 A 
ATOM     44  N   UNL A   1      43.130  29.402  28.704  1.00  0.00    -0.248 NA
ATOM     45  C   UNL A   1      43.565  27.284  27.824  1.00  0.00     0.031 C 
ATOM     46  C   UNL A   1      38.759  28.458  28.706  1.00  0.00     0.029 A 
ATOM     47  N   UNL A   1      40.301  30.011  29.175  1.00  0.00    -0.354 N 
ATOM     48  C   UNL A   1      44.502  29.245  28.541  1.00  0.00     0.074 A 
ATOM     49  C   UNL A   1      44.716  27.911  28.024  1.00  0.00     0.031 C 
ATOM     50  C   UNL A   1      38.118  29.525  29.214  1.00  0.00     0.029 A 
ATOM     51  C   UNL A   1      39.099  30.547  29.575  1.00  0.00     0.049 A 
ATOM     52  H   UNL A   1      41.155  30.497  29.236  1.00  0.00     0.167 HD
ATOM     53  C   UNL A   1      45.492  30.137  28.781  1.00  0.00     0.034 A 
ATOM     54  C   UNL A   1      38.824  31.719  30.180  1.00  0.00     0.034 A 
ATOM     55  C   UNL A   1      45.277  31.469  29.278  1.00  0.00     0.049 A 
ATOM     56  C   UNL A   1      39.946  32.686  30.459  1.00  0.00     0.074 A 
ATOM     57  C   UNL A   1      46.212  32.462  29.511  1.00  0.00     0.029 A 
ATOM     58  N   UNL A   1      44.042  31.995  29.628  1.00  0.00    -0.354 N 
ATOM     59  N   UNL A   1      41.223  32.570  30.188  1.00  0.00    -0.248 NA
ATOM     60  C   UNL A   1      39.583  33.962  31.095  1.00  0.00     0.031 C 
ATOM     61  C   UNL A   1      45.545  33.579  30.028  1.00  0.00     0.029 A 
ATOM     62  C   UNL A   1      44.191  33.292  30.088  1.00  0.00     0.049 A 
ATOM     63  H   UNL A   1      43.185  31.514  29.559  1.00  0.00     0.167 HD
ATOM     64  C   UNL A   1      41.811  33.766  30.588  1.00  0.00     0.074 A 
ATOM     65  C   UNL A   1      40.744  34.602  31.101  1.00  0.00     0.031 C 
ATOM     66  C   UNL A   1      43.115  34.133  30.547  1.00  0.00     0.034 A 
BRANCH  53  67
ATOM     67  C   UNL A   1      46.906  29.707  28.484  1.00  0.00     0.023 A 
ATOM     68  C   UNL A   1      47.464  29.979  27.218  1.00  0.00     0.012 A 
ATOM     69  C   UNL A   1      47.695  29.083  29.468  1.00  0.00     0.148 A 
ATOM     70  C   UNL A   1      48.775  29.607  26.926  1.00  0.00     0.002 A 
ATOM     71  C   UNL A   1      49.016  28.755  29.184  1.00  0.00     0.091 A 
ATOM     72  F   UNL A   1      47.139  28.812  30.657  1.00  0.00    -0.205 F 
ATOM     73  C   UNL A   1      49.554  29.005  27.911  1.00  0.00     0.022 A 
BRANCH  71  74
ATOM     74  S   UNL A   1      50.122  28.045  30.409  1.00  0.00     0.127 S 
ATOM     75  O   UNL A   1      51.404  28.082  29.707  1.00  0.00    -0.237 OA
ATOM     76  O   UNL A   1      50.006  28.992  31.517  1.00  0.00    -0.237 OA
ATOM     77  O   UNL A   1      49.603  26.713  30.692  1.00  0.00    -0.744 OA
ENDBRANCH  71  74
ENDBRANCH  53  67
BRANCH  54  78
ATOM     78  C   UNL A   1      37.418  32.055  30.539  1.00  0.00     0.023 A 
ATOM     79  C   UNL A   1      36.940  31.769  31.832  1.00  0.00     0.012 A 
ATOM     80  C   UNL A   1      36.560  32.681  29.612  1.00  0.00     0.148 A 
ATOM     81  C   UNL A   1      35.625  32.074  32.187  1.00  0.00     0.002 A 
ATOM     82  C   UNL A   1      35.270  33.032  29.989  1.00  0.00     0.091 A 
ATOM     83  F   UNL A   1      37.029  32.928  28.380  1.00  0.00    -0.205 F 
ATOM     84  C   UNL A   1      34.795  32.715  31.272  1.00  0.00     0.022 A 
BRANCH  82  85
ATOM     85  S   UNL A   1      34.177  33.974  28.919  1.00  0.00     0.127 S 
ATOM     86  O   UNL A   1      33.129  34.384  29.850  1.00  0.00    -0.237 OA
ATOM     87  O   UNL A   1      35.056  35.052  28.465  1.00  0.00    -0.237 OA
ATOM     88  O   UNL A   1      33.766  33.053  27.868  1.00  0.00    -0.744 OA
ENDBRANCH  82  85
ENDBRANCH  54  78
BRANCH  66  89
ATOM     89  C   UNL A   1      43.472  35.514  31.037  1.00  0.00     0.023 A 
ATOM     90  C   UNL A   1      43.847  35.705  32.381  1.00  0.00     0.012 A 
ATOM     91  C   UNL A   1      43.510  36.606  30.146  1.00  0.00     0.148 A 
ATOM     92  C   UNL A   1      44.223  36.968  32.839  1.00  0.00     0.002 A 
ATOM     93  C   UNL A   1      43.933  37.851  30.598  1.00  0.00     0.091 A 
ATOM     94  F   UNL A   1      43.133  36.408  28.875  1.00  0.00    -0.205 F 
ATOM     95  C   UNL A   1      44.278  38.036  31.947  1.00  0.00     0.022 A 
BRANCH  93  96
ATOM     96  S   UNL A   1      44.125  39.260  29.501  1.00  0.00     0.127 S 
ATOM     97  O   UNL A   1      44.779  38.650  28.345  1.00  0.00    -0.237 OA
ATOM     98  O   UNL A   1      42.738  39.667  29.271  1.00  0.00    -0.237 OA
ATOM     99  O   UNL A   1      44.925  40.233  30.233  1.00  0.00    -0.744 OA
ENDBRANCH  93  96
ENDBRANCH  66  89
ENDBRANCH  40  41
ENDBRANCH  33  35
ENDBRANCH  32  33
ENDBRANCH  31  32
ENDBRANCH  30  31
ENDBRANCH   1  30
TORSDOF 20
ENDMDL
