MODEL 1
REMARK VINA RESULT:     -11.4      0.000      0.000
REMARK SMILES O=C(OCCOCCOC(=O)c1cccc2cccc([S@](=O)c3ccccc3CO)c12)c1ccc(-c2c3nc(c(-c4cccc(S(=O)(=O)[O-])c4F)c4ccc([nH]4)c(-c4cccc(S(=O)(=O)[O-])c4F)c4nc(c(-c5cccc(S(=O)(=O)[O-])c5F)c5ccc2[nH]5)C=C4)C=C3)cc1
REMARK SMILES IDX 7 1 6 2 5 3 4 4 3 5 2 6 1 7 32 8 33 9 94 10 34 11 93 12
REMARK SMILES IDX 35 13 36 14 37 15 87 16 38 17 92 18 86 19 88 20 39 21 91 22
REMARK SMILES IDX 85 23 84 24 40 26 72 27 52 28 71 29 53 30 56 31 70 32 89 33
REMARK SMILES IDX 54 34 55 35 69 37 90 38 57 39 41 40 42 41 50 42 43 43 45 44
REMARK SMILES IDX 51 45 44 46 46 47 47 48 48 49 49 50 73 51 74 52 82 53 75 54
REMARK SMILES IDX 77 55 83 56 76 57 78 58 79 59 80 60 81 61 58 62 59 63 67 64
REMARK SMILES IDX 60 65 62 66 68 67 61 68 63 69 64 70 65 71 66 72 8 73 9 74
REMARK SMILES IDX 10 75 11 76 12 77 13 78 31 79 14 80 16 81 20 82 15 83 17 84
REMARK SMILES IDX 19 85 18 86 21 87 22 88 23 89 24 90 28 91 25 92 27 93 26 94
REMARK SMILES IDX 29 95 30 96
REMARK H PARENT 88 25 56 36 30 97
REMARK Flexibility Score: inf
ROOT
ATOM      1  C   UNL A   1      33.090  29.971  26.508  1.00  0.00     0.202 C 
ENDROOT
BRANCH   1   2
ATOM      2  O   UNL A   1      32.310  30.913  27.242  1.00  0.00    -0.374 OA
BRANCH   2   3
ATOM      3  C   UNL A   1      31.498  31.781  26.456  1.00  0.00     0.202 C 
BRANCH   3   4
ATOM      4  C   UNL A   1      31.874  33.234  26.773  1.00  0.00     0.261 C 
BRANCH   4   5
ATOM      5  O   UNL A   1      32.552  33.464  28.026  1.00  0.00    -0.460 OA
BRANCH   5   6
ATOM      6  C   UNL A   1      33.701  34.184  28.015  1.00  0.00     0.338 C 
ATOM      7  O   UNL A   1      33.742  35.396  27.881  1.00  0.00    -0.246 OA
BRANCH   6   8
ATOM      8  C   UNL A   1      34.838  33.360  28.492  1.00  0.00     0.060 A 
ATOM      9  C   UNL A   1      34.628  32.124  29.105  1.00  0.00     0.016 A 
ATOM     10  C   UNL A   1      36.143  33.823  28.295  1.00  0.00     0.016 A 
ATOM     11  C   UNL A   1      35.704  31.366  29.536  1.00  0.00     0.010 A 
ATOM     12  C   UNL A   1      37.226  33.072  28.766  1.00  0.00     0.010 A 
ATOM     13  C   UNL A   1      37.005  31.849  29.415  1.00  0.00    -0.014 A 
BRANCH  13  14
ATOM     14  C   UNL A   1      38.089  31.107  30.093  1.00  0.00     0.031 A 
ATOM     15  C   UNL A   1      38.371  31.399  31.536  1.00  0.00     0.074 A 
ATOM     16  C   UNL A   1      38.731  30.108  29.462  1.00  0.00     0.049 A 
ATOM     17  N   UNL A   1      39.323  30.934  32.298  1.00  0.00    -0.248 NA
ATOM     18  C   UNL A   1      37.441  32.315  32.218  1.00  0.00     0.031 C 
ATOM     19  C   UNL A   1      38.451  29.660  28.098  1.00  0.00     0.029 A 
ATOM     20  N   UNL A   1      39.744  29.287  29.886  1.00  0.00    -0.354 N 
ATOM     21  C   UNL A   1      39.160  31.565  33.524  1.00  0.00     0.074 A 
ATOM     22  C   UNL A   1      37.987  32.404  33.422  1.00  0.00     0.031 C 
ATOM     23  C   UNL A   1      39.280  28.649  27.794  1.00  0.00     0.029 A 
ATOM     24  C   UNL A   1      40.195  28.430  28.910  1.00  0.00     0.049 A 
ATOM     25  H   UNL A   1      40.113  29.309  30.800  1.00  0.00     0.167 HD
ATOM     26  C   UNL A   1      39.931  31.460  34.630  1.00  0.00     0.034 A 
ATOM     27  C   UNL A   1      41.259  27.603  28.900  1.00  0.00     0.034 A 
ATOM     28  C   UNL A   1      41.074  30.598  34.729  1.00  0.00     0.049 A 
ATOM     29  C   UNL A   1      42.128  27.530  30.125  1.00  0.00     0.074 A 
ATOM     30  C   UNL A   1      41.944  30.437  35.791  1.00  0.00     0.029 A 
ATOM     31  N   UNL A   1      41.505  29.747  33.722  1.00  0.00    -0.354 N 
ATOM     32  N   UNL A   1      41.972  28.134  31.280  1.00  0.00    -0.248 NA
ATOM     33  C   UNL A   1      43.316  26.668  30.053  1.00  0.00     0.031 C 
ATOM     34  C   UNL A   1      42.910  29.494  35.420  1.00  0.00     0.029 A 
ATOM     35  C   UNL A   1      42.633  29.060  34.132  1.00  0.00     0.049 A 
ATOM     36  H   UNL A   1      41.073  29.647  32.843  1.00  0.00     0.167 HD
ATOM     37  C   UNL A   1      43.038  27.725  32.073  1.00  0.00     0.074 A 
ATOM     38  C   UNL A   1      43.815  26.796  31.277  1.00  0.00     0.031 C 
ATOM     39  C   UNL A   1      43.360  28.105  33.334  1.00  0.00     0.034 A 
BRANCH  26  40
ATOM     40  C   UNL A   1      39.569  32.332  35.799  1.00  0.00     0.023 A 
ATOM     41  C   UNL A   1      38.786  31.815  36.848  1.00  0.00     0.012 A 
ATOM     42  C   UNL A   1      39.996  33.672  35.847  1.00  0.00     0.148 A 
ATOM     43  C   UNL A   1      38.408  32.631  37.915  1.00  0.00     0.002 A 
ATOM     44  C   UNL A   1      39.641  34.470  36.928  1.00  0.00     0.091 A 
ATOM     45  F   UNL A   1      40.707  34.157  34.818  1.00  0.00    -0.205 F 
ATOM     46  C   UNL A   1      38.841  33.954  37.959  1.00  0.00     0.022 A 
BRANCH  44  47
ATOM     47  S   UNL A   1      40.203  36.169  37.075  1.00  0.00     0.127 S 
ATOM     48  O   UNL A   1      41.648  35.995  37.208  1.00  0.00    -0.237 OA
ATOM     49  O   UNL A   1      39.775  36.756  35.805  1.00  0.00    -0.237 OA
ATOM     50  O   UNL A   1      39.516  36.705  38.243  1.00  0.00    -0.744 OA
ENDBRANCH  44  47
ENDBRANCH  26  40
BRANCH  27  51
ATOM     51  C   UNL A   1      41.554  26.809  27.674  1.00  0.00     0.023 A 
ATOM     52  C   UNL A   1      42.231  27.408  26.596  1.00  0.00     0.012 A 
ATOM     53  C   UNL A   1      41.243  25.434  27.608  1.00  0.00     0.148 A 
ATOM     54  C   UNL A   1      42.594  26.653  25.478  1.00  0.00     0.002 A 
ATOM     55  C   UNL A   1      41.665  24.676  26.523  1.00  0.00     0.091 A 
ATOM     56  F   UNL A   1      40.563  24.887  28.627  1.00  0.00    -0.205 F 
ATOM     57  C   UNL A   1      42.330  25.285  25.451  1.00  0.00     0.022 A 
BRANCH  55  58
ATOM     58  S   UNL A   1      41.508  22.885  26.500  1.00  0.00     0.127 S 
ATOM     59  O   UNL A   1      42.273  22.532  25.308  1.00  0.00    -0.237 OA
ATOM     60  O   UNL A   1      42.133  22.505  27.768  1.00  0.00    -0.237 OA
ATOM     61  O   UNL A   1      40.076  22.624  26.443  1.00  0.00    -0.744 OA
ENDBRANCH  55  58
ENDBRANCH  27  51
BRANCH  39  62
ATOM     62  C   UNL A   1      44.607  27.524  33.941  1.00  0.00     0.023 A 
ATOM     63  C   UNL A   1      45.815  28.243  33.855  1.00  0.00     0.012 A 
ATOM     64  C   UNL A   1      44.556  26.337  34.697  1.00  0.00     0.148 A 
ATOM     65  C   UNL A   1      46.958  27.783  34.505  1.00  0.00     0.002 A 
ATOM     66  C   UNL A   1      45.689  25.906  35.376  1.00  0.00     0.091 A 
ATOM     67  F   UNL A   1      43.398  25.662  34.749  1.00  0.00    -0.205 F 
ATOM     68  C   UNL A   1      46.892  26.624  35.276  1.00  0.00     0.022 A 
BRANCH  66  69
ATOM     69  S   UNL A   1      45.671  24.477  36.465  1.00  0.00     0.127 S 
ATOM     70  O   UNL A   1      44.380  24.629  37.133  1.00  0.00    -0.237 OA
ATOM     71  O   UNL A   1      45.743  23.364  35.518  1.00  0.00    -0.237 OA
ATOM     72  O   UNL A   1      46.841  24.614  37.323  1.00  0.00    -0.744 OA
ENDBRANCH  66  69
ENDBRANCH  39  62
ENDBRANCH  13  14
ENDBRANCH   6   8
ENDBRANCH   5   6
ENDBRANCH   4   5
ENDBRANCH   3   4
ENDBRANCH   2   3
ENDBRANCH   1   2
BRANCH   1  73
ATOM     73  C   UNL A   1      33.262  28.689  27.318  1.00  0.00     0.261 C 
BRANCH  73  74
ATOM     74  O   UNL A   1      33.172  27.607  26.384  1.00  0.00    -0.460 OA
BRANCH  74  75
ATOM     75  C   UNL A   1      31.971  27.000  26.274  1.00  0.00     0.338 C 
ATOM     76  O   UNL A   1      31.379  26.326  27.095  1.00  0.00    -0.246 OA
BRANCH  75  77
ATOM     77  C   UNL A   1      31.698  27.023  24.831  1.00  0.00     0.069 A 
ATOM     78  C   UNL A   1      30.712  28.000  24.553  1.00  0.00     0.016 A 
ATOM     79  C   UNL A   1      32.259  26.137  23.829  1.00  0.00     0.013 A 
ATOM     80  C   UNL A   1      30.211  28.149  23.281  1.00  0.00     0.002 A 
ATOM     81  C   UNL A   1      31.715  26.379  22.522  1.00  0.00    -0.016 A 
ATOM     82  C   UNL A   1      33.235  25.047  23.906  1.00  0.00     0.052 A 
ATOM     83  C   UNL A   1      30.720  27.345  22.277  1.00  0.00     0.009 A 
ATOM     84  C   UNL A   1      32.121  25.646  21.401  1.00  0.00     0.009 A 
ATOM     85  C   UNL A   1      33.574  24.316  22.738  1.00  0.00     0.019 A 
ATOM     86  C   UNL A   1      33.046  24.626  21.498  1.00  0.00     0.002 A 
BRANCH  82  87
ATOM     87  S   UNL A   1      33.932  24.296  25.412  1.00  0.00     0.086 S 
ATOM     88  O   UNL A   1      35.415  24.413  25.416  1.00  0.00    -0.249 OA
BRANCH  87  89
ATOM     89  C   UNL A   1      33.629  22.509  25.190  1.00  0.00     0.049 A 
ATOM     90  C   UNL A   1      34.623  21.609  24.775  1.00  0.00     0.018 A 
ATOM     91  C   UNL A   1      32.347  21.989  25.504  1.00  0.00    -0.006 A 
ATOM     92  C   UNL A   1      34.343  20.247  24.616  1.00  0.00     0.001 A 
ATOM     93  C   UNL A   1      32.088  20.614  25.345  1.00  0.00     0.007 A 
ATOM     94  C   UNL A   1      33.077  19.749  24.897  1.00  0.00     0.000 A 
BRANCH  91  95
ATOM     95  C   UNL A   1      31.212  22.822  26.037  1.00  0.00     0.192 C 
BRANCH  95  96
ATOM     96  O   UNL A   1      30.056  22.008  26.168  1.00  0.00    -0.392 OA
ATOM     97  H   UNL A   1      29.520  22.325  26.912  1.00  0.00     0.211 HD
ENDBRANCH  95  96
ENDBRANCH  91  95
ENDBRANCH  87  89
ENDBRANCH  82  87
ENDBRANCH  75  77
ENDBRANCH  74  75
ENDBRANCH  73  74
ENDBRANCH   1  73
TORSDOF 21
ENDMDL
MODEL 2
REMARK VINA RESULT:     -10.4      1.466      7.869
REMARK SMILES O=C(OCCOCCOC(=O)c1cccc2cccc([S@](=O)c3ccccc3CO)c12)c1ccc(-c2c3nc(c(-c4cccc(S(=O)(=O)[O-])c4F)c4ccc([nH]4)c(-c4cccc(S(=O)(=O)[O-])c4F)c4nc(c(-c5cccc(S(=O)(=O)[O-])c5F)c5ccc2[nH]5)C=C4)C=C3)cc1
REMARK SMILES IDX 7 1 6 2 5 3 4 4 3 5 2 6 1 7 32 8 33 9 94 10 34 11 93 12
REMARK SMILES IDX 35 13 36 14 37 15 87 16 38 17 92 18 86 19 88 20 39 21 91 22
REMARK SMILES IDX 85 23 84 24 40 26 72 27 52 28 71 29 53 30 56 31 70 32 89 33
REMARK SMILES IDX 54 34 55 35 69 37 90 38 57 39 41 40 42 41 50 42 43 43 45 44
REMARK SMILES IDX 51 45 44 46 46 47 47 48 48 49 49 50 73 51 74 52 82 53 75 54
REMARK SMILES IDX 77 55 83 56 76 57 78 58 79 59 80 60 81 61 58 62 59 63 67 64
REMARK SMILES IDX 60 65 62 66 68 67 61 68 63 69 64 70 65 71 66 72 8 73 9 74
REMARK SMILES IDX 10 75 11 76 12 77 13 78 31 79 14 80 16 81 20 82 15 83 17 84
REMARK SMILES IDX 19 85 18 86 21 87 22 88 23 89 24 90 28 91 25 92 27 93 26 94
REMARK SMILES IDX 29 95 30 96
REMARK H PARENT 88 25 56 36 30 97
REMARK Flexibility Score: inf
ROOT
ATOM      1  C   UNL A   1      31.390  26.889  25.923  1.00  0.00     0.202 C 
ENDROOT
BRANCH   1   2
ATOM      2  O   UNL A   1      30.661  27.812  25.115  1.00  0.00    -0.374 OA
BRANCH   2   3
ATOM      3  C   UNL A   1      31.403  28.936  24.647  1.00  0.00     0.202 C 
BRANCH   3   4
ATOM      4  C   UNL A   1      31.671  29.878  25.827  1.00  0.00     0.261 C 
BRANCH   4   5
ATOM      5  O   UNL A   1      32.998  30.439  25.913  1.00  0.00    -0.460 OA
BRANCH   5   6
ATOM      6  C   UNL A   1      33.263  31.320  26.909  1.00  0.00     0.338 C 
ATOM      7  O   UNL A   1      32.440  32.097  27.366  1.00  0.00    -0.246 OA
BRANCH   6   8
ATOM      8  C   UNL A   1      34.555  30.998  27.562  1.00  0.00     0.060 A 
ATOM      9  C   UNL A   1      34.872  29.690  27.930  1.00  0.00     0.016 A 
ATOM     10  C   UNL A   1      35.478  32.024  27.783  1.00  0.00     0.016 A 
ATOM     11  C   UNL A   1      36.088  29.409  28.531  1.00  0.00     0.010 A 
ATOM     12  C   UNL A   1      36.690  31.742  28.425  1.00  0.00     0.010 A 
ATOM     13  C   UNL A   1      36.986  30.432  28.826  1.00  0.00    -0.014 A 
BRANCH  13  14
ATOM     14  C   UNL A   1      38.157  30.108  29.667  1.00  0.00     0.031 A 
ATOM     15  C   UNL A   1      39.238  29.240  29.098  1.00  0.00     0.074 A 
ATOM     16  C   UNL A   1      38.307  30.675  30.878  1.00  0.00     0.049 A 
ATOM     17  N   UNL A   1      40.303  28.762  29.681  1.00  0.00    -0.248 NA
ATOM     18  C   UNL A   1      39.118  28.885  27.673  1.00  0.00     0.031 C 
ATOM     19  C   UNL A   1      37.376  31.630  31.478  1.00  0.00     0.029 A 
ATOM     20  N   UNL A   1      39.299  30.537  31.814  1.00  0.00    -0.354 N 
ATOM     21  C   UNL A   1      40.934  27.980  28.723  1.00  0.00     0.074 A 
ATOM     22  C   UNL A   1      40.165  28.091  27.504  1.00  0.00     0.031 C 
ATOM     23  C   UNL A   1      37.836  31.986  32.687  1.00  0.00     0.029 A 
ATOM     24  C   UNL A   1      39.051  31.230  32.976  1.00  0.00     0.049 A 
ATOM     25  H   UNL A   1      40.109  29.994  31.669  1.00  0.00     0.167 HD
ATOM     26  C   UNL A   1      42.050  27.228  28.856  1.00  0.00     0.034 A 
ATOM     27  C   UNL A   1      39.701  31.212  34.156  1.00  0.00     0.034 A 
ATOM     28  C   UNL A   1      42.825  27.154  30.063  1.00  0.00     0.049 A 
ATOM     29  C   UNL A   1      40.917  30.339  34.298  1.00  0.00     0.074 A 
ATOM     30  C   UNL A   1      43.954  26.399  30.317  1.00  0.00     0.029 A 
ATOM     31  N   UNL A   1      42.544  27.864  31.221  1.00  0.00    -0.354 N 
ATOM     32  N   UNL A   1      41.507  29.598  33.389  1.00  0.00    -0.248 NA
ATOM     33  C   UNL A   1      41.560  30.295  35.618  1.00  0.00     0.031 C 
ATOM     34  C   UNL A   1      44.352  26.647  31.636  1.00  0.00     0.029 A 
ATOM     35  C   UNL A   1      43.476  27.564  32.198  1.00  0.00     0.049 A 
ATOM     36  H   UNL A   1      41.792  28.489  31.332  1.00  0.00     0.167 HD
ATOM     37  C   UNL A   1      42.589  29.001  34.024  1.00  0.00     0.074 A 
ATOM     38  C   UNL A   1      42.593  29.493  35.388  1.00  0.00     0.031 C 
ATOM     39  C   UNL A   1      43.481  28.106  33.534  1.00  0.00     0.034 A 
BRANCH  26  40
ATOM     40  C   UNL A   1      42.466  26.408  27.669  1.00  0.00     0.023 A 
ATOM     41  C   UNL A   1      43.249  26.985  26.651  1.00  0.00     0.012 A 
ATOM     42  C   UNL A   1      42.064  25.063  27.557  1.00  0.00     0.148 A 
ATOM     43  C   UNL A   1      43.601  26.242  25.524  1.00  0.00     0.002 A 
ATOM     44  C   UNL A   1      42.444  24.320  26.445  1.00  0.00     0.091 A 
ATOM     45  F   UNL A   1      41.284  24.544  28.516  1.00  0.00    -0.205 F 
ATOM     46  C   UNL A   1      43.206  24.910  25.424  1.00  0.00     0.022 A 
BRANCH  44  47
ATOM     47  S   UNL A   1      42.012  22.586  26.272  1.00  0.00     0.127 S 
ATOM     48  O   UNL A   1      40.553  22.646  26.228  1.00  0.00    -0.237 OA
ATOM     49  O   UNL A   1      42.646  22.226  25.004  1.00  0.00    -0.237 OA
ATOM     50  O   UNL A   1      42.588  21.925  27.437  1.00  0.00    -0.744 OA
ENDBRANCH  44  47
ENDBRANCH  26  40
BRANCH  27  51
ATOM     51  C   UNL A   1      39.184  32.035  35.286  1.00  0.00     0.023 A 
ATOM     52  C   UNL A   1      38.291  31.469  36.214  1.00  0.00     0.012 A 
ATOM     53  C   UNL A   1      39.644  33.353  35.493  1.00  0.00     0.148 A 
ATOM     54  C   UNL A   1      37.868  32.200  37.328  1.00  0.00     0.002 A 
ATOM     55  C   UNL A   1      39.272  34.049  36.637  1.00  0.00     0.091 A 
ATOM     56  F   UNL A   1      40.465  33.891  34.579  1.00  0.00    -0.205 F 
ATOM     57  C   UNL A   1      38.374  33.480  37.550  1.00  0.00     0.022 A 
BRANCH  55  58
ATOM     58  S   UNL A   1      40.014  35.627  37.069  1.00  0.00     0.127 S 
ATOM     59  O   UNL A   1      39.641  36.458  35.928  1.00  0.00    -0.237 OA
ATOM     60  O   UNL A   1      39.331  35.957  38.321  1.00  0.00    -0.237 OA
ATOM     61  O   UNL A   1      41.437  35.354  37.224  1.00  0.00    -0.744 OA
ENDBRANCH  55  58
ENDBRANCH  27  51
BRANCH  39  62
ATOM     62  C   UNL A   1      44.541  27.592  34.469  1.00  0.00     0.023 A 
ATOM     63  C   UNL A   1      45.814  28.193  34.463  1.00  0.00     0.012 A 
ATOM     64  C   UNL A   1      44.240  26.607  35.429  1.00  0.00     0.148 A 
ATOM     65  C   UNL A   1      46.778  27.813  35.396  1.00  0.00     0.002 A 
ATOM     66  C   UNL A   1      45.192  26.263  36.381  1.00  0.00     0.091 A 
ATOM     67  F   UNL A   1      43.026  26.038  35.402  1.00  0.00    -0.205 F 
ATOM     68  C   UNL A   1      46.463  26.860  36.362  1.00  0.00     0.022 A 
BRANCH  66  69
ATOM     69  S   UNL A   1      44.843  25.113  37.717  1.00  0.00     0.127 S 
ATOM     70  O   UNL A   1      43.490  25.511  38.105  1.00  0.00    -0.237 OA
ATOM     71  O   UNL A   1      44.929  23.817  37.044  1.00  0.00    -0.237 OA
ATOM     72  O   UNL A   1      45.874  25.341  38.720  1.00  0.00    -0.744 OA
ENDBRANCH  66  69
ENDBRANCH  39  62
ENDBRANCH  13  14
ENDBRANCH   6   8
ENDBRANCH   5   6
ENDBRANCH   4   5
ENDBRANCH   3   4
ENDBRANCH   2   3
ENDBRANCH   1   2
BRANCH   1  73
ATOM     73  C   UNL A   1      30.822  25.483  25.755  1.00  0.00     0.261 C 
BRANCH  73  74
ATOM     74  O   UNL A   1      30.239  25.435  24.449  1.00  0.00    -0.460 OA
BRANCH  74  75
ATOM     75  C   UNL A   1      30.632  24.424  23.645  1.00  0.00     0.338 C 
ATOM     76  O   UNL A   1      30.090  23.353  23.447  1.00  0.00    -0.246 OA
BRANCH  75  77
ATOM     77  C   UNL A   1      32.033  24.742  23.342  1.00  0.00     0.069 A 
ATOM     78  C   UNL A   1      32.086  25.856  22.470  1.00  0.00     0.016 A 
ATOM     79  C   UNL A   1      33.202  23.999  23.770  1.00  0.00     0.013 A 
ATOM     80  C   UNL A   1      33.287  26.291  21.958  1.00  0.00     0.002 A 
ATOM     81  C   UNL A   1      34.418  24.535  23.227  1.00  0.00    -0.016 A 
ATOM     82  C   UNL A   1      33.366  22.812  24.614  1.00  0.00     0.052 A 
ATOM     83  C   UNL A   1      34.440  25.634  22.345  1.00  0.00     0.009 A 
ATOM     84  C   UNL A   1      35.670  23.981  23.517  1.00  0.00     0.009 A 
ATOM     85  C   UNL A   1      34.660  22.276  24.837  1.00  0.00     0.019 A 
ATOM     86  C   UNL A   1      35.799  22.865  24.319  1.00  0.00     0.002 A 
BRANCH  82  87
ATOM     87  S   UNL A   1      32.053  21.725  25.256  1.00  0.00     0.086 S 
ATOM     88  O   UNL A   1      32.194  21.546  26.726  1.00  0.00    -0.249 OA
BRANCH  87  89
ATOM     89  C   UNL A   1      32.467  20.085  24.566  1.00  0.00     0.049 A 
ATOM     90  C   UNL A   1      32.903  19.011  25.356  1.00  0.00     0.018 A 
ATOM     91  C   UNL A   1      32.289  19.863  23.177  1.00  0.00    -0.006 A 
ATOM     92  C   UNL A   1      33.211  17.771  24.784  1.00  0.00     0.001 A 
ATOM     93  C   UNL A   1      32.598  18.607  22.621  1.00  0.00     0.007 A 
ATOM     94  C   UNL A   1      33.062  17.569  23.417  1.00  0.00     0.000 A 
BRANCH  91  95
ATOM     95  C   UNL A   1      31.752  20.898  22.225  1.00  0.00     0.192 C 
BRANCH  95  96
ATOM     96  O   UNL A   1      31.768  20.373  20.905  1.00  0.00    -0.392 OA
ATOM     97  H   UNL A   1      31.727  19.405  20.942  1.00  0.00     0.211 HD
ENDBRANCH  95  96
ENDBRANCH  91  95
ENDBRANCH  87  89
ENDBRANCH  82  87
ENDBRANCH  75  77
ENDBRANCH  74  75
ENDBRANCH  73  74
ENDBRANCH   1  73
TORSDOF 21
ENDMDL
MODEL 3
REMARK VINA RESULT:     -10.3      1.888      3.280
REMARK SMILES O=C(OCCOCCOC(=O)c1cccc2cccc([S@](=O)c3ccccc3CO)c12)c1ccc(-c2c3nc(c(-c4cccc(S(=O)(=O)[O-])c4F)c4ccc([nH]4)c(-c4cccc(S(=O)(=O)[O-])c4F)c4nc(c(-c5cccc(S(=O)(=O)[O-])c5F)c5ccc2[nH]5)C=C4)C=C3)cc1
REMARK SMILES IDX 7 1 6 2 5 3 4 4 3 5 2 6 1 7 32 8 33 9 94 10 34 11 93 12
REMARK SMILES IDX 35 13 36 14 37 15 87 16 38 17 92 18 86 19 88 20 39 21 91 22
REMARK SMILES IDX 85 23 84 24 40 26 72 27 52 28 71 29 53 30 56 31 70 32 89 33
REMARK SMILES IDX 54 34 55 35 69 37 90 38 57 39 41 40 42 41 50 42 43 43 45 44
REMARK SMILES IDX 51 45 44 46 46 47 47 48 48 49 49 50 73 51 74 52 82 53 75 54
REMARK SMILES IDX 77 55 83 56 76 57 78 58 79 59 80 60 81 61 58 62 59 63 67 64
REMARK SMILES IDX 60 65 62 66 68 67 61 68 63 69 64 70 65 71 66 72 8 73 9 74
REMARK SMILES IDX 10 75 11 76 12 77 13 78 31 79 14 80 16 81 20 82 15 83 17 84
REMARK SMILES IDX 19 85 18 86 21 87 22 88 23 89 24 90 28 91 25 92 27 93 26 94
REMARK SMILES IDX 29 95 30 96
REMARK H PARENT 88 25 56 36 30 97
REMARK Flexibility Score: inf
ROOT
ATOM      1  C   UNL A   1      31.709  27.887  27.360  1.00  0.00     0.202 C 
ENDROOT
BRANCH   1   2
ATOM      2  O   UNL A   1      31.453  29.283  27.221  1.00  0.00    -0.374 OA
BRANCH   2   3
ATOM      3  C   UNL A   1      32.609  30.111  27.116  1.00  0.00     0.202 C 
BRANCH   3   4
ATOM      4  C   UNL A   1      32.161  31.558  26.878  1.00  0.00     0.261 C 
BRANCH   4   5
ATOM      5  O   UNL A   1      32.444  32.501  27.934  1.00  0.00    -0.460 OA
BRANCH   5   6
ATOM      6  C   UNL A   1      33.543  33.286  27.820  1.00  0.00     0.338 C 
ATOM      7  O   UNL A   1      33.503  34.485  27.593  1.00  0.00    -0.246 OA
BRANCH   6   8
ATOM      8  C   UNL A   1      34.747  32.572  28.310  1.00  0.00     0.060 A 
ATOM      9  C   UNL A   1      34.667  31.264  28.788  1.00  0.00     0.016 A 
ATOM     10  C   UNL A   1      35.986  33.218  28.263  1.00  0.00     0.016 A 
ATOM     11  C   UNL A   1      35.805  30.611  29.233  1.00  0.00     0.010 A 
ATOM     12  C   UNL A   1      37.128  32.569  28.749  1.00  0.00     0.010 A 
ATOM     13  C   UNL A   1      37.032  31.268  29.262  1.00  0.00    -0.014 A 
BRANCH  13  14
ATOM     14  C   UNL A   1      38.159  30.607  29.955  1.00  0.00     0.031 A 
ATOM     15  C   UNL A   1      38.392  30.908  31.404  1.00  0.00     0.074 A 
ATOM     16  C   UNL A   1      38.889  29.667  29.328  1.00  0.00     0.049 A 
ATOM     17  N   UNL A   1      39.364  30.512  32.181  1.00  0.00    -0.248 NA
ATOM     18  C   UNL A   1      37.381  31.742  32.076  1.00  0.00     0.031 C 
ATOM     19  C   UNL A   1      38.669  29.209  27.956  1.00  0.00     0.029 A 
ATOM     20  N   UNL A   1      39.955  28.923  29.766  1.00  0.00    -0.354 N 
ATOM     21  C   UNL A   1      39.131  31.118  33.408  1.00  0.00     0.074 A 
ATOM     22  C   UNL A   1      37.897  31.864  33.291  1.00  0.00     0.031 C 
ATOM     23  C   UNL A   1      39.579  28.269  27.660  1.00  0.00     0.029 A 
ATOM     24  C   UNL A   1      40.488  28.113  28.791  1.00  0.00     0.049 A 
ATOM     25  H   UNL A   1      40.304  28.967  30.685  1.00  0.00     0.167 HD
ATOM     26  C   UNL A   1      39.888  31.065  34.527  1.00  0.00     0.034 A 
ATOM     27  C   UNL A   1      41.614  27.372  28.795  1.00  0.00     0.034 A 
ATOM     28  C   UNL A   1      41.093  30.293  34.641  1.00  0.00     0.049 A 
ATOM     29  C   UNL A   1      42.464  27.357  30.035  1.00  0.00     0.074 A 
ATOM     30  C   UNL A   1      41.954  30.192  35.717  1.00  0.00     0.029 A 
ATOM     31  N   UNL A   1      41.607  29.487  33.636  1.00  0.00    -0.354 N 
ATOM     32  N   UNL A   1      42.241  27.936  31.191  1.00  0.00    -0.248 NA
ATOM     33  C   UNL A   1      43.717  26.591  29.979  1.00  0.00     0.031 C 
ATOM     34  C   UNL A   1      42.997  29.331  35.357  1.00  0.00     0.029 A 
ATOM     35  C   UNL A   1      42.777  28.887  34.062  1.00  0.00     0.049 A 
ATOM     36  H   UNL A   1      41.200  29.362  32.749  1.00  0.00     0.167 HD
ATOM     37  C   UNL A   1      43.321  27.605  32.001  1.00  0.00     0.074 A 
ATOM     38  C   UNL A   1      44.183  26.746  31.212  1.00  0.00     0.031 C 
ATOM     39  C   UNL A   1      43.591  27.999  33.270  1.00  0.00     0.034 A 
BRANCH  26  40
ATOM     40  C   UNL A   1      39.438  31.895  35.695  1.00  0.00     0.023 A 
ATOM     41  C   UNL A   1      39.903  33.215  35.843  1.00  0.00     0.012 A 
ATOM     42  C   UNL A   1      38.560  31.356  36.656  1.00  0.00     0.148 A 
ATOM     43  C   UNL A   1      39.524  33.978  36.949  1.00  0.00     0.002 A 
ATOM     44  C   UNL A   1      38.163  32.133  37.738  1.00  0.00     0.091 A 
ATOM     45  F   UNL A   1      38.161  30.084  36.519  1.00  0.00    -0.205 F 
ATOM     46  C   UNL A   1      38.650  33.440  37.891  1.00  0.00     0.022 A 
BRANCH  44  47
ATOM     47  S   UNL A   1      37.003  31.523  38.965  1.00  0.00     0.127 S 
ATOM     48  O   UNL A   1      36.723  30.178  38.467  1.00  0.00    -0.237 OA
ATOM     49  O   UNL A   1      37.792  31.564  40.196  1.00  0.00    -0.237 OA
ATOM     50  O   UNL A   1      35.885  32.457  38.939  1.00  0.00    -0.744 OA
ENDBRANCH  44  47
ENDBRANCH  26  40
BRANCH  27  51
ATOM     51  C   UNL A   1      41.992  26.613  27.569  1.00  0.00     0.023 A 
ATOM     52  C   UNL A   1      42.728  27.247  26.551  1.00  0.00     0.012 A 
ATOM     53  C   UNL A   1      41.700  25.238  27.448  1.00  0.00     0.148 A 
ATOM     54  C   UNL A   1      43.166  26.526  25.437  1.00  0.00     0.002 A 
ATOM     55  C   UNL A   1      42.196  24.513  26.371  1.00  0.00     0.091 A 
ATOM     56  F   UNL A   1      40.965  24.657  28.408  1.00  0.00    -0.205 F 
ATOM     57  C   UNL A   1      42.918  25.156  25.358  1.00  0.00     0.022 A 
BRANCH  55  58
ATOM     58  S   UNL A   1      42.059  22.722  26.292  1.00  0.00     0.127 S 
ATOM     59  O   UNL A   1      42.654  22.319  27.562  1.00  0.00    -0.237 OA
ATOM     60  O   UNL A   1      40.612  22.527  26.199  1.00  0.00    -0.237 OA
ATOM     61  O   UNL A   1      42.788  22.333  25.091  1.00  0.00    -0.744 OA
ENDBRANCH  55  58
ENDBRANCH  27  51
BRANCH  39  62
ATOM     62  C   UNL A   1      44.869  27.511  33.895  1.00  0.00     0.023 A 
ATOM     63  C   UNL A   1      46.008  28.338  33.868  1.00  0.00     0.012 A 
ATOM     64  C   UNL A   1      44.905  26.300  34.612  1.00  0.00     0.148 A 
ATOM     65  C   UNL A   1      47.171  27.961  34.537  1.00  0.00     0.002 A 
ATOM     66  C   UNL A   1      46.054  25.949  35.310  1.00  0.00     0.091 A 
ATOM     67  F   UNL A   1      43.812  25.522  34.608  1.00  0.00    -0.205 F 
ATOM     68  C   UNL A   1      47.189  26.776  35.269  1.00  0.00     0.022 A 
BRANCH  66  69
ATOM     69  S   UNL A   1      46.137  24.488  36.353  1.00  0.00     0.127 S 
ATOM     70  O   UNL A   1      45.142  24.799  37.379  1.00  0.00    -0.237 OA
ATOM     71  O   UNL A   1      45.749  23.423  35.428  1.00  0.00    -0.237 OA
ATOM     72  O   UNL A   1      47.514  24.409  36.820  1.00  0.00    -0.744 OA
ENDBRANCH  66  69
ENDBRANCH  39  62
ENDBRANCH  13  14
ENDBRANCH   6   8
ENDBRANCH   5   6
ENDBRANCH   4   5
ENDBRANCH   3   4
ENDBRANCH   2   3
ENDBRANCH   1   2
BRANCH   1  73
ATOM     73  C   UNL A   1      31.023  27.113  26.238  1.00  0.00     0.261 C 
BRANCH  73  74
ATOM     74  O   UNL A   1      31.044  25.735  26.626  1.00  0.00    -0.460 OA
BRANCH  74  75
ATOM     75  C   UNL A   1      30.996  24.825  25.631  1.00  0.00     0.338 C 
ATOM     76  O   UNL A   1      30.079  24.569  24.874  1.00  0.00    -0.246 OA
BRANCH  75  77
ATOM     77  C   UNL A   1      32.156  23.961  25.891  1.00  0.00     0.069 A 
ATOM     78  C   UNL A   1      32.191  23.619  27.264  1.00  0.00     0.016 A 
ATOM     79  C   UNL A   1      33.179  23.576  24.939  1.00  0.00     0.013 A 
ATOM     80  C   UNL A   1      33.240  22.894  27.780  1.00  0.00     0.002 A 
ATOM     81  C   UNL A   1      34.218  22.790  25.543  1.00  0.00    -0.016 A 
ATOM     82  C   UNL A   1      33.360  23.856  23.512  1.00  0.00     0.052 A 
ATOM     83  C   UNL A   1      34.238  22.480  26.917  1.00  0.00     0.009 A 
ATOM     84  C   UNL A   1      35.303  22.301  24.808  1.00  0.00     0.009 A 
ATOM     85  C   UNL A   1      34.503  23.363  22.833  1.00  0.00     0.019 A 
ATOM     86  C   UNL A   1      35.449  22.574  23.462  1.00  0.00     0.002 A 
BRANCH  82  87
ATOM     87  S   UNL A   1      32.398  25.013  22.485  1.00  0.00     0.086 S 
ATOM     88  O   UNL A   1      32.927  25.043  21.095  1.00  0.00    -0.249 OA
BRANCH  87  89
ATOM     89  C   UNL A   1      32.827  26.656  23.159  1.00  0.00     0.049 A 
ATOM     90  C   UNL A   1      34.071  26.944  23.740  1.00  0.00     0.018 A 
ATOM     91  C   UNL A   1      31.884  27.709  23.043  1.00  0.00    -0.006 A 
ATOM     92  C   UNL A   1      34.355  28.218  24.246  1.00  0.00     0.001 A 
ATOM     93  C   UNL A   1      32.190  28.986  23.552  1.00  0.00     0.007 A 
ATOM     94  C   UNL A   1      33.416  29.238  24.156  1.00  0.00     0.000 A 
BRANCH  91  95
ATOM     95  C   UNL A   1      30.544  27.565  22.372  1.00  0.00     0.192 C 
BRANCH  95  96
ATOM     96  O   UNL A   1      30.267  28.741  21.624  1.00  0.00    -0.392 OA
ATOM     97  H   UNL A   1      29.361  29.033  21.805  1.00  0.00     0.211 HD
ENDBRANCH  95  96
ENDBRANCH  91  95
ENDBRANCH  87  89
ENDBRANCH  82  87
ENDBRANCH  75  77
ENDBRANCH  74  75
ENDBRANCH  73  74
ENDBRANCH   1  73
TORSDOF 21
ENDMDL
