MODEL 1
REMARK VINA RESULT:     -10.3      0.000      0.000
REMARK SMILES CSc1ccc(Cl)c(C(=O)N[C@@H](CO)C(=O)OCCOCCOC(=O)c2ccc(-c3c4nc(c(-c5cccc(S(=O)(=O)[O-])c5F)c5ccc([nH]5)c(-c5cccc(S(=O)(=O)[O-])c5F)c5nc(c(-c6cccc(S(=O)(=O)[O-])c6F)c6ccc3[nH]6)C=C5)C=C4)cc2)c1
REMARK SMILES IDX 20 1 19 2 18 3 17 4 15 5 16 6 12 7 11 8 9 9 10 10 8 12 3 13
REMARK SMILES IDX 4 14 89 15 5 16 6 17 7 18 2 19 1 20 13 21 14 22 21 24 22 25
REMARK SMILES IDX 23 26 24 27 25 28 26 29 27 30 88 31 28 32 87 33 29 34 30 35
REMARK SMILES IDX 31 36 81 37 32 38 86 39 80 40 82 41 33 42 85 43 79 44 78 45
REMARK SMILES IDX 34 47 66 48 46 49 65 50 47 51 50 52 64 53 83 54 48 55 49 56
REMARK SMILES IDX 63 58 84 59 51 60 35 61 36 62 44 63 37 64 39 65 45 66 38 67
REMARK SMILES IDX 40 68 41 69 42 70 43 71 67 72 68 73 76 74 69 75 71 76 77 77
REMARK SMILES IDX 70 78 72 79 73 80 74 81 75 82 52 83 53 84 61 85 54 86 56 87
REMARK SMILES IDX 62 88 55 89 57 90 58 91 59 92 60 93
REMARK H PARENT 11 11 14 23 82 46 50 57
REMARK Flexibility Score: inf
ROOT
ATOM      1  O   UNL A   1      32.889  30.668  25.951  1.00  0.00    -0.374 OA
ENDROOT
BRANCH   1   2
ATOM      2  C   UNL A   1      33.290  29.410  26.487  1.00  0.00     0.202 C 
BRANCH   2   3
ATOM      3  C   UNL A   1      32.239  28.611  27.267  1.00  0.00     0.261 C 
BRANCH   3   4
ATOM      4  O   UNL A   1      32.421  27.192  27.141  1.00  0.00    -0.462 OA
BRANCH   4   5
ATOM      5  C   UNL A   1      31.473  26.573  26.388  1.00  0.00     0.331 C 
ATOM      6  O   UNL A   1      30.333  26.320  26.769  1.00  0.00    -0.250 OA
BRANCH   5   7
ATOM      7  C   UNL A   1      31.908  26.337  24.935  1.00  0.00     0.218 C 
BRANCH   7   8
ATOM      8  N   UNL A   1      32.349  27.457  24.093  1.00  0.00    -0.337 N 
ATOM      9  C   UNL A   1      31.729  28.166  23.088  1.00  0.00     0.253 C 
ATOM     10  O   UNL A   1      32.484  28.745  22.302  1.00  0.00    -0.269 OA
ATOM     11  H   UNL A   1      33.267  27.760  24.284  1.00  0.00     0.164 HD
BRANCH   9  12
ATOM     12  C   UNL A   1      30.254  28.447  22.967  1.00  0.00     0.059 A 
ATOM     13  C   UNL A   1      28.648  30.182  22.200  1.00  0.00     0.008 A 
ATOM     14  C   UNL A   1      27.608  29.465  22.774  1.00  0.00     0.016 A 
ATOM     15  C   UNL A   1      29.959  29.695  22.353  1.00  0.00     0.030 A 
ATOM     16  C   UNL A   1      27.857  28.210  23.320  1.00  0.00     0.022 A 
ATOM     17  C   UNL A   1      29.152  27.665  23.333  1.00  0.00     0.053 A 
ATOM     18  Cl  UNL A   1      29.162  25.956  23.564  1.00  0.00    -0.083 Cl
BRANCH  13  19
ATOM     19  S   UNL A   1      28.379  31.684  21.268  1.00  0.00    -0.130 SA
ATOM     20  C   UNL A   1      28.580  32.968  22.543  1.00  0.00     0.091 C 
ENDBRANCH  13  19
ENDBRANCH   9  12
ENDBRANCH   7   8
BRANCH   7  21
ATOM     21  C   UNL A   1      33.030  25.286  24.973  1.00  0.00     0.193 C 
BRANCH  21  22
ATOM     22  O   UNL A   1      34.249  25.862  25.447  1.00  0.00    -0.394 OA
ATOM     23  H   UNL A   1      34.433  26.678  24.956  1.00  0.00     0.210 HD
ENDBRANCH  21  22
ENDBRANCH   7  21
ENDBRANCH   5   7
ENDBRANCH   4   5
ENDBRANCH   3   4
ENDBRANCH   2   3
ENDBRANCH   1   2
BRANCH   1  24
ATOM     24  C   UNL A   1      31.743  31.303  26.522  1.00  0.00     0.202 C 
BRANCH  24  25
ATOM     25  C   UNL A   1      31.793  32.819  26.762  1.00  0.00     0.261 C 
BRANCH  25  26
ATOM     26  O   UNL A   1      32.253  33.179  28.080  1.00  0.00    -0.460 OA
BRANCH  26  27
ATOM     27  C   UNL A   1      33.348  33.982  28.096  1.00  0.00     0.338 C 
ATOM     28  O   UNL A   1      33.366  35.200  28.046  1.00  0.00    -0.246 OA
BRANCH  27  29
ATOM     29  C   UNL A   1      34.564  33.196  28.375  1.00  0.00     0.060 A 
ATOM     30  C   UNL A   1      34.407  31.953  29.003  1.00  0.00     0.016 A 
ATOM     31  C   UNL A   1      35.836  33.723  28.152  1.00  0.00     0.016 A 
ATOM     32  C   UNL A   1      35.525  31.250  29.448  1.00  0.00     0.010 A 
ATOM     33  C   UNL A   1      36.957  33.020  28.609  1.00  0.00     0.010 A 
ATOM     34  C   UNL A   1      36.805  31.798  29.291  1.00  0.00    -0.014 A 
BRANCH  34  35
ATOM     35  C   UNL A   1      37.962  31.153  29.960  1.00  0.00     0.031 A 
ATOM     36  C   UNL A   1      38.321  31.559  31.364  1.00  0.00     0.074 A 
ATOM     37  C   UNL A   1      38.675  30.203  29.329  1.00  0.00     0.049 A 
ATOM     38  N   UNL A   1      39.276  31.109  32.137  1.00  0.00    -0.248 NA
ATOM     39  C   UNL A   1      37.496  32.611  31.980  1.00  0.00     0.031 C 
ATOM     40  C   UNL A   1      38.430  29.728  27.969  1.00  0.00     0.029 A 
ATOM     41  N   UNL A   1      39.766  29.482  29.747  1.00  0.00    -0.354 N 
ATOM     42  C   UNL A   1      39.183  31.835  33.319  1.00  0.00     0.074 A 
ATOM     43  C   UNL A   1      38.086  32.765  33.157  1.00  0.00     0.031 C 
ATOM     44  C   UNL A   1      39.360  28.810  27.654  1.00  0.00     0.029 A 
ATOM     45  C   UNL A   1      40.273  28.643  28.783  1.00  0.00     0.049 A 
ATOM     46  H   UNL A   1      40.149  29.559  30.650  1.00  0.00     0.167 HD
ATOM     47  C   UNL A   1      39.928  31.724  34.444  1.00  0.00     0.034 A 
ATOM     48  C   UNL A   1      41.355  27.840  28.807  1.00  0.00     0.034 A 
ATOM     49  C   UNL A   1      41.004  30.785  34.612  1.00  0.00     0.049 A 
ATOM     50  C   UNL A   1      42.171  27.739  30.069  1.00  0.00     0.074 A 
ATOM     51  C   UNL A   1      41.788  30.566  35.731  1.00  0.00     0.029 A 
ATOM     52  N   UNL A   1      41.454  29.913  33.633  1.00  0.00    -0.354 N 
ATOM     53  N   UNL A   1      41.987  28.336  31.223  1.00  0.00    -0.248 NA
ATOM     54  C   UNL A   1      43.323  26.825  30.046  1.00  0.00     0.031 C 
ATOM     55  C   UNL A   1      42.724  29.572  35.423  1.00  0.00     0.029 A 
ATOM     56  C   UNL A   1      42.509  29.160  34.118  1.00  0.00     0.049 A 
ATOM     57  H   UNL A   1      41.079  29.841  32.726  1.00  0.00     0.167 HD
ATOM     58  C   UNL A   1      42.971  27.842  32.072  1.00  0.00     0.074 A 
ATOM     59  C   UNL A   1      43.741  26.883  31.304  1.00  0.00     0.031 C 
ATOM     60  C   UNL A   1      43.226  28.163  33.364  1.00  0.00     0.034 A 
BRANCH  47  61
ATOM     61  C   UNL A   1      39.579  32.620  35.603  1.00  0.00     0.023 A 
ATOM     62  C   UNL A   1      40.043  33.950  35.614  1.00  0.00     0.012 A 
ATOM     63  C   UNL A   1      38.747  32.168  36.647  1.00  0.00     0.148 A 
ATOM     64  C   UNL A   1      39.708  34.811  36.659  1.00  0.00     0.002 A 
ATOM     65  C   UNL A   1      38.387  33.043  37.665  1.00  0.00     0.091 A 
ATOM     66  F   UNL A   1      38.336  30.892  36.630  1.00  0.00    -0.205 F 
ATOM     67  C   UNL A   1      38.873  34.361  37.677  1.00  0.00     0.022 A 
BRANCH  65  68
ATOM     68  S   UNL A   1      37.257  32.578  38.982  1.00  0.00     0.127 S 
ATOM     69  O   UNL A   1      37.724  31.232  39.311  1.00  0.00    -0.237 OA
ATOM     70  O   UNL A   1      37.539  33.587  40.004  1.00  0.00    -0.237 OA
ATOM     71  O   UNL A   1      35.921  32.655  38.408  1.00  0.00    -0.744 OA
ENDBRANCH  65  68
ENDBRANCH  47  61
BRANCH  48  72
ATOM     72  C   UNL A   1      41.699  27.023  27.610  1.00  0.00     0.023 A 
ATOM     73  C   UNL A   1      42.275  27.645  26.485  1.00  0.00     0.012 A 
ATOM     74  C   UNL A   1      41.480  25.632  27.587  1.00  0.00     0.148 A 
ATOM     75  C   UNL A   1      42.601  26.902  25.350  1.00  0.00     0.002 A 
ATOM     76  C   UNL A   1      41.855  24.889  26.473  1.00  0.00     0.091 A 
ATOM     77  F   UNL A   1      40.912  25.060  28.659  1.00  0.00    -0.205 F 
ATOM     78  C   UNL A   1      42.401  25.525  25.348  1.00  0.00     0.022 A 
BRANCH  76  79
ATOM     79  S   UNL A   1      41.749  23.096  26.436  1.00  0.00     0.127 S 
ATOM     80  O   UNL A   1      42.473  22.728  27.650  1.00  0.00    -0.237 OA
ATOM     81  O   UNL A   1      40.303  22.876  26.491  1.00  0.00    -0.237 OA
ATOM     82  O   UNL A   1      42.368  22.696  25.180  1.00  0.00    -0.744 OA
ENDBRANCH  76  79
ENDBRANCH  48  72
BRANCH  60  83
ATOM     83  C   UNL A   1      44.359  27.450  34.056  1.00  0.00     0.023 A 
ATOM     84  C   UNL A   1      45.668  27.962  33.960  1.00  0.00     0.012 A 
ATOM     85  C   UNL A   1      44.115  26.321  34.862  1.00  0.00     0.148 A 
ATOM     86  C   UNL A   1      46.721  27.344  34.634  1.00  0.00     0.002 A 
ATOM     87  C   UNL A   1      45.162  25.737  35.566  1.00  0.00     0.091 A 
ATOM     88  F   UNL A   1      42.866  25.836  34.924  1.00  0.00    -0.205 F 
ATOM     89  C   UNL A   1      46.467  26.240  35.445  1.00  0.00     0.022 A 
BRANCH  87  90
ATOM     90  S   UNL A   1      44.903  24.372  36.706  1.00  0.00     0.127 S 
ATOM     91  O   UNL A   1      44.380  23.336  35.817  1.00  0.00    -0.237 OA
ATOM     92  O   UNL A   1      46.255  24.120  37.206  1.00  0.00    -0.237 OA
ATOM     93  O   UNL A   1      43.973  24.865  37.712  1.00  0.00    -0.744 OA
ENDBRANCH  87  90
ENDBRANCH  60  83
ENDBRANCH  34  35
ENDBRANCH  27  29
ENDBRANCH  26  27
ENDBRANCH  25  26
ENDBRANCH  24  25
ENDBRANCH   1  24
TORSDOF 22
ENDMDL
MODEL 2
REMARK VINA RESULT:     -10.3      5.244     10.483
REMARK SMILES CSc1ccc(Cl)c(C(=O)N[C@@H](CO)C(=O)OCCOCCOC(=O)c2ccc(-c3c4nc(c(-c5cccc(S(=O)(=O)[O-])c5F)c5ccc([nH]5)c(-c5cccc(S(=O)(=O)[O-])c5F)c5nc(c(-c6cccc(S(=O)(=O)[O-])c6F)c6ccc3[nH]6)C=C5)C=C4)cc2)c1
REMARK SMILES IDX 20 1 19 2 18 3 17 4 15 5 16 6 12 7 11 8 9 9 10 10 8 12 3 13
REMARK SMILES IDX 4 14 89 15 5 16 6 17 7 18 2 19 1 20 13 21 14 22 21 24 22 25
REMARK SMILES IDX 23 26 24 27 25 28 26 29 27 30 88 31 28 32 87 33 29 34 30 35
REMARK SMILES IDX 31 36 81 37 32 38 86 39 80 40 82 41 33 42 85 43 79 44 78 45
REMARK SMILES IDX 34 47 66 48 46 49 65 50 47 51 50 52 64 53 83 54 48 55 49 56
REMARK SMILES IDX 63 58 84 59 51 60 35 61 36 62 44 63 37 64 39 65 45 66 38 67
REMARK SMILES IDX 40 68 41 69 42 70 43 71 67 72 68 73 76 74 69 75 71 76 77 77
REMARK SMILES IDX 70 78 72 79 73 80 74 81 75 82 52 83 53 84 61 85 54 86 56 87
REMARK SMILES IDX 62 88 55 89 57 90 58 91 59 92 60 93
REMARK H PARENT 11 11 14 23 82 46 50 57
REMARK Flexibility Score: inf
ROOT
ATOM      1  O   UNL A   1      36.522  21.495  25.638  1.00  0.00    -0.374 OA
ENDROOT
BRANCH   1   2
ATOM      2  C   UNL A   1      35.125  21.227  25.735  1.00  0.00     0.202 C 
BRANCH   2   3
ATOM      3  C   UNL A   1      34.239  21.685  24.570  1.00  0.00     0.261 C 
BRANCH   3   4
ATOM      4  O   UNL A   1      33.990  23.100  24.593  1.00  0.00    -0.462 OA
BRANCH   4   5
ATOM      5  C   UNL A   1      34.351  23.748  23.453  1.00  0.00     0.331 C 
ATOM      6  O   UNL A   1      35.192  23.341  22.655  1.00  0.00    -0.250 OA
BRANCH   5   7
ATOM      7  C   UNL A   1      33.498  24.991  23.162  1.00  0.00     0.218 C 
BRANCH   7   8
ATOM      8  N   UNL A   1      34.105  26.198  22.587  1.00  0.00    -0.337 N 
ATOM      9  C   UNL A   1      33.643  27.486  22.427  1.00  0.00     0.253 C 
ATOM     10  O   UNL A   1      34.203  28.147  21.548  1.00  0.00    -0.269 OA
ATOM     11  H   UNL A   1      35.021  26.061  22.250  1.00  0.00     0.164 HD
BRANCH   9  12
ATOM     12  C   UNL A   1      32.669  28.207  23.322  1.00  0.00     0.059 A 
ATOM     13  C   UNL A   1      30.441  29.310  23.304  1.00  0.00     0.008 A 
ATOM     14  C   UNL A   1      30.678  29.796  24.582  1.00  0.00     0.016 A 
ATOM     15  C   UNL A   1      31.459  28.574  22.671  1.00  0.00     0.030 A 
ATOM     16  C   UNL A   1      31.821  29.398  25.268  1.00  0.00     0.022 A 
ATOM     17  C   UNL A   1      32.762  28.537  24.679  1.00  0.00     0.053 A 
ATOM     18  Cl  UNL A   1      33.793  27.776  25.832  1.00  0.00    -0.083 Cl
BRANCH  13  19
ATOM     19  S   UNL A   1      28.894  29.574  22.448  1.00  0.00    -0.130 SA
ATOM     20  C   UNL A   1      28.796  31.391  22.384  1.00  0.00     0.091 C 
ENDBRANCH  13  19
ENDBRANCH   9  12
ENDBRANCH   7   8
BRANCH   7  21
ATOM     21  C   UNL A   1      32.353  24.537  22.242  1.00  0.00     0.193 C 
BRANCH  21  22
ATOM     22  O   UNL A   1      31.581  23.507  22.862  1.00  0.00    -0.394 OA
ATOM     23  H   UNL A   1      31.321  23.790  23.753  1.00  0.00     0.210 HD
ENDBRANCH  21  22
ENDBRANCH   7  21
ENDBRANCH   5   7
ENDBRANCH   4   5
ENDBRANCH   3   4
ENDBRANCH   2   3
ENDBRANCH   1   2
BRANCH   1  24
ATOM     24  C   UNL A   1      37.275  20.773  24.660  1.00  0.00     0.202 C 
BRANCH  24  25
ATOM     25  C   UNL A   1      38.530  20.018  25.120  1.00  0.00     0.261 C 
BRANCH  25  26
ATOM     26  O   UNL A   1      39.009  20.430  26.415  1.00  0.00    -0.460 OA
BRANCH  26  27
ATOM     27  C   UNL A   1      40.336  20.715  26.462  1.00  0.00     0.338 C 
ATOM     28  O   UNL A   1      41.243  20.078  25.952  1.00  0.00    -0.246 OA
BRANCH  27  29
ATOM     29  C   UNL A   1      40.562  22.039  27.072  1.00  0.00     0.060 A 
ATOM     30  C   UNL A   1      39.904  23.139  26.506  1.00  0.00     0.016 A 
ATOM     31  C   UNL A   1      41.501  22.219  28.088  1.00  0.00     0.016 A 
ATOM     32  C   UNL A   1      40.215  24.430  26.926  1.00  0.00     0.010 A 
ATOM     33  C   UNL A   1      41.818  23.518  28.502  1.00  0.00     0.010 A 
ATOM     34  C   UNL A   1      41.204  24.631  27.898  1.00  0.00    -0.014 A 
BRANCH  34  35
ATOM     35  C   UNL A   1      41.682  26.007  28.178  1.00  0.00     0.031 A 
ATOM     36  C   UNL A   1      43.086  26.392  27.794  1.00  0.00     0.074 A 
ATOM     37  C   UNL A   1      40.869  26.911  28.754  1.00  0.00     0.049 A 
ATOM     38  N   UNL A   1      43.695  27.541  27.930  1.00  0.00    -0.248 NA
ATOM     39  C   UNL A   1      43.914  25.343  27.178  1.00  0.00     0.031 C 
ATOM     40  C   UNL A   1      39.493  26.659  29.176  1.00  0.00     0.029 A 
ATOM     41  N   UNL A   1      41.094  28.220  29.100  1.00  0.00    -0.354 N 
ATOM     42  C   UNL A   1      44.981  27.351  27.437  1.00  0.00     0.074 A 
ATOM     43  C   UNL A   1      45.069  25.971  27.011  1.00  0.00     0.031 C 
ATOM     44  C   UNL A   1      39.002  27.771  29.748  1.00  0.00     0.029 A 
ATOM     45  C   UNL A   1      40.032  28.809  29.745  1.00  0.00     0.049 A 
ATOM     46  H   UNL A   1      41.935  28.692  28.906  1.00  0.00     0.167 HD
ATOM     47  C   UNL A   1      45.990  28.248  27.328  1.00  0.00     0.034 A 
ATOM     48  C   UNL A   1      39.909  30.040  30.280  1.00  0.00     0.034 A 
ATOM     49  C   UNL A   1      45.895  29.625  27.731  1.00  0.00     0.049 A 
ATOM     50  C   UNL A   1      41.049  31.017  30.151  1.00  0.00     0.074 A 
ATOM     51  C   UNL A   1      46.848  30.622  27.619  1.00  0.00     0.029 A 
ATOM     52  N   UNL A   1      44.785  30.200  28.330  1.00  0.00    -0.354 N 
ATOM     53  N   UNL A   1      42.210  30.859  29.561  1.00  0.00    -0.248 NA
ATOM     54  C   UNL A   1      40.848  32.355  30.727  1.00  0.00     0.031 C 
ATOM     55  C   UNL A   1      46.320  31.796  28.166  1.00  0.00     0.029 A 
ATOM     56  C   UNL A   1      45.031  31.534  28.601  1.00  0.00     0.049 A 
ATOM     57  H   UNL A   1      43.946  29.727  28.534  1.00  0.00     0.167 HD
ATOM     58  C   UNL A   1      42.860  32.084  29.661  1.00  0.00     0.074 A 
ATOM     59  C   UNL A   1      41.956  32.981  30.353  1.00  0.00     0.031 C 
ATOM     60  C   UNL A   1      44.099  32.433  29.233  1.00  0.00     0.034 A 
BRANCH  47  61
ATOM     61  C   UNL A   1      47.280  27.775  26.712  1.00  0.00     0.023 A 
ATOM     62  C   UNL A   1      48.298  27.265  27.542  1.00  0.00     0.012 A 
ATOM     63  C   UNL A   1      47.463  27.778  25.315  1.00  0.00     0.148 A 
ATOM     64  C   UNL A   1      49.490  26.791  26.995  1.00  0.00     0.002 A 
ATOM     65  C   UNL A   1      48.638  27.269  24.775  1.00  0.00     0.091 A 
ATOM     66  F   UNL A   1      46.493  28.289  24.544  1.00  0.00    -0.205 F 
ATOM     67  C   UNL A   1      49.656  26.783  25.613  1.00  0.00     0.022 A 
BRANCH  65  68
ATOM     68  S   UNL A   1      48.915  27.149  23.004  1.00  0.00     0.127 S 
ATOM     69  O   UNL A   1      50.374  27.129  22.933  1.00  0.00    -0.237 OA
ATOM     70  O   UNL A   1      48.272  25.877  22.674  1.00  0.00    -0.237 OA
ATOM     71  O   UNL A   1      48.274  28.320  22.420  1.00  0.00    -0.744 OA
ENDBRANCH  65  68
ENDBRANCH  47  61
BRANCH  48  72
ATOM     72  C   UNL A   1      38.635  30.439  30.940  1.00  0.00     0.023 A 
ATOM     73  C   UNL A   1      38.431  30.133  32.299  1.00  0.00     0.012 A 
ATOM     74  C   UNL A   1      37.635  31.138  30.236  1.00  0.00     0.148 A 
ATOM     75  C   UNL A   1      37.243  30.491  32.939  1.00  0.00     0.002 A 
ATOM     76  C   UNL A   1      36.476  31.537  30.892  1.00  0.00     0.091 A 
ATOM     77  F   UNL A   1      37.838  31.402  28.937  1.00  0.00    -0.205 F 
ATOM     78  C   UNL A   1      36.272  31.202  32.239  1.00  0.00     0.022 A 
BRANCH  76  79
ATOM     79  S   UNL A   1      35.231  32.563  30.101  1.00  0.00     0.127 S 
ATOM     80  O   UNL A   1      36.012  33.733  29.709  1.00  0.00    -0.237 OA
ATOM     81  O   UNL A   1      34.797  31.713  28.992  1.00  0.00    -0.237 OA
ATOM     82  O   UNL A   1      34.212  32.789  31.116  1.00  0.00    -0.744 OA
ENDBRANCH  76  79
ENDBRANCH  48  72
BRANCH  60  83
ATOM     83  C   UNL A   1      44.547  33.853  29.460  1.00  0.00     0.023 A 
ATOM     84  C   UNL A   1      45.156  34.207  30.679  1.00  0.00     0.012 A 
ATOM     85  C   UNL A   1      44.437  34.816  28.437  1.00  0.00     0.148 A 
ATOM     86  C   UNL A   1      45.623  35.505  30.889  1.00  0.00     0.002 A 
ATOM     87  C   UNL A   1      44.944  36.096  28.637  1.00  0.00     0.091 A 
ATOM     88  F   UNL A   1      43.834  34.467  27.291  1.00  0.00    -0.205 F 
ATOM     89  C   UNL A   1      45.528  36.444  29.865  1.00  0.00     0.022 A 
BRANCH  87  90
ATOM     90  S   UNL A   1      44.946  37.336  27.337  1.00  0.00     0.127 S 
ATOM     91  O   UNL A   1      45.535  38.485  28.023  1.00  0.00    -0.237 OA
ATOM     92  O   UNL A   1      45.806  36.726  26.322  1.00  0.00    -0.237 OA
ATOM     93  O   UNL A   1      43.556  37.490  26.932  1.00  0.00    -0.744 OA
ENDBRANCH  87  90
ENDBRANCH  60  83
ENDBRANCH  34  35
ENDBRANCH  27  29
ENDBRANCH  26  27
ENDBRANCH  25  26
ENDBRANCH  24  25
ENDBRANCH   1  24
TORSDOF 22
ENDMDL
MODEL 3
REMARK VINA RESULT:     -10.0      5.227     10.271
REMARK SMILES CSc1ccc(Cl)c(C(=O)N[C@@H](CO)C(=O)OCCOCCOC(=O)c2ccc(-c3c4nc(c(-c5cccc(S(=O)(=O)[O-])c5F)c5ccc([nH]5)c(-c5cccc(S(=O)(=O)[O-])c5F)c5nc(c(-c6cccc(S(=O)(=O)[O-])c6F)c6ccc3[nH]6)C=C5)C=C4)cc2)c1
REMARK SMILES IDX 20 1 19 2 18 3 17 4 15 5 16 6 12 7 11 8 9 9 10 10 8 12 3 13
REMARK SMILES IDX 4 14 89 15 5 16 6 17 7 18 2 19 1 20 13 21 14 22 21 24 22 25
REMARK SMILES IDX 23 26 24 27 25 28 26 29 27 30 88 31 28 32 87 33 29 34 30 35
REMARK SMILES IDX 31 36 81 37 32 38 86 39 80 40 82 41 33 42 85 43 79 44 78 45
REMARK SMILES IDX 34 47 66 48 46 49 65 50 47 51 50 52 64 53 83 54 48 55 49 56
REMARK SMILES IDX 63 58 84 59 51 60 35 61 36 62 44 63 37 64 39 65 45 66 38 67
REMARK SMILES IDX 40 68 41 69 42 70 43 71 67 72 68 73 76 74 69 75 71 76 77 77
REMARK SMILES IDX 70 78 72 79 73 80 74 81 75 82 52 83 53 84 61 85 54 86 56 87
REMARK SMILES IDX 62 88 55 89 57 90 58 91 59 92 60 93
REMARK H PARENT 11 11 14 23 82 46 50 57
REMARK Flexibility Score: inf
ROOT
ATOM      1  O   UNL A   1      36.252  20.700  25.502  1.00  0.00    -0.374 OA
ENDROOT
BRANCH   1   2
ATOM      2  C   UNL A   1      35.084  21.027  24.752  1.00  0.00     0.202 C 
BRANCH   2   3
ATOM      3  C   UNL A   1      34.072  21.974  25.406  1.00  0.00     0.261 C 
BRANCH   3   4
ATOM      4  O   UNL A   1      33.053  22.407  24.491  1.00  0.00    -0.462 OA
BRANCH   4   5
ATOM      5  C   UNL A   1      31.791  22.353  24.995  1.00  0.00     0.331 C 
ATOM      6  O   UNL A   1      31.198  21.316  25.284  1.00  0.00    -0.250 OA
BRANCH   5   7
ATOM      7  C   UNL A   1      31.203  23.734  25.317  1.00  0.00     0.218 C 
BRANCH   7   8
ATOM      8  N   UNL A   1      30.249  24.375  24.403  1.00  0.00    -0.337 N 
ATOM      9  C   UNL A   1      30.108  25.674  23.966  1.00  0.00     0.253 C 
ATOM     10  O   UNL A   1      28.985  25.977  23.553  1.00  0.00    -0.269 OA
ATOM     11  H   UNL A   1      29.580  23.756  24.028  1.00  0.00     0.164 HD
BRANCH   9  12
ATOM     12  C   UNL A   1      31.212  26.682  23.779  1.00  0.00     0.059 A 
ATOM     13  C   UNL A   1      31.980  28.912  24.564  1.00  0.00     0.008 A 
ATOM     14  C   UNL A   1      32.942  28.926  23.565  1.00  0.00     0.016 A 
ATOM     15  C   UNL A   1      31.093  27.821  24.622  1.00  0.00     0.030 A 
ATOM     16  C   UNL A   1      33.125  27.799  22.771  1.00  0.00     0.022 A 
ATOM     17  C   UNL A   1      32.330  26.652  22.937  1.00  0.00     0.053 A 
ATOM     18  Cl  UNL A   1      33.032  25.238  22.246  1.00  0.00    -0.083 Cl
BRANCH  13  19
ATOM     19  S   UNL A   1      31.839  30.215  25.780  1.00  0.00    -0.130 SA
ATOM     20  C   UNL A   1      33.375  30.015  26.737  1.00  0.00     0.091 C 
ENDBRANCH  13  19
ENDBRANCH   9  12
ENDBRANCH   7   8
BRANCH   7  21
ATOM     21  C   UNL A   1      30.548  23.624  26.704  1.00  0.00     0.193 C 
BRANCH  21  22
ATOM     22  O   UNL A   1      31.519  23.293  27.699  1.00  0.00    -0.394 OA
ATOM     23  H   UNL A   1      31.997  24.095  27.963  1.00  0.00     0.210 HD
ENDBRANCH  21  22
ENDBRANCH   7  21
ENDBRANCH   5   7
ENDBRANCH   4   5
ENDBRANCH   3   4
ENDBRANCH   2   3
ENDBRANCH   1   2
BRANCH   1  24
ATOM     24  C   UNL A   1      37.505  20.682  24.813  1.00  0.00     0.202 C 
BRANCH  24  25
ATOM     25  C   UNL A   1      38.486  19.539  25.116  1.00  0.00     0.261 C 
BRANCH  25  26
ATOM     26  O   UNL A   1      39.132  19.659  26.398  1.00  0.00    -0.460 OA
BRANCH  26  27
ATOM     27  C   UNL A   1      40.439  20.023  26.339  1.00  0.00     0.338 C 
ATOM     28  O   UNL A   1      41.345  19.421  25.789  1.00  0.00    -0.246 OA
BRANCH  27  29
ATOM     29  C   UNL A   1      40.626  21.380  26.886  1.00  0.00     0.060 A 
ATOM     30  C   UNL A   1      40.123  22.457  26.142  1.00  0.00     0.016 A 
ATOM     31  C   UNL A   1      41.392  21.604  28.030  1.00  0.00     0.016 A 
ATOM     32  C   UNL A   1      40.423  23.765  26.518  1.00  0.00     0.010 A 
ATOM     33  C   UNL A   1      41.699  22.919  28.400  1.00  0.00     0.010 A 
ATOM     34  C   UNL A   1      41.247  24.003  27.625  1.00  0.00    -0.014 A 
BRANCH  34  35
ATOM     35  C   UNL A   1      41.739  25.379  27.886  1.00  0.00     0.031 A 
ATOM     36  C   UNL A   1      43.123  25.764  27.436  1.00  0.00     0.074 A 
ATOM     37  C   UNL A   1      40.954  26.282  28.501  1.00  0.00     0.049 A 
ATOM     38  N   UNL A   1      43.738  26.913  27.545  1.00  0.00    -0.248 NA
ATOM     39  C   UNL A   1      43.920  24.716  26.779  1.00  0.00     0.031 C 
ATOM     40  C   UNL A   1      39.599  26.029  28.987  1.00  0.00     0.029 A 
ATOM     41  N   UNL A   1      41.196  27.590  28.839  1.00  0.00    -0.354 N 
ATOM     42  C   UNL A   1      45.000  26.723  26.991  1.00  0.00     0.074 A 
ATOM     43  C   UNL A   1      45.067  25.344  26.559  1.00  0.00     0.031 C 
ATOM     44  C   UNL A   1      39.137  27.140  29.585  1.00  0.00     0.029 A 
ATOM     45  C   UNL A   1      40.166  28.177  29.535  1.00  0.00     0.049 A 
ATOM     46  H   UNL A   1      42.027  28.062  28.606  1.00  0.00     0.167 HD
ATOM     47  C   UNL A   1      46.003  27.620  26.837  1.00  0.00     0.034 A 
ATOM     48  C   UNL A   1      40.069  29.408  30.078  1.00  0.00     0.034 A 
ATOM     49  C   UNL A   1      45.927  28.996  27.246  1.00  0.00     0.049 A 
ATOM     50  C   UNL A   1      41.202  30.384  29.897  1.00  0.00     0.074 A 
ATOM     51  C   UNL A   1      46.875  29.993  27.092  1.00  0.00     0.029 A 
ATOM     52  N   UNL A   1      44.847  29.570  27.899  1.00  0.00    -0.354 N 
ATOM     53  N   UNL A   1      42.334  30.228  29.253  1.00  0.00    -0.248 NA
ATOM     54  C   UNL A   1      41.029  31.721  30.485  1.00  0.00     0.031 C 
ATOM     55  C   UNL A   1      46.373  31.166  27.666  1.00  0.00     0.029 A 
ATOM     56  C   UNL A   1      45.107  30.904  28.161  1.00  0.00     0.049 A 
ATOM     57  H   UNL A   1      44.018  29.097  28.141  1.00  0.00     0.167 HD
ATOM     58  C   UNL A   1      42.989  31.452  29.324  1.00  0.00     0.074 A 
ATOM     59  C   UNL A   1      42.119  32.348  30.060  1.00  0.00     0.031 C 
ATOM     60  C   UNL A   1      44.205  31.801  28.838  1.00  0.00     0.034 A 
BRANCH  47  61
ATOM     61  C   UNL A   1      47.261  27.148  26.159  1.00  0.00     0.023 A 
ATOM     62  C   UNL A   1      47.458  27.428  24.792  1.00  0.00     0.012 A 
ATOM     63  C   UNL A   1      48.271  26.483  26.882  1.00  0.00     0.148 A 
ATOM     64  C   UNL A   1      48.629  27.030  24.146  1.00  0.00     0.002 A 
ATOM     65  C   UNL A   1      49.452  26.123  26.241  1.00  0.00     0.091 A 
ATOM     66  F   UNL A   1      48.055  26.204  28.175  1.00  0.00    -0.205 F 
ATOM     67  C   UNL A   1      49.628  26.388  24.872  1.00  0.00     0.022 A 
BRANCH  65  68
ATOM     68  S   UNL A   1      50.826  25.357  27.107  1.00  0.00     0.127 S 
ATOM     69  O   UNL A   1      51.251  26.435  27.998  1.00  0.00    -0.237 OA
ATOM     70  O   UNL A   1      50.180  24.229  27.780  1.00  0.00    -0.237 OA
ATOM     71  O   UNL A   1      51.785  24.979  26.078  1.00  0.00    -0.744 OA
ENDBRANCH  65  68
ENDBRANCH  47  61
BRANCH  48  72
ATOM     72  C   UNL A   1      38.828  29.805  30.798  1.00  0.00     0.023 A 
ATOM     73  C   UNL A   1      38.607  29.343  32.110  1.00  0.00     0.012 A 
ATOM     74  C   UNL A   1      37.877  30.655  30.201  1.00  0.00     0.148 A 
ATOM     75  C   UNL A   1      37.450  29.697  32.804  1.00  0.00     0.002 A 
ATOM     76  C   UNL A   1      36.751  31.046  30.917  1.00  0.00     0.091 A 
ATOM     77  F   UNL A   1      38.093  31.068  28.944  1.00  0.00    -0.205 F 
ATOM     78  C   UNL A   1      36.528  30.556  32.212  1.00  0.00     0.022 A 
BRANCH  76  79
ATOM     79  S   UNL A   1      35.577  32.247  30.277  1.00  0.00     0.127 S 
ATOM     80  O   UNL A   1      36.418  33.431  30.117  1.00  0.00    -0.237 OA
ATOM     81  O   UNL A   1      35.152  31.620  29.026  1.00  0.00    -0.237 OA
ATOM     82  O   UNL A   1      34.531  32.343  31.285  1.00  0.00    -0.744 OA
ENDBRANCH  76  79
ENDBRANCH  48  72
BRANCH  60  83
ATOM     83  C   UNL A   1      44.665  33.221  29.047  1.00  0.00     0.023 A 
ATOM     84  C   UNL A   1      44.299  34.217  28.121  1.00  0.00     0.012 A 
ATOM     85  C   UNL A   1      45.391  33.581  30.199  1.00  0.00     0.148 A 
ATOM     86  C   UNL A   1      44.673  35.546  28.324  1.00  0.00     0.002 A 
ATOM     87  C   UNL A   1      45.723  34.914  30.417  1.00  0.00     0.091 A 
ATOM     88  F   UNL A   1      45.750  32.615  31.058  1.00  0.00    -0.205 F 
ATOM     89  C   UNL A   1      45.373  35.896  29.476  1.00  0.00     0.022 A 
BRANCH  87  90
ATOM     90  S   UNL A   1      46.540  35.462  31.920  1.00  0.00     0.127 S 
ATOM     91  O   UNL A   1      46.658  36.900  31.688  1.00  0.00    -0.237 OA
ATOM     92  O   UNL A   1      45.576  35.089  32.956  1.00  0.00    -0.237 OA
ATOM     93  O   UNL A   1      47.798  34.729  31.979  1.00  0.00    -0.744 OA
ENDBRANCH  87  90
ENDBRANCH  60  83
ENDBRANCH  34  35
ENDBRANCH  27  29
ENDBRANCH  26  27
ENDBRANCH  25  26
ENDBRANCH  24  25
ENDBRANCH   1  24
TORSDOF 22
ENDMDL
