MODEL 1
REMARK VINA RESULT:     -11.3      0.000      0.000
REMARK SMILES COc1ccc2c(c1)c(CC(=O)OCCOCCOC(=O)c1ccc(-c3c4nc(c(-c5cccc(S(=O)(=O)[O-])c5F)c5ccc([nH]5)c(-c5cccc(S(=O)(=O)[O-])c5F)c5nc(c(-c6cccc(S(=O)(=O)[O-])c6F)c6ccc3[nH]6)C=C5)C=C4)cc1)c(C(F)(F)F)n2C(=O)c1ccc(Cl)cc1
REMARK SMILES IDX 16 1 15 2 14 3 13 4 11 5 12 6 10 7 9 8 3 9 4 10 8 11 5 12
REMARK SMILES IDX 7 13 6 14 90 15 85 16 2 17 1 18 91 19 92 20 93 21 94 22
REMARK SMILES IDX 99 23 95 24 98 25 96 26 97 27 86 28 87 29 88 30 89 31 17 32
REMARK SMILES IDX 18 33 19 34 20 35 21 36 22 37 23 38 84 39 24 40 83 41 25 42
REMARK SMILES IDX 26 43 27 44 77 45 28 46 82 47 76 48 78 49 29 50 81 51 75 52
REMARK SMILES IDX 74 53 30 55 62 56 42 57 61 58 43 59 46 60 60 61 79 62 44 63
REMARK SMILES IDX 45 64 59 66 80 67 47 68 31 69 32 70 40 71 33 72 35 73 41 74
REMARK SMILES IDX 34 75 36 76 37 77 38 78 39 79 63 80 64 81 72 82 65 83 67 84
REMARK SMILES IDX 73 85 66 86 68 87 69 88 70 89 71 90 48 91 49 92 57 93 50 94
REMARK SMILES IDX 52 95 58 96 51 97 53 98 54 99 55 100 56 101
REMARK H PARENT 78 54 46 65
REMARK Flexibility Score: inf
ROOT
ATOM      1  O   UNL A   1      38.014  21.262  25.764  1.00  0.00    -0.374 OA
ENDROOT
BRANCH   1   2
ATOM      2  C   UNL A   1      37.411  22.114  24.797  1.00  0.00     0.202 C 
BRANCH   2   3
ATOM      3  C   UNL A   1      37.247  23.620  25.077  1.00  0.00     0.261 C 
BRANCH   3   4
ATOM      4  O   UNL A   1      36.090  23.996  25.847  1.00  0.00    -0.463 OA
BRANCH   4   5
ATOM      5  C   UNL A   1      35.036  24.424  25.103  1.00  0.00     0.310 C 
ATOM      6  O   UNL A   1      35.072  24.605  23.887  1.00  0.00    -0.252 OA
BRANCH   5   7
ATOM      7  C   UNL A   1      33.766  24.702  25.875  1.00  0.00     0.161 C 
BRANCH   7   8
ATOM      8  C   UNL A   1      32.845  25.816  25.434  1.00  0.00     0.002 A 
ATOM      9  C   UNL A   1      33.496  29.207  27.089  1.00  0.00     0.119 A 
ATOM     10  C   UNL A   1      32.442  29.870  26.492  1.00  0.00     0.048 A 
ATOM     11  C   UNL A   1      33.664  27.842  26.846  1.00  0.00     0.057 A 
ATOM     12  C   UNL A   1      31.555  29.189  25.651  1.00  0.00     0.031 A 
ATOM     13  C   UNL A   1      32.842  27.152  25.924  1.00  0.00     0.008 A 
ATOM     14  C   UNL A   1      31.770  27.829  25.334  1.00  0.00     0.057 A 
ATOM     15  N   UNL A   1      31.041  26.901  24.566  1.00  0.00    -0.271 N 
ATOM     16  C   UNL A   1      31.749  25.693  24.581  1.00  0.00     0.135 A 
BRANCH   9  17
ATOM     17  O   UNL A   1      34.462  29.771  27.873  1.00  0.00    -0.497 OA
ATOM     18  C   UNL A   1      35.763  29.899  27.314  1.00  0.00     0.278 C 
ENDBRANCH   9  17
BRANCH  15  19
ATOM     19  C   UNL A   1      29.749  27.121  24.005  1.00  0.00     0.262 C 
ATOM     20  O   UNL A   1      28.827  26.407  24.390  1.00  0.00    -0.268 OA
BRANCH  19  21
ATOM     21  C   UNL A   1      29.371  28.239  23.114  1.00  0.00     0.040 A 
ATOM     22  C   UNL A   1      30.311  28.906  22.317  1.00  0.00     0.015 A 
ATOM     23  C   UNL A   1      28.031  28.652  23.123  1.00  0.00     0.015 A 
ATOM     24  C   UNL A   1      29.917  30.043  21.600  1.00  0.00     0.021 A 
ATOM     25  C   UNL A   1      27.645  29.780  22.400  1.00  0.00     0.021 A 
ATOM     26  C   UNL A   1      28.592  30.483  21.657  1.00  0.00     0.041 A 
ATOM     27  Cl  UNL A   1      28.125  31.917  20.827  1.00  0.00    -0.084 Cl
ENDBRANCH  19  21
ENDBRANCH  15  19
BRANCH  16  28
ATOM     28  C   UNL A   1      31.338  24.447  23.860  1.00  0.00     0.432 C 
ATOM     29  F   UNL A   1      30.339  23.829  24.549  1.00  0.00    -0.165 F 
ATOM     30  F   UNL A   1      30.819  24.749  22.642  1.00  0.00    -0.165 F 
ATOM     31  F   UNL A   1      32.292  23.508  23.697  1.00  0.00    -0.165 F 
ENDBRANCH  16  28
ENDBRANCH   7   8
ENDBRANCH   5   7
ENDBRANCH   4   5
ENDBRANCH   3   4
ENDBRANCH   2   3
ENDBRANCH   1   2
BRANCH   1  32
ATOM     32  C   UNL A   1      39.438  21.215  25.815  1.00  0.00     0.202 C 
BRANCH  32  33
ATOM     33  C   UNL A   1      40.189  21.960  26.931  1.00  0.00     0.261 C 
BRANCH  33  34
ATOM     34  O   UNL A   1      40.513  23.297  26.551  1.00  0.00    -0.460 OA
BRANCH  34  35
ATOM     35  C   UNL A   1      41.851  23.556  26.563  1.00  0.00     0.338 C 
ATOM     36  O   UNL A   1      42.734  22.912  26.044  1.00  0.00    -0.246 OA
BRANCH  35  37
ATOM     37  C   UNL A   1      41.942  24.962  26.992  1.00  0.00     0.060 A 
ATOM     38  C   UNL A   1      42.790  25.313  28.043  1.00  0.00     0.016 A 
ATOM     39  C   UNL A   1      40.926  25.821  26.543  1.00  0.00     0.016 A 
ATOM     40  C   UNL A   1      42.569  26.515  28.695  1.00  0.00     0.010 A 
ATOM     41  C   UNL A   1      40.702  27.020  27.210  1.00  0.00     0.010 A 
ATOM     42  C   UNL A   1      41.508  27.352  28.300  1.00  0.00    -0.014 A 
BRANCH  42  43
ATOM     43  C   UNL A   1      41.458  28.675  28.912  1.00  0.00     0.031 A 
ATOM     44  C   UNL A   1      42.597  29.533  28.487  1.00  0.00     0.074 A 
ATOM     45  C   UNL A   1      40.476  29.196  29.673  1.00  0.00     0.049 A 
ATOM     46  N   UNL A   1      43.587  29.948  29.208  1.00  0.00    -0.248 NA
ATOM     47  C   UNL A   1      42.718  29.823  27.051  1.00  0.00     0.031 C 
ATOM     48  C   UNL A   1      39.143  28.661  29.943  1.00  0.00     0.029 A 
ATOM     49  N   UNL A   1      40.450  30.422  30.278  1.00  0.00    -0.354 N 
ATOM     50  C   UNL A   1      44.358  30.727  28.350  1.00  0.00     0.074 A 
ATOM     51  C   UNL A   1      43.873  30.484  27.015  1.00  0.00     0.031 C 
ATOM     52  C   UNL A   1      38.367  29.649  30.450  1.00  0.00     0.029 A 
ATOM     53  C   UNL A   1      39.178  30.839  30.657  1.00  0.00     0.049 A 
ATOM     54  H   UNL A   1      41.259  30.961  30.434  1.00  0.00     0.167 HD
ATOM     55  C   UNL A   1      45.200  31.692  28.802  1.00  0.00     0.034 A 
ATOM     56  C   UNL A   1      38.832  32.096  31.026  1.00  0.00     0.034 A 
ATOM     57  C   UNL A   1      45.459  31.594  30.208  1.00  0.00     0.049 A 
ATOM     58  C   UNL A   1      40.073  32.784  31.458  1.00  0.00     0.074 A 
ATOM     59  C   UNL A   1      46.015  30.651  31.048  1.00  0.00     0.029 A 
ATOM     60  N   UNL A   1      44.801  32.488  31.015  1.00  0.00    -0.354 N 
ATOM     61  N   UNL A   1      40.747  32.478  32.530  1.00  0.00    -0.248 NA
ATOM     62  C   UNL A   1      40.760  33.648  30.510  1.00  0.00     0.031 C 
ATOM     63  C   UNL A   1      45.297  30.777  32.272  1.00  0.00     0.029 A 
ATOM     64  C   UNL A   1      44.356  31.795  32.107  1.00  0.00     0.049 A 
ATOM     65  H   UNL A   1      44.674  33.448  30.840  1.00  0.00     0.167 HD
ATOM     66  C   UNL A   1      42.066  32.757  32.203  1.00  0.00     0.074 A 
ATOM     67  C   UNL A   1      41.995  33.593  31.012  1.00  0.00     0.031 C 
ATOM     68  C   UNL A   1      43.090  32.049  32.760  1.00  0.00     0.034 A 
BRANCH  55  69
ATOM     69  C   UNL A   1      45.508  32.947  28.036  1.00  0.00     0.023 A 
ATOM     70  C   UNL A   1      46.841  33.173  27.637  1.00  0.00     0.012 A 
ATOM     71  C   UNL A   1      44.604  34.027  27.934  1.00  0.00     0.148 A 
ATOM     72  C   UNL A   1      47.254  34.424  27.167  1.00  0.00     0.002 A 
ATOM     73  C   UNL A   1      44.999  35.240  27.389  1.00  0.00     0.091 A 
ATOM     74  F   UNL A   1      43.390  33.933  28.494  1.00  0.00    -0.205 F 
ATOM     75  C   UNL A   1      46.330  35.453  27.026  1.00  0.00     0.022 A 
BRANCH  73  76
ATOM     76  S   UNL A   1      43.822  36.573  27.145  1.00  0.00     0.127 S 
ATOM     77  O   UNL A   1      42.829  35.931  26.289  1.00  0.00    -0.237 OA
ATOM     78  O   UNL A   1      43.382  36.842  28.515  1.00  0.00    -0.237 OA
ATOM     79  O   UNL A   1      44.595  37.654  26.547  1.00  0.00    -0.744 OA
ENDBRANCH  73  76
ENDBRANCH  55  69
BRANCH  56  80
ATOM     80  C   UNL A   1      37.571  32.860  30.841  1.00  0.00     0.023 A 
ATOM     81  C   UNL A   1      36.907  32.785  29.595  1.00  0.00     0.012 A 
ATOM     82  C   UNL A   1      36.858  33.398  31.934  1.00  0.00     0.148 A 
ATOM     83  C   UNL A   1      35.565  33.162  29.461  1.00  0.00     0.002 A 
ATOM     84  C   UNL A   1      35.527  33.786  31.791  1.00  0.00     0.091 A 
ATOM     85  F   UNL A   1      37.445  33.436  33.138  1.00  0.00    -0.205 F 
ATOM     86  C   UNL A   1      34.871  33.652  30.562  1.00  0.00     0.022 A 
BRANCH  84  87
ATOM     87  S   UNL A   1      34.572  34.425  33.175  1.00  0.00     0.127 S 
ATOM     88  O   UNL A   1      33.276  34.704  32.555  1.00  0.00    -0.237 OA
ATOM     89  O   UNL A   1      34.578  33.295  34.098  1.00  0.00    -0.237 OA
ATOM     90  O   UNL A   1      35.285  35.617  33.621  1.00  0.00    -0.744 OA
ENDBRANCH  84  87
ENDBRANCH  56  80
BRANCH  68  91
ATOM     91  C   UNL A   1      42.803  31.219  33.979  1.00  0.00     0.023 A 
ATOM     92  C   UNL A   1      42.655  31.794  35.257  1.00  0.00     0.012 A 
ATOM     93  C   UNL A   1      42.474  29.866  33.789  1.00  0.00     0.148 A 
ATOM     94  C   UNL A   1      42.191  31.029  36.329  1.00  0.00     0.002 A 
ATOM     95  C   UNL A   1      41.974  29.120  34.848  1.00  0.00     0.091 A 
ATOM     96  F   UNL A   1      42.612  29.348  32.559  1.00  0.00    -0.205 F 
ATOM     97  C   UNL A   1      41.835  29.697  36.121  1.00  0.00     0.022 A 
BRANCH  95  98
ATOM     98  S   UNL A   1      41.383  27.440  34.629  1.00  0.00     0.127 S 
ATOM     99  O   UNL A   1      41.088  27.038  36.003  1.00  0.00    -0.237 OA
ATOM    100  O   UNL A   1      40.206  27.635  33.782  1.00  0.00    -0.237 OA
ATOM    101  O   UNL A   1      42.468  26.706  33.989  1.00  0.00    -0.744 OA
ENDBRANCH  95  98
ENDBRANCH  68  91
ENDBRANCH  42  43
ENDBRANCH  35  37
ENDBRANCH  34  35
ENDBRANCH  33  34
ENDBRANCH  32  33
ENDBRANCH   1  32
TORSDOF 22
ENDMDL
MODEL 2
REMARK VINA RESULT:     -11.0      2.078      3.598
REMARK SMILES COc1ccc2c(c1)c(CC(=O)OCCOCCOC(=O)c1ccc(-c3c4nc(c(-c5cccc(S(=O)(=O)[O-])c5F)c5ccc([nH]5)c(-c5cccc(S(=O)(=O)[O-])c5F)c5nc(c(-c6cccc(S(=O)(=O)[O-])c6F)c6ccc3[nH]6)C=C5)C=C4)cc1)c(C(F)(F)F)n2C(=O)c1ccc(Cl)cc1
REMARK SMILES IDX 16 1 15 2 14 3 13 4 11 5 12 6 10 7 9 8 3 9 4 10 8 11 5 12
REMARK SMILES IDX 7 13 6 14 90 15 85 16 2 17 1 18 91 19 92 20 93 21 94 22
REMARK SMILES IDX 99 23 95 24 98 25 96 26 97 27 86 28 87 29 88 30 89 31 17 32
REMARK SMILES IDX 18 33 19 34 20 35 21 36 22 37 23 38 84 39 24 40 83 41 25 42
REMARK SMILES IDX 26 43 27 44 77 45 28 46 82 47 76 48 78 49 29 50 81 51 75 52
REMARK SMILES IDX 74 53 30 55 62 56 42 57 61 58 43 59 46 60 60 61 79 62 44 63
REMARK SMILES IDX 45 64 59 66 80 67 47 68 31 69 32 70 40 71 33 72 35 73 41 74
REMARK SMILES IDX 34 75 36 76 37 77 38 78 39 79 63 80 64 81 72 82 65 83 67 84
REMARK SMILES IDX 73 85 66 86 68 87 69 88 70 89 71 90 48 91 49 92 57 93 50 94
REMARK SMILES IDX 52 95 58 96 51 97 53 98 54 99 55 100 56 101
REMARK H PARENT 78 54 46 65
REMARK Flexibility Score: inf
ROOT
ATOM      1  O   UNL A   1      40.094  19.866  25.401  1.00  0.00    -0.374 OA
ENDROOT
BRANCH   1   2
ATOM      2  C   UNL A   1      38.755  20.119  25.810  1.00  0.00     0.202 C 
BRANCH   2   3
ATOM      3  C   UNL A   1      38.062  21.445  25.440  1.00  0.00     0.261 C 
BRANCH   3   4
ATOM      4  O   UNL A   1      37.744  21.622  24.047  1.00  0.00    -0.463 OA
BRANCH   4   5
ATOM      5  C   UNL A   1      36.914  22.667  23.789  1.00  0.00     0.310 C 
ATOM      6  O   UNL A   1      36.735  23.153  22.674  1.00  0.00    -0.252 OA
BRANCH   5   7
ATOM      7  C   UNL A   1      36.205  23.246  24.993  1.00  0.00     0.161 C 
BRANCH   7   8
ATOM      8  C   UNL A   1      34.727  23.001  25.186  1.00  0.00     0.002 A 
ATOM      9  C   UNL A   1      33.597  19.385  24.632  1.00  0.00     0.119 A 
ATOM     10  C   UNL A   1      32.250  19.618  24.822  1.00  0.00     0.048 A 
ATOM     11  C   UNL A   1      34.484  20.464  24.668  1.00  0.00     0.057 A 
ATOM     12  C   UNL A   1      31.775  20.914  25.054  1.00  0.00     0.031 A 
ATOM     13  C   UNL A   1      34.044  21.768  24.998  1.00  0.00     0.008 A 
ATOM     14  C   UNL A   1      32.676  21.995  25.177  1.00  0.00     0.057 A 
ATOM     15  N   UNL A   1      32.488  23.378  25.368  1.00  0.00    -0.271 N 
ATOM     16  C   UNL A   1      33.755  23.970  25.440  1.00  0.00     0.135 A 
BRANCH   9  17
ATOM     17  O   UNL A   1      34.188  18.165  24.463  1.00  0.00    -0.497 OA
ATOM     18  C   UNL A   1      33.617  17.063  25.156  1.00  0.00     0.278 C 
ENDBRANCH   9  17
BRANCH  15  19
ATOM     19  C   UNL A   1      31.235  24.056  25.342  1.00  0.00     0.262 C 
ATOM     20  O   UNL A   1      30.414  23.778  26.212  1.00  0.00    -0.268 OA
BRANCH  19  21
ATOM     21  C   UNL A   1      30.879  25.187  24.457  1.00  0.00     0.040 A 
ATOM     22  C   UNL A   1      31.278  25.234  23.114  1.00  0.00     0.015 A 
ATOM     23  C   UNL A   1      30.160  26.250  25.020  1.00  0.00     0.015 A 
ATOM     24  C   UNL A   1      31.028  26.392  22.366  1.00  0.00     0.021 A 
ATOM     25  C   UNL A   1      29.909  27.397  24.266  1.00  0.00     0.021 A 
ATOM     26  C   UNL A   1      30.360  27.472  22.949  1.00  0.00     0.041 A 
ATOM     27  Cl  UNL A   1      30.113  28.918  22.049  1.00  0.00    -0.084 Cl
ENDBRANCH  19  21
ENDBRANCH  15  19
BRANCH  16  28
ATOM     28  C   UNL A   1      34.011  25.426  25.669  1.00  0.00     0.432 C 
ATOM     29  F   UNL A   1      33.890  26.102  24.493  1.00  0.00    -0.165 F 
ATOM     30  F   UNL A   1      33.073  25.952  26.498  1.00  0.00    -0.165 F 
ATOM     31  F   UNL A   1      35.232  25.752  26.142  1.00  0.00    -0.165 F 
ENDBRANCH  16  28
ENDBRANCH   7   8
ENDBRANCH   5   7
ENDBRANCH   4   5
ENDBRANCH   3   4
ENDBRANCH   2   3
ENDBRANCH   1   2
BRANCH   1  32
ATOM     32  C   UNL A   1      41.112  19.897  26.398  1.00  0.00     0.202 C 
BRANCH  32  33
ATOM     33  C   UNL A   1      41.092  20.988  27.480  1.00  0.00     0.261 C 
BRANCH  33  34
ATOM     34  O   UNL A   1      41.265  22.291  26.923  1.00  0.00    -0.460 OA
BRANCH  34  35
ATOM     35  C   UNL A   1      42.544  22.754  27.014  1.00  0.00     0.338 C 
ATOM     36  O   UNL A   1      43.551  22.232  26.596  1.00  0.00    -0.246 OA
BRANCH  35  37
ATOM     37  C   UNL A   1      42.388  24.175  27.369  1.00  0.00     0.060 A 
ATOM     38  C   UNL A   1      43.259  24.761  28.287  1.00  0.00     0.016 A 
ATOM     39  C   UNL A   1      41.170  24.779  27.017  1.00  0.00     0.016 A 
ATOM     40  C   UNL A   1      42.869  25.934  28.910  1.00  0.00     0.010 A 
ATOM     41  C   UNL A   1      40.778  25.949  27.656  1.00  0.00     0.010 A 
ATOM     42  C   UNL A   1      41.618  26.510  28.619  1.00  0.00    -0.014 A 
BRANCH  42  43
ATOM     43  C   UNL A   1      41.363  27.834  29.177  1.00  0.00     0.031 A 
ATOM     44  C   UNL A   1      42.282  28.863  28.619  1.00  0.00     0.074 A 
ATOM     45  C   UNL A   1      40.362  28.207  29.997  1.00  0.00     0.049 A 
ATOM     46  N   UNL A   1      43.228  29.497  29.234  1.00  0.00    -0.248 NA
ATOM     47  C   UNL A   1      42.236  29.087  27.167  1.00  0.00     0.031 C 
ATOM     48  C   UNL A   1      39.180  27.448  30.403  1.00  0.00     0.029 A 
ATOM     49  N   UNL A   1      40.149  29.439  30.549  1.00  0.00    -0.354 N 
ATOM     50  C   UNL A   1      43.768  30.355  28.280  1.00  0.00     0.074 A 
ATOM     51  C   UNL A   1      43.238  29.949  27.004  1.00  0.00     0.031 C 
ATOM     52  C   UNL A   1      38.271  28.302  30.932  1.00  0.00     0.029 A 
ATOM     53  C   UNL A   1      38.854  29.632  31.018  1.00  0.00     0.049 A 
ATOM     54  H   UNL A   1      40.850  30.127  30.611  1.00  0.00     0.167 HD
ATOM     55  C   UNL A   1      44.443  31.484  28.617  1.00  0.00     0.034 A 
ATOM     56  C   UNL A   1      38.304  30.823  31.362  1.00  0.00     0.034 A 
ATOM     57  C   UNL A   1      44.823  31.518  29.998  1.00  0.00     0.049 A 
ATOM     58  C   UNL A   1      39.420  31.753  31.655  1.00  0.00     0.074 A 
ATOM     59  C   UNL A   1      45.610  30.745  30.827  1.00  0.00     0.029 A 
ATOM     60  N   UNL A   1      44.070  32.319  30.820  1.00  0.00    -0.354 N 
ATOM     61  N   UNL A   1      40.220  31.641  32.677  1.00  0.00    -0.248 NA
ATOM     62  C   UNL A   1      39.855  32.674  30.616  1.00  0.00     0.031 C 
ATOM     63  C   UNL A   1      44.977  30.806  32.101  1.00  0.00     0.029 A 
ATOM     64  C   UNL A   1      43.850  31.620  31.975  1.00  0.00     0.049 A 
ATOM     65  H   UNL A   1      43.749  33.226  30.616  1.00  0.00     0.167 HD
ATOM     66  C   UNL A   1      41.433  32.141  32.227  1.00  0.00     0.074 A 
ATOM     67  C   UNL A   1      41.113  32.880  31.012  1.00  0.00     0.031 C 
ATOM     68  C   UNL A   1      42.613  31.671  32.723  1.00  0.00     0.034 A 
BRANCH  55  69
ATOM     69  C   UNL A   1      44.446  32.728  27.775  1.00  0.00     0.023 A 
ATOM     70  C   UNL A   1      45.521  32.926  26.885  1.00  0.00     0.012 A 
ATOM     71  C   UNL A   1      43.590  33.825  28.019  1.00  0.00     0.148 A 
ATOM     72  C   UNL A   1      45.738  34.165  26.273  1.00  0.00     0.002 A 
ATOM     73  C   UNL A   1      43.761  35.026  27.346  1.00  0.00     0.091 A 
ATOM     74  F   UNL A   1      42.690  33.758  29.008  1.00  0.00    -0.205 F 
ATOM     75  C   UNL A   1      44.847  35.211  26.490  1.00  0.00     0.022 A 
BRANCH  73  76
ATOM     76  S   UNL A   1      42.601  36.380  27.562  1.00  0.00     0.127 S 
ATOM     77  O   UNL A   1      42.877  36.783  28.938  1.00  0.00    -0.237 OA
ATOM     78  O   UNL A   1      43.045  37.324  26.536  1.00  0.00    -0.237 OA
ATOM     79  O   UNL A   1      41.290  35.798  27.306  1.00  0.00    -0.744 OA
ENDBRANCH  73  76
ENDBRANCH  55  69
BRANCH  56  80
ATOM     80  C   UNL A   1      36.909  31.326  31.253  1.00  0.00     0.023 A 
ATOM     81  C   UNL A   1      36.269  31.814  32.415  1.00  0.00     0.012 A 
ATOM     82  C   UNL A   1      36.319  31.619  30.005  1.00  0.00     0.148 A 
ATOM     83  C   UNL A   1      35.129  32.623  32.333  1.00  0.00     0.002 A 
ATOM     84  C   UNL A   1      35.175  32.412  29.930  1.00  0.00     0.091 A 
ATOM     85  F   UNL A   1      36.930  31.212  28.884  1.00  0.00    -0.205 F 
ATOM     86  C   UNL A   1      34.589  32.932  31.090  1.00  0.00     0.022 A 
BRANCH  84  87
ATOM     87  S   UNL A   1      34.426  32.851  28.354  1.00  0.00     0.127 S 
ATOM     88  O   UNL A   1      33.931  31.559  27.876  1.00  0.00    -0.237 OA
ATOM     89  O   UNL A   1      33.388  33.792  28.761  1.00  0.00    -0.237 OA
ATOM     90  O   UNL A   1      35.510  33.405  27.551  1.00  0.00    -0.744 OA
ENDBRANCH  84  87
ENDBRANCH  56  80
BRANCH  68  91
ATOM     91  C   UNL A   1      42.582  30.874  33.996  1.00  0.00     0.023 A 
ATOM     92  C   UNL A   1      42.593  31.490  35.264  1.00  0.00     0.012 A 
ATOM     93  C   UNL A   1      42.331  29.495  33.902  1.00  0.00     0.148 A 
ATOM     94  C   UNL A   1      42.361  30.739  36.418  1.00  0.00     0.002 A 
ATOM     95  C   UNL A   1      42.061  28.760  35.048  1.00  0.00     0.091 A 
ATOM     96  F   UNL A   1      42.315  28.937  32.681  1.00  0.00    -0.205 F 
ATOM     97  C   UNL A   1      42.079  29.378  36.309  1.00  0.00     0.022 A 
BRANCH  95  98
ATOM     98  S   UNL A   1      41.572  27.035  34.976  1.00  0.00     0.127 S 
ATOM     99  O   UNL A   1      41.214  26.760  36.366  1.00  0.00    -0.237 OA
ATOM    100  O   UNL A   1      40.441  27.074  34.048  1.00  0.00    -0.237 OA
ATOM    101  O   UNL A   1      42.731  26.303  34.479  1.00  0.00    -0.744 OA
ENDBRANCH  95  98
ENDBRANCH  68  91
ENDBRANCH  42  43
ENDBRANCH  35  37
ENDBRANCH  34  35
ENDBRANCH  33  34
ENDBRANCH  32  33
ENDBRANCH   1  32
TORSDOF 22
ENDMDL
MODEL 3
REMARK VINA RESULT:     -11.0      1.764      2.168
REMARK SMILES COc1ccc2c(c1)c(CC(=O)OCCOCCOC(=O)c1ccc(-c3c4nc(c(-c5cccc(S(=O)(=O)[O-])c5F)c5ccc([nH]5)c(-c5cccc(S(=O)(=O)[O-])c5F)c5nc(c(-c6cccc(S(=O)(=O)[O-])c6F)c6ccc3[nH]6)C=C5)C=C4)cc1)c(C(F)(F)F)n2C(=O)c1ccc(Cl)cc1
REMARK SMILES IDX 16 1 15 2 14 3 13 4 11 5 12 6 10 7 9 8 3 9 4 10 8 11 5 12
REMARK SMILES IDX 7 13 6 14 90 15 85 16 2 17 1 18 91 19 92 20 93 21 94 22
REMARK SMILES IDX 99 23 95 24 98 25 96 26 97 27 86 28 87 29 88 30 89 31 17 32
REMARK SMILES IDX 18 33 19 34 20 35 21 36 22 37 23 38 84 39 24 40 83 41 25 42
REMARK SMILES IDX 26 43 27 44 77 45 28 46 82 47 76 48 78 49 29 50 81 51 75 52
REMARK SMILES IDX 74 53 30 55 62 56 42 57 61 58 43 59 46 60 60 61 79 62 44 63
REMARK SMILES IDX 45 64 59 66 80 67 47 68 31 69 32 70 40 71 33 72 35 73 41 74
REMARK SMILES IDX 34 75 36 76 37 77 38 78 39 79 63 80 64 81 72 82 65 83 67 84
REMARK SMILES IDX 73 85 66 86 68 87 69 88 70 89 71 90 48 91 49 92 57 93 50 94
REMARK SMILES IDX 52 95 58 96 51 97 53 98 54 99 55 100 56 101
REMARK H PARENT 78 54 46 65
REMARK Flexibility Score: inf
ROOT
ATOM      1  O   UNL A   1      37.508  21.124  25.298  1.00  0.00    -0.374 OA
ENDROOT
BRANCH   1   2
ATOM      2  C   UNL A   1      37.241  22.266  24.492  1.00  0.00     0.202 C 
BRANCH   2   3
ATOM      3  C   UNL A   1      37.080  23.656  25.136  1.00  0.00     0.261 C 
BRANCH   3   4
ATOM      4  O   UNL A   1      35.853  23.880  25.855  1.00  0.00    -0.463 OA
BRANCH   4   5
ATOM      5  C   UNL A   1      34.849  24.401  25.101  1.00  0.00     0.310 C 
ATOM      6  O   UNL A   1      34.936  24.644  23.900  1.00  0.00    -0.252 OA
BRANCH   5   7
ATOM      7  C   UNL A   1      33.567  24.703  25.846  1.00  0.00     0.161 C 
BRANCH   7   8
ATOM      8  C   UNL A   1      32.675  25.832  25.384  1.00  0.00     0.002 A 
ATOM      9  C   UNL A   1      33.376  29.223  27.017  1.00  0.00     0.119 A 
ATOM     10  C   UNL A   1      32.343  29.902  26.402  1.00  0.00     0.048 A 
ATOM     11  C   UNL A   1      33.518  27.852  26.788  1.00  0.00     0.057 A 
ATOM     12  C   UNL A   1      31.453  29.232  25.555  1.00  0.00     0.031 A 
ATOM     13  C   UNL A   1      32.693  27.171  25.862  1.00  0.00     0.008 A 
ATOM     14  C   UNL A   1      31.644  27.865  25.253  1.00  0.00     0.057 A 
ATOM     15  N   UNL A   1      30.905  26.945  24.483  1.00  0.00    -0.271 N 
ATOM     16  C   UNL A   1      31.588  25.723  24.517  1.00  0.00     0.135 A 
BRANCH   9  17
ATOM     17  O   UNL A   1      34.343  29.773  27.809  1.00  0.00    -0.497 OA
ATOM     18  C   UNL A   1      35.697  29.530  27.449  1.00  0.00     0.278 C 
ENDBRANCH   9  17
BRANCH  15  19
ATOM     19  C   UNL A   1      29.626  27.187  23.903  1.00  0.00     0.262 C 
ATOM     20  O   UNL A   1      28.726  26.386  24.145  1.00  0.00    -0.268 OA
BRANCH  19  21
ATOM     21  C   UNL A   1      29.226  28.403  23.163  1.00  0.00     0.040 A 
ATOM     22  C   UNL A   1      27.933  28.936  23.250  1.00  0.00     0.015 A 
ATOM     23  C   UNL A   1      30.179  28.993  22.320  1.00  0.00     0.015 A 
ATOM     24  C   UNL A   1      27.575  30.007  22.421  1.00  0.00     0.021 A 
ATOM     25  C   UNL A   1      29.818  30.065  21.503  1.00  0.00     0.021 A 
ATOM     26  C   UNL A   1      28.513  30.555  21.541  1.00  0.00     0.041 A 
ATOM     27  Cl  UNL A   1      28.054  31.828  20.477  1.00  0.00    -0.084 Cl
ENDBRANCH  19  21
ENDBRANCH  15  19
BRANCH  16  28
ATOM     28  C   UNL A   1      31.161  24.480  23.802  1.00  0.00     0.432 C 
ATOM     29  F   UNL A   1      30.212  23.834  24.535  1.00  0.00    -0.165 F 
ATOM     30  F   UNL A   1      30.570  24.788  22.619  1.00  0.00    -0.165 F 
ATOM     31  F   UNL A   1      32.121  23.561  23.574  1.00  0.00    -0.165 F 
ENDBRANCH  16  28
ENDBRANCH   7   8
ENDBRANCH   5   7
ENDBRANCH   4   5
ENDBRANCH   3   4
ENDBRANCH   2   3
ENDBRANCH   1   2
BRANCH   1  32
ATOM     32  C   UNL A   1      38.846  20.632  25.333  1.00  0.00     0.202 C 
BRANCH  32  33
ATOM     33  C   UNL A   1      39.803  21.097  26.442  1.00  0.00     0.261 C 
BRANCH  33  34
ATOM     34  O   UNL A   1      40.180  22.464  26.280  1.00  0.00    -0.460 OA
BRANCH  34  35
ATOM     35  C   UNL A   1      41.462  22.723  26.662  1.00  0.00     0.338 C 
ATOM     36  O   UNL A   1      42.452  22.071  26.420  1.00  0.00    -0.246 OA
BRANCH  35  37
ATOM     37  C   UNL A   1      41.435  24.135  27.078  1.00  0.00     0.060 A 
ATOM     38  C   UNL A   1      42.467  24.647  27.865  1.00  0.00     0.016 A 
ATOM     39  C   UNL A   1      40.210  24.807  26.939  1.00  0.00     0.016 A 
ATOM     40  C   UNL A   1      42.238  25.813  28.576  1.00  0.00     0.010 A 
ATOM     41  C   UNL A   1      39.982  25.970  27.665  1.00  0.00     0.010 A 
ATOM     42  C   UNL A   1      40.988  26.456  28.501  1.00  0.00    -0.014 A 
BRANCH  42  43
ATOM     43  C   UNL A   1      40.891  27.768  29.131  1.00  0.00     0.031 A 
ATOM     44  C   UNL A   1      41.836  28.749  28.531  1.00  0.00     0.074 A 
ATOM     45  C   UNL A   1      39.999  28.179  30.053  1.00  0.00     0.049 A 
ATOM     46  N   UNL A   1      42.880  29.280  29.079  1.00  0.00    -0.248 NA
ATOM     47  C   UNL A   1      41.678  29.041  27.099  1.00  0.00     0.031 C 
ATOM     48  C   UNL A   1      38.801  27.494  30.537  1.00  0.00     0.029 A 
ATOM     49  N   UNL A   1      39.935  29.397  30.669  1.00  0.00    -0.354 N 
ATOM     50  C   UNL A   1      43.399  30.137  28.113  1.00  0.00     0.074 A 
ATOM     51  C   UNL A   1      42.727  29.831  26.877  1.00  0.00     0.031 C 
ATOM     52  C   UNL A   1      38.014  28.390  31.180  1.00  0.00     0.029 A 
ATOM     53  C   UNL A   1      38.706  29.667  31.262  1.00  0.00     0.049 A 
ATOM     54  H   UNL A   1      40.691  30.026  30.693  1.00  0.00     0.167 HD
ATOM     55  C   UNL A   1      44.189  31.195  28.430  1.00  0.00     0.034 A 
ATOM     56  C   UNL A   1      38.285  30.879  31.701  1.00  0.00     0.034 A 
ATOM     57  C   UNL A   1      44.692  31.137  29.770  1.00  0.00     0.049 A 
ATOM     58  C   UNL A   1      39.494  31.707  31.926  1.00  0.00     0.074 A 
ATOM     59  C   UNL A   1      45.486  30.270  30.493  1.00  0.00     0.029 A 
ATOM     60  N   UNL A   1      44.082  31.955  30.688  1.00  0.00    -0.354 N 
ATOM     61  N   UNL A   1      40.370  31.488  32.865  1.00  0.00    -0.248 NA
ATOM     62  C   UNL A   1      39.908  32.638  30.887  1.00  0.00     0.031 C 
ATOM     63  C   UNL A   1      44.976  30.321  31.821  1.00  0.00     0.029 A 
ATOM     64  C   UNL A   1      43.910  31.223  31.831  1.00  0.00     0.049 A 
ATOM     65  H   UNL A   1      43.818  32.893  30.550  1.00  0.00     0.167 HD
ATOM     66  C   UNL A   1      41.574  31.915  32.324  1.00  0.00     0.074 A 
ATOM     67  C   UNL A   1      41.208  32.730  31.173  1.00  0.00     0.031 C 
ATOM     68  C   UNL A   1      42.752  31.334  32.691  1.00  0.00     0.034 A 
BRANCH  55  69
ATOM     69  C   UNL A   1      44.217  32.472  27.639  1.00  0.00     0.023 A 
ATOM     70  C   UNL A   1      45.228  32.633  26.670  1.00  0.00     0.012 A 
ATOM     71  C   UNL A   1      43.469  33.615  27.997  1.00  0.00     0.148 A 
ATOM     72  C   UNL A   1      45.486  33.880  26.091  1.00  0.00     0.002 A 
ATOM     73  C   UNL A   1      43.673  34.831  27.360  1.00  0.00     0.091 A 
ATOM     74  F   UNL A   1      42.649  33.568  29.055  1.00  0.00    -0.205 F 
ATOM     75  C   UNL A   1      44.697  34.976  26.423  1.00  0.00     0.022 A 
BRANCH  73  76
ATOM     76  S   UNL A   1      42.639  36.252  27.725  1.00  0.00     0.127 S 
ATOM     77  O   UNL A   1      43.060  36.577  29.084  1.00  0.00    -0.237 OA
ATOM     78  O   UNL A   1      43.062  37.205  26.698  1.00  0.00    -0.237 OA
ATOM     79  O   UNL A   1      41.271  35.775  27.564  1.00  0.00    -0.744 OA
ENDBRANCH  73  76
ENDBRANCH  55  69
BRANCH  56  80
ATOM     80  C   UNL A   1      36.932  31.491  31.740  1.00  0.00     0.023 A 
ATOM     81  C   UNL A   1      36.355  31.787  32.996  1.00  0.00     0.012 A 
ATOM     82  C   UNL A   1      36.340  32.063  30.594  1.00  0.00     0.148 A 
ATOM     83  C   UNL A   1      35.278  32.675  33.113  1.00  0.00     0.002 A 
ATOM     84  C   UNL A   1      35.258  32.934  30.715  1.00  0.00     0.091 A 
ATOM     85  F   UNL A   1      36.894  31.840  29.395  1.00  0.00    -0.205 F 
ATOM     86  C   UNL A   1      34.737  33.258  31.973  1.00  0.00     0.022 A 
BRANCH  84  87
ATOM     87  S   UNL A   1      34.513  33.725  29.280  1.00  0.00     0.127 S 
ATOM     88  O   UNL A   1      33.408  34.475  29.879  1.00  0.00    -0.237 OA
ATOM     89  O   UNL A   1      35.610  34.546  28.780  1.00  0.00    -0.237 OA
ATOM     90  O   UNL A   1      34.087  32.632  28.413  1.00  0.00    -0.744 OA
ENDBRANCH  84  87
ENDBRANCH  56  80
BRANCH  68  91
ATOM     91  C   UNL A   1      42.772  30.484  33.930  1.00  0.00     0.023 A 
ATOM     92  C   UNL A   1      42.497  29.102  33.893  1.00  0.00     0.012 A 
ATOM     93  C   UNL A   1      43.278  31.055  35.110  1.00  0.00     0.148 A 
ATOM     94  C   UNL A   1      42.719  28.305  35.018  1.00  0.00     0.002 A 
ATOM     95  C   UNL A   1      43.537  30.252  36.212  1.00  0.00     0.091 A 
ATOM     96  F   UNL A   1      43.543  32.371  35.112  1.00  0.00    -0.205 F 
ATOM     97  C   UNL A   1      43.254  28.877  36.172  1.00  0.00     0.022 A 
BRANCH  95  98
ATOM     98  S   UNL A   1      44.334  30.893  37.686  1.00  0.00     0.127 S 
ATOM     99  O   UNL A   1      44.427  29.701  38.527  1.00  0.00    -0.237 OA
ATOM    100  O   UNL A   1      45.613  31.373  37.160  1.00  0.00    -0.237 OA
ATOM    101  O   UNL A   1      43.464  31.945  38.197  1.00  0.00    -0.744 OA
ENDBRANCH  95  98
ENDBRANCH  68  91
ENDBRANCH  42  43
ENDBRANCH  35  37
ENDBRANCH  34  35
ENDBRANCH  33  34
ENDBRANCH  32  33
ENDBRANCH   1  32
TORSDOF 22
ENDMDL
