MODEL 1
REMARK VINA RESULT:     -11.7      0.000      0.000
REMARK SMILES CO[C@@H]1C[C@@H](C(=O)OCCOCCOC(=O)c2ccc(-c3c4nc(c(-c5cccc(S(=O)(=O)[O-])c5F)c5ccc([nH]5)c(-c5cccc(S(=O)(=O)[O-])c5F)c5nc(c(-c6cccc(S(=O)(=O)[O-])c6F)c6ccc3[nH]6)C=C5)C=C4)cc2)N(S(=O)(=O)c2ccc(Cl)cc2F)C1
REMARK SMILES IDX 12 1 11 2 10 3 9 4 8 5 6 6 7 7 5 8 3 9 4 10 92 11 80 12 2 13
REMARK SMILES IDX 1 14 81 15 82 16 83 17 84 18 85 19 90 20 86 21 89 22 91 23
REMARK SMILES IDX 87 24 88 25 13 26 14 27 15 28 16 29 17 30 18 31 79 32 19 33
REMARK SMILES IDX 78 34 20 35 21 36 22 37 72 38 23 39 77 40 71 41 73 42 24 43
REMARK SMILES IDX 76 44 70 45 69 46 25 48 57 49 37 50 56 51 38 52 41 53 55 54
REMARK SMILES IDX 74 55 39 56 40 57 54 59 75 60 42 61 26 62 27 63 35 64 28 65
REMARK SMILES IDX 30 66 36 67 29 68 31 69 32 70 33 71 34 72 58 73 59 74 67 75
REMARK SMILES IDX 60 76 62 77 68 78 61 79 63 80 64 81 65 82 66 83 43 84 44 85
REMARK SMILES IDX 52 86 45 87 47 88 53 89 46 90 48 91 49 92 50 93 51 94
REMARK H PARENT 73 47 41 58
REMARK Flexibility Score: inf
ROOT
ATOM      1  C   UNL A   1      36.089  20.970  25.194  1.00  0.00     0.202 C 
ENDROOT
BRANCH   1   2
ATOM      2  O   UNL A   1      35.900  22.212  25.881  1.00  0.00    -0.374 OA
BRANCH   2   3
ATOM      3  C   UNL A   1      34.564  22.729  25.761  1.00  0.00     0.202 C 
BRANCH   3   4
ATOM      4  C   UNL A   1      33.542  21.742  25.180  1.00  0.00     0.261 C 
BRANCH   4   5
ATOM      5  O   UNL A   1      32.980  22.306  23.985  1.00  0.00    -0.462 OA
BRANCH   5   6
ATOM      6  C   UNL A   1      31.940  23.157  24.151  1.00  0.00     0.324 C 
ATOM      7  O   UNL A   1      31.076  23.012  25.008  1.00  0.00    -0.250 OA
BRANCH   6   8
ATOM      8  C   UNL A   1      31.961  24.285  23.147  1.00  0.00     0.185 C 
ATOM      9  C   UNL A   1      33.130  25.817  21.726  1.00  0.00     0.135 C 
ATOM     10  C   UNL A   1      33.365  24.803  22.830  1.00  0.00     0.065 C 
ATOM     11  C   UNL A   1      31.668  26.275  21.904  1.00  0.00     0.135 C 
ATOM     12  N   UNL A   1      31.055  25.473  23.064  1.00  0.00    -0.181 NA
BRANCH   9  13
ATOM     13  O   UNL A   1      33.280  25.205  20.443  1.00  0.00    -0.380 OA
ATOM     14  C   UNL A   1      32.205  25.508  19.559  1.00  0.00     0.195 C 
ENDBRANCH   9  13
BRANCH  12  15
ATOM     15  S   UNL A   1      30.512  26.580  24.233  1.00  0.00     0.246 S 
ATOM     16  O   UNL A   1      29.785  27.593  23.488  1.00  0.00    -0.207 OA
ATOM     17  O   UNL A   1      29.771  25.782  25.194  1.00  0.00    -0.207 OA
BRANCH  15  18
ATOM     18  C   UNL A   1      31.663  27.484  25.205  1.00  0.00     0.118 A 
ATOM     19  C   UNL A   1      31.527  28.889  25.191  1.00  0.00     0.026 A 
ATOM     20  C   UNL A   1      32.678  26.930  25.947  1.00  0.00     0.144 A 
ATOM     21  C   UNL A   1      32.451  29.707  25.846  1.00  0.00     0.022 A 
ATOM     22  C   UNL A   1      33.644  27.737  26.558  1.00  0.00     0.061 A 
ATOM     23  F   UNL A   1      32.731  25.618  26.154  1.00  0.00    -0.205 F 
ATOM     24  C   UNL A   1      33.534  29.124  26.495  1.00  0.00     0.044 A 
ATOM     25  Cl  UNL A   1      34.715  30.120  27.251  1.00  0.00    -0.084 Cl
ENDBRANCH  15  18
ENDBRANCH  12  15
ENDBRANCH   6   8
ENDBRANCH   5   6
ENDBRANCH   4   5
ENDBRANCH   3   4
ENDBRANCH   2   3
ENDBRANCH   1   2
BRANCH   1  26
ATOM     26  C   UNL A   1      37.551  20.580  24.983  1.00  0.00     0.261 C 
BRANCH  26  27
ATOM     27  O   UNL A   1      38.351  21.733  25.236  1.00  0.00    -0.460 OA
BRANCH  27  28
ATOM     28  C   UNL A   1      39.396  21.450  26.040  1.00  0.00     0.338 C 
ATOM     29  O   UNL A   1      40.081  20.439  26.007  1.00  0.00    -0.246 OA
BRANCH  28  30
ATOM     30  C   UNL A   1      39.717  22.661  26.822  1.00  0.00     0.060 A 
ATOM     31  C   UNL A   1      38.904  23.780  26.618  1.00  0.00     0.016 A 
ATOM     32  C   UNL A   1      40.773  22.701  27.745  1.00  0.00     0.016 A 
ATOM     33  C   UNL A   1      39.230  24.983  27.226  1.00  0.00     0.010 A 
ATOM     34  C   UNL A   1      41.089  23.903  28.369  1.00  0.00     0.010 A 
ATOM     35  C   UNL A   1      40.369  25.058  28.038  1.00  0.00    -0.014 A 
BRANCH  35  36
ATOM     36  C   UNL A   1      40.958  26.384  28.297  1.00  0.00     0.031 A 
ATOM     37  C   UNL A   1      42.320  26.666  27.717  1.00  0.00     0.074 A 
ATOM     38  C   UNL A   1      40.270  27.314  28.978  1.00  0.00     0.049 A 
ATOM     39  N   UNL A   1      43.042  27.750  27.792  1.00  0.00    -0.248 NA
ATOM     40  C   UNL A   1      42.958  25.576  26.953  1.00  0.00     0.031 C 
ATOM     41  C   UNL A   1      38.945  27.120  29.568  1.00  0.00     0.029 A 
ATOM     42  N   UNL A   1      40.600  28.601  29.297  1.00  0.00    -0.354 N 
ATOM     43  C   UNL A   1      44.217  27.467  27.105  1.00  0.00     0.074 A 
ATOM     44  C   UNL A   1      44.133  26.102  26.648  1.00  0.00     0.031 C 
ATOM     45  C   UNL A   1      38.584  28.249  30.203  1.00  0.00     0.029 A 
ATOM     46  C   UNL A   1      39.659  29.229  30.078  1.00  0.00     0.049 A 
ATOM     47  H   UNL A   1      41.431  29.036  28.999  1.00  0.00     0.167 HD
ATOM     48  C   UNL A   1      45.262  28.288  26.852  1.00  0.00     0.034 A 
ATOM     49  C   UNL A   1      39.687  30.453  30.639  1.00  0.00     0.034 A 
ATOM     50  C   UNL A   1      45.314  29.650  27.299  1.00  0.00     0.049 A 
ATOM     51  C   UNL A   1      40.875  31.337  30.359  1.00  0.00     0.074 A 
ATOM     52  C   UNL A   1      46.308  30.588  27.090  1.00  0.00     0.029 A 
ATOM     53  N   UNL A   1      44.325  30.268  28.050  1.00  0.00    -0.354 N 
ATOM     54  N   UNL A   1      41.936  31.090  29.626  1.00  0.00    -0.248 NA
ATOM     55  C   UNL A   1      40.854  32.681  30.949  1.00  0.00     0.031 C 
ATOM     56  C   UNL A   1      45.929  31.768  27.738  1.00  0.00     0.029 A 
ATOM     57  C   UNL A   1      44.683  31.575  28.317  1.00  0.00     0.049 A 
ATOM     58  H   UNL A   1      43.491  29.838  28.349  1.00  0.00     0.167 HD
ATOM     59  C   UNL A   1      42.688  32.257  29.636  1.00  0.00     0.074 A 
ATOM     60  C   UNL A   1      41.946  33.221  30.425  1.00  0.00     0.031 C 
ATOM     61  C   UNL A   1      43.889  32.516  29.062  1.00  0.00     0.034 A 
BRANCH  48  62
ATOM     62  C   UNL A   1      46.405  27.748  26.035  1.00  0.00     0.023 A 
ATOM     63  C   UNL A   1      46.429  27.961  24.642  1.00  0.00     0.012 A 
ATOM     64  C   UNL A   1      47.486  27.088  26.651  1.00  0.00     0.148 A 
ATOM     65  C   UNL A   1      47.499  27.507  23.870  1.00  0.00     0.002 A 
ATOM     66  C   UNL A   1      48.570  26.678  25.883  1.00  0.00     0.091 A 
ATOM     67  F   UNL A   1      47.433  26.874  27.973  1.00  0.00    -0.205 F 
ATOM     68  C   UNL A   1      48.574  26.877  24.493  1.00  0.00     0.022 A 
BRANCH  66  69
ATOM     69  S   UNL A   1      50.037  25.922  26.593  1.00  0.00     0.127 S 
ATOM     70  O   UNL A   1      49.489  24.692  27.163  1.00  0.00    -0.237 OA
ATOM     71  O   UNL A   1      50.877  25.726  25.413  1.00  0.00    -0.237 OA
ATOM     72  O   UNL A   1      50.553  26.876  27.565  1.00  0.00    -0.744 OA
ENDBRANCH  66  69
ENDBRANCH  48  62
BRANCH  49  73
ATOM     73  C   UNL A   1      38.562  30.918  31.496  1.00  0.00     0.023 A 
ATOM     74  C   UNL A   1      38.626  30.752  32.894  1.00  0.00     0.012 A 
ATOM     75  C   UNL A   1      37.420  31.517  30.931  1.00  0.00     0.148 A 
ATOM     76  C   UNL A   1      37.554  31.126  33.705  1.00  0.00     0.002 A 
ATOM     77  C   UNL A   1      36.381  31.943  31.751  1.00  0.00     0.091 A 
ATOM     78  F   UNL A   1      37.367  31.656  29.598  1.00  0.00    -0.205 F 
ATOM     79  C   UNL A   1      36.436  31.730  33.135  1.00  0.00     0.022 A 
BRANCH  77  80
ATOM     80  S   UNL A   1      34.968  32.847  31.107  1.00  0.00     0.127 S 
ATOM     81  O   UNL A   1      34.637  32.074  29.914  1.00  0.00    -0.237 OA
ATOM     82  O   UNL A   1      34.008  32.731  32.206  1.00  0.00    -0.237 OA
ATOM     83  O   UNL A   1      35.447  34.203  30.876  1.00  0.00    -0.744 OA
ENDBRANCH  77  80
ENDBRANCH  49  73
BRANCH  61  84
ATOM     84  C   UNL A   1      44.447  33.904  29.225  1.00  0.00     0.023 A 
ATOM     85  C   UNL A   1      45.506  34.136  30.122  1.00  0.00     0.012 A 
ATOM     86  C   UNL A   1      43.962  34.962  28.430  1.00  0.00     0.148 A 
ATOM     87  C   UNL A   1      46.048  35.413  30.259  1.00  0.00     0.002 A 
ATOM     88  C   UNL A   1      44.545  36.217  28.530  1.00  0.00     0.091 A 
ATOM     89  F   UNL A   1      42.944  34.718  27.592  1.00  0.00    -0.205 F 
ATOM     90  C   UNL A   1      45.576  36.448  29.455  1.00  0.00     0.022 A 
BRANCH  88  91
ATOM     91  S   UNL A   1      44.076  37.582  27.463  1.00  0.00     0.127 S 
ATOM     92  O   UNL A   1      43.549  38.545  28.429  1.00  0.00    -0.237 OA
ATOM     93  O   UNL A   1      45.357  37.958  26.864  1.00  0.00    -0.237 OA
ATOM     94  O   UNL A   1      43.102  37.044  26.523  1.00  0.00    -0.744 OA
ENDBRANCH  88  91
ENDBRANCH  61  84
ENDBRANCH  35  36
ENDBRANCH  28  30
ENDBRANCH  27  28
ENDBRANCH  26  27
ENDBRANCH   1  26
TORSDOF 20
ENDMDL
MODEL 2
REMARK VINA RESULT:     -11.7      1.640      2.461
REMARK SMILES CO[C@@H]1C[C@@H](C(=O)OCCOCCOC(=O)c2ccc(-c3c4nc(c(-c5cccc(S(=O)(=O)[O-])c5F)c5ccc([nH]5)c(-c5cccc(S(=O)(=O)[O-])c5F)c5nc(c(-c6cccc(S(=O)(=O)[O-])c6F)c6ccc3[nH]6)C=C5)C=C4)cc2)N(S(=O)(=O)c2ccc(Cl)cc2F)C1
REMARK SMILES IDX 12 1 11 2 10 3 9 4 8 5 6 6 7 7 5 8 3 9 4 10 92 11 80 12 2 13
REMARK SMILES IDX 1 14 81 15 82 16 83 17 84 18 85 19 90 20 86 21 89 22 91 23
REMARK SMILES IDX 87 24 88 25 13 26 14 27 15 28 16 29 17 30 18 31 79 32 19 33
REMARK SMILES IDX 78 34 20 35 21 36 22 37 72 38 23 39 77 40 71 41 73 42 24 43
REMARK SMILES IDX 76 44 70 45 69 46 25 48 57 49 37 50 56 51 38 52 41 53 55 54
REMARK SMILES IDX 74 55 39 56 40 57 54 59 75 60 42 61 26 62 27 63 35 64 28 65
REMARK SMILES IDX 30 66 36 67 29 68 31 69 32 70 33 71 34 72 58 73 59 74 67 75
REMARK SMILES IDX 60 76 62 77 68 78 61 79 63 80 64 81 65 82 66 83 43 84 44 85
REMARK SMILES IDX 52 86 45 87 47 88 53 89 46 90 48 91 49 92 50 93 51 94
REMARK H PARENT 73 47 41 58
REMARK Flexibility Score: inf
ROOT
ATOM      1  C   UNL A   1      35.878  21.518  24.749  1.00  0.00     0.202 C 
ENDROOT
BRANCH   1   2
ATOM      2  O   UNL A   1      34.693  21.107  25.441  1.00  0.00    -0.374 OA
BRANCH   2   3
ATOM      3  C   UNL A   1      34.562  21.701  26.743  1.00  0.00     0.202 C 
BRANCH   3   4
ATOM      4  C   UNL A   1      33.482  22.787  26.849  1.00  0.00     0.261 C 
BRANCH   4   5
ATOM      5  O   UNL A   1      34.045  24.042  26.438  1.00  0.00    -0.462 OA
BRANCH   5   6
ATOM      6  C   UNL A   1      33.394  24.702  25.452  1.00  0.00     0.324 C 
ATOM      7  O   UNL A   1      32.729  24.144  24.588  1.00  0.00    -0.250 OA
BRANCH   6   8
ATOM      8  C   UNL A   1      33.601  26.196  25.534  1.00  0.00     0.185 C 
ATOM      9  C   UNL A   1      33.134  28.337  26.498  1.00  0.00     0.135 C 
ATOM     10  C   UNL A   1      32.646  26.901  26.499  1.00  0.00     0.065 C 
ATOM     11  C   UNL A   1      33.862  28.515  25.150  1.00  0.00     0.135 C 
ATOM     12  N   UNL A   1      33.846  27.163  24.417  1.00  0.00    -0.181 NA
BRANCH   9  13
ATOM     13  O   UNL A   1      34.059  28.553  27.566  1.00  0.00    -0.380 OA
ATOM     14  C   UNL A   1      35.113  29.442  27.210  1.00  0.00     0.195 C 
ENDBRANCH   9  13
BRANCH  12  15
ATOM     15  S   UNL A   1      33.082  27.392  22.917  1.00  0.00     0.246 S 
ATOM     16  O   UNL A   1      33.800  28.488  22.289  1.00  0.00    -0.207 OA
ATOM     17  O   UNL A   1      33.125  26.094  22.268  1.00  0.00    -0.207 OA
BRANCH  15  18
ATOM     18  C   UNL A   1      31.392  27.867  22.841  1.00  0.00     0.118 A 
ATOM     19  C   UNL A   1      31.115  29.092  22.197  1.00  0.00     0.026 A 
ATOM     20  C   UNL A   1      30.346  27.152  23.371  1.00  0.00     0.144 A 
ATOM     21  C   UNL A   1      29.818  29.613  22.172  1.00  0.00     0.022 A 
ATOM     22  C   UNL A   1      29.054  27.688  23.405  1.00  0.00     0.061 A 
ATOM     23  F   UNL A   1      30.523  25.909  23.808  1.00  0.00    -0.205 F 
ATOM     24  C   UNL A   1      28.797  28.923  22.815  1.00  0.00     0.044 A 
ATOM     25  Cl  UNL A   1      27.208  29.582  22.848  1.00  0.00    -0.084 Cl
ENDBRANCH  15  18
ENDBRANCH  12  15
ENDBRANCH   6   8
ENDBRANCH   5   6
ENDBRANCH   4   5
ENDBRANCH   3   4
ENDBRANCH   2   3
ENDBRANCH   1   2
BRANCH   1  26
ATOM     26  C   UNL A   1      37.149  20.791  25.185  1.00  0.00     0.261 C 
BRANCH  26  27
ATOM     27  O   UNL A   1      38.230  21.717  25.106  1.00  0.00    -0.460 OA
BRANCH  27  28
ATOM     28  C   UNL A   1      39.238  21.381  25.937  1.00  0.00     0.338 C 
ATOM     29  O   UNL A   1      39.878  20.340  25.915  1.00  0.00    -0.246 OA
BRANCH  28  30
ATOM     30  C   UNL A   1      39.592  22.571  26.738  1.00  0.00     0.060 A 
ATOM     31  C   UNL A   1      38.828  23.724  26.530  1.00  0.00     0.016 A 
ATOM     32  C   UNL A   1      40.629  22.559  27.682  1.00  0.00     0.016 A 
ATOM     33  C   UNL A   1      39.190  24.906  27.157  1.00  0.00     0.010 A 
ATOM     34  C   UNL A   1      40.980  23.741  28.326  1.00  0.00     0.010 A 
ATOM     35  C   UNL A   1      40.314  24.928  27.992  1.00  0.00    -0.014 A 
BRANCH  35  36
ATOM     36  C   UNL A   1      40.950  26.226  28.277  1.00  0.00     0.031 A 
ATOM     37  C   UNL A   1      42.348  26.444  27.761  1.00  0.00     0.074 A 
ATOM     38  C   UNL A   1      40.275  27.188  28.925  1.00  0.00     0.049 A 
ATOM     39  N   UNL A   1      43.115  27.495  27.868  1.00  0.00    -0.248 NA
ATOM     40  C   UNL A   1      42.971  25.324  27.028  1.00  0.00     0.031 C 
ATOM     41  C   UNL A   1      38.916  27.057  29.453  1.00  0.00     0.029 A 
ATOM     42  N   UNL A   1      40.647  28.460  29.258  1.00  0.00    -0.354 N 
ATOM     43  C   UNL A   1      44.306  27.157  27.236  1.00  0.00     0.074 A 
ATOM     44  C   UNL A   1      44.182  25.795  26.777  1.00  0.00     0.031 C 
ATOM     45  C   UNL A   1      38.578  28.203  30.070  1.00  0.00     0.029 A 
ATOM     46  C   UNL A   1      39.701  29.133  29.994  1.00  0.00     0.049 A 
ATOM     47  H   UNL A   1      41.510  28.856  28.998  1.00  0.00     0.167 HD
ATOM     48  C   UNL A   1      45.398  27.928  27.031  1.00  0.00     0.034 A 
ATOM     49  C   UNL A   1      39.759  30.355  30.554  1.00  0.00     0.034 A 
ATOM     50  C   UNL A   1      45.492  29.288  27.479  1.00  0.00     0.049 A 
ATOM     51  C   UNL A   1      40.998  31.183  30.329  1.00  0.00     0.074 A 
ATOM     52  C   UNL A   1      46.535  30.179  27.315  1.00  0.00     0.029 A 
ATOM     53  N   UNL A   1      44.498  29.952  28.182  1.00  0.00    -0.354 N 
ATOM     54  N   UNL A   1      42.079  30.886  29.647  1.00  0.00    -0.248 NA
ATOM     55  C   UNL A   1      41.011  32.529  30.916  1.00  0.00     0.031 C 
ATOM     56  C   UNL A   1      46.181  31.377  27.944  1.00  0.00     0.029 A 
ATOM     57  C   UNL A   1      44.903  31.242  28.465  1.00  0.00     0.049 A 
ATOM     58  H   UNL A   1      43.632  29.561  28.443  1.00  0.00     0.167 HD
ATOM     59  C   UNL A   1      42.882  32.019  29.690  1.00  0.00     0.074 A 
ATOM     60  C   UNL A   1      42.149  33.017  30.443  1.00  0.00     0.031 C 
ATOM     61  C   UNL A   1      44.119  32.221  29.172  1.00  0.00     0.034 A 
BRANCH  48  62
ATOM     62  C   UNL A   1      46.552  27.334  26.268  1.00  0.00     0.023 A 
ATOM     63  C   UNL A   1      46.595  27.451  24.864  1.00  0.00     0.012 A 
ATOM     64  C   UNL A   1      47.625  26.719  26.942  1.00  0.00     0.148 A 
ATOM     65  C   UNL A   1      47.675  26.947  24.139  1.00  0.00     0.002 A 
ATOM     66  C   UNL A   1      48.719  26.258  26.219  1.00  0.00     0.091 A 
ATOM     67  F   UNL A   1      47.555  26.596  28.274  1.00  0.00    -0.205 F 
ATOM     68  C   UNL A   1      48.741  26.362  24.818  1.00  0.00     0.022 A 
BRANCH  66  69
ATOM     69  S   UNL A   1      50.176  25.554  26.998  1.00  0.00     0.127 S 
ATOM     70  O   UNL A   1      51.058  25.353  25.850  1.00  0.00    -0.237 OA
ATOM     71  O   UNL A   1      50.585  26.630  27.901  1.00  0.00    -0.237 OA
ATOM     72  O   UNL A   1      49.732  24.334  27.657  1.00  0.00    -0.744 OA
ENDBRANCH  66  69
ENDBRANCH  48  62
BRANCH  49  73
ATOM     73  C   UNL A   1      38.618  30.874  31.359  1.00  0.00     0.023 A 
ATOM     74  C   UNL A   1      38.638  30.761  32.763  1.00  0.00     0.012 A 
ATOM     75  C   UNL A   1      37.505  31.470  30.736  1.00  0.00     0.148 A 
ATOM     76  C   UNL A   1      37.549  31.186  33.526  1.00  0.00     0.002 A 
ATOM     77  C   UNL A   1      36.450  31.947  31.507  1.00  0.00     0.091 A 
ATOM     78  F   UNL A   1      37.495  31.557  29.398  1.00  0.00    -0.205 F 
ATOM     79  C   UNL A   1      36.460  31.787  32.900  1.00  0.00     0.022 A 
BRANCH  77  80
ATOM     80  S   UNL A   1      35.075  32.850  30.786  1.00  0.00     0.127 S 
ATOM     81  O   UNL A   1      34.680  31.970  29.690  1.00  0.00    -0.237 OA
ATOM     82  O   UNL A   1      34.131  32.907  31.903  1.00  0.00    -0.237 OA
ATOM     83  O   UNL A   1      35.620  34.144  30.400  1.00  0.00    -0.744 OA
ENDBRANCH  77  80
ENDBRANCH  49  73
BRANCH  61  84
ATOM     84  C   UNL A   1      44.731  33.582  29.359  1.00  0.00     0.023 A 
ATOM     85  C   UNL A   1      45.474  33.866  30.520  1.00  0.00     0.012 A 
ATOM     86  C   UNL A   1      44.626  34.554  28.344  1.00  0.00     0.148 A 
ATOM     87  C   UNL A   1      46.068  35.115  30.690  1.00  0.00     0.002 A 
ATOM     88  C   UNL A   1      45.269  35.774  28.495  1.00  0.00     0.091 A 
ATOM     89  F   UNL A   1      43.902  34.264  27.253  1.00  0.00    -0.205 F 
ATOM     90  C   UNL A   1      45.976  36.063  29.673  1.00  0.00     0.022 A 
BRANCH  88  91
ATOM     91  S   UNL A   1      45.293  37.014  27.196  1.00  0.00     0.127 S 
ATOM     92  O   UNL A   1      46.029  38.102  27.839  1.00  0.00    -0.237 OA
ATOM     93  O   UNL A   1      46.024  36.328  26.130  1.00  0.00    -0.237 OA
ATOM     94  O   UNL A   1      43.900  37.301  26.886  1.00  0.00    -0.744 OA
ENDBRANCH  88  91
ENDBRANCH  61  84
ENDBRANCH  35  36
ENDBRANCH  28  30
ENDBRANCH  27  28
ENDBRANCH  26  27
ENDBRANCH   1  26
TORSDOF 20
ENDMDL
MODEL 3
REMARK VINA RESULT:     -11.5      4.763     10.174
REMARK SMILES CO[C@@H]1C[C@@H](C(=O)OCCOCCOC(=O)c2ccc(-c3c4nc(c(-c5cccc(S(=O)(=O)[O-])c5F)c5ccc([nH]5)c(-c5cccc(S(=O)(=O)[O-])c5F)c5nc(c(-c6cccc(S(=O)(=O)[O-])c6F)c6ccc3[nH]6)C=C5)C=C4)cc2)N(S(=O)(=O)c2ccc(Cl)cc2F)C1
REMARK SMILES IDX 12 1 11 2 10 3 9 4 8 5 6 6 7 7 5 8 3 9 4 10 92 11 80 12 2 13
REMARK SMILES IDX 1 14 81 15 82 16 83 17 84 18 85 19 90 20 86 21 89 22 91 23
REMARK SMILES IDX 87 24 88 25 13 26 14 27 15 28 16 29 17 30 18 31 79 32 19 33
REMARK SMILES IDX 78 34 20 35 21 36 22 37 72 38 23 39 77 40 71 41 73 42 24 43
REMARK SMILES IDX 76 44 70 45 69 46 25 48 57 49 37 50 56 51 38 52 41 53 55 54
REMARK SMILES IDX 74 55 39 56 40 57 54 59 75 60 42 61 26 62 27 63 35 64 28 65
REMARK SMILES IDX 30 66 36 67 29 68 31 69 32 70 33 71 34 72 58 73 59 74 67 75
REMARK SMILES IDX 60 76 62 77 68 78 61 79 63 80 64 81 65 82 66 83 43 84 44 85
REMARK SMILES IDX 52 86 45 87 47 88 53 89 46 90 48 91 49 92 50 93 51 94
REMARK H PARENT 73 47 41 58
REMARK Flexibility Score: inf
ROOT
ATOM      1  C   UNL A   1      32.280  29.990  25.601  1.00  0.00     0.202 C 
ENDROOT
BRANCH   1   2
ATOM      2  O   UNL A   1      31.263  28.983  25.647  1.00  0.00    -0.374 OA
BRANCH   2   3
ATOM      3  C   UNL A   1      31.779  27.667  25.907  1.00  0.00     0.202 C 
BRANCH   3   4
ATOM      4  C   UNL A   1      30.724  26.552  25.913  1.00  0.00     0.261 C 
BRANCH   4   5
ATOM      5  O   UNL A   1      31.294  25.376  26.509  1.00  0.00    -0.462 OA
BRANCH   5   6
ATOM      6  C   UNL A   1      31.312  24.260  25.744  1.00  0.00     0.324 C 
ATOM      7  O   UNL A   1      30.422  23.418  25.753  1.00  0.00    -0.250 OA
BRANCH   6   8
ATOM      8  C   UNL A   1      32.562  24.167  24.901  1.00  0.00     0.185 C 
ATOM      9  C   UNL A   1      33.669  23.802  22.810  1.00  0.00     0.135 C 
ATOM     10  C   UNL A   1      32.309  23.685  23.472  1.00  0.00     0.065 C 
ATOM     11  C   UNL A   1      34.688  23.724  23.965  1.00  0.00     0.135 C 
ATOM     12  N   UNL A   1      33.905  23.630  25.286  1.00  0.00    -0.181 NA
BRANCH   9  13
ATOM     13  O   UNL A   1      33.798  25.064  22.151  1.00  0.00    -0.380 OA
ATOM     14  C   UNL A   1      32.650  25.404  21.380  1.00  0.00     0.195 C 
ENDBRANCH   9  13
BRANCH  12  15
ATOM     15  S   UNL A   1      34.382  22.203  26.074  1.00  0.00     0.246 S 
ATOM     16  O   UNL A   1      35.831  22.278  26.153  1.00  0.00    -0.207 OA
ATOM     17  O   UNL A   1      33.635  22.191  27.319  1.00  0.00    -0.207 OA
BRANCH  15  18
ATOM     18  C   UNL A   1      34.057  20.635  25.350  1.00  0.00     0.118 A 
ATOM     19  C   UNL A   1      35.170  19.786  25.171  1.00  0.00     0.026 A 
ATOM     20  C   UNL A   1      32.823  20.196  24.937  1.00  0.00     0.144 A 
ATOM     21  C   UNL A   1      35.040  18.560  24.511  1.00  0.00     0.022 A 
ATOM     22  C   UNL A   1      32.688  18.999  24.224  1.00  0.00     0.061 A 
ATOM     23  F   UNL A   1      31.720  20.864  25.259  1.00  0.00    -0.205 F 
ATOM     24  C   UNL A   1      33.801  18.191  24.003  1.00  0.00     0.044 A 
ATOM     25  Cl  UNL A   1      33.637  16.716  23.133  1.00  0.00    -0.084 Cl
ENDBRANCH  15  18
ENDBRANCH  12  15
ENDBRANCH   6   8
ENDBRANCH   5   6
ENDBRANCH   4   5
ENDBRANCH   3   4
ENDBRANCH   2   3
ENDBRANCH   1   2
BRANCH   1  26
ATOM     26  C   UNL A   1      31.994  31.218  26.464  1.00  0.00     0.261 C 
BRANCH  26  27
ATOM     27  O   UNL A   1      32.797  31.121  27.639  1.00  0.00    -0.460 OA
BRANCH  27  28
ATOM     28  C   UNL A   1      33.616  32.184  27.773  1.00  0.00     0.338 C 
ATOM     29  O   UNL A   1      33.274  33.351  27.892  1.00  0.00    -0.246 OA
BRANCH  28  30
ATOM     30  C   UNL A   1      34.991  31.685  27.976  1.00  0.00     0.060 A 
ATOM     31  C   UNL A   1      35.163  30.297  27.995  1.00  0.00     0.016 A 
ATOM     32  C   UNL A   1      36.089  32.545  28.125  1.00  0.00     0.016 A 
ATOM     33  C   UNL A   1      36.406  29.766  28.308  1.00  0.00     0.010 A 
ATOM     34  C   UNL A   1      37.339  32.012  28.419  1.00  0.00     0.010 A 
ATOM     35  C   UNL A   1      37.471  30.628  28.596  1.00  0.00    -0.014 A 
BRANCH  35  36
ATOM     36  C   UNL A   1      38.619  30.096  29.351  1.00  0.00     0.031 A 
ATOM     37  C   UNL A   1      38.797  30.567  30.771  1.00  0.00     0.074 A 
ATOM     38  C   UNL A   1      39.432  29.182  28.799  1.00  0.00     0.049 A 
ATOM     39  N   UNL A   1      39.712  30.241  31.642  1.00  0.00    -0.248 NA
ATOM     40  C   UNL A   1      37.812  31.544  31.277  1.00  0.00     0.031 C 
ATOM     41  C   UNL A   1      39.325  28.671  27.432  1.00  0.00     0.029 A 
ATOM     42  N   UNL A   1      40.517  28.534  29.320  1.00  0.00    -0.354 N 
ATOM     43  C   UNL A   1      39.425  30.981  32.783  1.00  0.00     0.074 A 
ATOM     44  C   UNL A   1      38.274  31.799  32.491  1.00  0.00     0.031 C 
ATOM     45  C   UNL A   1      40.326  27.801  27.214  1.00  0.00     0.029 A 
ATOM     46  C   UNL A   1      41.150  27.713  28.417  1.00  0.00     0.049 A 
ATOM     47  H   UNL A   1      40.818  28.645  30.251  1.00  0.00     0.167 HD
ATOM     48  C   UNL A   1      40.051  30.955  33.982  1.00  0.00     0.034 A 
ATOM     49  C   UNL A   1      42.279  26.994  28.555  1.00  0.00     0.034 A 
ATOM     50  C   UNL A   1      41.182  30.116  34.257  1.00  0.00     0.049 A 
ATOM     51  C   UNL A   1      42.969  27.003  29.895  1.00  0.00     0.074 A 
ATOM     52  C   UNL A   1      41.891  29.985  35.436  1.00  0.00     0.029 A 
ATOM     53  N   UNL A   1      41.770  29.265  33.334  1.00  0.00    -0.354 N 
ATOM     54  N   UNL A   1      42.630  27.632  30.996  1.00  0.00    -0.248 NA
ATOM     55  C   UNL A   1      44.173  26.172  30.026  1.00  0.00     0.031 C 
ATOM     56  C   UNL A   1      42.926  29.071  35.216  1.00  0.00     0.029 A 
ATOM     57  C   UNL A   1      42.837  28.606  33.913  1.00  0.00     0.049 A 
ATOM     58  H   UNL A   1      41.472  29.148  32.402  1.00  0.00     0.167 HD
ATOM     59  C   UNL A   1      43.554  27.245  31.958  1.00  0.00     0.074 A 
ATOM     60  C   UNL A   1      44.451  26.304  31.316  1.00  0.00     0.031 C 
ATOM     61  C   UNL A   1      43.670  27.636  33.252  1.00  0.00     0.034 A 
BRANCH  48  62
ATOM     62  C   UNL A   1      39.509  31.826  35.083  1.00  0.00     0.023 A 
ATOM     63  C   UNL A   1      38.563  31.301  35.988  1.00  0.00     0.012 A 
ATOM     64  C   UNL A   1      39.981  33.140  35.265  1.00  0.00     0.148 A 
ATOM     65  C   UNL A   1      38.078  32.076  37.042  1.00  0.00     0.002 A 
ATOM     66  C   UNL A   1      39.528  33.891  36.344  1.00  0.00     0.091 A 
ATOM     67  F   UNL A   1      40.862  33.629  34.382  1.00  0.00    -0.205 F 
ATOM     68  C   UNL A   1      38.570  33.365  37.226  1.00  0.00     0.022 A 
BRANCH  66  69
ATOM     69  S   UNL A   1      40.149  35.536  36.715  1.00  0.00     0.127 S 
ATOM     70  O   UNL A   1      39.459  36.346  35.712  1.00  0.00    -0.237 OA
ATOM     71  O   UNL A   1      39.680  35.734  38.086  1.00  0.00    -0.237 OA
ATOM     72  O   UNL A   1      41.595  35.466  36.563  1.00  0.00    -0.744 OA
ENDBRANCH  66  69
ENDBRANCH  48  62
BRANCH  49  73
ATOM     73  C   UNL A   1      42.815  26.200  27.415  1.00  0.00     0.023 A 
ATOM     74  C   UNL A   1      43.716  26.792  26.507  1.00  0.00     0.012 A 
ATOM     75  C   UNL A   1      42.427  24.861  27.219  1.00  0.00     0.148 A 
ATOM     76  C   UNL A   1      44.179  26.080  25.399  1.00  0.00     0.002 A 
ATOM     77  C   UNL A   1      42.939  24.139  26.147  1.00  0.00     0.091 A 
ATOM     78  F   UNL A   1      41.559  24.317  28.083  1.00  0.00    -0.205 F 
ATOM     79  C   UNL A   1      43.799  24.753  25.224  1.00  0.00     0.022 A 
BRANCH  77  80
ATOM     80  S   UNL A   1      42.602  22.388  25.928  1.00  0.00     0.127 S 
ATOM     81  O   UNL A   1      43.247  22.117  24.647  1.00  0.00    -0.237 OA
ATOM     82  O   UNL A   1      43.269  21.803  27.092  1.00  0.00    -0.237 OA
ATOM     83  O   UNL A   1      41.151  22.266  25.950  1.00  0.00    -0.744 OA
ENDBRANCH  77  80
ENDBRANCH  49  73
BRANCH  61  84
ATOM     84  C   UNL A   1      44.770  27.011  34.065  1.00  0.00     0.023 A 
ATOM     85  C   UNL A   1      46.032  27.631  34.138  1.00  0.00     0.012 A 
ATOM     86  C   UNL A   1      44.524  25.844  34.815  1.00  0.00     0.148 A 
ATOM     87  C   UNL A   1      47.048  27.075  34.911  1.00  0.00     0.002 A 
ATOM     88  C   UNL A   1      45.523  25.328  35.628  1.00  0.00     0.091 A 
ATOM     89  F   UNL A   1      43.318  25.264  34.719  1.00  0.00    -0.205 F 
ATOM     90  C   UNL A   1      46.790  25.932  35.665  1.00  0.00     0.022 A 
BRANCH  88  91
ATOM     91  S   UNL A   1      45.250  23.923  36.712  1.00  0.00     0.127 S 
ATOM     92  O   UNL A   1      46.617  23.572  37.092  1.00  0.00    -0.237 OA
ATOM     93  O   UNL A   1      44.451  24.515  37.786  1.00  0.00    -0.237 OA
ATOM     94  O   UNL A   1      44.548  22.928  35.914  1.00  0.00    -0.744 OA
ENDBRANCH  88  91
ENDBRANCH  61  84
ENDBRANCH  35  36
ENDBRANCH  28  30
ENDBRANCH  27  28
ENDBRANCH  26  27
ENDBRANCH   1  26
TORSDOF 20
ENDMDL
