MODEL 1
REMARK VINA RESULT:     -10.5      0.000      0.000
REMARK SMILES O=C(Cc1ccc(CBr)cc1)OCCOCCOC(=O)c1ccc(-c2c3nc(c(-c4cccc(S(=O)(=O)[O-])c4F)c4ccc([nH]4)c(-c4cccc(S(=O)(=O)[O-])c4F)c4nc(c(-c5cccc(S(=O)(=O)[O-])c5F)c5ccc2[nH]5)C=C4)C=C3)cc1
REMARK SMILES IDX 16 1 15 2 14 3 13 4 12 5 2 6 1 7 3 8 4 9 5 10 11 11 6 12
REMARK SMILES IDX 10 13 7 14 8 15 9 16 17 17 18 18 19 19 20 20 21 21 22 22
REMARK SMILES IDX 83 23 23 24 82 25 24 26 25 27 26 28 76 29 27 30 81 31 75 32
REMARK SMILES IDX 77 33 28 34 80 35 74 36 73 37 29 39 61 40 41 41 60 42 42 43
REMARK SMILES IDX 45 44 59 45 78 46 43 47 44 48 58 50 79 51 46 52 30 53 31 54
REMARK SMILES IDX 39 55 32 56 34 57 40 58 33 59 35 60 36 61 37 62 38 63 62 64
REMARK SMILES IDX 63 65 71 66 64 67 66 68 72 69 65 70 67 71 68 72 69 73 70 74
REMARK SMILES IDX 47 75 48 76 56 77 49 78 51 79 57 80 50 81 52 82 53 83 54 84
REMARK SMILES IDX 55 85
REMARK H PARENT 77 38 45 49
REMARK Flexibility Score: inf
ROOT
ATOM      1  C   UNL A   1      35.780  19.965  24.978  1.00  0.00     0.202 C 
ENDROOT
BRANCH   1   2
ATOM      2  O   UNL A   1      34.971  21.016  25.524  1.00  0.00    -0.374 OA
BRANCH   2   3
ATOM      3  C   UNL A   1      34.052  21.624  24.618  1.00  0.00     0.202 C 
BRANCH   3   4
ATOM      4  C   UNL A   1      32.699  20.942  24.427  1.00  0.00     0.261 C 
BRANCH   4   5
ATOM      5  O   UNL A   1      31.714  21.298  25.411  1.00  0.00    -0.463 OA
BRANCH   5   6
ATOM      6  C   UNL A   1      31.497  22.533  25.915  1.00  0.00     0.310 C 
ATOM      7  O   UNL A   1      31.535  22.697  27.137  1.00  0.00    -0.252 OA
BRANCH   6   8
ATOM      8  C   UNL A   1      31.118  23.690  25.015  1.00  0.00     0.158 C 
BRANCH   8   9
ATOM      9  C   UNL A   1      31.679  25.029  25.402  1.00  0.00    -0.037 A 
ATOM     10  C   UNL A   1      33.044  25.301  25.232  1.00  0.00     0.004 A 
ATOM     11  C   UNL A   1      30.858  25.979  26.017  1.00  0.00     0.004 A 
ATOM     12  C   UNL A   1      33.592  26.476  25.745  1.00  0.00     0.005 A 
ATOM     13  C   UNL A   1      31.406  27.156  26.519  1.00  0.00     0.005 A 
ATOM     14  C   UNL A   1      32.779  27.410  26.406  1.00  0.00    -0.037 A 
BRANCH  14  15
ATOM     15  C   UNL A   1      33.367  28.654  27.000  1.00  0.00     0.116 C 
ATOM     16  Br  UNL A   1      32.148  30.147  26.753  1.00  0.00    -0.088 Br
ENDBRANCH  14  15
ENDBRANCH   8   9
ENDBRANCH   6   8
ENDBRANCH   5   6
ENDBRANCH   4   5
ENDBRANCH   3   4
ENDBRANCH   2   3
ENDBRANCH   1   2
BRANCH   1  17
ATOM     17  C   UNL A   1      37.236  20.315  24.652  1.00  0.00     0.261 C 
BRANCH  17  18
ATOM     18  O   UNL A   1      37.756  21.314  25.540  1.00  0.00    -0.460 OA
BRANCH  18  19
ATOM     19  C   UNL A   1      39.001  21.063  26.009  1.00  0.00     0.338 C 
ATOM     20  O   UNL A   1      39.671  20.059  25.818  1.00  0.00    -0.246 OA
BRANCH  19  21
ATOM     21  C   UNL A   1      39.542  22.293  26.619  1.00  0.00     0.060 A 
ATOM     22  C   UNL A   1      38.978  23.513  26.223  1.00  0.00     0.016 A 
ATOM     23  C   UNL A   1      40.579  22.257  27.554  1.00  0.00     0.016 A 
ATOM     24  C   UNL A   1      39.502  24.710  26.700  1.00  0.00     0.010 A 
ATOM     25  C   UNL A   1      41.106  23.457  28.031  1.00  0.00     0.010 A 
ATOM     26  C   UNL A   1      40.603  24.685  27.564  1.00  0.00    -0.014 A 
BRANCH  26  27
ATOM     27  C   UNL A   1      41.349  25.934  27.827  1.00  0.00     0.031 A 
ATOM     28  C   UNL A   1      40.645  27.046  28.554  1.00  0.00     0.074 A 
ATOM     29  C   UNL A   1      42.623  26.071  27.423  1.00  0.00     0.049 A 
ATOM     30  N   UNL A   1      41.074  28.242  28.853  1.00  0.00    -0.248 NA
ATOM     31  C   UNL A   1      39.267  26.773  29.000  1.00  0.00     0.031 C 
ATOM     32  C   UNL A   1      43.399  25.056  26.714  1.00  0.00     0.029 A 
ATOM     33  N   UNL A   1      43.478  27.138  27.530  1.00  0.00    -0.354 N 
ATOM     34  C   UNL A   1      40.011  28.878  29.482  1.00  0.00     0.074 A 
ATOM     35  C   UNL A   1      38.912  27.941  29.514  1.00  0.00     0.031 C 
ATOM     36  C   UNL A   1      44.609  25.561  26.419  1.00  0.00     0.029 A 
ATOM     37  C   UNL A   1      44.679  26.942  26.892  1.00  0.00     0.049 A 
ATOM     38  H   UNL A   1      43.252  27.965  28.015  1.00  0.00     0.167 HD
ATOM     39  C   UNL A   1      39.960  30.128  29.996  1.00  0.00     0.034 A 
ATOM     40  C   UNL A   1      45.702  27.794  26.689  1.00  0.00     0.034 A 
ATOM     41  C   UNL A   1      41.066  31.045  29.973  1.00  0.00     0.049 A 
ATOM     42  C   UNL A   1      45.615  29.186  27.258  1.00  0.00     0.074 A 
ATOM     43  C   UNL A   1      41.142  32.316  30.513  1.00  0.00     0.029 A 
ATOM     44  N   UNL A   1      42.285  30.796  29.361  1.00  0.00    -0.354 N 
ATOM     45  N   UNL A   1      44.646  29.737  27.948  1.00  0.00    -0.248 NA
ATOM     46  C   UNL A   1      46.777  30.061  27.050  1.00  0.00     0.031 C 
ATOM     47  C   UNL A   1      42.393  32.852  30.192  1.00  0.00     0.029 A 
ATOM     48  C   UNL A   1      43.115  31.895  29.495  1.00  0.00     0.049 A 
ATOM     49  H   UNL A   1      42.525  29.960  28.900  1.00  0.00     0.167 HD
ATOM     50  C   UNL A   1      45.096  31.008  28.291  1.00  0.00     0.074 A 
ATOM     51  C   UNL A   1      46.432  31.136  27.747  1.00  0.00     0.031 C 
ATOM     52  C   UNL A   1      44.460  31.985  28.985  1.00  0.00     0.034 A 
BRANCH  39  53
ATOM     53  C   UNL A   1      38.671  30.575  30.633  1.00  0.00     0.023 A 
ATOM     54  C   UNL A   1      38.456  30.371  32.011  1.00  0.00     0.012 A 
ATOM     55  C   UNL A   1      37.692  31.246  29.873  1.00  0.00     0.148 A 
ATOM     56  C   UNL A   1      37.274  30.798  32.616  1.00  0.00     0.002 A 
ATOM     57  C   UNL A   1      36.540  31.713  30.494  1.00  0.00     0.091 A 
ATOM     58  F   UNL A   1      37.904  31.409  28.560  1.00  0.00    -0.205 F 
ATOM     59  C   UNL A   1      36.323  31.478  31.861  1.00  0.00     0.022 A 
BRANCH  57  60
ATOM     60  S   UNL A   1      35.293  32.672  29.627  1.00  0.00     0.127 S 
ATOM     61  O   UNL A   1      34.427  33.094  30.727  1.00  0.00    -0.237 OA
ATOM     62  O   UNL A   1      36.091  33.745  29.034  1.00  0.00    -0.237 OA
ATOM     63  O   UNL A   1      34.681  31.764  28.666  1.00  0.00    -0.744 OA
ENDBRANCH  57  60
ENDBRANCH  39  53
BRANCH  40  64
ATOM     64  C   UNL A   1      46.904  27.347  25.931  1.00  0.00     0.023 A 
ATOM     65  C   UNL A   1      47.839  26.492  26.542  1.00  0.00     0.012 A 
ATOM     66  C   UNL A   1      47.112  27.752  24.597  1.00  0.00     0.148 A 
ATOM     67  C   UNL A   1      48.977  26.073  25.852  1.00  0.00     0.002 A 
ATOM     68  C   UNL A   1      48.218  27.286  23.897  1.00  0.00     0.091 A 
ATOM     69  F   UNL A   1      46.216  28.577  24.037  1.00  0.00    -0.205 F 
ATOM     70  C   UNL A   1      49.161  26.461  24.528  1.00  0.00     0.022 A 
BRANCH  68  71
ATOM     71  S   UNL A   1      48.471  27.630  22.153  1.00  0.00     0.127 S 
ATOM     72  O   UNL A   1      47.242  28.339  21.807  1.00  0.00    -0.237 OA
ATOM     73  O   UNL A   1      49.675  28.460  22.183  1.00  0.00    -0.237 OA
ATOM     74  O   UNL A   1      48.652  26.332  21.516  1.00  0.00    -0.744 OA
ENDBRANCH  68  71
ENDBRANCH  40  64
BRANCH  52  75
ATOM     75  C   UNL A   1      45.215  33.263  29.243  1.00  0.00     0.023 A 
ATOM     76  C   UNL A   1      46.019  33.391  30.393  1.00  0.00     0.012 A 
ATOM     77  C   UNL A   1      45.181  34.312  28.302  1.00  0.00     0.148 A 
ATOM     78  C   UNL A   1      46.745  34.559  30.621  1.00  0.00     0.002 A 
ATOM     79  C   UNL A   1      45.951  35.448  28.509  1.00  0.00     0.091 A 
ATOM     80  F   UNL A   1      44.399  34.176  27.221  1.00  0.00    -0.205 F 
ATOM     81  C   UNL A   1      46.721  35.582  29.675  1.00  0.00     0.022 A 
BRANCH  79  82
ATOM     82  S   UNL A   1      46.063  36.769  27.297  1.00  0.00     0.127 S 
ATOM     83  O   UNL A   1      47.102  37.618  27.878  1.00  0.00    -0.237 OA
ATOM     84  O   UNL A   1      46.468  36.049  26.090  1.00  0.00    -0.237 OA
ATOM     85  O   UNL A   1      44.737  37.368  27.229  1.00  0.00    -0.744 OA
ENDBRANCH  79  82
ENDBRANCH  52  75
ENDBRANCH  26  27
ENDBRANCH  19  21
ENDBRANCH  18  19
ENDBRANCH  17  18
ENDBRANCH   1  17
TORSDOF 19
ENDMDL
MODEL 2
REMARK VINA RESULT:     -10.5      5.875      9.727
REMARK SMILES O=C(Cc1ccc(CBr)cc1)OCCOCCOC(=O)c1ccc(-c2c3nc(c(-c4cccc(S(=O)(=O)[O-])c4F)c4ccc([nH]4)c(-c4cccc(S(=O)(=O)[O-])c4F)c4nc(c(-c5cccc(S(=O)(=O)[O-])c5F)c5ccc2[nH]5)C=C4)C=C3)cc1
REMARK SMILES IDX 16 1 15 2 14 3 13 4 12 5 2 6 1 7 3 8 4 9 5 10 11 11 6 12
REMARK SMILES IDX 10 13 7 14 8 15 9 16 17 17 18 18 19 19 20 20 21 21 22 22
REMARK SMILES IDX 83 23 23 24 82 25 24 26 25 27 26 28 76 29 27 30 81 31 75 32
REMARK SMILES IDX 77 33 28 34 80 35 74 36 73 37 29 39 61 40 41 41 60 42 42 43
REMARK SMILES IDX 45 44 59 45 78 46 43 47 44 48 58 50 79 51 46 52 30 53 31 54
REMARK SMILES IDX 39 55 32 56 34 57 40 58 33 59 35 60 36 61 37 62 38 63 62 64
REMARK SMILES IDX 63 65 71 66 64 67 66 68 72 69 65 70 67 71 68 72 69 73 70 74
REMARK SMILES IDX 47 75 48 76 56 77 49 78 51 79 57 80 50 81 52 82 53 83 54 84
REMARK SMILES IDX 55 85
REMARK H PARENT 77 38 45 49
REMARK Flexibility Score: inf
ROOT
ATOM      1  C   UNL A   1      35.018  34.105  29.520  1.00  0.00     0.202 C 
ENDROOT
BRANCH   1   2
ATOM      2  O   UNL A   1      34.119  33.537  30.483  1.00  0.00    -0.374 OA
BRANCH   2   3
ATOM      3  C   UNL A   1      34.698  32.608  31.397  1.00  0.00     0.202 C 
BRANCH   3   4
ATOM      4  C   UNL A   1      34.414  32.816  32.883  1.00  0.00     0.261 C 
BRANCH   4   5
ATOM      5  O   UNL A   1      35.384  33.632  33.560  1.00  0.00    -0.463 OA
BRANCH   5   6
ATOM      6  C   UNL A   1      36.728  33.520  33.469  1.00  0.00     0.310 C 
ATOM      7  O   UNL A   1      37.269  32.476  33.840  1.00  0.00    -0.252 OA
BRANCH   6   8
ATOM      8  C   UNL A   1      37.581  34.685  33.009  1.00  0.00     0.158 C 
BRANCH   8   9
ATOM      9  C   UNL A   1      38.810  34.323  32.225  1.00  0.00    -0.037 A 
ATOM     10  C   UNL A   1      40.073  34.351  32.833  1.00  0.00     0.004 A 
ATOM     11  C   UNL A   1      38.708  34.041  30.859  1.00  0.00     0.004 A 
ATOM     12  C   UNL A   1      41.223  34.179  32.065  1.00  0.00     0.005 A 
ATOM     13  C   UNL A   1      39.858  33.860  30.095  1.00  0.00     0.005 A 
ATOM     14  C   UNL A   1      41.127  33.945  30.684  1.00  0.00    -0.037 A 
BRANCH  14  15
ATOM     15  C   UNL A   1      42.359  33.804  29.843  1.00  0.00     0.116 C 
ATOM     16  Br  UNL A   1      42.877  31.934  29.732  1.00  0.00    -0.088 Br
ENDBRANCH  14  15
ENDBRANCH   8   9
ENDBRANCH   6   8
ENDBRANCH   5   6
ENDBRANCH   4   5
ENDBRANCH   3   4
ENDBRANCH   2   3
ENDBRANCH   1   2
BRANCH   1  17
ATOM     17  C   UNL A   1      34.635  33.950  28.044  1.00  0.00     0.261 C 
BRANCH  17  18
ATOM     18  O   UNL A   1      35.338  32.865  27.423  1.00  0.00    -0.460 OA
BRANCH  18  19
ATOM     19  C   UNL A   1      34.860  31.634  27.724  1.00  0.00     0.338 C 
ATOM     20  O   UNL A   1      33.711  31.238  27.590  1.00  0.00    -0.246 OA
BRANCH  19  21
ATOM     21  C   UNL A   1      35.992  30.742  28.039  1.00  0.00     0.060 A 
ATOM     22  C   UNL A   1      35.851  29.884  29.139  1.00  0.00     0.016 A 
ATOM     23  C   UNL A   1      37.166  30.744  27.283  1.00  0.00     0.016 A 
ATOM     24  C   UNL A   1      36.914  29.080  29.535  1.00  0.00     0.010 A 
ATOM     25  C   UNL A   1      38.233  29.940  27.683  1.00  0.00     0.010 A 
ATOM     26  C   UNL A   1      38.126  29.147  28.840  1.00  0.00    -0.014 A 
BRANCH  26  27
ATOM     27  C   UNL A   1      39.338  28.541  29.430  1.00  0.00     0.031 A 
ATOM     28  C   UNL A   1      39.923  29.172  30.664  1.00  0.00     0.074 A 
ATOM     29  C   UNL A   1      39.904  27.456  28.876  1.00  0.00     0.049 A 
ATOM     30  N   UNL A   1      41.000  28.851  31.327  1.00  0.00    -0.248 NA
ATOM     31  C   UNL A   1      39.195  30.326  31.222  1.00  0.00     0.031 C 
ATOM     32  C   UNL A   1      39.418  26.764  27.684  1.00  0.00     0.029 A 
ATOM     33  N   UNL A   1      41.032  26.763  29.234  1.00  0.00    -0.354 N 
ATOM     34  C   UNL A   1      41.104  29.784  32.352  1.00  0.00     0.074 A 
ATOM     35  C   UNL A   1      39.987  30.690  32.219  1.00  0.00     0.031 C 
ATOM     36  C   UNL A   1      40.263  25.763  27.387  1.00  0.00     0.029 A 
ATOM     37  C   UNL A   1      41.362  25.763  28.351  1.00  0.00     0.049 A 
ATOM     38  H   UNL A   1      41.556  26.963  30.043  1.00  0.00     0.167 HD
ATOM     39  C   UNL A   1      42.042  29.869  33.323  1.00  0.00     0.034 A 
ATOM     40  C   UNL A   1      42.445  24.963  28.311  1.00  0.00     0.034 A 
ATOM     41  C   UNL A   1      43.139  28.951  33.455  1.00  0.00     0.049 A 
ATOM     42  C   UNL A   1      43.483  25.088  29.396  1.00  0.00     0.074 A 
ATOM     43  C   UNL A   1      44.116  28.912  34.434  1.00  0.00     0.029 A 
ATOM     44  N   UNL A   1      43.416  27.920  32.571  1.00  0.00    -0.354 N 
ATOM     45  N   UNL A   1      43.511  25.903  30.423  1.00  0.00    -0.248 NA
ATOM     46  C   UNL A   1      44.621  24.160  29.334  1.00  0.00     0.031 C 
ATOM     47  C   UNL A   1      45.008  27.883  34.117  1.00  0.00     0.029 A 
ATOM     48  C   UNL A   1      44.558  27.248  32.970  1.00  0.00     0.049 A 
ATOM     49  H   UNL A   1      42.879  27.698  31.777  1.00  0.00     0.167 HD
ATOM     50  C   UNL A   1      44.645  25.561  31.152  1.00  0.00     0.074 A 
ATOM     51  C   UNL A   1      45.266  24.453  30.456  1.00  0.00     0.031 C 
ATOM     52  C   UNL A   1      45.135  26.117  32.288  1.00  0.00     0.034 A 
BRANCH  39  53
ATOM     53  C   UNL A   1      41.919  30.989  34.323  1.00  0.00     0.023 A 
ATOM     54  C   UNL A   1      42.873  32.027  34.341  1.00  0.00     0.012 A 
ATOM     55  C   UNL A   1      40.827  31.039  35.211  1.00  0.00     0.148 A 
ATOM     56  C   UNL A   1      42.759  33.080  35.249  1.00  0.00     0.002 A 
ATOM     57  C   UNL A   1      40.693  32.118  36.078  1.00  0.00     0.091 A 
ATOM     58  F   UNL A   1      39.944  30.031  35.196  1.00  0.00    -0.205 F 
ATOM     59  C   UNL A   1      41.665  33.131  36.107  1.00  0.00     0.022 A 
BRANCH  57  60
ATOM     60  S   UNL A   1      39.278  32.317  37.166  1.00  0.00     0.127 S 
ATOM     61  O   UNL A   1      38.514  31.103  36.881  1.00  0.00    -0.237 OA
ATOM     62  O   UNL A   1      39.910  32.344  38.485  1.00  0.00    -0.237 OA
ATOM     63  O   UNL A   1      38.637  33.563  36.771  1.00  0.00    -0.744 OA
ENDBRANCH  57  60
ENDBRANCH  39  53
BRANCH  40  64
ATOM     64  C   UNL A   1      42.590  23.960  27.220  1.00  0.00     0.023 A 
ATOM     65  C   UNL A   1      43.378  24.261  26.094  1.00  0.00     0.012 A 
ATOM     66  C   UNL A   1      41.965  22.700  27.304  1.00  0.00     0.148 A 
ATOM     67  C   UNL A   1      43.515  23.339  25.055  1.00  0.00     0.002 A 
ATOM     68  C   UNL A   1      42.152  21.765  26.294  1.00  0.00     0.091 A 
ATOM     69  F   UNL A   1      41.209  22.437  28.381  1.00  0.00    -0.205 F 
ATOM     70  C   UNL A   1      42.911  22.089  25.160  1.00  0.00     0.022 A 
BRANCH  68  71
ATOM     71  S   UNL A   1      41.519  20.088  26.401  1.00  0.00     0.127 S 
ATOM     72  O   UNL A   1      42.157  19.454  25.250  1.00  0.00    -0.237 OA
ATOM     73  O   UNL A   1      42.027  19.659  27.703  1.00  0.00    -0.237 OA
ATOM     74  O   UNL A   1      40.068  20.208  26.331  1.00  0.00    -0.744 OA
ENDBRANCH  68  71
ENDBRANCH  40  64
BRANCH  52  75
ATOM     75  C   UNL A   1      46.377  25.508  32.885  1.00  0.00     0.023 A 
ATOM     76  C   UNL A   1      47.647  26.016  32.549  1.00  0.00     0.012 A 
ATOM     77  C   UNL A   1      46.274  24.475  33.838  1.00  0.00     0.148 A 
ATOM     78  C   UNL A   1      48.798  25.477  33.122  1.00  0.00     0.002 A 
ATOM     79  C   UNL A   1      47.421  23.983  34.447  1.00  0.00     0.091 A 
ATOM     80  F   UNL A   1      45.057  23.997  34.135  1.00  0.00    -0.205 F 
ATOM     81  C   UNL A   1      48.685  24.470  34.079  1.00  0.00     0.022 A 
BRANCH  79  82
ATOM     82  S   UNL A   1      47.365  22.761  35.763  1.00  0.00     0.127 S 
ATOM     83  O   UNL A   1      48.778  22.418  35.910  1.00  0.00    -0.237 OA
ATOM     84  O   UNL A   1      46.804  23.530  36.874  1.00  0.00    -0.237 OA
ATOM     85  O   UNL A   1      46.510  21.686  35.278  1.00  0.00    -0.744 OA
ENDBRANCH  79  82
ENDBRANCH  52  75
ENDBRANCH  26  27
ENDBRANCH  19  21
ENDBRANCH  18  19
ENDBRANCH  17  18
ENDBRANCH   1  17
TORSDOF 19
ENDMDL
MODEL 3
REMARK VINA RESULT:     -10.4      5.678     10.951
REMARK SMILES O=C(Cc1ccc(CBr)cc1)OCCOCCOC(=O)c1ccc(-c2c3nc(c(-c4cccc(S(=O)(=O)[O-])c4F)c4ccc([nH]4)c(-c4cccc(S(=O)(=O)[O-])c4F)c4nc(c(-c5cccc(S(=O)(=O)[O-])c5F)c5ccc2[nH]5)C=C4)C=C3)cc1
REMARK SMILES IDX 16 1 15 2 14 3 13 4 12 5 2 6 1 7 3 8 4 9 5 10 11 11 6 12
REMARK SMILES IDX 10 13 7 14 8 15 9 16 17 17 18 18 19 19 20 20 21 21 22 22
REMARK SMILES IDX 83 23 23 24 82 25 24 26 25 27 26 28 76 29 27 30 81 31 75 32
REMARK SMILES IDX 77 33 28 34 80 35 74 36 73 37 29 39 61 40 41 41 60 42 42 43
REMARK SMILES IDX 45 44 59 45 78 46 43 47 44 48 58 50 79 51 46 52 30 53 31 54
REMARK SMILES IDX 39 55 32 56 34 57 40 58 33 59 35 60 36 61 37 62 38 63 62 64
REMARK SMILES IDX 63 65 71 66 64 67 66 68 72 69 65 70 67 71 68 72 69 73 70 74
REMARK SMILES IDX 47 75 48 76 56 77 49 78 51 79 57 80 50 81 52 82 53 83 54 84
REMARK SMILES IDX 55 85
REMARK H PARENT 77 38 45 49
REMARK Flexibility Score: inf
ROOT
ATOM      1  C   UNL A   1      31.576  31.654  26.645  1.00  0.00     0.202 C 
ENDROOT
BRANCH   1   2
ATOM      2  O   UNL A   1      32.571  30.737  27.120  1.00  0.00    -0.374 OA
BRANCH   2   3
ATOM      3  C   UNL A   1      32.872  29.646  26.252  1.00  0.00     0.202 C 
BRANCH   3   4
ATOM      4  C   UNL A   1      33.869  28.604  26.755  1.00  0.00     0.261 C 
BRANCH   4   5
ATOM      5  O   UNL A   1      33.477  27.244  26.507  1.00  0.00    -0.463 OA
BRANCH   5   6
ATOM      6  C   UNL A   1      32.271  26.827  26.062  1.00  0.00     0.310 C 
ATOM      7  O   UNL A   1      31.364  26.637  26.876  1.00  0.00    -0.252 OA
BRANCH   6   8
ATOM      8  C   UNL A   1      32.045  26.503  24.600  1.00  0.00     0.158 C 
BRANCH   8   9
ATOM      9  C   UNL A   1      30.944  27.270  23.924  1.00  0.00    -0.037 A 
ATOM     10  C   UNL A   1      31.200  28.526  23.355  1.00  0.00     0.004 A 
ATOM     11  C   UNL A   1      29.637  26.772  23.938  1.00  0.00     0.004 A 
ATOM     12  C   UNL A   1      30.147  29.305  22.880  1.00  0.00     0.005 A 
ATOM     13  C   UNL A   1      28.588  27.550  23.454  1.00  0.00     0.005 A 
ATOM     14  C   UNL A   1      28.828  28.830  22.937  1.00  0.00    -0.037 A 
BRANCH  14  15
ATOM     15  C   UNL A   1      27.685  29.680  22.471  1.00  0.00     0.116 C 
ATOM     16  Br  UNL A   1      27.785  31.437  23.295  1.00  0.00    -0.088 Br
ENDBRANCH  14  15
ENDBRANCH   8   9
ENDBRANCH   6   8
ENDBRANCH   5   6
ENDBRANCH   4   5
ENDBRANCH   3   4
ENDBRANCH   2   3
ENDBRANCH   1   2
BRANCH   1  17
ATOM     17  C   UNL A   1      31.866  33.147  26.838  1.00  0.00     0.261 C 
BRANCH  17  18
ATOM     18  O   UNL A   1      32.225  33.449  28.193  1.00  0.00    -0.460 OA
BRANCH  18  19
ATOM     19  C   UNL A   1      33.256  34.316  28.326  1.00  0.00     0.338 C 
ATOM     20  O   UNL A   1      33.199  35.537  28.309  1.00  0.00    -0.246 OA
BRANCH  19  21
ATOM     21  C   UNL A   1      34.464  33.568  28.725  1.00  0.00     0.060 A 
ATOM     22  C   UNL A   1      34.282  32.392  29.465  1.00  0.00     0.016 A 
ATOM     23  C   UNL A   1      35.747  34.006  28.387  1.00  0.00     0.016 A 
ATOM     24  C   UNL A   1      35.384  31.690  29.940  1.00  0.00     0.010 A 
ATOM     25  C   UNL A   1      36.853  33.303  28.865  1.00  0.00     0.010 A 
ATOM     26  C   UNL A   1      36.673  32.175  29.686  1.00  0.00    -0.014 A 
BRANCH  26  27
ATOM     27  C   UNL A   1      37.820  31.619  30.435  1.00  0.00     0.031 A 
ATOM     28  C   UNL A   1      38.655  30.557  29.774  1.00  0.00     0.074 A 
ATOM     29  C   UNL A   1      38.106  32.051  31.674  1.00  0.00     0.049 A 
ATOM     30  N   UNL A   1      39.672  29.890  30.248  1.00  0.00    -0.248 NA
ATOM     31  C   UNL A   1      38.287  30.192  28.395  1.00  0.00     0.031 C 
ATOM     32  C   UNL A   1      37.366  33.077  32.404  1.00  0.00     0.029 A 
ATOM     33  N   UNL A   1      39.087  31.655  32.547  1.00  0.00    -0.354 N 
ATOM     34  C   UNL A   1      40.041  29.001  29.245  1.00  0.00     0.074 A 
ATOM     35  C   UNL A   1      39.132  29.205  28.140  1.00  0.00     0.031 C 
ATOM     36  C   UNL A   1      37.898  33.208  33.631  1.00  0.00     0.029 A 
ATOM     37  C   UNL A   1      38.996  32.255  33.779  1.00  0.00     0.049 A 
ATOM     38  H   UNL A   1      39.787  31.003  32.314  1.00  0.00     0.167 HD
ATOM     39  C   UNL A   1      41.052  28.103  29.242  1.00  0.00     0.034 A 
ATOM     40  C   UNL A   1      39.700  32.035  34.906  1.00  0.00     0.034 A 
ATOM     41  C   UNL A   1      41.960  27.922  30.342  1.00  0.00     0.049 A 
ATOM     42  C   UNL A   1      40.812  31.018  34.883  1.00  0.00     0.074 A 
ATOM     43  C   UNL A   1      43.054  27.081  30.425  1.00  0.00     0.029 A 
ATOM     44  N   UNL A   1      41.868  28.582  31.558  1.00  0.00    -0.354 N 
ATOM     45  N   UNL A   1      41.221  30.264  33.891  1.00  0.00    -0.248 NA
ATOM     46  C   UNL A   1      41.582  30.849  36.123  1.00  0.00     0.031 C 
ATOM     47  C   UNL A   1      43.599  27.200  31.707  1.00  0.00     0.029 A 
ATOM     48  C   UNL A   1      42.875  28.155  32.405  1.00  0.00     0.049 A 
ATOM     49  H   UNL A   1      41.187  29.256  31.785  1.00  0.00     0.167 HD
ATOM     50  C   UNL A   1      42.319  29.559  34.374  1.00  0.00     0.074 A 
ATOM     51  C   UNL A   1      42.520  29.993  35.741  1.00  0.00     0.031 C 
ATOM     52  C   UNL A   1      43.086  28.632  33.749  1.00  0.00     0.034 A 
BRANCH  39  53
ATOM     53  C   UNL A   1      41.236  27.254  28.013  1.00  0.00     0.023 A 
ATOM     54  C   UNL A   1      41.822  27.805  26.855  1.00  0.00     0.012 A 
ATOM     55  C   UNL A   1      40.875  25.893  28.023  1.00  0.00     0.148 A 
ATOM     56  C   UNL A   1      42.016  27.023  25.716  1.00  0.00     0.002 A 
ATOM     57  C   UNL A   1      41.118  25.107  26.901  1.00  0.00     0.091 A 
ATOM     58  F   UNL A   1      40.297  25.393  29.124  1.00  0.00    -0.205 F 
ATOM     59  C   UNL A   1      41.675  25.675  25.744  1.00  0.00     0.022 A 
BRANCH  57  60
ATOM     60  S   UNL A   1      40.790  23.342  26.865  1.00  0.00     0.127 S 
ATOM     61  O   UNL A   1      41.488  22.937  25.646  1.00  0.00    -0.237 OA
ATOM     62  O   UNL A   1      41.420  22.890  28.106  1.00  0.00    -0.237 OA
ATOM     63  O   UNL A   1      39.341  23.201  26.829  1.00  0.00    -0.744 OA
ENDBRANCH  57  60
ENDBRANCH  39  53
BRANCH  40  64
ATOM     64  C   UNL A   1      39.389  32.805  36.142  1.00  0.00     0.023 A 
ATOM     65  C   UNL A   1      39.917  34.098  36.312  1.00  0.00     0.012 A 
ATOM     66  C   UNL A   1      38.554  32.267  37.142  1.00  0.00     0.148 A 
ATOM     67  C   UNL A   1      39.647  34.830  37.469  1.00  0.00     0.002 A 
ATOM     68  C   UNL A   1      38.243  33.023  38.265  1.00  0.00     0.091 A 
ATOM     69  F   UNL A   1      38.071  31.028  36.966  1.00  0.00    -0.205 F 
ATOM     70  C   UNL A   1      38.802  34.297  38.440  1.00  0.00     0.022 A 
BRANCH  68  71
ATOM     71  S   UNL A   1      37.067  32.471  39.504  1.00  0.00     0.127 S 
ATOM     72  O   UNL A   1      37.260  33.460  40.561  1.00  0.00    -0.237 OA
ATOM     73  O   UNL A   1      35.799  32.578  38.782  1.00  0.00    -0.237 OA
ATOM     74  O   UNL A   1      37.455  31.106  39.839  1.00  0.00    -0.744 OA
ENDBRANCH  68  71
ENDBRANCH  40  64
BRANCH  52  75
ATOM     75  C   UNL A   1      44.249  28.056  34.514  1.00  0.00     0.023 A 
ATOM     76  C   UNL A   1      45.490  28.723  34.527  1.00  0.00     0.012 A 
ATOM     77  C   UNL A   1      44.084  26.885  35.281  1.00  0.00     0.148 A 
ATOM     78  C   UNL A   1      46.560  28.211  35.259  1.00  0.00     0.002 A 
ATOM     79  C   UNL A   1      45.138  26.413  36.053  1.00  0.00     0.091 A 
ATOM     80  F   UNL A   1      42.899  26.257  35.245  1.00  0.00    -0.205 F 
ATOM     81  C   UNL A   1      46.381  27.065  36.031  1.00  0.00     0.022 A 
BRANCH  79  82
ATOM     82  S   UNL A   1      44.969  25.006  37.156  1.00  0.00     0.127 S 
ATOM     83  O   UNL A   1      43.892  25.449  38.041  1.00  0.00    -0.237 OA
ATOM     84  O   UNL A   1      44.598  23.932  36.234  1.00  0.00    -0.237 OA
ATOM     85  O   UNL A   1      46.267  24.835  37.793  1.00  0.00    -0.744 OA
ENDBRANCH  79  82
ENDBRANCH  52  75
ENDBRANCH  26  27
ENDBRANCH  19  21
ENDBRANCH  18  19
ENDBRANCH  17  18
ENDBRANCH   1  17
TORSDOF 19
ENDMDL
