MODEL 1
REMARK VINA RESULT:     -10.8      0.000      0.000
REMARK SMILES CN(C)Nc1ncnc(Nc2ccc(C(=O)OCCOCCOC(=O)c3ccc(-c4c5nc(c(-c6cccc(S(=O)(=O)[O-])c6F)c6ccc([nH]6)c(-c6cccc(S(=O)(=O)[O-])c6F)c6nc(c(-c7cccc(S(=O)(=O)[O-])c7F)c7ccc4[nH]7)C=C6)C=C5)cc3)cc2)c1[N+](=O)[O-]
REMARK SMILES IDX 19 1 18 2 17 3 15 4 16 5 14 6 11 7 12 8 90 9 13 10 89 11
REMARK SMILES IDX 10 12 9 14 5 15 6 16 91 17 7 18 8 19 4 20 2 22 1 23 3 24
REMARK SMILES IDX 92 25 93 26 94 27 20 28 21 29 22 30 23 31 24 32 25 33 26 34
REMARK SMILES IDX 27 35 88 36 28 37 87 38 29 39 30 40 31 41 81 42 32 43 86 44
REMARK SMILES IDX 80 45 82 46 33 47 85 48 79 49 78 50 34 52 66 53 46 54 65 55
REMARK SMILES IDX 47 56 50 57 64 58 83 59 48 60 49 61 63 63 84 64 51 65 35 66
REMARK SMILES IDX 36 67 44 68 37 69 39 70 45 71 38 72 40 73 41 74 42 75 43 76
REMARK SMILES IDX 67 77 68 78 76 79 69 80 71 81 77 82 70 83 72 84 73 85 74 86
REMARK SMILES IDX 75 87 52 88 53 89 61 90 54 91 56 92 62 93 55 94 57 95 58 96
REMARK SMILES IDX 59 97 60 98
REMARK H PARENT 10 13 4 21 82 51 50 62
REMARK Flexibility Score: inf
ROOT
ATOM      1  C   UNL A   1      29.140  31.996  23.767  1.00  0.00     0.202 C 
ENDROOT
BRANCH   1   2
ATOM      2  C   UNL A   1      28.537  30.922  22.857  1.00  0.00     0.261 C 
BRANCH   2   3
ATOM      3  O   UNL A   1      28.899  29.606  23.303  1.00  0.00    -0.460 OA
BRANCH   3   4
ATOM      4  C   UNL A   1      29.859  29.001  22.567  1.00  0.00     0.338 C 
ATOM      5  O   UNL A   1      30.226  29.310  21.438  1.00  0.00    -0.246 OA
BRANCH   4   6
ATOM      6  C   UNL A   1      30.561  27.984  23.375  1.00  0.00     0.060 A 
ATOM      7  C   UNL A   1      32.051  26.252  25.003  1.00  0.00     0.040 A 
ATOM      8  C   UNL A   1      31.416  27.366  25.558  1.00  0.00     0.027 A 
ATOM      9  C   UNL A   1      31.856  25.971  23.640  1.00  0.00     0.027 A 
ATOM     10  C   UNL A   1      30.687  28.235  24.747  1.00  0.00     0.018 A 
ATOM     11  C   UNL A   1      31.104  26.822  22.825  1.00  0.00     0.018 A 
BRANCH   7  12
ATOM     12  N   UNL A   1      33.009  25.569  25.777  1.00  0.00    -0.334 N 
ATOM     13  H   UNL A   1      33.389  26.053  26.546  1.00  0.00     0.168 HD
BRANCH  12  14
ATOM     14  C   UNL A   1      33.474  24.259  25.552  1.00  0.00     0.215 A 
ATOM     15  C   UNL A   1      33.185  21.916  25.295  1.00  0.00     0.225 A 
ATOM     16  N   UNL A   1      34.466  21.788  24.887  1.00  0.00    -0.212 NA
ATOM     17  C   UNL A   1      32.687  23.133  25.719  1.00  0.00     0.354 A 
ATOM     18  C   UNL A   1      35.192  22.902  24.820  1.00  0.00     0.227 A 
ATOM     19  N   UNL A   1      34.742  24.124  25.101  1.00  0.00    -0.212 NA
BRANCH  15  20
ATOM     20  N   UNL A   1      32.457  20.739  25.106  1.00  0.00    -0.298 N 
ATOM     21  H   UNL A   1      31.524  20.732  25.422  1.00  0.00     0.184 HD
BRANCH  20  22
ATOM     22  N   UNL A   1      32.945  19.553  24.496  1.00  0.00    -0.228 NA
ATOM     23  C   UNL A   1      32.642  18.352  25.298  1.00  0.00     0.130 C 
ATOM     24  C   UNL A   1      32.233  19.418  23.210  1.00  0.00     0.130 C 
ENDBRANCH  20  22
ENDBRANCH  15  20
BRANCH  17  25
ATOM     25  N   UNL A   1      31.462  23.204  26.462  1.00  0.00     0.070 N 
ATOM     26  O   UNL A   1      31.537  23.501  27.664  1.00  0.00    -0.258 OA
ATOM     27  O   UNL A   1      30.423  22.834  25.895  1.00  0.00    -0.258 OA
ENDBRANCH  17  25
ENDBRANCH  12  14
ENDBRANCH   7  12
ENDBRANCH   4   6
ENDBRANCH   3   4
ENDBRANCH   2   3
ENDBRANCH   1   2
BRANCH   1  28
ATOM     28  O   UNL A   1      29.801  31.526  24.945  1.00  0.00    -0.374 OA
BRANCH  28  29
ATOM     29  C   UNL A   1      30.712  32.430  25.574  1.00  0.00     0.202 C 
BRANCH  29  30
ATOM     30  C   UNL A   1      31.337  31.960  26.894  1.00  0.00     0.261 C 
BRANCH  30  31
ATOM     31  O   UNL A   1      32.768  31.858  26.800  1.00  0.00    -0.460 OA
BRANCH  31  32
ATOM     32  C   UNL A   1      33.453  32.749  27.553  1.00  0.00     0.338 C 
ATOM     33  O   UNL A   1      33.036  33.814  27.996  1.00  0.00    -0.246 OA
BRANCH  32  34
ATOM     34  C   UNL A   1      34.755  32.182  27.948  1.00  0.00     0.060 A 
ATOM     35  C   UNL A   1      34.799  30.810  28.230  1.00  0.00     0.016 A 
ATOM     36  C   UNL A   1      35.896  32.974  28.095  1.00  0.00     0.016 A 
ATOM     37  C   UNL A   1      35.969  30.237  28.721  1.00  0.00     0.010 A 
ATOM     38  C   UNL A   1      37.069  32.397  28.593  1.00  0.00     0.010 A 
ATOM     39  C   UNL A   1      37.098  31.036  28.946  1.00  0.00    -0.014 A 
BRANCH  39  40
ATOM     40  C   UNL A   1      38.253  30.470  29.684  1.00  0.00     0.031 A 
ATOM     41  C   UNL A   1      38.472  30.871  31.118  1.00  0.00     0.074 A 
ATOM     42  C   UNL A   1      39.085  29.595  29.092  1.00  0.00     0.049 A 
ATOM     43  N   UNL A   1      39.394  30.474  31.957  1.00  0.00    -0.248 NA
ATOM     44  C   UNL A   1      37.527  31.850  31.680  1.00  0.00     0.031 C 
ATOM     45  C   UNL A   1      38.974  29.127  27.712  1.00  0.00     0.029 A 
ATOM     46  N   UNL A   1      40.195  28.953  29.579  1.00  0.00    -0.354 N 
ATOM     47  C   UNL A   1      39.161  31.175  33.135  1.00  0.00     0.074 A 
ATOM     48  C   UNL A   1      38.020  32.032  32.897  1.00  0.00     0.031 C 
ATOM     49  C   UNL A   1      39.984  28.277  27.459  1.00  0.00     0.029 A 
ATOM     50  C   UNL A   1      40.821  28.157  28.650  1.00  0.00     0.049 A 
ATOM     51  H   UNL A   1      40.513  29.053  30.506  1.00  0.00     0.167 HD
ATOM     52  C   UNL A   1      39.823  31.099  34.314  1.00  0.00     0.034 A 
ATOM     53  C   UNL A   1      41.946  27.421  28.751  1.00  0.00     0.034 A 
ATOM     54  C   UNL A   1      40.943  30.230  34.554  1.00  0.00     0.049 A 
ATOM     55  C   UNL A   1      42.680  27.373  30.067  1.00  0.00     0.074 A 
ATOM     56  C   UNL A   1      41.643  30.033  35.732  1.00  0.00     0.029 A 
ATOM     57  N   UNL A   1      41.540  29.424  33.596  1.00  0.00    -0.354 N 
ATOM     58  N   UNL A   1      42.368  27.936  31.209  1.00  0.00    -0.248 NA
ATOM     59  C   UNL A   1      43.904  26.561  30.113  1.00  0.00     0.031 C 
ATOM     60  C   UNL A   1      42.682  29.131  35.477  1.00  0.00     0.029 A 
ATOM     61  C   UNL A   1      42.611  28.743  34.148  1.00  0.00     0.049 A 
ATOM     62  H   UNL A   1      41.243  29.347  32.660  1.00  0.00     0.167 HD
ATOM     63  C   UNL A   1      43.332  27.514  32.120  1.00  0.00     0.074 A 
ATOM     64  C   UNL A   1      44.229  26.635  31.397  1.00  0.00     0.031 C 
ATOM     65  C   UNL A   1      43.469  27.834  33.431  1.00  0.00     0.034 A 
BRANCH  52  66
ATOM     66  C   UNL A   1      39.335  31.972  35.441  1.00  0.00     0.023 A 
ATOM     67  C   UNL A   1      38.421  31.455  36.383  1.00  0.00     0.012 A 
ATOM     68  C   UNL A   1      39.801  33.293  35.585  1.00  0.00     0.148 A 
ATOM     69  C   UNL A   1      37.949  32.251  37.425  1.00  0.00     0.002 A 
ATOM     70  C   UNL A   1      39.359  34.066  36.653  1.00  0.00     0.091 A 
ATOM     71  F   UNL A   1      40.648  33.777  34.666  1.00  0.00    -0.205 F 
ATOM     72  C   UNL A   1      38.425  33.552  37.566  1.00  0.00     0.022 A 
BRANCH  70  73
ATOM     73  S   UNL A   1      39.975  35.726  36.957  1.00  0.00     0.127 S 
ATOM     74  O   UNL A   1      41.414  35.494  37.062  1.00  0.00    -0.237 OA
ATOM     75  O   UNL A   1      39.560  36.438  35.748  1.00  0.00    -0.237 OA
ATOM     76  O   UNL A   1      39.318  36.176  38.177  1.00  0.00    -0.744 OA
ENDBRANCH  70  73
ENDBRANCH  52  66
BRANCH  53  77
ATOM     77  C   UNL A   1      42.414  26.616  27.588  1.00  0.00     0.023 A 
ATOM     78  C   UNL A   1      43.256  27.214  26.631  1.00  0.00     0.012 A 
ATOM     79  C   UNL A   1      42.050  25.264  27.435  1.00  0.00     0.148 A 
ATOM     80  C   UNL A   1      43.709  26.488  25.529  1.00  0.00     0.002 A 
ATOM     81  C   UNL A   1      42.546  24.531  26.364  1.00  0.00     0.091 A 
ATOM     82  F   UNL A   1      41.235  24.719  28.349  1.00  0.00    -0.205 F 
ATOM     83  C   UNL A   1      43.363  25.146  25.401  1.00  0.00     0.022 A 
BRANCH  81  84
ATOM     84  S   UNL A   1      42.255  22.768  26.181  1.00  0.00     0.127 S 
ATOM     85  O   UNL A   1      40.797  22.701  26.211  1.00  0.00    -0.237 OA
ATOM     86  O   UNL A   1      42.858  22.499  24.875  1.00  0.00    -0.237 OA
ATOM     87  O   UNL A   1      42.939  22.136  27.301  1.00  0.00    -0.744 OA
ENDBRANCH  81  84
ENDBRANCH  53  77
BRANCH  65  88
ATOM     88  C   UNL A   1      44.612  27.205  34.188  1.00  0.00     0.023 A 
ATOM     89  C   UNL A   1      45.861  27.856  34.240  1.00  0.00     0.012 A 
ATOM     90  C   UNL A   1      44.432  26.002  34.898  1.00  0.00     0.148 A 
ATOM     91  C   UNL A   1      46.921  27.301  34.955  1.00  0.00     0.002 A 
ATOM     92  C   UNL A   1      45.478  25.480  35.650  1.00  0.00     0.091 A 
ATOM     93  F   UNL A   1      43.243  25.385  34.822  1.00  0.00    -0.205 F 
ATOM     94  C   UNL A   1      46.727  26.121  35.669  1.00  0.00     0.022 A 
BRANCH  92  95
ATOM     95  S   UNL A   1      45.286  24.018  36.678  1.00  0.00     0.127 S 
ATOM     96  O   UNL A   1      46.677  23.645  36.929  1.00  0.00    -0.237 OA
ATOM     97  O   UNL A   1      44.577  24.548  37.844  1.00  0.00    -0.237 OA
ATOM     98  O   UNL A   1      44.514  23.072  35.885  1.00  0.00    -0.744 OA
ENDBRANCH  92  95
ENDBRANCH  65  88
ENDBRANCH  39  40
ENDBRANCH  32  34
ENDBRANCH  31  32
ENDBRANCH  30  31
ENDBRANCH  29  30
ENDBRANCH  28  29
ENDBRANCH   1  28
TORSDOF 22
ENDMDL
MODEL 2
REMARK VINA RESULT:     -10.2      2.318      3.642
REMARK SMILES CN(C)Nc1ncnc(Nc2ccc(C(=O)OCCOCCOC(=O)c3ccc(-c4c5nc(c(-c6cccc(S(=O)(=O)[O-])c6F)c6ccc([nH]6)c(-c6cccc(S(=O)(=O)[O-])c6F)c6nc(c(-c7cccc(S(=O)(=O)[O-])c7F)c7ccc4[nH]7)C=C6)C=C5)cc3)cc2)c1[N+](=O)[O-]
REMARK SMILES IDX 19 1 18 2 17 3 15 4 16 5 14 6 11 7 12 8 90 9 13 10 89 11
REMARK SMILES IDX 10 12 9 14 5 15 6 16 91 17 7 18 8 19 4 20 2 22 1 23 3 24
REMARK SMILES IDX 92 25 93 26 94 27 20 28 21 29 22 30 23 31 24 32 25 33 26 34
REMARK SMILES IDX 27 35 88 36 28 37 87 38 29 39 30 40 31 41 81 42 32 43 86 44
REMARK SMILES IDX 80 45 82 46 33 47 85 48 79 49 78 50 34 52 66 53 46 54 65 55
REMARK SMILES IDX 47 56 50 57 64 58 83 59 48 60 49 61 63 63 84 64 51 65 35 66
REMARK SMILES IDX 36 67 44 68 37 69 39 70 45 71 38 72 40 73 41 74 42 75 43 76
REMARK SMILES IDX 67 77 68 78 76 79 69 80 71 81 77 82 70 83 72 84 73 85 74 86
REMARK SMILES IDX 75 87 52 88 53 89 61 90 54 91 56 92 62 93 55 94 57 95 58 96
REMARK SMILES IDX 59 97 60 98
REMARK H PARENT 10 13 4 21 82 51 50 62
REMARK Flexibility Score: inf
ROOT
ATOM      1  C   UNL A   1      30.941  27.360  24.762  1.00  0.00     0.202 C 
ENDROOT
BRANCH   1   2
ATOM      2  C   UNL A   1      30.182  26.121  25.246  1.00  0.00     0.261 C 
BRANCH   2   3
ATOM      3  O   UNL A   1      30.725  25.633  26.482  1.00  0.00    -0.460 OA
BRANCH   3   4
ATOM      4  C   UNL A   1      30.838  24.288  26.560  1.00  0.00     0.338 C 
ATOM      5  O   UNL A   1      29.972  23.495  26.913  1.00  0.00    -0.246 OA
BRANCH   4   6
ATOM      6  C   UNL A   1      32.128  23.848  25.991  1.00  0.00     0.060 A 
ATOM      7  C   UNL A   1      34.685  23.236  25.014  1.00  0.00     0.040 A 
ATOM      8  C   UNL A   1      34.494  23.485  26.376  1.00  0.00     0.027 A 
ATOM      9  C   UNL A   1      33.565  23.213  24.166  1.00  0.00     0.027 A 
ATOM     10  C   UNL A   1      33.227  23.803  26.860  1.00  0.00     0.018 A 
ATOM     11  C   UNL A   1      32.285  23.502  24.649  1.00  0.00     0.018 A 
BRANCH   7  12
ATOM     12  N   UNL A   1      36.001  23.213  24.513  1.00  0.00    -0.334 N 
ATOM     13  H   UNL A   1      36.113  23.338  23.543  1.00  0.00     0.168 HD
BRANCH  12  14
ATOM     14  C   UNL A   1      37.173  23.025  25.273  1.00  0.00     0.215 A 
ATOM     15  C   UNL A   1      39.059  21.778  25.997  1.00  0.00     0.225 A 
ATOM     16  N   UNL A   1      39.551  22.862  26.633  1.00  0.00    -0.212 NA
ATOM     17  C   UNL A   1      37.823  21.808  25.380  1.00  0.00     0.354 A 
ATOM     18  C   UNL A   1      38.838  23.984  26.553  1.00  0.00     0.227 A 
ATOM     19  N   UNL A   1      37.697  24.115  25.877  1.00  0.00    -0.212 NA
BRANCH  15  20
ATOM     20  N   UNL A   1      39.988  20.736  25.947  1.00  0.00    -0.298 N 
ATOM     21  H   UNL A   1      39.708  19.905  25.499  1.00  0.00     0.184 HD
BRANCH  20  22
ATOM     22  N   UNL A   1      41.302  20.772  26.486  1.00  0.00    -0.228 NA
ATOM     23  C   UNL A   1      41.296  20.924  27.953  1.00  0.00     0.130 C 
ATOM     24  C   UNL A   1      41.918  19.466  26.178  1.00  0.00     0.130 C 
ENDBRANCH  20  22
ENDBRANCH  15  20
BRANCH  17  25
ATOM     25  N   UNL A   1      37.159  20.592  25.012  1.00  0.00     0.070 N 
ATOM     26  O   UNL A   1      36.008  20.414  25.441  1.00  0.00    -0.258 OA
ATOM     27  O   UNL A   1      37.820  19.737  24.403  1.00  0.00    -0.258 OA
ENDBRANCH  17  25
ENDBRANCH  12  14
ENDBRANCH   7  12
ENDBRANCH   4   6
ENDBRANCH   3   4
ENDBRANCH   2   3
ENDBRANCH   1   2
BRANCH   1  28
ATOM     28  O   UNL A   1      31.687  28.070  25.754  1.00  0.00    -0.374 OA
BRANCH  28  29
ATOM     29  C   UNL A   1      31.569  29.495  25.748  1.00  0.00     0.202 C 
BRANCH  29  30
ATOM     30  C   UNL A   1      32.862  30.287  25.975  1.00  0.00     0.261 C 
BRANCH  30  31
ATOM     31  O   UNL A   1      33.046  30.622  27.361  1.00  0.00    -0.460 OA
BRANCH  31  32
ATOM     32  C   UNL A   1      33.844  31.690  27.587  1.00  0.00     0.338 C 
ATOM     33  O   UNL A   1      33.520  32.873  27.552  1.00  0.00    -0.246 OA
BRANCH  32  34
ATOM     34  C   UNL A   1      35.160  31.244  28.078  1.00  0.00     0.060 A 
ATOM     35  C   UNL A   1      35.264  29.919  28.523  1.00  0.00     0.016 A 
ATOM     36  C   UNL A   1      36.255  32.107  28.157  1.00  0.00     0.016 A 
ATOM     37  C   UNL A   1      36.446  29.471  29.107  1.00  0.00     0.010 A 
ATOM     38  C   UNL A   1      37.440  31.656  28.749  1.00  0.00     0.010 A 
ATOM     39  C   UNL A   1      37.526  30.349  29.262  1.00  0.00    -0.014 A 
BRANCH  39  40
ATOM     40  C   UNL A   1      38.685  29.937  30.091  1.00  0.00     0.031 A 
ATOM     41  C   UNL A   1      38.818  30.483  31.486  1.00  0.00     0.074 A 
ATOM     42  C   UNL A   1      39.596  29.070  29.614  1.00  0.00     0.049 A 
ATOM     43  N   UNL A   1      39.730  30.232  32.390  1.00  0.00    -0.248 NA
ATOM     44  C   UNL A   1      37.789  31.443  31.919  1.00  0.00     0.031 C 
ATOM     45  C   UNL A   1      39.573  28.469  28.282  1.00  0.00     0.029 A 
ATOM     46  N   UNL A   1      40.725  28.555  30.198  1.00  0.00    -0.354 N 
ATOM     47  C   UNL A   1      39.403  31.022  33.487  1.00  0.00     0.074 A 
ATOM     48  C   UNL A   1      38.218  31.771  33.129  1.00  0.00     0.031 C 
ATOM     49  C   UNL A   1      40.646  27.671  28.146  1.00  0.00     0.029 A 
ATOM     50  C   UNL A   1      41.440  27.721  29.371  1.00  0.00     0.049 A 
ATOM     51  H   UNL A   1      40.998  28.763  31.121  1.00  0.00     0.167 HD
ATOM     52  C   UNL A   1      40.020  31.102  34.690  1.00  0.00     0.034 A 
ATOM     53  C   UNL A   1      42.606  27.078  29.581  1.00  0.00     0.034 A 
ATOM     54  C   UNL A   1      41.184  30.339  35.051  1.00  0.00     0.049 A 
ATOM     55  C   UNL A   1      43.287  27.205  30.919  1.00  0.00     0.074 A 
ATOM     56  C   UNL A   1      41.847  30.302  36.265  1.00  0.00     0.029 A 
ATOM     57  N   UNL A   1      41.871  29.491  34.195  1.00  0.00    -0.354 N 
ATOM     58  N   UNL A   1      42.893  27.848  31.991  1.00  0.00    -0.248 NA
ATOM     59  C   UNL A   1      44.560  26.488  31.085  1.00  0.00     0.031 C 
ATOM     60  C   UNL A   1      42.953  29.454  36.134  1.00  0.00     0.029 A 
ATOM     61  C   UNL A   1      42.962  28.941  34.846  1.00  0.00     0.049 A 
ATOM     62  H   UNL A   1      41.619  29.306  33.261  1.00  0.00     0.167 HD
ATOM     63  C   UNL A   1      43.845  27.582  32.970  1.00  0.00     0.074 A 
ATOM     64  C   UNL A   1      44.826  26.703  32.367  1.00  0.00     0.031 C 
ATOM     65  C   UNL A   1      43.907  28.030  34.249  1.00  0.00     0.034 A 
BRANCH  52  66
ATOM     66  C   UNL A   1      39.430  32.040  35.710  1.00  0.00     0.023 A 
ATOM     67  C   UNL A   1      38.409  31.587  36.571  1.00  0.00     0.012 A 
ATOM     68  C   UNL A   1      39.904  33.359  35.838  1.00  0.00     0.148 A 
ATOM     69  C   UNL A   1      37.841  32.443  37.513  1.00  0.00     0.002 A 
ATOM     70  C   UNL A   1      39.365  34.194  36.811  1.00  0.00     0.091 A 
ATOM     71  F   UNL A   1      40.857  33.783  34.995  1.00  0.00    -0.205 F 
ATOM     72  C   UNL A   1      38.326  33.742  37.640  1.00  0.00     0.022 A 
BRANCH  70  73
ATOM     73  S   UNL A   1      39.977  35.859  37.096  1.00  0.00     0.127 S 
ATOM     74  O   UNL A   1      39.219  36.254  38.281  1.00  0.00    -0.237 OA
ATOM     75  O   UNL A   1      41.403  35.629  37.333  1.00  0.00    -0.237 OA
ATOM     76  O   UNL A   1      39.681  36.604  35.880  1.00  0.00    -0.744 OA
ENDBRANCH  70  73
ENDBRANCH  52  66
BRANCH  53  77
ATOM     77  C   UNL A   1      43.173  26.203  28.517  1.00  0.00     0.023 A 
ATOM     78  C   UNL A   1      42.675  24.894  28.364  1.00  0.00     0.012 A 
ATOM     79  C   UNL A   1      44.181  26.661  27.647  1.00  0.00     0.148 A 
ATOM     80  C   UNL A   1      43.188  24.049  27.379  1.00  0.00     0.002 A 
ATOM     81  C   UNL A   1      44.651  25.833  26.635  1.00  0.00     0.091 A 
ATOM     82  F   UNL A   1      44.652  27.904  27.820  1.00  0.00    -0.205 F 
ATOM     83  C   UNL A   1      44.167  24.521  26.510  1.00  0.00     0.022 A 
BRANCH  81  84
ATOM     84  S   UNL A   1      45.821  26.393  25.393  1.00  0.00     0.127 S 
ATOM     85  O   UNL A   1      47.008  26.663  26.200  1.00  0.00    -0.237 OA
ATOM     86  O   UNL A   1      45.920  25.219  24.524  1.00  0.00    -0.237 OA
ATOM     87  O   UNL A   1      45.207  27.555  24.766  1.00  0.00    -0.744 OA
ENDBRANCH  81  84
ENDBRANCH  53  77
BRANCH  65  88
ATOM     88  C   UNL A   1      45.057  27.556  35.101  1.00  0.00     0.023 A 
ATOM     89  C   UNL A   1      46.247  28.309  35.156  1.00  0.00     0.012 A 
ATOM     90  C   UNL A   1      44.938  26.398  35.896  1.00  0.00     0.148 A 
ATOM     91  C   UNL A   1      47.311  27.898  35.958  1.00  0.00     0.002 A 
ATOM     92  C   UNL A   1      45.983  26.022  36.731  1.00  0.00     0.091 A 
ATOM     93  F   UNL A   1      43.806  25.682  35.817  1.00  0.00    -0.205 F 
ATOM     94  C   UNL A   1      47.175  26.763  36.753  1.00  0.00     0.022 A 
BRANCH  92  95
ATOM     95  S   UNL A   1      45.856  24.630  37.861  1.00  0.00     0.127 S 
ATOM     96  O   UNL A   1      44.631  24.952  38.591  1.00  0.00    -0.237 OA
ATOM     97  O   UNL A   1      45.739  23.495  36.945  1.00  0.00    -0.237 OA
ATOM     98  O   UNL A   1      47.080  24.643  38.649  1.00  0.00    -0.744 OA
ENDBRANCH  92  95
ENDBRANCH  65  88
ENDBRANCH  39  40
ENDBRANCH  32  34
ENDBRANCH  31  32
ENDBRANCH  30  31
ENDBRANCH  29  30
ENDBRANCH  28  29
ENDBRANCH   1  28
TORSDOF 22
ENDMDL
MODEL 3
REMARK VINA RESULT:     -10.1      2.262      3.844
REMARK SMILES CN(C)Nc1ncnc(Nc2ccc(C(=O)OCCOCCOC(=O)c3ccc(-c4c5nc(c(-c6cccc(S(=O)(=O)[O-])c6F)c6ccc([nH]6)c(-c6cccc(S(=O)(=O)[O-])c6F)c6nc(c(-c7cccc(S(=O)(=O)[O-])c7F)c7ccc4[nH]7)C=C6)C=C5)cc3)cc2)c1[N+](=O)[O-]
REMARK SMILES IDX 19 1 18 2 17 3 15 4 16 5 14 6 11 7 12 8 90 9 13 10 89 11
REMARK SMILES IDX 10 12 9 14 5 15 6 16 91 17 7 18 8 19 4 20 2 22 1 23 3 24
REMARK SMILES IDX 92 25 93 26 94 27 20 28 21 29 22 30 23 31 24 32 25 33 26 34
REMARK SMILES IDX 27 35 88 36 28 37 87 38 29 39 30 40 31 41 81 42 32 43 86 44
REMARK SMILES IDX 80 45 82 46 33 47 85 48 79 49 78 50 34 52 66 53 46 54 65 55
REMARK SMILES IDX 47 56 50 57 64 58 83 59 48 60 49 61 63 63 84 64 51 65 35 66
REMARK SMILES IDX 36 67 44 68 37 69 39 70 45 71 38 72 40 73 41 74 42 75 43 76
REMARK SMILES IDX 67 77 68 78 76 79 69 80 71 81 77 82 70 83 72 84 73 85 74 86
REMARK SMILES IDX 75 87 52 88 53 89 61 90 54 91 56 92 62 93 55 94 57 95 58 96
REMARK SMILES IDX 59 97 60 98
REMARK H PARENT 10 13 4 21 82 51 50 62
REMARK Flexibility Score: inf
ROOT
ATOM      1  C   UNL A   1      30.972  26.888  24.939  1.00  0.00     0.202 C 
ENDROOT
BRANCH   1   2
ATOM      2  C   UNL A   1      30.265  25.716  25.627  1.00  0.00     0.261 C 
BRANCH   2   3
ATOM      3  O   UNL A   1      31.149  25.044  26.538  1.00  0.00    -0.460 OA
BRANCH   3   4
ATOM      4  C   UNL A   1      30.841  23.748  26.775  1.00  0.00     0.338 C 
ATOM      5  O   UNL A   1      29.821  23.318  27.301  1.00  0.00    -0.246 OA
BRANCH   4   6
ATOM      6  C   UNL A   1      31.844  22.860  26.152  1.00  0.00     0.060 A 
ATOM      7  C   UNL A   1      33.937  21.328  25.084  1.00  0.00     0.040 A 
ATOM      8  C   UNL A   1      33.852  21.539  26.463  1.00  0.00     0.027 A 
ATOM      9  C   UNL A   1      32.911  21.821  24.260  1.00  0.00     0.027 A 
ATOM     10  C   UNL A   1      32.821  22.312  26.993  1.00  0.00     0.018 A 
ATOM     11  C   UNL A   1      31.857  22.574  24.787  1.00  0.00     0.018 A 
BRANCH   7  12
ATOM     12  N   UNL A   1      35.133  20.804  24.557  1.00  0.00    -0.334 N 
ATOM     13  H   UNL A   1      35.049  20.094  23.880  1.00  0.00     0.168 HD
BRANCH  12  14
ATOM     14  C   UNL A   1      36.438  21.202  24.910  1.00  0.00     0.215 A 
ATOM     15  C   UNL A   1      38.079  22.807  25.515  1.00  0.00     0.225 A 
ATOM     16  N   UNL A   1      38.959  21.823  25.800  1.00  0.00    -0.212 NA
ATOM     17  C   UNL A   1      36.836  22.525  24.982  1.00  0.00     0.354 A 
ATOM     18  C   UNL A   1      38.536  20.571  25.637  1.00  0.00     0.227 A 
ATOM     19  N   UNL A   1      37.312  20.225  25.240  1.00  0.00    -0.212 NA
BRANCH  15  20
ATOM     20  N   UNL A   1      38.539  24.056  25.939  1.00  0.00    -0.298 N 
ATOM     21  H   UNL A   1      37.957  24.832  25.764  1.00  0.00     0.184 HD
BRANCH  20  22
ATOM     22  N   UNL A   1      39.770  24.304  26.600  1.00  0.00    -0.228 NA
ATOM     23  C   UNL A   1      40.568  25.342  25.919  1.00  0.00     0.130 C 
ATOM     24  C   UNL A   1      39.431  24.818  27.942  1.00  0.00     0.130 C 
ENDBRANCH  20  22
ENDBRANCH  15  20
BRANCH  17  25
ATOM     25  N   UNL A   1      36.051  23.557  24.369  1.00  0.00     0.070 N 
ATOM     26  O   UNL A   1      35.508  24.385  25.117  1.00  0.00    -0.258 OA
ATOM     27  O   UNL A   1      35.854  23.480  23.147  1.00  0.00    -0.258 OA
ENDBRANCH  17  25
ENDBRANCH  12  14
ENDBRANCH   7  12
ENDBRANCH   4   6
ENDBRANCH   3   4
ENDBRANCH   2   3
ENDBRANCH   1   2
BRANCH   1  28
ATOM     28  O   UNL A   1      31.667  27.797  25.796  1.00  0.00    -0.374 OA
BRANCH  28  29
ATOM     29  C   UNL A   1      31.545  29.188  25.492  1.00  0.00     0.202 C 
BRANCH  29  30
ATOM     30  C   UNL A   1      32.779  30.056  25.765  1.00  0.00     0.261 C 
BRANCH  30  31
ATOM     31  O   UNL A   1      33.000  30.242  27.173  1.00  0.00    -0.460 OA
BRANCH  31  32
ATOM     32  C   UNL A   1      33.611  31.401  27.506  1.00  0.00     0.338 C 
ATOM     33  O   UNL A   1      33.085  32.502  27.634  1.00  0.00    -0.246 OA
BRANCH  32  34
ATOM     34  C   UNL A   1      35.011  31.144  27.888  1.00  0.00     0.060 A 
ATOM     35  C   UNL A   1      35.343  29.836  28.268  1.00  0.00     0.016 A 
ATOM     36  C   UNL A   1      35.969  32.160  27.930  1.00  0.00     0.016 A 
ATOM     37  C   UNL A   1      36.617  29.553  28.752  1.00  0.00     0.010 A 
ATOM     38  C   UNL A   1      37.247  31.874  28.421  1.00  0.00     0.010 A 
ATOM     39  C   UNL A   1      37.563  30.579  28.872  1.00  0.00    -0.014 A 
BRANCH  39  40
ATOM     40  C   UNL A   1      38.828  30.320  29.603  1.00  0.00     0.031 A 
ATOM     41  C   UNL A   1      38.983  30.845  31.004  1.00  0.00     0.074 A 
ATOM     42  C   UNL A   1      39.817  29.609  29.033  1.00  0.00     0.049 A 
ATOM     43  N   UNL A   1      39.986  30.707  31.833  1.00  0.00    -0.248 NA
ATOM     44  C   UNL A   1      37.861  31.632  31.542  1.00  0.00     0.031 C 
ATOM     45  C   UNL A   1      39.782  29.044  27.685  1.00  0.00     0.029 A 
ATOM     46  N   UNL A   1      41.048  29.250  29.519  1.00  0.00    -0.354 N 
ATOM     47  C   UNL A   1      39.630  31.413  32.977  1.00  0.00     0.074 A 
ATOM     48  C   UNL A   1      38.327  31.990  32.729  1.00  0.00     0.031 C 
ATOM     49  C   UNL A   1      40.946  28.416  27.447  1.00  0.00     0.029 A 
ATOM     50  C   UNL A   1      41.813  28.551  28.615  1.00  0.00     0.049 A 
ATOM     51  H   UNL A   1      41.356  29.472  30.428  1.00  0.00     0.167 HD
ATOM     52  C   UNL A   1      40.317  31.552  34.137  1.00  0.00     0.034 A 
ATOM     53  C   UNL A   1      43.072  28.080  28.720  1.00  0.00     0.034 A 
ATOM     54  C   UNL A   1      41.602  30.959  34.388  1.00  0.00     0.049 A 
ATOM     55  C   UNL A   1      43.825  28.272  30.012  1.00  0.00     0.074 A 
ATOM     56  C   UNL A   1      42.351  30.989  35.552  1.00  0.00     0.029 A 
ATOM     57  N   UNL A   1      42.340  30.242  33.458  1.00  0.00    -0.354 N 
ATOM     58  N   UNL A   1      43.422  28.823  31.131  1.00  0.00    -0.248 NA
ATOM     59  C   UNL A   1      45.196  27.745  30.063  1.00  0.00     0.031 C 
ATOM     60  C   UNL A   1      43.555  30.316  35.314  1.00  0.00     0.029 A 
ATOM     61  C   UNL A   1      43.544  29.842  34.011  1.00  0.00     0.049 A 
ATOM     62  H   UNL A   1      42.048  30.047  32.538  1.00  0.00     0.167 HD
ATOM     63  C   UNL A   1      44.472  28.674  32.032  1.00  0.00     0.074 A 
ATOM     64  C   UNL A   1      45.522  27.965  31.330  1.00  0.00     0.031 C 
ATOM     65  C   UNL A   1      44.563  29.095  33.318  1.00  0.00     0.034 A 
BRANCH  52  66
ATOM     66  C   UNL A   1      39.674  32.368  35.229  1.00  0.00     0.023 A 
ATOM     67  C   UNL A   1      39.781  33.774  35.207  1.00  0.00     0.012 A 
ATOM     68  C   UNL A   1      38.940  31.748  36.257  1.00  0.00     0.148 A 
ATOM     69  C   UNL A   1      39.204  34.546  36.214  1.00  0.00     0.002 A 
ATOM     70  C   UNL A   1      38.329  32.527  37.234  1.00  0.00     0.091 A 
ATOM     71  F   UNL A   1      38.870  30.409  36.277  1.00  0.00    -0.205 F 
ATOM     72  C   UNL A   1      38.471  33.924  37.221  1.00  0.00     0.022 A 
BRANCH  70  73
ATOM     73  S   UNL A   1      37.303  31.818  38.526  1.00  0.00     0.127 S 
ATOM     74  O   UNL A   1      37.082  30.465  38.020  1.00  0.00    -0.237 OA
ATOM     75  O   UNL A   1      38.178  31.896  39.696  1.00  0.00    -0.237 OA
ATOM     76  O   UNL A   1      36.119  32.664  38.601  1.00  0.00    -0.744 OA
ENDBRANCH  70  73
ENDBRANCH  52  66
BRANCH  53  77
ATOM     77  C   UNL A   1      43.679  27.325  27.589  1.00  0.00     0.023 A 
ATOM     78  C   UNL A   1      44.236  28.034  26.507  1.00  0.00     0.012 A 
ATOM     79  C   UNL A   1      43.728  25.918  27.587  1.00  0.00     0.148 A 
ATOM     80  C   UNL A   1      44.809  27.355  25.431  1.00  0.00     0.002 A 
ATOM     81  C   UNL A   1      44.347  25.248  26.538  1.00  0.00     0.091 A 
ATOM     82  F   UNL A   1      43.178  25.261  28.618  1.00  0.00    -0.205 F 
ATOM     83  C   UNL A   1      44.874  25.965  25.451  1.00  0.00     0.022 A 
BRANCH  81  84
ATOM     84  S   UNL A   1      44.586  23.468  26.533  1.00  0.00     0.127 S 
ATOM     85  O   UNL A   1      45.188  23.244  27.845  1.00  0.00    -0.237 OA
ATOM     86  O   UNL A   1      43.212  22.982  26.393  1.00  0.00    -0.237 OA
ATOM     87  O   UNL A   1      45.443  23.187  25.389  1.00  0.00    -0.744 OA
ENDBRANCH  81  84
ENDBRANCH  53  77
BRANCH  65  88
ATOM     88  C   UNL A   1      45.829  28.773  34.071  1.00  0.00     0.023 A 
ATOM     89  C   UNL A   1      46.899  29.690  34.069  1.00  0.00     0.012 A 
ATOM     90  C   UNL A   1      45.937  27.591  34.831  1.00  0.00     0.148 A 
ATOM     91  C   UNL A   1      48.068  29.420  34.779  1.00  0.00     0.002 A 
ATOM     92  C   UNL A   1      47.085  27.351  35.577  1.00  0.00     0.091 A 
ATOM     93  F   UNL A   1      44.917  26.720  34.807  1.00  0.00    -0.205 F 
ATOM     94  C   UNL A   1      48.156  28.258  35.542  1.00  0.00     0.022 A 
BRANCH  92  95
ATOM     95  S   UNL A   1      47.242  25.929  36.664  1.00  0.00     0.127 S 
ATOM     96  O   UNL A   1      46.039  26.047  37.486  1.00  0.00    -0.237 OA
ATOM     97  O   UNL A   1      47.228  24.812  35.719  1.00  0.00    -0.237 OA
ATOM     98  O   UNL A   1      48.505  26.104  37.369  1.00  0.00    -0.744 OA
ENDBRANCH  92  95
ENDBRANCH  65  88
ENDBRANCH  39  40
ENDBRANCH  32  34
ENDBRANCH  31  32
ENDBRANCH  30  31
ENDBRANCH  29  30
ENDBRANCH  28  29
ENDBRANCH   1  28
TORSDOF 22
ENDMDL
