MODEL 1
REMARK VINA RESULT:     -11.5      0.000      0.000
REMARK SMILES C[NH+](C)Cc1noc(C[C@@](C)(C(=O)OCCOCCOC(=O)c2ccc(-c3c4nc(c(-c5cccc(S(=O)(=O)[O-])c5F)c5ccc([nH]5)c(-c5cccc(S(=O)(=O)[O-])c5F)c5nc(c(-c6cccc(S(=O)(=O)[O-])c6F)c6ccc3[nH]6)C=C5)C=C4)cc2)c2ccccc2)n1
REMARK SMILES IDX 16 1 15 2 14 3 12 4 13 5 10 6 11 7 9 8 8 9 5 10 6 11 92 12
REMARK SMILES IDX 7 13 4 14 2 15 1 16 3 17 86 19 87 20 91 21 88 22 90 23 89 24
REMARK SMILES IDX 17 25 18 26 19 27 20 28 21 29 22 30 23 31 24 32 85 33 25 34
REMARK SMILES IDX 84 35 26 36 27 37 28 38 78 39 29 40 83 41 77 42 79 43 30 44
REMARK SMILES IDX 82 45 76 46 75 47 31 49 63 50 43 51 62 52 44 53 47 54 61 55
REMARK SMILES IDX 80 56 45 57 46 58 60 60 81 61 48 62 32 63 33 64 41 65 34 66
REMARK SMILES IDX 36 67 42 68 35 69 37 70 38 71 39 72 40 73 64 74 65 75 73 76
REMARK SMILES IDX 66 77 68 78 74 79 67 80 69 81 70 82 71 83 72 84 49 85 50 86
REMARK SMILES IDX 58 87 51 88 53 89 59 90 52 91 54 92 55 93 56 94 57 95
REMARK H PARENT 2 18 79 48 47 59
REMARK Flexibility Score: inf
ROOT
ATOM      1  C   UNL A   1      33.924  21.757  25.732  1.00  0.00     0.202 C 
ENDROOT
BRANCH   1   2
ATOM      2  C   UNL A   1      33.588  23.201  25.345  1.00  0.00     0.261 C 
BRANCH   2   3
ATOM      3  O   UNL A   1      32.167  23.420  25.243  1.00  0.00    -0.463 OA
BRANCH   3   4
ATOM      4  C   UNL A   1      31.639  24.258  26.179  1.00  0.00     0.316 C 
ATOM      5  O   UNL A   1      31.600  24.000  27.378  1.00  0.00    -0.251 OA
BRANCH   4   6
ATOM      6  C   UNL A   1      31.043  25.552  25.574  1.00  0.00     0.099 C 
ATOM      7  C   UNL A   1      29.596  25.583  26.127  1.00  0.00     0.029 C 
BRANCH   6   8
ATOM      8  C   UNL A   1      30.952  25.509  24.018  1.00  0.00     0.123 C 
BRANCH   8   9
ATOM      9  C   UNL A   1      30.438  26.782  23.436  1.00  0.00     0.228 A 
ATOM     10  C   UNL A   1      29.362  28.424  22.706  1.00  0.00     0.226 A 
ATOM     11  N   UNL A   1      30.593  28.613  22.206  1.00  0.00    -0.056 NA
ATOM     12  N   UNL A   1      29.238  27.315  23.510  1.00  0.00    -0.190 NA
ATOM     13  O   UNL A   1      31.308  27.515  22.684  1.00  0.00    -0.339 OA
BRANCH  10  14
ATOM     14  C   UNL A   1      28.228  29.377  22.463  1.00  0.00     0.344 C 
BRANCH  14  15
ATOM     15  N   UNL A   1      28.519  30.811  22.698  1.00  0.00    -0.333 N 
ATOM     16  C   UNL A   1      28.304  31.633  21.510  1.00  0.00     0.332 C 
ATOM     17  C   UNL A   1      27.800  31.348  23.849  1.00  0.00     0.332 C 
ATOM     18  H   UNL A   1      29.515  30.855  22.915  1.00  0.00     0.348 HD
ENDBRANCH  14  15
ENDBRANCH  10  14
ENDBRANCH   8   9
ENDBRANCH   6   8
BRANCH   6  19
ATOM     19  C   UNL A   1      31.926  26.729  26.069  1.00  0.00    -0.030 A 
ATOM     20  C   UNL A   1      33.271  26.859  25.685  1.00  0.00     0.005 A 
ATOM     21  C   UNL A   1      31.379  27.761  26.861  1.00  0.00     0.005 A 
ATOM     22  C   UNL A   1      34.037  27.956  26.089  1.00  0.00     0.000 A 
ATOM     23  C   UNL A   1      32.146  28.857  27.266  1.00  0.00     0.000 A 
ATOM     24  C   UNL A   1      33.477  28.954  26.878  1.00  0.00     0.000 A 
ENDBRANCH   6  19
ENDBRANCH   4   6
ENDBRANCH   3   4
ENDBRANCH   2   3
ENDBRANCH   1   2
BRANCH   1  25
ATOM     25  O   UNL A   1      35.308  21.420  25.832  1.00  0.00    -0.374 OA
BRANCH  25  26
ATOM     26  C   UNL A   1      35.771  20.319  25.056  1.00  0.00     0.202 C 
BRANCH  26  27
ATOM     27  C   UNL A   1      37.287  20.095  24.994  1.00  0.00     0.261 C 
BRANCH  27  28
ATOM     28  O   UNL A   1      38.030  21.268  25.369  1.00  0.00    -0.460 OA
BRANCH  28  29
ATOM     29  C   UNL A   1      39.169  21.012  26.059  1.00  0.00     0.338 C 
ATOM     30  O   UNL A   1      39.799  19.961  26.075  1.00  0.00    -0.246 OA
BRANCH  29  31
ATOM     31  C   UNL A   1      39.691  22.249  26.668  1.00  0.00     0.060 A 
ATOM     32  C   UNL A   1      39.109  23.458  26.263  1.00  0.00     0.016 A 
ATOM     33  C   UNL A   1      40.771  22.242  27.554  1.00  0.00     0.016 A 
ATOM     34  C   UNL A   1      39.642  24.670  26.694  1.00  0.00     0.010 A 
ATOM     35  C   UNL A   1      41.311  23.461  27.978  1.00  0.00     0.010 A 
ATOM     36  C   UNL A   1      40.776  24.678  27.516  1.00  0.00    -0.014 A 
BRANCH  36  37
ATOM     37  C   UNL A   1      41.489  25.955  27.759  1.00  0.00     0.031 A 
ATOM     38  C   UNL A   1      40.777  27.057  28.496  1.00  0.00     0.074 A 
ATOM     39  C   UNL A   1      42.756  26.127  27.343  1.00  0.00     0.049 A 
ATOM     40  N   UNL A   1      41.200  28.255  28.802  1.00  0.00    -0.248 NA
ATOM     41  C   UNL A   1      39.404  26.770  28.945  1.00  0.00     0.031 C 
ATOM     42  C   UNL A   1      43.552  25.132  26.628  1.00  0.00     0.029 A 
ATOM     43  N   UNL A   1      43.587  27.216  27.444  1.00  0.00    -0.354 N 
ATOM     44  C   UNL A   1      40.139  28.877  29.451  1.00  0.00     0.074 A 
ATOM     45  C   UNL A   1      39.050  27.927  29.488  1.00  0.00     0.031 C 
ATOM     46  C   UNL A   1      44.747  25.667  26.325  1.00  0.00     0.029 A 
ATOM     47  C   UNL A   1      44.792  27.047  26.805  1.00  0.00     0.049 A 
ATOM     48  H   UNL A   1      43.342  28.037  27.927  1.00  0.00     0.167 HD
ATOM     49  C   UNL A   1      40.083  30.120  29.983  1.00  0.00     0.034 A 
ATOM     50  C   UNL A   1      45.805  27.916  26.611  1.00  0.00     0.034 A 
ATOM     51  C   UNL A   1      41.176  31.054  29.969  1.00  0.00     0.049 A 
ATOM     52  C   UNL A   1      45.710  29.301  27.197  1.00  0.00     0.074 A 
ATOM     53  C   UNL A   1      41.235  32.317  30.531  1.00  0.00     0.029 A 
ATOM     54  N   UNL A   1      42.397  30.832  29.353  1.00  0.00    -0.354 N 
ATOM     55  N   UNL A   1      44.749  29.829  27.917  1.00  0.00    -0.248 NA
ATOM     56  C   UNL A   1      46.853  30.198  26.973  1.00  0.00     0.031 C 
ATOM     57  C   UNL A   1      42.485  32.870  30.231  1.00  0.00     0.029 A 
ATOM     58  C   UNL A   1      43.213  31.940  29.506  1.00  0.00     0.049 A 
ATOM     59  H   UNL A   1      42.648  30.008  28.876  1.00  0.00     0.167 HD
ATOM     60  C   UNL A   1      45.186  31.105  28.260  1.00  0.00     0.074 A 
ATOM     61  C   UNL A   1      46.505  31.263  27.685  1.00  0.00     0.031 C 
ATOM     62  C   UNL A   1      44.546  32.063  28.976  1.00  0.00     0.034 A 
BRANCH  49  63
ATOM     63  C   UNL A   1      38.800  30.537  30.651  1.00  0.00     0.023 A 
ATOM     64  C   UNL A   1      38.630  30.321  32.034  1.00  0.00     0.012 A 
ATOM     65  C   UNL A   1      37.789  31.195  29.924  1.00  0.00     0.148 A 
ATOM     66  C   UNL A   1      37.462  30.728  32.677  1.00  0.00     0.002 A 
ATOM     67  C   UNL A   1      36.645  31.635  30.581  1.00  0.00     0.091 A 
ATOM     68  F   UNL A   1      37.959  31.369  28.606  1.00  0.00    -0.205 F 
ATOM     69  C   UNL A   1      36.475  31.393  31.954  1.00  0.00     0.022 A 
BRANCH  67  70
ATOM     70  S   UNL A   1      35.352  32.565  29.751  1.00  0.00     0.127 S 
ATOM     71  O   UNL A   1      34.981  31.654  28.669  1.00  0.00    -0.237 OA
ATOM     72  O   UNL A   1      34.346  32.701  30.805  1.00  0.00    -0.237 OA
ATOM     73  O   UNL A   1      35.965  33.817  29.333  1.00  0.00    -0.744 OA
ENDBRANCH  67  70
ENDBRANCH  49  63
BRANCH  50  74
ATOM     74  C   UNL A   1      47.012  27.487  25.850  1.00  0.00     0.023 A 
ATOM     75  C   UNL A   1      48.006  26.723  26.491  1.00  0.00     0.012 A 
ATOM     76  C   UNL A   1      47.167  27.813  24.488  1.00  0.00     0.148 A 
ATOM     77  C   UNL A   1      49.145  26.314  25.796  1.00  0.00     0.002 A 
ATOM     78  C   UNL A   1      48.275  27.353  23.788  1.00  0.00     0.091 A 
ATOM     79  F   UNL A   1      46.220  28.559  23.902  1.00  0.00    -0.205 F 
ATOM     80  C   UNL A   1      49.274  26.617  24.444  1.00  0.00     0.022 A 
BRANCH  78  81
ATOM     81  S   UNL A   1      48.456  27.584  22.015  1.00  0.00     0.127 S 
ATOM     82  O   UNL A   1      49.647  28.426  21.943  1.00  0.00    -0.237 OA
ATOM     83  O   UNL A   1      48.642  26.209  21.550  1.00  0.00    -0.237 OA
ATOM     84  O   UNL A   1      47.213  28.202  21.573  1.00  0.00    -0.744 OA
ENDBRANCH  78  81
ENDBRANCH  50  74
BRANCH  62  85
ATOM     85  C   UNL A   1      45.268  33.364  29.214  1.00  0.00     0.023 A 
ATOM     86  C   UNL A   1      46.136  33.491  30.317  1.00  0.00     0.012 A 
ATOM     87  C   UNL A   1      45.156  34.426  28.296  1.00  0.00     0.148 A 
ATOM     88  C   UNL A   1      46.860  34.665  30.516  1.00  0.00     0.002 A 
ATOM     89  C   UNL A   1      45.917  35.575  28.475  1.00  0.00     0.091 A 
ATOM     90  F   UNL A   1      44.311  34.292  27.263  1.00  0.00    -0.205 F 
ATOM     91  C   UNL A   1      46.761  35.701  29.589  1.00  0.00     0.022 A 
BRANCH  89  92
ATOM     92  S   UNL A   1      45.926  36.919  27.282  1.00  0.00     0.127 S 
ATOM     93  O   UNL A   1      44.519  37.315  27.268  1.00  0.00    -0.237 OA
ATOM     94  O   UNL A   1      46.826  37.887  27.910  1.00  0.00    -0.237 OA
ATOM     95  O   UNL A   1      46.427  36.348  26.038  1.00  0.00    -0.744 OA
ENDBRANCH  89  92
ENDBRANCH  62  85
ENDBRANCH  36  37
ENDBRANCH  29  31
ENDBRANCH  28  29
ENDBRANCH  27  28
ENDBRANCH  26  27
ENDBRANCH  25  26
ENDBRANCH   1  25
TORSDOF 22
ENDMDL
MODEL 2
REMARK VINA RESULT:     -10.8      5.374     10.463
REMARK SMILES C[NH+](C)Cc1noc(C[C@@](C)(C(=O)OCCOCCOC(=O)c2ccc(-c3c4nc(c(-c5cccc(S(=O)(=O)[O-])c5F)c5ccc([nH]5)c(-c5cccc(S(=O)(=O)[O-])c5F)c5nc(c(-c6cccc(S(=O)(=O)[O-])c6F)c6ccc3[nH]6)C=C5)C=C4)cc2)c2ccccc2)n1
REMARK SMILES IDX 16 1 15 2 14 3 12 4 13 5 10 6 11 7 9 8 8 9 5 10 6 11 92 12
REMARK SMILES IDX 7 13 4 14 2 15 1 16 3 17 86 19 87 20 91 21 88 22 90 23 89 24
REMARK SMILES IDX 17 25 18 26 19 27 20 28 21 29 22 30 23 31 24 32 85 33 25 34
REMARK SMILES IDX 84 35 26 36 27 37 28 38 78 39 29 40 83 41 77 42 79 43 30 44
REMARK SMILES IDX 82 45 76 46 75 47 31 49 63 50 43 51 62 52 44 53 47 54 61 55
REMARK SMILES IDX 80 56 45 57 46 58 60 60 81 61 48 62 32 63 33 64 41 65 34 66
REMARK SMILES IDX 36 67 42 68 35 69 37 70 38 71 39 72 40 73 64 74 65 75 73 76
REMARK SMILES IDX 66 77 68 78 74 79 67 80 69 81 70 82 71 83 72 84 49 85 50 86
REMARK SMILES IDX 58 87 51 88 53 89 59 90 52 91 54 92 55 93 56 94 57 95
REMARK H PARENT 2 18 79 48 47 59
REMARK Flexibility Score: inf
ROOT
ATOM      1  C   UNL A   1      31.554  27.524  24.338  1.00  0.00     0.202 C 
ENDROOT
BRANCH   1   2
ATOM      2  C   UNL A   1      31.183  26.631  23.150  1.00  0.00     0.261 C 
BRANCH   2   3
ATOM      3  O   UNL A   1      31.581  25.261  23.353  1.00  0.00    -0.463 OA
BRANCH   3   4
ATOM      4  C   UNL A   1      32.709  24.878  22.691  1.00  0.00     0.316 C 
ATOM      5  O   UNL A   1      33.325  25.606  21.918  1.00  0.00    -0.251 OA
BRANCH   4   6
ATOM      6  C   UNL A   1      33.111  23.409  22.968  1.00  0.00     0.099 C 
ATOM      7  C   UNL A   1      33.216  22.785  21.553  1.00  0.00     0.029 C 
BRANCH   6   8
ATOM      8  C   UNL A   1      32.019  22.618  23.751  1.00  0.00     0.123 C 
BRANCH   8   9
ATOM      9  C   UNL A   1      32.480  21.264  24.173  1.00  0.00     0.228 A 
ATOM     10  C   UNL A   1      32.922  19.236  24.456  1.00  0.00     0.226 A 
ATOM     11  N   UNL A   1      33.296  19.800  25.615  1.00  0.00    -0.056 NA
ATOM     12  N   UNL A   1      32.447  20.124  23.519  1.00  0.00    -0.190 NA
ATOM     13  O   UNL A   1      32.993  21.149  25.431  1.00  0.00    -0.339 OA
BRANCH  10  14
ATOM     14  C   UNL A   1      33.070  17.769  24.177  1.00  0.00     0.344 C 
BRANCH  14  15
ATOM     15  N   UNL A   1      33.437  16.919  25.334  1.00  0.00    -0.333 N 
ATOM     16  C   UNL A   1      32.454  15.872  25.601  1.00  0.00     0.332 C 
ATOM     17  C   UNL A   1      34.782  16.363  25.216  1.00  0.00     0.332 C 
ATOM     18  H   UNL A   1      33.437  17.542  26.142  1.00  0.00     0.348 HD
ENDBRANCH  14  15
ENDBRANCH  10  14
ENDBRANCH   8   9
ENDBRANCH   6   8
BRANCH   6  19
ATOM     19  C   UNL A   1      34.459  23.448  23.735  1.00  0.00    -0.030 A 
ATOM     20  C   UNL A   1      35.612  22.817  23.239  1.00  0.00     0.005 A 
ATOM     21  C   UNL A   1      34.594  24.196  24.924  1.00  0.00     0.005 A 
ATOM     22  C   UNL A   1      36.835  22.912  23.909  1.00  0.00     0.000 A 
ATOM     23  C   UNL A   1      35.817  24.288  25.595  1.00  0.00     0.000 A 
ATOM     24  C   UNL A   1      36.938  23.646  25.086  1.00  0.00     0.000 A 
ENDBRANCH   6  19
ENDBRANCH   4   6
ENDBRANCH   3   4
ENDBRANCH   2   3
ENDBRANCH   1   2
BRANCH   1  25
ATOM     25  O   UNL A   1      32.637  28.436  24.149  1.00  0.00    -0.374 OA
BRANCH  25  26
ATOM     26  C   UNL A   1      33.061  29.191  25.280  1.00  0.00     0.202 C 
BRANCH  26  27
ATOM     27  C   UNL A   1      32.158  30.347  25.727  1.00  0.00     0.261 C 
BRANCH  27  28
ATOM     28  O   UNL A   1      32.341  30.682  27.113  1.00  0.00    -0.460 OA
BRANCH  28  29
ATOM     29  C   UNL A   1      33.071  31.805  27.326  1.00  0.00     0.338 C 
ATOM     30  O   UNL A   1      32.661  32.959  27.323  1.00  0.00    -0.246 OA
BRANCH  29  31
ATOM     31  C   UNL A   1      34.435  31.457  27.765  1.00  0.00     0.060 A 
ATOM     32  C   UNL A   1      34.686  30.112  28.068  1.00  0.00     0.016 A 
ATOM     33  C   UNL A   1      35.424  32.426  27.951  1.00  0.00     0.016 A 
ATOM     34  C   UNL A   1      35.910  29.737  28.617  1.00  0.00     0.010 A 
ATOM     35  C   UNL A   1      36.649  32.047  28.512  1.00  0.00     0.010 A 
ATOM     36  C   UNL A   1      36.881  30.710  28.885  1.00  0.00    -0.014 A 
BRANCH  36  37
ATOM     37  C   UNL A   1      38.066  30.350  29.699  1.00  0.00     0.031 A 
ATOM     38  C   UNL A   1      39.073  29.387  29.130  1.00  0.00     0.074 A 
ATOM     39  C   UNL A   1      38.253  30.883  30.920  1.00  0.00     0.049 A 
ATOM     40  N   UNL A   1      40.169  28.922  29.670  1.00  0.00    -0.248 NA
ATOM     41  C   UNL A   1      38.808  28.880  27.774  1.00  0.00     0.031 C 
ATOM     42  C   UNL A   1      37.353  31.831  31.573  1.00  0.00     0.029 A 
ATOM     43  N   UNL A   1      39.254  30.679  31.837  1.00  0.00    -0.354 N 
ATOM     44  C   UNL A   1      40.709  28.045  28.736  1.00  0.00     0.074 A 
ATOM     45  C   UNL A   1      39.816  28.037  27.598  1.00  0.00     0.031 C 
ATOM     46  C   UNL A   1      37.826  32.104  32.801  1.00  0.00     0.029 A 
ATOM     47  C   UNL A   1      39.048  31.334  33.028  1.00  0.00     0.049 A 
ATOM     48  H   UNL A   1      40.042  30.118  31.659  1.00  0.00     0.167 HD
ATOM     49  C   UNL A   1      41.852  27.324  28.811  1.00  0.00     0.034 A 
ATOM     50  C   UNL A   1      39.753  31.296  34.176  1.00  0.00     0.034 A 
ATOM     51  C   UNL A   1      42.752  27.354  29.931  1.00  0.00     0.049 A 
ATOM     52  C   UNL A   1      41.013  30.472  34.241  1.00  0.00     0.074 A 
ATOM     53  C   UNL A   1      43.964  26.702  30.079  1.00  0.00     0.029 A 
ATOM     54  N   UNL A   1      42.534  28.064  31.102  1.00  0.00    -0.354 N 
ATOM     55  N   UNL A   1      41.574  29.748  33.304  1.00  0.00    -0.248 NA
ATOM     56  C   UNL A   1      41.753  30.486  35.512  1.00  0.00     0.031 C 
ATOM     57  C   UNL A   1      44.466  26.998  31.351  1.00  0.00     0.029 A 
ATOM     58  C   UNL A   1      43.580  27.855  31.984  1.00  0.00     0.049 A 
ATOM     59  H   UNL A   1      41.750  28.632  31.280  1.00  0.00     0.167 HD
ATOM     60  C   UNL A   1      42.749  29.249  33.858  1.00  0.00     0.074 A 
ATOM     61  C   UNL A   1      42.828  29.769  35.207  1.00  0.00     0.031 C 
ATOM     62  C   UNL A   1      43.673  28.425  33.303  1.00  0.00     0.034 A 
BRANCH  49  63
ATOM     63  C   UNL A   1      42.211  26.458  27.634  1.00  0.00     0.023 A 
ATOM     64  C   UNL A   1      43.015  26.981  26.601  1.00  0.00     0.012 A 
ATOM     65  C   UNL A   1      41.802  25.111  27.579  1.00  0.00     0.148 A 
ATOM     66  C   UNL A   1      43.384  26.185  25.518  1.00  0.00     0.002 A 
ATOM     67  C   UNL A   1      42.209  24.312  26.516  1.00  0.00     0.091 A 
ATOM     68  F   UNL A   1      41.017  24.640  28.557  1.00  0.00    -0.205 F 
ATOM     69  C   UNL A   1      42.990  24.850  25.480  1.00  0.00     0.022 A 
BRANCH  67  70
ATOM     70  S   UNL A   1      41.813  22.563  26.416  1.00  0.00     0.127 S 
ATOM     71  O   UNL A   1      42.489  22.178  25.177  1.00  0.00    -0.237 OA
ATOM     72  O   UNL A   1      42.430  22.038  27.635  1.00  0.00    -0.237 OA
ATOM     73  O   UNL A   1      40.360  22.482  26.388  1.00  0.00    -0.744 OA
ENDBRANCH  67  70
ENDBRANCH  49  63
BRANCH  50  74
ATOM     74  C   UNL A   1      39.298  32.092  35.351  1.00  0.00     0.023 A 
ATOM     75  C   UNL A   1      38.395  31.524  36.271  1.00  0.00     0.012 A 
ATOM     76  C   UNL A   1      39.774  33.399  35.574  1.00  0.00     0.148 A 
ATOM     77  C   UNL A   1      37.955  32.253  37.376  1.00  0.00     0.002 A 
ATOM     78  C   UNL A   1      39.376  34.097  36.707  1.00  0.00     0.091 A 
ATOM     79  F   UNL A   1      40.617  33.929  34.676  1.00  0.00    -0.205 F 
ATOM     80  C   UNL A   1      38.454  33.533  37.601  1.00  0.00     0.022 A 
BRANCH  78  81
ATOM     81  S   UNL A   1      40.071  35.696  37.144  1.00  0.00     0.127 S 
ATOM     82  O   UNL A   1      39.637  36.527  36.024  1.00  0.00    -0.237 OA
ATOM     83  O   UNL A   1      39.405  35.977  38.417  1.00  0.00    -0.237 OA
ATOM     84  O   UNL A   1      41.507  35.480  37.255  1.00  0.00    -0.744 OA
ENDBRANCH  78  81
ENDBRANCH  50  74
BRANCH  62  85
ATOM     85  C   UNL A   1      44.873  28.052  34.135  1.00  0.00     0.023 A 
ATOM     86  C   UNL A   1      46.005  28.890  34.145  1.00  0.00     0.012 A 
ATOM     87  C   UNL A   1      44.843  26.920  34.974  1.00  0.00     0.148 A 
ATOM     88  C   UNL A   1      47.098  28.594  34.957  1.00  0.00     0.002 A 
ATOM     89  C   UNL A   1      45.916  26.657  35.816  1.00  0.00     0.091 A 
ATOM     90  F   UNL A   1      43.763  26.125  34.936  1.00  0.00    -0.205 F 
ATOM     91  C   UNL A   1      47.049  27.486  35.801  1.00  0.00     0.022 A 
BRANCH  89  92
ATOM     92  S   UNL A   1      45.899  25.309  37.004  1.00  0.00     0.127 S 
ATOM     93  O   UNL A   1      45.512  25.999  38.233  1.00  0.00    -0.237 OA
ATOM     94  O   UNL A   1      44.875  24.421  36.453  1.00  0.00    -0.237 OA
ATOM     95  O   UNL A   1      47.246  24.753  36.997  1.00  0.00    -0.744 OA
ENDBRANCH  89  92
ENDBRANCH  62  85
ENDBRANCH  36  37
ENDBRANCH  29  31
ENDBRANCH  28  29
ENDBRANCH  27  28
ENDBRANCH  26  27
ENDBRANCH  25  26
ENDBRANCH   1  25
TORSDOF 22
ENDMDL
MODEL 3
REMARK VINA RESULT:     -10.3      5.250      8.353
REMARK SMILES C[NH+](C)Cc1noc(C[C@@](C)(C(=O)OCCOCCOC(=O)c2ccc(-c3c4nc(c(-c5cccc(S(=O)(=O)[O-])c5F)c5ccc([nH]5)c(-c5cccc(S(=O)(=O)[O-])c5F)c5nc(c(-c6cccc(S(=O)(=O)[O-])c6F)c6ccc3[nH]6)C=C5)C=C4)cc2)c2ccccc2)n1
REMARK SMILES IDX 16 1 15 2 14 3 12 4 13 5 10 6 11 7 9 8 8 9 5 10 6 11 92 12
REMARK SMILES IDX 7 13 4 14 2 15 1 16 3 17 86 19 87 20 91 21 88 22 90 23 89 24
REMARK SMILES IDX 17 25 18 26 19 27 20 28 21 29 22 30 23 31 24 32 85 33 25 34
REMARK SMILES IDX 84 35 26 36 27 37 28 38 78 39 29 40 83 41 77 42 79 43 30 44
REMARK SMILES IDX 82 45 76 46 75 47 31 49 63 50 43 51 62 52 44 53 47 54 61 55
REMARK SMILES IDX 80 56 45 57 46 58 60 60 81 61 48 62 32 63 33 64 41 65 34 66
REMARK SMILES IDX 36 67 42 68 35 69 37 70 38 71 39 72 40 73 64 74 65 75 73 76
REMARK SMILES IDX 66 77 68 78 74 79 67 80 69 81 70 82 71 83 72 84 49 85 50 86
REMARK SMILES IDX 58 87 51 88 53 89 59 90 52 91 54 92 55 93 56 94 57 95
REMARK H PARENT 2 18 79 48 47 59
REMARK Flexibility Score: inf
ROOT
ATOM      1  C   UNL A   1      32.165  30.451  26.487  1.00  0.00     0.202 C 
ENDROOT
BRANCH   1   2
ATOM      2  C   UNL A   1      31.784  28.968  26.536  1.00  0.00     0.261 C 
BRANCH   2   3
ATOM      3  O   UNL A   1      32.611  28.165  25.670  1.00  0.00    -0.463 OA
BRANCH   3   4
ATOM      4  C   UNL A   1      32.043  27.004  25.237  1.00  0.00     0.316 C 
ATOM      5  O   UNL A   1      31.254  26.342  25.904  1.00  0.00    -0.251 OA
BRANCH   4   6
ATOM      6  C   UNL A   1      32.534  26.570  23.835  1.00  0.00     0.099 C 
ATOM      7  C   UNL A   1      33.184  27.855  23.260  1.00  0.00     0.029 C 
BRANCH   6   8
ATOM      8  C   UNL A   1      31.367  26.167  22.881  1.00  0.00     0.123 C 
BRANCH   8   9
ATOM      9  C   UNL A   1      30.337  27.237  22.748  1.00  0.00     0.228 A 
ATOM     10  C   UNL A   1      29.173  28.939  22.377  1.00  0.00     0.226 A 
ATOM     11  N   UNL A   1      28.449  28.259  23.280  1.00  0.00    -0.056 NA
ATOM     12  N   UNL A   1      30.337  28.313  21.992  1.00  0.00    -0.190 NA
ATOM     13  O   UNL A   1      29.228  27.129  23.534  1.00  0.00    -0.339 OA
BRANCH  10  14
ATOM     14  C   UNL A   1      28.724  30.243  21.786  1.00  0.00     0.344 C 
BRANCH  14  15
ATOM     15  N   UNL A   1      29.235  31.468  22.446  1.00  0.00    -0.333 N 
ATOM     16  C   UNL A   1      28.687  32.692  21.866  1.00  0.00     0.332 C 
ATOM     17  C   UNL A   1      29.053  31.442  23.894  1.00  0.00     0.332 C 
ATOM     18  H   UNL A   1      30.239  31.476  22.267  1.00  0.00     0.348 HD
ENDBRANCH  14  15
ENDBRANCH  10  14
ENDBRANCH   8   9
ENDBRANCH   6   8
BRANCH   6  19
ATOM     19  C   UNL A   1      33.536  25.405  24.048  1.00  0.00    -0.030 A 
ATOM     20  C   UNL A   1      33.719  24.399  23.085  1.00  0.00     0.005 A 
ATOM     21  C   UNL A   1      34.365  25.363  25.190  1.00  0.00     0.005 A 
ATOM     22  C   UNL A   1      34.669  23.389  23.263  1.00  0.00     0.000 A 
ATOM     23  C   UNL A   1      35.313  24.352  25.368  1.00  0.00     0.000 A 
ATOM     24  C   UNL A   1      35.465  23.365  24.403  1.00  0.00     0.000 A 
ENDBRANCH   6  19
ENDBRANCH   4   6
ENDBRANCH   3   4
ENDBRANCH   2   3
ENDBRANCH   1   2
BRANCH   1  25
ATOM     25  O   UNL A   1      31.092  31.393  26.475  1.00  0.00    -0.374 OA
BRANCH  25  26
ATOM     26  C   UNL A   1      31.400  32.740  26.820  1.00  0.00     0.202 C 
BRANCH  26  27
ATOM     27  C   UNL A   1      32.841  33.038  27.253  1.00  0.00     0.261 C 
BRANCH  27  28
ATOM     28  O   UNL A   1      33.005  34.387  27.725  1.00  0.00    -0.460 OA
BRANCH  28  29
ATOM     29  C   UNL A   1      33.420  34.483  29.012  1.00  0.00     0.338 C 
ATOM     30  O   UNL A   1      32.839  35.048  29.931  1.00  0.00    -0.246 OA
BRANCH  29  31
ATOM     31  C   UNL A   1      34.607  33.638  29.235  1.00  0.00     0.060 A 
ATOM     32  C   UNL A   1      34.399  32.387  29.832  1.00  0.00     0.016 A 
ATOM     33  C   UNL A   1      35.899  34.081  28.942  1.00  0.00     0.016 A 
ATOM     34  C   UNL A   1      35.487  31.597  30.194  1.00  0.00     0.010 A 
ATOM     35  C   UNL A   1      36.991  33.289  29.317  1.00  0.00     0.010 A 
ATOM     36  C   UNL A   1      36.790  32.065  29.982  1.00  0.00    -0.014 A 
BRANCH  36  37
ATOM     37  C   UNL A   1      37.931  31.346  30.597  1.00  0.00     0.031 A 
ATOM     38  C   UNL A   1      38.295  31.647  32.026  1.00  0.00     0.074 A 
ATOM     39  C   UNL A   1      38.626  30.429  29.900  1.00  0.00     0.049 A 
ATOM     40  N   UNL A   1      39.260  31.152  32.755  1.00  0.00    -0.248 NA
ATOM     41  C   UNL A   1      37.460  32.638  32.724  1.00  0.00     0.031 C 
ATOM     42  C   UNL A   1      38.364  30.047  28.514  1.00  0.00     0.029 A 
ATOM     43  N   UNL A   1      39.712  29.671  30.260  1.00  0.00    -0.354 N 
ATOM     44  C   UNL A   1      39.170  31.792  33.986  1.00  0.00     0.074 A 
ATOM     45  C   UNL A   1      38.061  32.716  33.903  1.00  0.00     0.031 C 
ATOM     46  C   UNL A   1      39.285  29.148  28.129  1.00  0.00     0.029 A 
ATOM     47  C   UNL A   1      40.213  28.908  29.233  1.00  0.00     0.049 A 
ATOM     48  H   UNL A   1      40.094  29.674  31.167  1.00  0.00     0.167 HD
ATOM     49  C   UNL A   1      39.932  31.615  35.091  1.00  0.00     0.034 A 
ATOM     50  C   UNL A   1      41.309  28.124  29.184  1.00  0.00     0.034 A 
ATOM     51  C   UNL A   1      41.017  30.676  35.181  1.00  0.00     0.049 A 
ATOM     52  C   UNL A   1      42.151  27.957  30.423  1.00  0.00     0.074 A 
ATOM     53  C   UNL A   1      41.813  30.383  36.274  1.00  0.00     0.029 A 
ATOM     54  N   UNL A   1      41.467  29.886  34.134  1.00  0.00    -0.354 N 
ATOM     55  N   UNL A   1      41.977  28.473  31.615  1.00  0.00    -0.248 NA
ATOM     56  C   UNL A   1      43.322  27.073  30.318  1.00  0.00     0.031 C 
ATOM     57  C   UNL A   1      42.762  29.434  35.880  1.00  0.00     0.029 A 
ATOM     58  C   UNL A   1      42.540  29.117  34.550  1.00  0.00     0.049 A 
ATOM     59  H   UNL A   1      41.082  29.876  33.228  1.00  0.00     0.167 HD
ATOM     60  C   UNL A   1      42.993  27.951  32.410  1.00  0.00     0.074 A 
ATOM     61  C   UNL A   1      43.768  27.063  31.568  1.00  0.00     0.031 C 
ATOM     62  C   UNL A   1      43.267  28.195  33.716  1.00  0.00     0.034 A 
BRANCH  49  63
ATOM     63  C   UNL A   1      39.601  32.437  36.308  1.00  0.00     0.023 A 
ATOM     64  C   UNL A   1      38.695  31.936  37.264  1.00  0.00     0.012 A 
ATOM     65  C   UNL A   1      40.230  33.676  36.532  1.00  0.00     0.148 A 
ATOM     66  C   UNL A   1      38.400  32.669  38.412  1.00  0.00     0.002 A 
ATOM     67  C   UNL A   1      39.961  34.382  37.700  1.00  0.00     0.091 A 
ATOM     68  F   UNL A   1      41.069  34.147  35.599  1.00  0.00    -0.205 F 
ATOM     69  C   UNL A   1      39.040  33.885  38.635  1.00  0.00     0.022 A 
BRANCH  67  70
ATOM     70  S   UNL A   1      40.790  35.922  38.110  1.00  0.00     0.127 S 
ATOM     71  O   UNL A   1      40.273  36.820  37.079  1.00  0.00    -0.237 OA
ATOM     72  O   UNL A   1      40.290  36.190  39.459  1.00  0.00    -0.237 OA
ATOM     73  O   UNL A   1      42.217  35.640  38.038  1.00  0.00    -0.744 OA
ENDBRANCH  67  70
ENDBRANCH  49  63
BRANCH  50  74
ATOM     74  C   UNL A   1      41.654  27.411  27.922  1.00  0.00     0.023 A 
ATOM     75  C   UNL A   1      42.173  28.135  26.831  1.00  0.00     0.012 A 
ATOM     76  C   UNL A   1      41.493  26.016  27.807  1.00  0.00     0.148 A 
ATOM     77  C   UNL A   1      42.500  27.486  25.640  1.00  0.00     0.002 A 
ATOM     78  C   UNL A   1      41.875  25.370  26.638  1.00  0.00     0.091 A 
ATOM     79  F   UNL A   1      40.979  25.348  28.849  1.00  0.00    -0.205 F 
ATOM     80  C   UNL A   1      42.364  26.104  25.547  1.00  0.00     0.022 A 
BRANCH  78  81
ATOM     81  S   UNL A   1      41.859  23.580  26.481  1.00  0.00     0.127 S 
ATOM     82  O   UNL A   1      42.565  23.383  25.218  1.00  0.00    -0.237 OA
ATOM     83  O   UNL A   1      42.599  23.165  27.674  1.00  0.00    -0.237 OA
ATOM     84  O   UNL A   1      40.452  23.200  26.488  1.00  0.00    -0.744 OA
ENDBRANCH  78  81
ENDBRANCH  50  74
BRANCH  62  85
ATOM     85  C   UNL A   1      44.433  27.471  34.338  1.00  0.00     0.023 A 
ATOM     86  C   UNL A   1      45.709  28.068  34.335  1.00  0.00     0.012 A 
ATOM     87  C   UNL A   1      44.245  26.243  35.002  1.00  0.00     0.148 A 
ATOM     88  C   UNL A   1      46.785  27.441  34.962  1.00  0.00     0.002 A 
ATOM     89  C   UNL A   1      45.311  25.646  35.664  1.00  0.00     0.091 A 
ATOM     90  F   UNL A   1      43.026  25.682  34.977  1.00  0.00    -0.205 F 
ATOM     91  C   UNL A   1      46.584  26.238  35.636  1.00  0.00     0.022 A 
BRANCH  89  92
ATOM     92  S   UNL A   1      45.123  24.148  36.638  1.00  0.00     0.127 S 
ATOM     93  O   UNL A   1      46.512  23.818  36.949  1.00  0.00    -0.237 OA
ATOM     94  O   UNL A   1      44.336  24.617  37.780  1.00  0.00    -0.237 OA
ATOM     95  O   UNL A   1      44.431  23.196  35.779  1.00  0.00    -0.744 OA
ENDBRANCH  89  92
ENDBRANCH  62  85
ENDBRANCH  36  37
ENDBRANCH  29  31
ENDBRANCH  28  29
ENDBRANCH  27  28
ENDBRANCH  26  27
ENDBRANCH  25  26
ENDBRANCH   1  25
TORSDOF 22
ENDMDL
