MODEL 1
REMARK VINA RESULT:      -9.3      0.000      0.000
REMARK SMILES C[C@@H](Cn1cccn1)NC(=O)N(CC(=O)OCCOCCOC(=O)c1ccc(-c2c3nc(c(-c4cccc(S(=O)(=O)[O-])c4F)c4ccc([nH]4)c(-c4cccc(S(=O)(=O)[O-])c4F)c4nc(c(-c5cccc(S(=O)(=O)[O-])c5F)c5ccc2[nH]5)C=C4)C=C3)cc1)C(C)(C)C
REMARK SMILES IDX 18 1 17 2 16 3 14 4 15 5 13 6 12 7 10 8 9 9 11 11 2 12 1 13
REMARK SMILES IDX 3 14 4 15 5 16 8 17 6 18 7 19 88 20 89 21 90 22 91 23 19 24
REMARK SMILES IDX 20 25 21 26 22 27 23 28 24 29 25 30 26 31 87 32 27 33 86 34
REMARK SMILES IDX 28 35 29 36 30 37 80 38 31 39 85 40 79 41 81 42 32 43 84 44
REMARK SMILES IDX 78 45 77 46 33 48 65 49 45 50 64 51 46 52 49 53 63 54 82 55
REMARK SMILES IDX 47 56 48 57 62 59 83 60 50 61 34 62 35 63 43 64 36 65 38 66
REMARK SMILES IDX 44 67 37 68 39 69 40 70 41 71 42 72 66 73 67 74 75 75 68 76
REMARK SMILES IDX 70 77 76 78 69 79 71 80 72 81 73 82 74 83 51 84 52 85 60 86
REMARK SMILES IDX 53 87 55 88 61 89 54 90 56 91 57 92 58 93 59 94
REMARK H PARENT 9 10 81 47 49 58
REMARK Flexibility Score: inf
ROOT
ATOM      1  C   UNL A   1      34.895  29.268  27.537  1.00  0.00     0.202 C 
ENDROOT
BRANCH   1   2
ATOM      2  C   UNL A   1      33.856  29.142  26.411  1.00  0.00     0.261 C 
BRANCH   2   3
ATOM      3  O   UNL A   1      34.034  28.032  25.499  1.00  0.00    -0.462 OA
BRANCH   3   4
ATOM      4  C   UNL A   1      33.562  28.245  24.239  1.00  0.00     0.325 C 
ATOM      5  O   UNL A   1      33.240  29.353  23.809  1.00  0.00    -0.250 OA
BRANCH   4   6
ATOM      6  C   UNL A   1      33.523  27.013  23.314  1.00  0.00     0.244 C 
BRANCH   6   7
ATOM      7  N   UNL A   1      32.465  26.002  23.414  1.00  0.00    -0.309 N 
BRANCH   7   8
ATOM      8  C   UNL A   1      32.721  24.652  23.421  1.00  0.00     0.318 C 
ATOM      9  N   UNL A   1      33.049  23.940  24.508  1.00  0.00    -0.334 N 
ATOM     10  H   UNL A   1      33.118  22.987  24.270  1.00  0.00     0.165 HD
ATOM     11  O   UNL A   1      32.662  23.953  22.407  1.00  0.00    -0.249 OA
BRANCH   9  12
ATOM     12  C   UNL A   1      33.337  24.112  25.933  1.00  0.00     0.102 C 
ATOM     13  C   UNL A   1      32.032  24.189  26.722  1.00  0.00     0.033 C 
BRANCH  12  14
ATOM     14  C   UNL A   1      34.328  23.050  26.440  1.00  0.00     0.168 C 
BRANCH  14  15
ATOM     15  N   UNL A   1      35.411  22.745  25.531  1.00  0.00    -0.271 N 
ATOM     16  C   UNL A   1      35.987  21.527  25.313  1.00  0.00     0.108 A 
ATOM     17  N   UNL A   1      35.939  23.729  24.774  1.00  0.00    -0.181 NA
ATOM     18  C   UNL A   1      36.981  21.739  24.386  1.00  0.00     0.042 A 
ATOM     19  C   UNL A   1      36.895  23.107  24.078  1.00  0.00     0.135 A 
ENDBRANCH  14  15
ENDBRANCH  12  14
ENDBRANCH   9  12
ENDBRANCH   7   8
BRANCH   7  20
ATOM     20  C   UNL A   1      31.016  26.442  23.609  1.00  0.00     0.037 C 
ATOM     21  C   UNL A   1      30.088  25.222  23.485  1.00  0.00     0.034 C 
ATOM     22  C   UNL A   1      30.789  27.107  24.989  1.00  0.00     0.034 C 
ATOM     23  C   UNL A   1      30.528  27.499  22.589  1.00  0.00     0.034 C 
ENDBRANCH   7  20
ENDBRANCH   6   7
ENDBRANCH   4   6
ENDBRANCH   3   4
ENDBRANCH   2   3
ENDBRANCH   1   2
BRANCH   1  24
ATOM     24  O   UNL A   1      34.941  30.459  28.316  1.00  0.00    -0.374 OA
BRANCH  24  25
ATOM     25  C   UNL A   1      34.642  31.701  27.690  1.00  0.00     0.202 C 
BRANCH  25  26
ATOM     26  C   UNL A   1      35.610  32.864  27.881  1.00  0.00     0.261 C 
BRANCH  26  27
ATOM     27  O   UNL A   1      36.860  32.450  28.406  1.00  0.00    -0.460 OA
BRANCH  27  28
ATOM     28  C   UNL A   1      37.187  33.014  29.595  1.00  0.00     0.338 C 
ATOM     29  O   UNL A   1      37.017  34.170  29.926  1.00  0.00    -0.246 OA
BRANCH  28  30
ATOM     30  C   UNL A   1      37.999  32.040  30.337  1.00  0.00     0.060 A 
ATOM     31  C   UNL A   1      39.298  32.467  30.588  1.00  0.00     0.016 A 
ATOM     32  C   UNL A   1      37.646  30.685  30.332  1.00  0.00     0.016 A 
ATOM     33  C   UNL A   1      40.294  31.531  30.496  1.00  0.00     0.010 A 
ATOM     34  C   UNL A   1      38.642  29.751  30.186  1.00  0.00     0.010 A 
ATOM     35  C   UNL A   1      39.953  30.207  30.183  1.00  0.00    -0.014 A 
BRANCH  35  36
ATOM     36  C   UNL A   1      41.046  29.275  30.070  1.00  0.00     0.031 A 
ATOM     37  C   UNL A   1      41.537  28.888  31.411  1.00  0.00     0.074 A 
ATOM     38  C   UNL A   1      41.522  28.819  28.901  1.00  0.00     0.049 A 
ATOM     39  N   UNL A   1      42.625  29.280  31.984  1.00  0.00    -0.248 NA
ATOM     40  C   UNL A   1      40.589  28.209  32.309  1.00  0.00     0.031 C 
ATOM     41  C   UNL A   1      40.934  28.898  27.564  1.00  0.00     0.029 A 
ATOM     42  N   UNL A   1      42.617  28.046  28.707  1.00  0.00    -0.354 N 
ATOM     43  C   UNL A   1      42.595  28.705  33.248  1.00  0.00     0.074 A 
ATOM     44  C   UNL A   1      41.241  28.276  33.468  1.00  0.00     0.031 C 
ATOM     45  C   UNL A   1      41.528  27.969  26.775  1.00  0.00     0.029 A 
ATOM     46  C   UNL A   1      42.603  27.331  27.519  1.00  0.00     0.049 A 
ATOM     47  H   UNL A   1      43.358  27.994  29.354  1.00  0.00     0.167 HD
ATOM     48  C   UNL A   1      43.744  28.388  33.901  1.00  0.00     0.034 A 
ATOM     49  C   UNL A   1      43.345  26.222  27.264  1.00  0.00     0.034 A 
ATOM     50  C   UNL A   1      44.875  29.074  33.327  1.00  0.00     0.049 A 
ATOM     51  C   UNL A   1      44.467  26.211  28.245  1.00  0.00     0.074 A 
ATOM     52  C   UNL A   1      45.209  30.402  33.147  1.00  0.00     0.029 A 
ATOM     53  N   UNL A   1      45.659  28.361  32.450  1.00  0.00    -0.354 N 
ATOM     54  N   UNL A   1      45.417  27.106  28.253  1.00  0.00    -0.248 NA
ATOM     55  C   UNL A   1      44.255  25.511  29.505  1.00  0.00     0.031 C 
ATOM     56  C   UNL A   1      45.799  30.455  31.850  1.00  0.00     0.029 A 
ATOM     57  C   UNL A   1      45.859  29.153  31.348  1.00  0.00     0.049 A 
ATOM     58  H   UNL A   1      46.010  27.453  32.587  1.00  0.00     0.167 HD
ATOM     59  C   UNL A   1      45.608  27.399  29.599  1.00  0.00     0.074 A 
ATOM     60  C   UNL A   1      44.925  26.328  30.325  1.00  0.00     0.031 C 
ATOM     61  C   UNL A   1      46.026  28.634  30.008  1.00  0.00     0.034 A 
BRANCH  48  62
ATOM     62  C   UNL A   1      43.909  27.180  34.790  1.00  0.00     0.023 A 
ATOM     63  C   UNL A   1      44.356  27.414  36.107  1.00  0.00     0.012 A 
ATOM     64  C   UNL A   1      43.924  25.839  34.337  1.00  0.00     0.148 A 
ATOM     65  C   UNL A   1      44.857  26.380  36.905  1.00  0.00     0.002 A 
ATOM     66  C   UNL A   1      44.351  24.804  35.159  1.00  0.00     0.091 A 
ATOM     67  F   UNL A   1      43.654  25.551  33.063  1.00  0.00    -0.205 F 
ATOM     68  C   UNL A   1      44.851  25.074  36.432  1.00  0.00     0.022 A 
BRANCH  66  69
ATOM     69  S   UNL A   1      44.326  23.094  34.605  1.00  0.00     0.127 S 
ATOM     70  O   UNL A   1      44.734  22.389  35.817  1.00  0.00    -0.237 OA
ATOM     71  O   UNL A   1      42.923  22.924  34.230  1.00  0.00    -0.237 OA
ATOM     72  O   UNL A   1      45.254  23.028  33.483  1.00  0.00    -0.744 OA
ENDBRANCH  66  69
ENDBRANCH  48  62
BRANCH  49  73
ATOM     73  C   UNL A   1      42.965  25.009  26.495  1.00  0.00     0.023 A 
ATOM     74  C   UNL A   1      43.814  24.528  25.477  1.00  0.00     0.012 A 
ATOM     75  C   UNL A   1      41.917  24.166  26.932  1.00  0.00     0.148 A 
ATOM     76  C   UNL A   1      43.640  23.247  24.933  1.00  0.00     0.002 A 
ATOM     77  C   UNL A   1      41.741  22.900  26.381  1.00  0.00     0.091 A 
ATOM     78  F   UNL A   1      41.153  24.560  27.957  1.00  0.00    -0.205 F 
ATOM     79  C   UNL A   1      42.608  22.432  25.387  1.00  0.00     0.022 A 
BRANCH  77  80
ATOM     80  S   UNL A   1      40.438  21.795  26.941  1.00  0.00     0.127 S 
ATOM     81  O   UNL A   1      40.830  21.538  28.328  1.00  0.00    -0.237 OA
ATOM     82  O   UNL A   1      39.248  22.627  26.785  1.00  0.00    -0.237 OA
ATOM     83  O   UNL A   1      40.515  20.625  26.075  1.00  0.00    -0.744 OA
ENDBRANCH  77  80
ENDBRANCH  49  73
BRANCH  61  84
ATOM     84  C   UNL A   1      46.462  29.632  28.963  1.00  0.00     0.023 A 
ATOM     85  C   UNL A   1      47.757  29.628  28.403  1.00  0.00     0.012 A 
ATOM     86  C   UNL A   1      45.479  30.453  28.387  1.00  0.00     0.148 A 
ATOM     87  C   UNL A   1      48.068  30.436  27.305  1.00  0.00     0.002 A 
ATOM     88  C   UNL A   1      45.776  31.218  27.266  1.00  0.00     0.091 A 
ATOM     89  F   UNL A   1      44.250  30.442  28.927  1.00  0.00    -0.205 F 
ATOM     90  C   UNL A   1      47.072  31.219  26.727  1.00  0.00     0.022 A 
BRANCH  88  91
ATOM     91  S   UNL A   1      44.504  32.137  26.400  1.00  0.00     0.127 S 
ATOM     92  O   UNL A   1      43.494  31.107  26.161  1.00  0.00    -0.237 OA
ATOM     93  O   UNL A   1      44.123  33.152  27.383  1.00  0.00    -0.237 OA
ATOM     94  O   UNL A   1      45.142  32.678  25.206  1.00  0.00    -0.744 OA
ENDBRANCH  88  91
ENDBRANCH  61  84
ENDBRANCH  35  36
ENDBRANCH  28  30
ENDBRANCH  27  28
ENDBRANCH  26  27
ENDBRANCH  25  26
ENDBRANCH  24  25
ENDBRANCH   1  24
TORSDOF 23
ENDMDL
MODEL 2
REMARK VINA RESULT:      -9.3      4.060      8.279
REMARK SMILES C[C@@H](Cn1cccn1)NC(=O)N(CC(=O)OCCOCCOC(=O)c1ccc(-c2c3nc(c(-c4cccc(S(=O)(=O)[O-])c4F)c4ccc([nH]4)c(-c4cccc(S(=O)(=O)[O-])c4F)c4nc(c(-c5cccc(S(=O)(=O)[O-])c5F)c5ccc2[nH]5)C=C4)C=C3)cc1)C(C)(C)C
REMARK SMILES IDX 18 1 17 2 16 3 14 4 15 5 13 6 12 7 10 8 9 9 11 11 2 12 1 13
REMARK SMILES IDX 3 14 4 15 5 16 8 17 6 18 7 19 88 20 89 21 90 22 91 23 19 24
REMARK SMILES IDX 20 25 21 26 22 27 23 28 24 29 25 30 26 31 87 32 27 33 86 34
REMARK SMILES IDX 28 35 29 36 30 37 80 38 31 39 85 40 79 41 81 42 32 43 84 44
REMARK SMILES IDX 78 45 77 46 33 48 65 49 45 50 64 51 46 52 49 53 63 54 82 55
REMARK SMILES IDX 47 56 48 57 62 59 83 60 50 61 34 62 35 63 43 64 36 65 38 66
REMARK SMILES IDX 44 67 37 68 39 69 40 70 41 71 42 72 66 73 67 74 75 75 68 76
REMARK SMILES IDX 70 77 76 78 69 79 71 80 72 81 73 82 74 83 51 84 52 85 60 86
REMARK SMILES IDX 53 87 55 88 61 89 54 90 56 91 57 92 58 93 59 94
REMARK H PARENT 9 10 81 47 49 58
REMARK Flexibility Score: inf
ROOT
ATOM      1  C   UNL A   1      35.329  34.121  31.564  1.00  0.00     0.202 C 
ENDROOT
BRANCH   1   2
ATOM      2  C   UNL A   1      35.303  34.303  33.090  1.00  0.00     0.261 C 
BRANCH   2   3
ATOM      3  O   UNL A   1      35.349  33.090  33.879  1.00  0.00    -0.462 OA
BRANCH   3   4
ATOM      4  C   UNL A   1      36.598  32.700  34.258  1.00  0.00     0.325 C 
ATOM      5  O   UNL A   1      37.324  31.978  33.576  1.00  0.00    -0.250 OA
BRANCH   4   6
ATOM      6  C   UNL A   1      37.116  33.288  35.586  1.00  0.00     0.244 C 
BRANCH   6   7
ATOM      7  N   UNL A   1      38.186  32.642  36.354  1.00  0.00    -0.309 N 
BRANCH   7   8
ATOM      8  C   UNL A   1      37.999  31.476  37.057  1.00  0.00     0.318 C 
ATOM      9  N   UNL A   1      37.566  31.406  38.323  1.00  0.00    -0.334 N 
ATOM     10  H   UNL A   1      37.452  30.462  38.580  1.00  0.00     0.165 HD
ATOM     11  O   UNL A   1      38.208  30.361  36.573  1.00  0.00    -0.249 OA
BRANCH   9  12
ATOM     12  C   UNL A   1      37.205  32.269  39.449  1.00  0.00     0.102 C 
ATOM     13  C   UNL A   1      35.688  32.303  39.613  1.00  0.00     0.033 C 
BRANCH  12  14
ATOM     14  C   UNL A   1      37.977  31.885  40.724  1.00  0.00     0.168 C 
BRANCH  14  15
ATOM     15  N   UNL A   1      39.227  32.588  40.914  1.00  0.00    -0.271 N 
ATOM     16  C   UNL A   1      39.428  33.937  40.881  1.00  0.00     0.108 A 
ATOM     17  N   UNL A   1      40.349  31.887  41.175  1.00  0.00    -0.181 NA
ATOM     18  C   UNL A   1      40.774  34.124  41.092  1.00  0.00     0.042 A 
ATOM     19  C   UNL A   1      41.288  32.831  41.283  1.00  0.00     0.135 A 
ENDBRANCH  14  15
ENDBRANCH  12  14
ENDBRANCH   9  12
ENDBRANCH   7   8
BRANCH   7  20
ATOM     20  C   UNL A   1      39.599  33.220  36.316  1.00  0.00     0.037 C 
ATOM     21  C   UNL A   1      39.524  34.756  36.316  1.00  0.00     0.034 C 
ATOM     22  C   UNL A   1      40.451  32.759  37.525  1.00  0.00     0.034 C 
ATOM     23  C   UNL A   1      40.427  32.798  35.079  1.00  0.00     0.034 C 
ENDBRANCH   7  20
ENDBRANCH   6   7
ENDBRANCH   4   6
ENDBRANCH   3   4
ENDBRANCH   2   3
ENDBRANCH   1   2
BRANCH   1  24
ATOM     24  O   UNL A   1      34.122  33.806  30.877  1.00  0.00    -0.374 OA
BRANCH  24  25
ATOM     25  C   UNL A   1      33.876  34.403  29.610  1.00  0.00     0.202 C 
BRANCH  25  26
ATOM     26  C   UNL A   1      33.860  33.510  28.375  1.00  0.00     0.261 C 
BRANCH  26  27
ATOM     27  O   UNL A   1      35.147  33.011  28.047  1.00  0.00    -0.460 OA
BRANCH  27  28
ATOM     28  C   UNL A   1      35.205  31.666  27.882  1.00  0.00     0.338 C 
ATOM     29  O   UNL A   1      34.488  30.985  27.176  1.00  0.00    -0.246 OA
BRANCH  28  30
ATOM     30  C   UNL A   1      36.139  31.138  28.886  1.00  0.00     0.060 A 
ATOM     31  C   UNL A   1      37.285  31.909  29.046  1.00  0.00     0.016 A 
ATOM     32  C   UNL A   1      36.092  29.785  29.244  1.00  0.00     0.016 A 
ATOM     33  C   UNL A   1      38.465  31.242  29.243  1.00  0.00     0.010 A 
ATOM     34  C   UNL A   1      37.277  29.107  29.388  1.00  0.00     0.010 A 
ATOM     35  C   UNL A   1      38.452  29.840  29.297  1.00  0.00    -0.014 A 
BRANCH  35  36
ATOM     36  C   UNL A   1      39.728  29.195  29.475  1.00  0.00     0.031 A 
ATOM     37  C   UNL A   1      40.165  29.294  30.885  1.00  0.00     0.074 A 
ATOM     38  C   UNL A   1      40.398  28.578  28.490  1.00  0.00     0.049 A 
ATOM     39  N   UNL A   1      41.084  30.065  31.362  1.00  0.00    -0.248 NA
ATOM     40  C   UNL A   1      39.310  28.667  31.905  1.00  0.00     0.031 C 
ATOM     41  C   UNL A   1      39.933  28.169  27.164  1.00  0.00     0.029 A 
ATOM     42  N   UNL A   1      41.648  28.061  28.547  1.00  0.00    -0.354 N 
ATOM     43  C   UNL A   1      41.063  29.846  32.734  1.00  0.00     0.074 A 
ATOM     44  C   UNL A   1      39.822  29.182  33.021  1.00  0.00     0.031 C 
ATOM     45  C   UNL A   1      40.785  27.234  26.677  1.00  0.00     0.029 A 
ATOM     46  C   UNL A   1      41.901  27.081  27.599  1.00  0.00     0.049 A 
ATOM     47  H   UNL A   1      42.319  28.354  29.206  1.00  0.00     0.167 HD
ATOM     48  C   UNL A   1      42.188  29.988  33.482  1.00  0.00     0.034 A 
ATOM     49  C   UNL A   1      42.887  26.150  27.678  1.00  0.00     0.034 A 
ATOM     50  C   UNL A   1      43.190  30.748  32.777  1.00  0.00     0.049 A 
ATOM     51  C   UNL A   1      43.889  26.658  28.658  1.00  0.00     0.074 A 
ATOM     52  C   UNL A   1      43.242  32.024  32.253  1.00  0.00     0.029 A 
ATOM     53  N   UNL A   1      44.188  30.038  32.152  1.00  0.00    -0.354 N 
ATOM     54  N   UNL A   1      44.616  27.721  28.451  1.00  0.00    -0.248 NA
ATOM     55  C   UNL A   1      43.720  26.277  30.055  1.00  0.00     0.031 C 
ATOM     56  C   UNL A   1      43.923  31.878  31.009  1.00  0.00     0.029 A 
ATOM     57  C   UNL A   1      44.312  30.543  30.883  1.00  0.00     0.049 A 
ATOM     58  H   UNL A   1      44.716  29.305  32.542  1.00  0.00     0.167 HD
ATOM     59  C   UNL A   1      44.613  28.389  29.671  1.00  0.00     0.074 A 
ATOM     60  C   UNL A   1      44.117  27.411  30.641  1.00  0.00     0.031 C 
ATOM     61  C   UNL A   1      44.711  29.749  29.741  1.00  0.00     0.034 A 
BRANCH  48  62
ATOM     62  C   UNL A   1      42.531  29.123  34.671  1.00  0.00     0.023 A 
ATOM     63  C   UNL A   1      43.044  29.780  35.810  1.00  0.00     0.012 A 
ATOM     64  C   UNL A   1      42.643  27.713  34.640  1.00  0.00     0.148 A 
ATOM     65  C   UNL A   1      43.696  29.077  36.829  1.00  0.00     0.002 A 
ATOM     66  C   UNL A   1      43.223  27.012  35.689  1.00  0.00     0.091 A 
ATOM     67  F   UNL A   1      42.313  27.030  33.543  1.00  0.00    -0.205 F 
ATOM     68  C   UNL A   1      43.784  27.692  36.770  1.00  0.00     0.022 A 
BRANCH  66  69
ATOM     69  S   UNL A   1      43.324  25.217  35.677  1.00  0.00     0.127 S 
ATOM     70  O   UNL A   1      41.929  24.848  35.460  1.00  0.00    -0.237 OA
ATOM     71  O   UNL A   1      44.215  24.978  34.542  1.00  0.00    -0.237 OA
ATOM     72  O   UNL A   1      43.892  24.844  36.966  1.00  0.00    -0.744 OA
ENDBRANCH  66  69
ENDBRANCH  48  62
BRANCH  49  73
ATOM     73  C   UNL A   1      42.854  24.726  27.258  1.00  0.00     0.023 A 
ATOM     74  C   UNL A   1      41.673  23.973  27.419  1.00  0.00     0.012 A 
ATOM     75  C   UNL A   1      43.880  24.178  26.454  1.00  0.00     0.148 A 
ATOM     76  C   UNL A   1      41.511  22.733  26.784  1.00  0.00     0.002 A 
ATOM     77  C   UNL A   1      43.720  22.942  25.835  1.00  0.00     0.091 A 
ATOM     78  F   UNL A   1      44.974  24.910  26.212  1.00  0.00    -0.205 F 
ATOM     79  C   UNL A   1      42.531  22.220  25.988  1.00  0.00     0.022 A 
BRANCH  77  80
ATOM     80  S   UNL A   1      44.994  22.237  24.780  1.00  0.00     0.127 S 
ATOM     81  O   UNL A   1      45.104  23.242  23.721  1.00  0.00    -0.237 OA
ATOM     82  O   UNL A   1      46.137  22.176  25.687  1.00  0.00    -0.237 OA
ATOM     83  O   UNL A   1      44.468  20.954  24.330  1.00  0.00    -0.744 OA
ENDBRANCH  77  80
ENDBRANCH  49  73
BRANCH  61  84
ATOM     84  C   UNL A   1      45.013  30.517  28.477  1.00  0.00     0.023 A 
ATOM     85  C   UNL A   1      44.000  30.995  27.619  1.00  0.00     0.012 A 
ATOM     86  C   UNL A   1      46.335  30.943  28.265  1.00  0.00     0.148 A 
ATOM     87  C   UNL A   1      44.301  31.864  26.566  1.00  0.00     0.002 A 
ATOM     88  C   UNL A   1      46.624  31.844  27.249  1.00  0.00     0.091 A 
ATOM     89  F   UNL A   1      47.287  30.484  29.092  1.00  0.00    -0.205 F 
ATOM     90  C   UNL A   1      45.612  32.301  26.391  1.00  0.00     0.022 A 
BRANCH  88  91
ATOM     91  S   UNL A   1      48.264  32.545  27.063  1.00  0.00     0.127 S 
ATOM     92  O   UNL A   1      48.049  33.550  26.023  1.00  0.00    -0.237 OA
ATOM     93  O   UNL A   1      48.528  33.090  28.396  1.00  0.00    -0.237 OA
ATOM     94  O   UNL A   1      49.135  31.436  26.693  1.00  0.00    -0.744 OA
ENDBRANCH  88  91
ENDBRANCH  61  84
ENDBRANCH  35  36
ENDBRANCH  28  30
ENDBRANCH  27  28
ENDBRANCH  26  27
ENDBRANCH  25  26
ENDBRANCH  24  25
ENDBRANCH   1  24
TORSDOF 23
ENDMDL
MODEL 3
REMARK VINA RESULT:      -9.1      1.463      1.921
REMARK SMILES C[C@@H](Cn1cccn1)NC(=O)N(CC(=O)OCCOCCOC(=O)c1ccc(-c2c3nc(c(-c4cccc(S(=O)(=O)[O-])c4F)c4ccc([nH]4)c(-c4cccc(S(=O)(=O)[O-])c4F)c4nc(c(-c5cccc(S(=O)(=O)[O-])c5F)c5ccc2[nH]5)C=C4)C=C3)cc1)C(C)(C)C
REMARK SMILES IDX 18 1 17 2 16 3 14 4 15 5 13 6 12 7 10 8 9 9 11 11 2 12 1 13
REMARK SMILES IDX 3 14 4 15 5 16 8 17 6 18 7 19 88 20 89 21 90 22 91 23 19 24
REMARK SMILES IDX 20 25 21 26 22 27 23 28 24 29 25 30 26 31 87 32 27 33 86 34
REMARK SMILES IDX 28 35 29 36 30 37 80 38 31 39 85 40 79 41 81 42 32 43 84 44
REMARK SMILES IDX 78 45 77 46 33 48 65 49 45 50 64 51 46 52 49 53 63 54 82 55
REMARK SMILES IDX 47 56 48 57 62 59 83 60 50 61 34 62 35 63 43 64 36 65 38 66
REMARK SMILES IDX 44 67 37 68 39 69 40 70 41 71 42 72 66 73 67 74 75 75 68 76
REMARK SMILES IDX 70 77 76 78 69 79 71 80 72 81 73 82 74 83 51 84 52 85 60 86
REMARK SMILES IDX 53 87 55 88 61 89 54 90 56 91 57 92 58 93 59 94
REMARK H PARENT 9 10 81 47 49 58
REMARK Flexibility Score: inf
ROOT
ATOM      1  C   UNL A   1      33.359  30.712  27.190  1.00  0.00     0.202 C 
ENDROOT
BRANCH   1   2
ATOM      2  C   UNL A   1      34.394  29.575  27.224  1.00  0.00     0.261 C 
BRANCH   2   3
ATOM      3  O   UNL A   1      34.297  28.591  26.168  1.00  0.00    -0.462 OA
BRANCH   3   4
ATOM      4  C   UNL A   1      33.106  28.575  25.507  1.00  0.00     0.325 C 
ATOM      5  O   UNL A   1      32.735  29.468  24.746  1.00  0.00    -0.250 OA
BRANCH   4   6
ATOM      6  C   UNL A   1      32.245  27.309  25.695  1.00  0.00     0.244 C 
BRANCH   6   7
ATOM      7  N   UNL A   1      32.233  26.226  24.705  1.00  0.00    -0.309 N 
BRANCH   7   8
ATOM      8  C   UNL A   1      33.183  25.233  24.675  1.00  0.00     0.318 C 
ATOM      9  N   UNL A   1      33.225  24.189  25.512  1.00  0.00    -0.334 N 
ATOM     10  H   UNL A   1      33.956  23.584  25.248  1.00  0.00     0.165 HD
ATOM     11  O   UNL A   1      34.097  25.207  23.848  1.00  0.00    -0.249 OA
BRANCH   9  12
ATOM     12  C   UNL A   1      32.543  23.648  26.689  1.00  0.00     0.102 C 
ATOM     13  C   UNL A   1      31.104  23.284  26.334  1.00  0.00     0.033 C 
BRANCH  12  14
ATOM     14  C   UNL A   1      33.350  22.509  27.335  1.00  0.00     0.168 C 
BRANCH  14  15
ATOM     15  N   UNL A   1      34.169  21.746  26.418  1.00  0.00    -0.271 N 
ATOM     16  C   UNL A   1      33.782  20.685  25.654  1.00  0.00     0.108 A 
ATOM     17  N   UNL A   1      35.462  22.088  26.242  1.00  0.00    -0.181 NA
ATOM     18  C   UNL A   1      34.904  20.282  24.969  1.00  0.00     0.042 A 
ATOM     19  C   UNL A   1      35.903  21.191  25.357  1.00  0.00     0.135 A 
ENDBRANCH  14  15
ENDBRANCH  12  14
ENDBRANCH   9  12
ENDBRANCH   7   8
BRANCH   7  20
ATOM     20  C   UNL A   1      31.078  26.125  23.710  1.00  0.00     0.037 C 
ATOM     21  C   UNL A   1      29.758  26.468  24.421  1.00  0.00     0.034 C 
ATOM     22  C   UNL A   1      31.262  27.079  22.504  1.00  0.00     0.034 C 
ATOM     23  C   UNL A   1      30.909  24.725  23.071  1.00  0.00     0.034 C 
ENDBRANCH   7  20
ENDBRANCH   6   7
ENDBRANCH   4   6
ENDBRANCH   3   4
ENDBRANCH   2   3
ENDBRANCH   1   2
BRANCH   1  24
ATOM     24  O   UNL A   1      33.587  31.887  27.961  1.00  0.00    -0.374 OA
BRANCH  24  25
ATOM     25  C   UNL A   1      34.745  32.670  27.696  1.00  0.00     0.202 C 
BRANCH  25  26
ATOM     26  C   UNL A   1      36.063  32.262  28.343  1.00  0.00     0.261 C 
BRANCH  26  27
ATOM     27  O   UNL A   1      36.216  32.793  29.648  1.00  0.00    -0.460 OA
BRANCH  27  28
ATOM     28  C   UNL A   1      35.592  32.084  30.622  1.00  0.00     0.338 C 
ATOM     29  O   UNL A   1      34.508  32.319  31.116  1.00  0.00    -0.246 OA
BRANCH  28  30
ATOM     30  C   UNL A   1      36.558  31.108  31.146  1.00  0.00     0.060 A 
ATOM     31  C   UNL A   1      37.745  31.678  31.591  1.00  0.00     0.016 A 
ATOM     32  C   UNL A   1      36.470  29.763  30.767  1.00  0.00     0.016 A 
ATOM     33  C   UNL A   1      38.903  30.992  31.333  1.00  0.00     0.010 A 
ATOM     34  C   UNL A   1      37.629  29.095  30.458  1.00  0.00     0.010 A 
ATOM     35  C   UNL A   1      38.829  29.761  30.666  1.00  0.00    -0.014 A 
BRANCH  35  36
ATOM     36  C   UNL A   1      40.082  29.103  30.397  1.00  0.00     0.031 A 
ATOM     37  C   UNL A   1      40.804  28.827  31.658  1.00  0.00     0.074 A 
ATOM     38  C   UNL A   1      40.505  28.776  29.166  1.00  0.00     0.049 A 
ATOM     39  N   UNL A   1      41.836  29.452  32.116  1.00  0.00    -0.248 NA
ATOM     40  C   UNL A   1      40.147  27.943  32.635  1.00  0.00     0.031 C 
ATOM     41  C   UNL A   1      39.759  28.730  27.908  1.00  0.00     0.029 A 
ATOM     42  N   UNL A   1      41.715  28.273  28.821  1.00  0.00    -0.354 N 
ATOM     43  C   UNL A   1      42.087  28.875  33.355  1.00  0.00     0.074 A 
ATOM     44  C   UNL A   1      40.901  28.147  33.713  1.00  0.00     0.031 C 
ATOM     45  C   UNL A   1      40.448  27.966  27.025  1.00  0.00     0.029 A 
ATOM     46  C   UNL A   1      41.720  27.584  27.618  1.00  0.00     0.049 A 
ATOM     47  H   UNL A   1      42.520  28.387  29.377  1.00  0.00     0.167 HD
ATOM     48  C   UNL A   1      43.348  28.823  33.860  1.00  0.00     0.034 A 
ATOM     49  C   UNL A   1      42.656  26.674  27.241  1.00  0.00     0.034 A 
ATOM     50  C   UNL A   1      44.219  29.752  33.184  1.00  0.00     0.049 A 
ATOM     51  C   UNL A   1      43.861  26.911  28.086  1.00  0.00     0.074 A 
ATOM     52  C   UNL A   1      44.222  31.122  33.014  1.00  0.00     0.029 A 
ATOM     53  N   UNL A   1      45.032  29.243  32.199  1.00  0.00    -0.354 N 
ATOM     54  N   UNL A   1      44.580  27.998  28.016  1.00  0.00    -0.248 NA
ATOM     55  C   UNL A   1      43.964  26.172  29.337  1.00  0.00     0.031 C 
ATOM     56  C   UNL A   1      44.626  31.319  31.660  1.00  0.00     0.029 A 
ATOM     57  C   UNL A   1      44.916  30.068  31.110  1.00  0.00     0.049 A 
ATOM     58  H   UNL A   1      45.593  28.437  32.263  1.00  0.00     0.167 HD
ATOM     59  C   UNL A   1      44.859  28.317  29.341  1.00  0.00     0.074 A 
ATOM     60  C   UNL A   1      44.527  27.112  30.103  1.00  0.00     0.031 C 
ATOM     61  C   UNL A   1      45.035  29.611  29.743  1.00  0.00     0.034 A 
BRANCH  48  62
ATOM     62  C   UNL A   1      43.886  27.676  34.681  1.00  0.00     0.023 A 
ATOM     63  C   UNL A   1      44.627  28.011  35.835  1.00  0.00     0.012 A 
ATOM     64  C   UNL A   1      43.947  26.330  34.248  1.00  0.00     0.148 A 
ATOM     65  C   UNL A   1      45.441  27.073  36.479  1.00  0.00     0.002 A 
ATOM     66  C   UNL A   1      44.697  25.385  34.936  1.00  0.00     0.091 A 
ATOM     67  F   UNL A   1      43.393  25.964  33.092  1.00  0.00    -0.205 F 
ATOM     68  C   UNL A   1      45.474  25.759  36.032  1.00  0.00     0.022 A 
BRANCH  66  69
ATOM     69  S   UNL A   1      44.740  23.664  34.419  1.00  0.00     0.127 S 
ATOM     70  O   UNL A   1      45.321  23.774  33.084  1.00  0.00    -0.237 OA
ATOM     71  O   UNL A   1      45.614  23.071  35.431  1.00  0.00    -0.237 OA
ATOM     72  O   UNL A   1      43.360  23.197  34.479  1.00  0.00    -0.744 OA
ENDBRANCH  66  69
ENDBRANCH  48  62
BRANCH  49  73
ATOM     73  C   UNL A   1      42.470  25.413  26.480  1.00  0.00     0.023 A 
ATOM     74  C   UNL A   1      43.371  25.075  25.449  1.00  0.00     0.012 A 
ATOM     75  C   UNL A   1      41.582  24.411  26.933  1.00  0.00     0.148 A 
ATOM     76  C   UNL A   1      43.402  23.781  24.908  1.00  0.00     0.002 A 
ATOM     77  C   UNL A   1      41.607  23.131  26.386  1.00  0.00     0.091 A 
ATOM     78  F   UNL A   1      40.778  24.677  27.969  1.00  0.00    -0.205 F 
ATOM     79  C   UNL A   1      42.525  22.808  25.379  1.00  0.00     0.022 A 
BRANCH  77  80
ATOM     80  S   UNL A   1      40.513  21.828  26.966  1.00  0.00     0.127 S 
ATOM     81  O   UNL A   1      39.192  22.376  26.652  1.00  0.00    -0.237 OA
ATOM     82  O   UNL A   1      40.921  20.698  26.135  1.00  0.00    -0.237 OA
ATOM     83  O   UNL A   1      40.778  21.698  28.394  1.00  0.00    -0.744 OA
ENDBRANCH  77  80
ENDBRANCH  49  73
BRANCH  61  84
ATOM     84  C   UNL A   1      45.107  30.690  28.690  1.00  0.00     0.023 A 
ATOM     85  C   UNL A   1      43.969  31.401  28.253  1.00  0.00     0.012 A 
ATOM     86  C   UNL A   1      46.378  31.135  28.289  1.00  0.00     0.148 A 
ATOM     87  C   UNL A   1      44.096  32.520  27.424  1.00  0.00     0.002 A 
ATOM     88  C   UNL A   1      46.503  32.275  27.506  1.00  0.00     0.091 A 
ATOM     89  F   UNL A   1      47.450  30.453  28.718  1.00  0.00    -0.205 F 
ATOM     90  C   UNL A   1      45.365  32.966  27.064  1.00  0.00     0.022 A 
BRANCH  88  91
ATOM     91  S   UNL A   1      48.110  32.973  27.127  1.00  0.00     0.127 S 
ATOM     92  O   UNL A   1      48.611  33.325  28.454  1.00  0.00    -0.237 OA
ATOM     93  O   UNL A   1      48.801  31.849  26.491  1.00  0.00    -0.237 OA
ATOM     94  O   UNL A   1      47.860  34.097  26.232  1.00  0.00    -0.744 OA
ENDBRANCH  88  91
ENDBRANCH  61  84
ENDBRANCH  35  36
ENDBRANCH  28  30
ENDBRANCH  27  28
ENDBRANCH  26  27
ENDBRANCH  25  26
ENDBRANCH  24  25
ENDBRANCH   1  24
TORSDOF 23
ENDMDL
