MODEL 1
REMARK VINA RESULT:     -12.2      0.000      0.000
REMARK SMILES COc1ccc(-c2[nH]nc3nc(-c4ccc(C(F)(F)F)cc4)cc(C(=O)OCCOCCOC(=O)c4ccc(-c5c6nc(c(-c7cccc(S(=O)(=O)[O-])c7F)c7ccc([nH]7)c(-c7cccc(S(=O)(=O)[O-])c7F)c7nc(c(-c8cccc(S(=O)(=O)[O-])c8F)c8ccc5[nH]8)C=C7)C=C6)cc4)c23)cc1
REMARK SMILES IDX 31 1 30 2 29 3 28 4 27 5 25 6 26 7 24 8 7 9 8 10 99 11 9 12
REMARK SMILES IDX 10 14 11 15 23 16 12 17 6 18 3 19 4 20 101 21 5 22 100 23
REMARK SMILES IDX 2 24 1 25 13 26 14 27 22 28 15 29 21 30 16 31 17 32 18 33
REMARK SMILES IDX 19 34 20 35 32 36 33 37 34 38 35 39 36 40 37 41 98 42 38 43
REMARK SMILES IDX 97 44 39 45 40 46 41 47 91 48 42 49 96 50 90 51 92 52 43 53
REMARK SMILES IDX 95 54 89 55 88 56 44 58 76 59 56 60 75 61 57 62 60 63 74 64
REMARK SMILES IDX 93 65 58 66 59 67 73 69 94 70 61 71 45 72 46 73 54 74 47 75
REMARK SMILES IDX 49 76 55 77 48 78 50 79 51 80 52 81 53 82 77 83 78 84 86 85
REMARK SMILES IDX 79 86 81 87 87 88 80 89 82 90 83 91 84 92 85 93 62 94 63 95
REMARK SMILES IDX 71 96 64 97 66 98 72 99 65 100 67 101 68 102 69 103 70 104
REMARK H PARENT 8 13 92 57 60 68
REMARK Flexibility Score: inf
ROOT
ATOM      1  C   UNL A   1      32.124  30.470  25.787  1.00  0.00     0.202 C 
ENDROOT
BRANCH   1   2
ATOM      2  O   UNL A   1      31.344  29.292  25.998  1.00  0.00    -0.374 OA
BRANCH   2   3
ATOM      3  C   UNL A   1      31.485  28.731  27.307  1.00  0.00     0.202 C 
BRANCH   3   4
ATOM      4  C   UNL A   1      32.765  27.909  27.449  1.00  0.00     0.261 C 
BRANCH   4   5
ATOM      5  O   UNL A   1      32.712  26.772  26.568  1.00  0.00    -0.460 OA
BRANCH   5   6
ATOM      6  C   UNL A   1      33.548  26.812  25.498  1.00  0.00     0.339 C 
ATOM      7  O   UNL A   1      34.039  27.803  24.995  1.00  0.00    -0.246 OA
BRANCH   6   8
ATOM      8  C   UNL A   1      33.785  25.436  25.037  1.00  0.00     0.075 A 
ATOM      9  C   UNL A   1      31.670  24.896  23.738  1.00  0.00     0.075 A 
ATOM     10  N   UNL A   1      31.246  23.686  23.240  1.00  0.00    -0.275 N 
ATOM     11  C   UNL A   1      32.880  24.606  24.357  1.00  0.00     0.061 A 
ATOM     12  N   UNL A   1      32.109  22.673  23.398  1.00  0.00    -0.154 NA
ATOM     13  H   UNL A   1      30.373  23.572  22.800  1.00  0.00     0.190 HD
ATOM     14  C   UNL A   1      33.138  23.231  24.031  1.00  0.00     0.182 A 
ATOM     15  N   UNL A   1      34.308  22.614  24.328  1.00  0.00    -0.226 NA
ATOM     16  C   UNL A   1      35.002  24.777  25.289  1.00  0.00     0.045 A 
ATOM     17  C   UNL A   1      35.222  23.420  24.940  1.00  0.00     0.074 A 
BRANCH   9  18
ATOM     18  C   UNL A   1      30.933  26.114  23.407  1.00  0.00     0.001 A 
ATOM     19  C   UNL A   1      29.395  28.366  22.686  1.00  0.00     0.118 A 
ATOM     20  C   UNL A   1      30.719  28.234  22.258  1.00  0.00     0.047 A 
ATOM     21  C   UNL A   1      28.858  27.396  23.526  1.00  0.00     0.047 A 
ATOM     22  C   UNL A   1      31.486  27.116  22.613  1.00  0.00     0.014 A 
ATOM     23  C   UNL A   1      29.635  26.295  23.908  1.00  0.00     0.014 A 
BRANCH  19  24
ATOM     24  O   UNL A   1      28.743  29.477  22.221  1.00  0.00    -0.497 OA
ATOM     25  C   UNL A   1      29.134  30.728  22.776  1.00  0.00     0.278 C 
ENDBRANCH  19  24
ENDBRANCH   9  18
BRANCH  17  26
ATOM     26  C   UNL A   1      36.507  22.764  25.272  1.00  0.00     0.000 A 
ATOM     27  C   UNL A   1      37.504  23.430  26.007  1.00  0.00     0.011 A 
ATOM     28  C   UNL A   1      36.781  21.449  24.854  1.00  0.00     0.011 A 
ATOM     29  C   UNL A   1      38.722  22.807  26.313  1.00  0.00     0.014 A 
ATOM     30  C   UNL A   1      37.997  20.825  25.153  1.00  0.00     0.014 A 
ATOM     31  C   UNL A   1      38.984  21.498  25.884  1.00  0.00     0.056 A 
BRANCH  31  32
ATOM     32  C   UNL A   1      40.311  20.842  26.183  1.00  0.00     0.416 C 
ATOM     33  F   UNL A   1      41.357  21.509  25.620  1.00  0.00    -0.166 F 
ATOM     34  F   UNL A   1      40.580  20.758  27.511  1.00  0.00    -0.166 F 
ATOM     35  F   UNL A   1      40.395  19.566  25.702  1.00  0.00    -0.166 F 
ENDBRANCH  31  32
ENDBRANCH  17  26
ENDBRANCH   6   8
ENDBRANCH   5   6
ENDBRANCH   4   5
ENDBRANCH   3   4
ENDBRANCH   2   3
ENDBRANCH   1   2
BRANCH   1  36
ATOM     36  C   UNL A   1      31.733  31.573  26.755  1.00  0.00     0.261 C 
BRANCH  36  37
ATOM     37  O   UNL A   1      32.890  31.940  27.487  1.00  0.00    -0.460 OA
BRANCH  37  38
ATOM     38  C   UNL A   1      32.945  33.228  27.911  1.00  0.00     0.338 C 
ATOM     39  O   UNL A   1      32.168  34.119  27.728  1.00  0.00    -0.246 OA
BRANCH  38  40
ATOM     40  C   UNL A   1      34.242  33.323  28.588  1.00  0.00     0.060 A 
ATOM     41  C   UNL A   1      35.272  33.880  27.840  1.00  0.00     0.016 A 
ATOM     42  C   UNL A   1      34.456  32.617  29.786  1.00  0.00     0.016 A 
ATOM     43  C   UNL A   1      36.551  33.500  28.157  1.00  0.00     0.010 A 
ATOM     44  C   UNL A   1      35.731  32.216  30.083  1.00  0.00     0.010 A 
ATOM     45  C   UNL A   1      36.743  32.596  29.210  1.00  0.00    -0.014 A 
BRANCH  45  46
ATOM     46  C   UNL A   1      38.085  32.124  29.434  1.00  0.00     0.031 A 
ATOM     47  C   UNL A   1      38.246  30.711  29.056  1.00  0.00     0.074 A 
ATOM     48  C   UNL A   1      39.066  32.925  29.879  1.00  0.00     0.049 A 
ATOM     49  N   UNL A   1      38.359  29.703  29.854  1.00  0.00    -0.248 NA
ATOM     50  C   UNL A   1      38.031  30.354  27.647  1.00  0.00     0.031 C 
ATOM     51  C   UNL A   1      39.058  34.386  29.986  1.00  0.00     0.029 A 
ATOM     52  N   UNL A   1      40.346  32.593  30.192  1.00  0.00    -0.354 N 
ATOM     53  C   UNL A   1      38.498  28.607  29.013  1.00  0.00     0.074 A 
ATOM     54  C   UNL A   1      38.032  29.024  27.719  1.00  0.00     0.031 C 
ATOM     55  C   UNL A   1      40.335  34.820  30.088  1.00  0.00     0.029 A 
ATOM     56  C   UNL A   1      41.221  33.670  30.164  1.00  0.00     0.049 A 
ATOM     57  H   UNL A   1      40.624  31.676  30.417  1.00  0.00     0.167 HD
ATOM     58  C   UNL A   1      39.284  27.556  29.368  1.00  0.00     0.034 A 
ATOM     59  C   UNL A   1      42.572  33.589  30.087  1.00  0.00     0.034 A 
ATOM     60  C   UNL A   1      39.561  27.559  30.784  1.00  0.00     0.049 A 
ATOM     61  C   UNL A   1      42.963  32.222  30.514  1.00  0.00     0.074 A 
ATOM     62  C   UNL A   1      38.787  27.565  31.928  1.00  0.00     0.029 A 
ATOM     63  N   UNL A   1      40.819  27.954  31.172  1.00  0.00    -0.354 N 
ATOM     64  N   UNL A   1      42.842  31.784  31.737  1.00  0.00    -0.248 NA
ATOM     65  C   UNL A   1      43.090  31.192  29.495  1.00  0.00     0.031 C 
ATOM     66  C   UNL A   1      39.494  28.391  32.849  1.00  0.00     0.029 A 
ATOM     67  C   UNL A   1      40.683  28.799  32.240  1.00  0.00     0.049 A 
ATOM     68  H   UNL A   1      41.667  27.677  30.756  1.00  0.00     0.167 HD
ATOM     69  C   UNL A   1      42.410  30.471  31.593  1.00  0.00     0.074 A 
ATOM     70  C   UNL A   1      42.703  30.126  30.203  1.00  0.00     0.031 C 
ATOM     71  C   UNL A   1      41.586  29.895  32.519  1.00  0.00     0.034 A 
BRANCH  58  72
ATOM     72  C   UNL A   1      40.130  26.774  28.393  1.00  0.00     0.023 A 
ATOM     73  C   UNL A   1      40.162  25.374  28.557  1.00  0.00     0.012 A 
ATOM     74  C   UNL A   1      41.093  27.339  27.522  1.00  0.00     0.148 A 
ATOM     75  C   UNL A   1      41.138  24.587  27.938  1.00  0.00     0.002 A 
ATOM     76  C   UNL A   1      42.001  26.543  26.837  1.00  0.00     0.091 A 
ATOM     77  F   UNL A   1      41.247  28.662  27.447  1.00  0.00    -0.205 F 
ATOM     78  C   UNL A   1      42.053  25.169  27.069  1.00  0.00     0.022 A 
BRANCH  76  79
ATOM     79  S   UNL A   1      43.159  27.251  25.660  1.00  0.00     0.127 S 
ATOM     80  O   UNL A   1      44.029  28.027  26.538  1.00  0.00    -0.237 OA
ATOM     81  O   UNL A   1      43.767  26.053  25.080  1.00  0.00    -0.237 OA
ATOM     82  O   UNL A   1      42.344  28.015  24.723  1.00  0.00    -0.744 OA
ENDBRANCH  76  79
ENDBRANCH  58  72
BRANCH  59  83
ATOM     83  C   UNL A   1      43.527  34.505  29.420  1.00  0.00     0.023 A 
ATOM     84  C   UNL A   1      44.210  35.471  30.186  1.00  0.00     0.012 A 
ATOM     85  C   UNL A   1      43.971  34.271  28.099  1.00  0.00     0.148 A 
ATOM     86  C   UNL A   1      45.315  36.155  29.666  1.00  0.00     0.002 A 
ATOM     87  C   UNL A   1      45.058  34.967  27.580  1.00  0.00     0.091 A 
ATOM     88  F   UNL A   1      43.397  33.296  27.382  1.00  0.00    -0.205 F 
ATOM     89  C   UNL A   1      45.742  35.901  28.365  1.00  0.00     0.022 A 
BRANCH  87  90
ATOM     90  S   UNL A   1      45.660  34.673  25.912  1.00  0.00     0.127 S 
ATOM     91  O   UNL A   1      44.414  34.569  25.150  1.00  0.00    -0.237 OA
ATOM     92  O   UNL A   1      46.437  35.882  25.653  1.00  0.00    -0.237 OA
ATOM     93  O   UNL A   1      46.421  33.431  25.980  1.00  0.00    -0.744 OA
ENDBRANCH  87  90
ENDBRANCH  59  83
BRANCH  71  94
ATOM     94  C   UNL A   1      41.388  30.606  33.836  1.00  0.00     0.023 A 
ATOM     95  C   UNL A   1      42.274  30.443  34.921  1.00  0.00     0.012 A 
ATOM     96  C   UNL A   1      40.382  31.582  33.926  1.00  0.00     0.148 A 
ATOM     97  C   UNL A   1      42.137  31.209  36.082  1.00  0.00     0.002 A 
ATOM     98  C   UNL A   1      40.279  32.377  35.061  1.00  0.00     0.091 A 
ATOM     99  F   UNL A   1      39.548  31.734  32.886  1.00  0.00    -0.205 F 
ATOM    100  C   UNL A   1      41.147  32.186  36.147  1.00  0.00     0.022 A 
BRANCH  98 101
ATOM    101  S   UNL A   1      39.110  33.736  35.145  1.00  0.00     0.127 S 
ATOM    102  O   UNL A   1      37.828  33.035  35.174  1.00  0.00    -0.237 OA
ATOM    103  O   UNL A   1      39.475  34.394  36.400  1.00  0.00    -0.237 OA
ATOM    104  O   UNL A   1      39.360  34.546  33.958  1.00  0.00    -0.744 OA
ENDBRANCH  98 101
ENDBRANCH  71  94
ENDBRANCH  45  46
ENDBRANCH  38  40
ENDBRANCH  37  38
ENDBRANCH  36  37
ENDBRANCH   1  36
TORSDOF 21
ENDMDL
MODEL 2
REMARK VINA RESULT:     -12.0      3.602      5.016
REMARK SMILES COc1ccc(-c2[nH]nc3nc(-c4ccc(C(F)(F)F)cc4)cc(C(=O)OCCOCCOC(=O)c4ccc(-c5c6nc(c(-c7cccc(S(=O)(=O)[O-])c7F)c7ccc([nH]7)c(-c7cccc(S(=O)(=O)[O-])c7F)c7nc(c(-c8cccc(S(=O)(=O)[O-])c8F)c8ccc5[nH]8)C=C7)C=C6)cc4)c23)cc1
REMARK SMILES IDX 31 1 30 2 29 3 28 4 27 5 25 6 26 7 24 8 7 9 8 10 99 11 9 12
REMARK SMILES IDX 10 14 11 15 23 16 12 17 6 18 3 19 4 20 101 21 5 22 100 23
REMARK SMILES IDX 2 24 1 25 13 26 14 27 22 28 15 29 21 30 16 31 17 32 18 33
REMARK SMILES IDX 19 34 20 35 32 36 33 37 34 38 35 39 36 40 37 41 98 42 38 43
REMARK SMILES IDX 97 44 39 45 40 46 41 47 91 48 42 49 96 50 90 51 92 52 43 53
REMARK SMILES IDX 95 54 89 55 88 56 44 58 76 59 56 60 75 61 57 62 60 63 74 64
REMARK SMILES IDX 93 65 58 66 59 67 73 69 94 70 61 71 45 72 46 73 54 74 47 75
REMARK SMILES IDX 49 76 55 77 48 78 50 79 51 80 52 81 53 82 77 83 78 84 86 85
REMARK SMILES IDX 79 86 81 87 87 88 80 89 82 90 83 91 84 92 85 93 62 94 63 95
REMARK SMILES IDX 71 96 64 97 66 98 72 99 65 100 67 101 68 102 69 103 70 104
REMARK H PARENT 8 13 92 57 60 68
REMARK Flexibility Score: inf
ROOT
ATOM      1  C   UNL A   1      34.538  31.724  27.746  1.00  0.00     0.202 C 
ENDROOT
BRANCH   1   2
ATOM      2  O   UNL A   1      33.327  30.969  27.703  1.00  0.00    -0.374 OA
BRANCH   2   3
ATOM      3  C   UNL A   1      33.248  30.061  26.600  1.00  0.00     0.202 C 
BRANCH   3   4
ATOM      4  C   UNL A   1      32.924  28.636  27.046  1.00  0.00     0.261 C 
BRANCH   4   5
ATOM      5  O   UNL A   1      33.330  27.705  26.027  1.00  0.00    -0.460 OA
BRANCH   5   6
ATOM      6  C   UNL A   1      32.670  26.517  26.012  1.00  0.00     0.339 C 
ATOM      7  O   UNL A   1      31.666  26.235  26.637  1.00  0.00    -0.246 OA
BRANCH   6   8
ATOM      8  C   UNL A   1      33.366  25.605  25.093  1.00  0.00     0.075 A 
ATOM      9  C   UNL A   1      31.959  25.735  22.983  1.00  0.00     0.075 A 
ATOM     10  N   UNL A   1      32.018  24.952  21.854  1.00  0.00    -0.275 N 
ATOM     11  C   UNL A   1      32.948  25.218  23.811  1.00  0.00     0.061 A 
ATOM     12  N   UNL A   1      33.008  24.049  21.841  1.00  0.00    -0.154 NA
ATOM     13  H   UNL A   1      31.381  25.048  21.110  1.00  0.00     0.190 HD
ATOM     14  C   UNL A   1      33.622  24.235  23.007  1.00  0.00     0.182 A 
ATOM     15  N   UNL A   1      34.754  23.609  23.411  1.00  0.00    -0.226 NA
ATOM     16  C   UNL A   1      34.567  24.969  25.460  1.00  0.00     0.045 A 
ATOM     17  C   UNL A   1      35.207  24.012  24.632  1.00  0.00     0.074 A 
BRANCH   9  18
ATOM     18  C   UNL A   1      31.089  26.909  23.005  1.00  0.00     0.001 A 
ATOM     19  C   UNL A   1      29.306  29.094  22.936  1.00  0.00     0.118 A 
ATOM     20  C   UNL A   1      30.638  29.241  22.540  1.00  0.00     0.047 A 
ATOM     21  C   UNL A   1      28.880  27.862  23.424  1.00  0.00     0.047 A 
ATOM     22  C   UNL A   1      31.526  28.158  22.572  1.00  0.00     0.014 A 
ATOM     23  C   UNL A   1      29.776  26.788  23.487  1.00  0.00     0.014 A 
BRANCH  19  24
ATOM     24  O   UNL A   1      28.533  30.216  22.801  1.00  0.00    -0.497 OA
ATOM     25  C   UNL A   1      28.119  30.554  21.482  1.00  0.00     0.278 C 
ENDBRANCH  19  24
ENDBRANCH   9  18
BRANCH  17  26
ATOM     26  C   UNL A   1      36.444  23.339  25.090  1.00  0.00     0.000 A 
ATOM     27  C   UNL A   1      37.351  23.978  25.954  1.00  0.00     0.011 A 
ATOM     28  C   UNL A   1      36.762  22.036  24.668  1.00  0.00     0.011 A 
ATOM     29  C   UNL A   1      38.525  23.340  26.379  1.00  0.00     0.014 A 
ATOM     30  C   UNL A   1      37.934  21.397  25.086  1.00  0.00     0.014 A 
ATOM     31  C   UNL A   1      38.831  22.043  25.944  1.00  0.00     0.056 A 
BRANCH  31  32
ATOM     32  C   UNL A   1      40.114  21.371  26.375  1.00  0.00     0.416 C 
ATOM     33  F   UNL A   1      40.038  20.013  26.297  1.00  0.00    -0.166 F 
ATOM     34  F   UNL A   1      41.188  21.737  25.629  1.00  0.00    -0.166 F 
ATOM     35  F   UNL A   1      40.449  21.641  27.671  1.00  0.00    -0.166 F 
ENDBRANCH  31  32
ENDBRANCH  17  26
ENDBRANCH   6   8
ENDBRANCH   5   6
ENDBRANCH   4   5
ENDBRANCH   3   4
ENDBRANCH   2   3
ENDBRANCH   1   2
BRANCH   1  36
ATOM     36  C   UNL A   1      35.331  31.426  29.007  1.00  0.00     0.261 C 
BRANCH  36  37
ATOM     37  O   UNL A   1      36.187  30.331  28.733  1.00  0.00    -0.460 OA
BRANCH  37  38
ATOM     38  C   UNL A   1      36.655  29.655  29.814  1.00  0.00     0.338 C 
ATOM     39  O   UNL A   1      36.320  29.733  30.960  1.00  0.00    -0.246 OA
BRANCH  38  40
ATOM     40  C   UNL A   1      37.755  28.847  29.277  1.00  0.00     0.060 A 
ATOM     41  C   UNL A   1      38.327  27.944  30.164  1.00  0.00     0.016 A 
ATOM     42  C   UNL A   1      38.349  29.206  28.054  1.00  0.00     0.016 A 
ATOM     43  C   UNL A   1      39.636  27.596  29.945  1.00  0.00     0.010 A 
ATOM     44  C   UNL A   1      39.663  28.880  27.851  1.00  0.00     0.010 A 
ATOM     45  C   UNL A   1      40.305  28.153  28.847  1.00  0.00    -0.014 A 
BRANCH  45  46
ATOM     46  C   UNL A   1      41.709  27.864  28.718  1.00  0.00     0.031 A 
ATOM     47  C   UNL A   1      41.950  26.532  28.139  1.00  0.00     0.074 A 
ATOM     48  C   UNL A   1      42.662  28.753  29.042  1.00  0.00     0.049 A 
ATOM     49  N   UNL A   1      42.364  25.479  28.760  1.00  0.00    -0.248 NA
ATOM     50  C   UNL A   1      41.464  26.285  26.775  1.00  0.00     0.031 C 
ATOM     51  C   UNL A   1      42.501  30.179  29.333  1.00  0.00     0.029 A 
ATOM     52  N   UNL A   1      44.010  28.583  29.031  1.00  0.00    -0.354 N 
ATOM     53  C   UNL A   1      42.439  24.502  27.777  1.00  0.00     0.074 A 
ATOM     54  C   UNL A   1      41.643  24.969  26.675  1.00  0.00     0.031 C 
ATOM     55  C   UNL A   1      43.706  30.784  29.214  1.00  0.00     0.029 A 
ATOM     56  C   UNL A   1      44.718  29.774  28.954  1.00  0.00     0.049 A 
ATOM     57  H   UNL A   1      44.441  27.699  29.074  1.00  0.00     0.167 HD
ATOM     58  C   UNL A   1      43.407  23.549  27.821  1.00  0.00     0.034 A 
ATOM     59  C   UNL A   1      46.016  29.900  28.582  1.00  0.00     0.034 A 
ATOM     60  C   UNL A   1      43.997  23.455  29.134  1.00  0.00     0.049 A 
ATOM     61  C   UNL A   1      46.657  28.569  28.739  1.00  0.00     0.074 A 
ATOM     62  C   UNL A   1      43.510  23.237  30.408  1.00  0.00     0.029 A 
ATOM     63  N   UNL A   1      45.253  23.990  29.292  1.00  0.00    -0.354 N 
ATOM     64  N   UNL A   1      46.871  28.003  29.894  1.00  0.00    -0.248 NA
ATOM     65  C   UNL A   1      46.672  27.672  27.594  1.00  0.00     0.031 C 
ATOM     66  C   UNL A   1      44.303  24.065  31.254  1.00  0.00     0.029 A 
ATOM     67  C   UNL A   1      45.263  24.699  30.463  1.00  0.00     0.049 A 
ATOM     68  H   UNL A   1      46.011  23.883  28.674  1.00  0.00     0.167 HD
ATOM     69  C   UNL A   1      46.581  26.661  29.680  1.00  0.00     0.074 A 
ATOM     70  C   UNL A   1      46.588  26.499  28.228  1.00  0.00     0.031 C 
ATOM     71  C   UNL A   1      46.066  25.884  30.679  1.00  0.00     0.034 A 
BRANCH  58  72
ATOM     72  C   UNL A   1      44.096  22.996  26.597  1.00  0.00     0.023 A 
ATOM     73  C   UNL A   1      44.636  23.933  25.692  1.00  0.00     0.012 A 
ATOM     74  C   UNL A   1      44.003  21.656  26.150  1.00  0.00     0.148 A 
ATOM     75  C   UNL A   1      45.005  23.568  24.393  1.00  0.00     0.002 A 
ATOM     76  C   UNL A   1      44.457  21.281  24.893  1.00  0.00     0.091 A 
ATOM     77  F   UNL A   1      43.345  20.745  26.870  1.00  0.00    -0.205 F 
ATOM     78  C   UNL A   1      44.925  22.240  23.995  1.00  0.00     0.022 A 
BRANCH  76  79
ATOM     79  S   UNL A   1      44.425  19.563  24.365  1.00  0.00     0.127 S 
ATOM     80  O   UNL A   1      44.647  19.696  22.928  1.00  0.00    -0.237 OA
ATOM     81  O   UNL A   1      45.545  18.999  25.119  1.00  0.00    -0.237 OA
ATOM     82  O   UNL A   1      43.121  19.056  24.770  1.00  0.00    -0.744 OA
ENDBRANCH  76  79
ENDBRANCH  58  72
BRANCH  59  83
ATOM     83  C   UNL A   1      46.675  31.006  27.848  1.00  0.00     0.023 A 
ATOM     84  C   UNL A   1      46.023  31.590  26.744  1.00  0.00     0.012 A 
ATOM     85  C   UNL A   1      47.807  31.667  28.376  1.00  0.00     0.148 A 
ATOM     86  C   UNL A   1      46.463  32.805  26.206  1.00  0.00     0.002 A 
ATOM     87  C   UNL A   1      48.253  32.864  27.826  1.00  0.00     0.091 A 
ATOM     88  F   UNL A   1      48.390  31.181  29.479  1.00  0.00    -0.205 F 
ATOM     89  C   UNL A   1      47.575  33.444  26.748  1.00  0.00     0.022 A 
BRANCH  87  90
ATOM     90  S   UNL A   1      49.675  33.740  28.490  1.00  0.00     0.127 S 
ATOM     91  O   UNL A   1      50.022  34.640  27.389  1.00  0.00    -0.237 OA
ATOM     92  O   UNL A   1      49.106  34.398  29.663  1.00  0.00    -0.237 OA
ATOM     93  O   UNL A   1      50.678  32.716  28.760  1.00  0.00    -0.744 OA
ENDBRANCH  87  90
ENDBRANCH  59  83
BRANCH  71  94
ATOM     94  C   UNL A   1      46.089  26.428  32.088  1.00  0.00     0.023 A 
ATOM     95  C   UNL A   1      47.217  26.304  32.926  1.00  0.00     0.012 A 
ATOM     96  C   UNL A   1      45.013  27.222  32.517  1.00  0.00     0.148 A 
ATOM     97  C   UNL A   1      47.254  26.926  34.177  1.00  0.00     0.002 A 
ATOM     98  C   UNL A   1      45.074  27.880  33.740  1.00  0.00     0.091 A 
ATOM     99  F   UNL A   1      43.947  27.339  31.710  1.00  0.00    -0.205 F 
ATOM    100  C   UNL A   1      46.188  27.725  34.579  1.00  0.00     0.022 A 
BRANCH  98 101
ATOM    101  S   UNL A   1      43.789  29.026  34.247  1.00  0.00     0.127 S 
ATOM    102  O   UNL A   1      42.603  28.172  34.252  1.00  0.00    -0.237 OA
ATOM    103  O   UNL A   1      44.244  29.449  35.572  1.00  0.00    -0.237 OA
ATOM    104  O   UNL A   1      43.795  30.092  33.252  1.00  0.00    -0.744 OA
ENDBRANCH  98 101
ENDBRANCH  71  94
ENDBRANCH  45  46
ENDBRANCH  38  40
ENDBRANCH  37  38
ENDBRANCH  36  37
ENDBRANCH   1  36
TORSDOF 21
ENDMDL
MODEL 3
REMARK VINA RESULT:     -12.0      3.427      4.699
REMARK SMILES COc1ccc(-c2[nH]nc3nc(-c4ccc(C(F)(F)F)cc4)cc(C(=O)OCCOCCOC(=O)c4ccc(-c5c6nc(c(-c7cccc(S(=O)(=O)[O-])c7F)c7ccc([nH]7)c(-c7cccc(S(=O)(=O)[O-])c7F)c7nc(c(-c8cccc(S(=O)(=O)[O-])c8F)c8ccc5[nH]8)C=C7)C=C6)cc4)c23)cc1
REMARK SMILES IDX 31 1 30 2 29 3 28 4 27 5 25 6 26 7 24 8 7 9 8 10 99 11 9 12
REMARK SMILES IDX 10 14 11 15 23 16 12 17 6 18 3 19 4 20 101 21 5 22 100 23
REMARK SMILES IDX 2 24 1 25 13 26 14 27 22 28 15 29 21 30 16 31 17 32 18 33
REMARK SMILES IDX 19 34 20 35 32 36 33 37 34 38 35 39 36 40 37 41 98 42 38 43
REMARK SMILES IDX 97 44 39 45 40 46 41 47 91 48 42 49 96 50 90 51 92 52 43 53
REMARK SMILES IDX 95 54 89 55 88 56 44 58 76 59 56 60 75 61 57 62 60 63 74 64
REMARK SMILES IDX 93 65 58 66 59 67 73 69 94 70 61 71 45 72 46 73 54 74 47 75
REMARK SMILES IDX 49 76 55 77 48 78 50 79 51 80 52 81 53 82 77 83 78 84 86 85
REMARK SMILES IDX 79 86 81 87 87 88 80 89 82 90 83 91 84 92 85 93 62 94 63 95
REMARK SMILES IDX 71 96 64 97 66 98 72 99 65 100 67 101 68 102 69 103 70 104
REMARK H PARENT 8 13 92 57 60 68
REMARK Flexibility Score: inf
ROOT
ATOM      1  C   UNL A   1      34.436  31.824  27.803  1.00  0.00     0.202 C 
ENDROOT
BRANCH   1   2
ATOM      2  O   UNL A   1      33.407  30.846  27.648  1.00  0.00    -0.374 OA
BRANCH   2   3
ATOM      3  C   UNL A   1      33.692  29.857  26.655  1.00  0.00     0.202 C 
BRANCH   3   4
ATOM      4  C   UNL A   1      33.052  28.508  26.982  1.00  0.00     0.261 C 
BRANCH   4   5
ATOM      5  O   UNL A   1      33.196  27.618  25.861  1.00  0.00    -0.460 OA
BRANCH   5   6
ATOM      6  C   UNL A   1      32.773  26.342  26.058  1.00  0.00     0.339 C 
ATOM      7  O   UNL A   1      31.913  25.973  26.834  1.00  0.00    -0.246 OA
BRANCH   6   8
ATOM      8  C   UNL A   1      33.525  25.454  25.160  1.00  0.00     0.075 A 
ATOM      9  C   UNL A   1      32.143  25.493  23.029  1.00  0.00     0.075 A 
ATOM     10  N   UNL A   1      32.256  24.701  21.910  1.00  0.00    -0.275 N 
ATOM     11  C   UNL A   1      33.144  25.033  23.876  1.00  0.00     0.061 A 
ATOM     12  N   UNL A   1      33.288  23.846  21.921  1.00  0.00    -0.154 NA
ATOM     13  H   UNL A   1      31.625  24.758  21.157  1.00  0.00     0.190 HD
ATOM     14  C   UNL A   1      33.875  24.075  23.094  1.00  0.00     0.182 A 
ATOM     15  N   UNL A   1      35.029  23.508  23.520  1.00  0.00    -0.226 NA
ATOM     16  C   UNL A   1      34.749  24.880  25.550  1.00  0.00     0.045 A 
ATOM     17  C   UNL A   1      35.445  23.946  24.742  1.00  0.00     0.074 A 
BRANCH   9  18
ATOM     18  C   UNL A   1      31.218  26.624  23.026  1.00  0.00     0.001 A 
ATOM     19  C   UNL A   1      29.327  28.715  22.918  1.00  0.00     0.118 A 
ATOM     20  C   UNL A   1      30.626  28.897  22.438  1.00  0.00     0.047 A 
ATOM     21  C   UNL A   1      28.990  27.500  23.507  1.00  0.00     0.047 A 
ATOM     22  C   UNL A   1      31.568  27.861  22.489  1.00  0.00     0.014 A 
ATOM     23  C   UNL A   1      29.940  26.475  23.588  1.00  0.00     0.014 A 
BRANCH  19  24
ATOM     24  O   UNL A   1      28.492  29.788  22.756  1.00  0.00    -0.497 OA
ATOM     25  C   UNL A   1      28.369  30.309  21.437  1.00  0.00     0.278 C 
ENDBRANCH  19  24
ENDBRANCH   9  18
BRANCH  17  26
ATOM     26  C   UNL A   1      36.707  23.338  25.225  1.00  0.00     0.000 A 
ATOM     27  C   UNL A   1      37.046  22.008  24.918  1.00  0.00     0.011 A 
ATOM     28  C   UNL A   1      37.610  24.069  26.018  1.00  0.00     0.011 A 
ATOM     29  C   UNL A   1      38.238  21.435  25.383  1.00  0.00     0.014 A 
ATOM     30  C   UNL A   1      38.798  23.500  26.488  1.00  0.00     0.014 A 
ATOM     31  C   UNL A   1      39.125  22.174  26.178  1.00  0.00     0.056 A 
BRANCH  31  32
ATOM     32  C   UNL A   1      40.391  21.543  26.709  1.00  0.00     0.416 C 
ATOM     33  F   UNL A   1      41.497  21.951  26.026  1.00  0.00    -0.166 F 
ATOM     34  F   UNL A   1      40.623  21.824  28.016  1.00  0.00    -0.166 F 
ATOM     35  F   UNL A   1      40.389  20.181  26.612  1.00  0.00    -0.166 F 
ENDBRANCH  31  32
ENDBRANCH  17  26
ENDBRANCH   6   8
ENDBRANCH   5   6
ENDBRANCH   4   5
ENDBRANCH   3   4
ENDBRANCH   2   3
ENDBRANCH   1   2
BRANCH   1  36
ATOM     36  C   UNL A   1      35.264  31.564  29.049  1.00  0.00     0.261 C 
BRANCH  36  37
ATOM     37  O   UNL A   1      36.163  30.507  28.762  1.00  0.00    -0.460 OA
BRANCH  37  38
ATOM     38  C   UNL A   1      36.505  29.714  29.810  1.00  0.00     0.338 C 
ATOM     39  O   UNL A   1      36.030  29.661  30.906  1.00  0.00    -0.246 OA
BRANCH  38  40
ATOM     40  C   UNL A   1      37.675  28.974  29.326  1.00  0.00     0.060 A 
ATOM     41  C   UNL A   1      38.129  27.957  30.156  1.00  0.00     0.016 A 
ATOM     42  C   UNL A   1      38.427  29.486  28.254  1.00  0.00     0.016 A 
ATOM     43  C   UNL A   1      39.458  27.630  30.073  1.00  0.00     0.010 A 
ATOM     44  C   UNL A   1      39.760  29.178  28.191  1.00  0.00     0.010 A 
ATOM     45  C   UNL A   1      40.266  28.321  29.160  1.00  0.00    -0.014 A 
BRANCH  45  46
ATOM     46  C   UNL A   1      41.677  28.038  29.187  1.00  0.00     0.031 A 
ATOM     47  C   UNL A   1      42.040  26.934  28.284  1.00  0.00     0.074 A 
ATOM     48  C   UNL A   1      42.544  28.758  29.919  1.00  0.00     0.049 A 
ATOM     49  N   UNL A   1      42.363  25.731  28.619  1.00  0.00    -0.248 NA
ATOM     50  C   UNL A   1      41.797  27.124  26.847  1.00  0.00     0.031 C 
ATOM     51  C   UNL A   1      42.308  30.036  30.594  1.00  0.00     0.029 A 
ATOM     52  N   UNL A   1      43.877  28.556  30.082  1.00  0.00    -0.354 N 
ATOM     53  C   UNL A   1      42.623  25.091  27.414  1.00  0.00     0.074 A 
ATOM     54  C   UNL A   1      42.016  25.893  26.387  1.00  0.00     0.031 C 
ATOM     55  C   UNL A   1      43.502  30.609  30.866  1.00  0.00     0.029 A 
ATOM     56  C   UNL A   1      44.564  29.691  30.487  1.00  0.00     0.049 A 
ATOM     57  H   UNL A   1      44.313  27.687  29.929  1.00  0.00     0.167 HD
ATOM     58  C   UNL A   1      43.588  24.138  27.331  1.00  0.00     0.034 A 
ATOM     59  C   UNL A   1      45.903  29.881  30.393  1.00  0.00     0.034 A 
ATOM     60  C   UNL A   1      43.949  23.636  28.634  1.00  0.00     0.049 A 
ATOM     61  C   UNL A   1      46.535  28.545  30.248  1.00  0.00     0.074 A 
ATOM     62  C   UNL A   1      43.258  23.062  29.683  1.00  0.00     0.029 A 
ATOM     63  N   UNL A   1      45.149  24.059  29.154  1.00  0.00    -0.354 N 
ATOM     64  N   UNL A   1      46.562  27.652  31.197  1.00  0.00    -0.248 NA
ATOM     65  C   UNL A   1      46.761  28.033  28.905  1.00  0.00     0.031 C 
ATOM     66  C   UNL A   1      43.880  23.572  30.860  1.00  0.00     0.029 A 
ATOM     67  C   UNL A   1      44.947  24.383  30.468  1.00  0.00     0.049 A 
ATOM     68  H   UNL A   1      46.003  24.117  28.668  1.00  0.00     0.167 HD
ATOM     69  C   UNL A   1      46.339  26.446  30.544  1.00  0.00     0.074 A 
ATOM     70  C   UNL A   1      46.595  26.727  29.133  1.00  0.00     0.031 C 
ATOM     71  C   UNL A   1      45.678  25.422  31.162  1.00  0.00     0.034 A 
BRANCH  58  72
ATOM     72  C   UNL A   1      44.486  23.956  26.131  1.00  0.00     0.023 A 
ATOM     73  C   UNL A   1      44.493  22.682  25.526  1.00  0.00     0.012 A 
ATOM     74  C   UNL A   1      45.509  24.855  25.741  1.00  0.00     0.148 A 
ATOM     75  C   UNL A   1      45.498  22.302  24.632  1.00  0.00     0.002 A 
ATOM     76  C   UNL A   1      46.450  24.505  24.782  1.00  0.00     0.091 A 
ATOM     77  F   UNL A   1      45.682  26.009  26.389  1.00  0.00    -0.205 F 
ATOM     78  C   UNL A   1      46.472  23.217  24.251  1.00  0.00     0.022 A 
BRANCH  76  79
ATOM     79  S   UNL A   1      47.688  25.680  24.220  1.00  0.00     0.127 S 
ATOM     80  O   UNL A   1      46.880  26.877  24.008  1.00  0.00    -0.237 OA
ATOM     81  O   UNL A   1      48.592  25.734  25.370  1.00  0.00    -0.237 OA
ATOM     82  O   UNL A   1      48.279  25.082  23.029  1.00  0.00    -0.744 OA
ENDBRANCH  76  79
ENDBRANCH  58  72
BRANCH  59  83
ATOM     83  C   UNL A   1      46.655  31.135  30.148  1.00  0.00     0.023 A 
ATOM     84  C   UNL A   1      47.808  31.411  30.910  1.00  0.00     0.012 A 
ATOM     85  C   UNL A   1      46.409  31.928  29.005  1.00  0.00     0.148 A 
ATOM     86  C   UNL A   1      48.700  32.421  30.528  1.00  0.00     0.002 A 
ATOM     87  C   UNL A   1      47.289  32.943  28.640  1.00  0.00     0.091 A 
ATOM     88  F   UNL A   1      45.371  31.629  28.214  1.00  0.00    -0.205 F 
ATOM     89  C   UNL A   1      48.443  33.183  29.392  1.00  0.00     0.022 A 
BRANCH  87  90
ATOM     90  S   UNL A   1      47.015  33.953  27.179  1.00  0.00     0.127 S 
ATOM     91  O   UNL A   1      46.894  32.942  26.126  1.00  0.00    -0.237 OA
ATOM     92  O   UNL A   1      45.771  34.641  27.514  1.00  0.00    -0.237 OA
ATOM     93  O   UNL A   1      48.197  34.799  27.057  1.00  0.00    -0.744 OA
ENDBRANCH  87  90
ENDBRANCH  59  83
BRANCH  71  94
ATOM     94  C   UNL A   1      45.451  25.518  32.652  1.00  0.00     0.023 A 
ATOM     95  C   UNL A   1      46.418  25.099  33.590  1.00  0.00     0.012 A 
ATOM     96  C   UNL A   1      44.309  26.193  33.114  1.00  0.00     0.148 A 
ATOM     97  C   UNL A   1      46.232  25.315  34.958  1.00  0.00     0.002 A 
ATOM     98  C   UNL A   1      44.151  26.451  34.471  1.00  0.00     0.091 A 
ATOM     99  F   UNL A   1      43.399  26.592  32.214  1.00  0.00    -0.205 F 
ATOM    100  C   UNL A   1      45.105  26.004  35.398  1.00  0.00     0.022 A 
BRANCH  98 101
ATOM    101  S   UNL A   1      42.787  27.447  35.077  1.00  0.00     0.127 S 
ATOM    102  O   UNL A   1      42.980  28.702  34.353  1.00  0.00    -0.237 OA
ATOM    103  O   UNL A   1      41.617  26.674  34.659  1.00  0.00    -0.237 OA
ATOM    104  O   UNL A   1      42.962  27.519  36.523  1.00  0.00    -0.744 OA
ENDBRANCH  98 101
ENDBRANCH  71  94
ENDBRANCH  45  46
ENDBRANCH  38  40
ENDBRANCH  37  38
ENDBRANCH  36  37
ENDBRANCH   1  36
TORSDOF 21
ENDMDL
