MODEL 1
REMARK VINA RESULT:     -12.1      0.000      0.000
REMARK SMILES CN1C(=O)C[C@@H](C(=O)OCCOCCOC(=O)c2ccc(-c3c4nc(c(-c5cccc(S(=O)(=O)[O-])c5F)c5ccc([nH]5)c(-c5cccc(S(=O)(=O)[O-])c5F)c5nc(c(-c6cccc(S(=O)(=O)[O-])c6F)c6ccc3[nH]6)C=C5)C=C4)cc2)C12CCN(C(=O)c1cccc3ccccc13)CC2
REMARK SMILES IDX 13 1 12 2 11 3 10 4 9 5 7 6 8 7 6 8 1 9 2 10 3 11 81 12 4 13
REMARK SMILES IDX 5 14 82 15 98 16 83 17 97 18 84 19 85 20 86 21 87 22 88 23
REMARK SMILES IDX 96 24 89 25 91 26 95 27 90 28 92 29 94 30 93 31 14 32 15 33
REMARK SMILES IDX 16 34 17 35 18 36 19 37 80 38 20 39 79 40 21 41 22 42 23 43
REMARK SMILES IDX 73 44 24 45 78 46 72 47 74 48 25 49 77 50 71 51 70 52 26 54
REMARK SMILES IDX 58 55 38 56 57 57 39 58 42 59 56 60 75 61 40 62 41 63 55 65
REMARK SMILES IDX 76 66 43 67 27 68 28 69 36 70 29 71 31 72 37 73 30 74 32 75
REMARK SMILES IDX 33 76 34 77 35 78 59 79 60 80 68 81 61 82 63 83 69 84 62 85
REMARK SMILES IDX 64 86 65 87 66 88 67 89 44 90 45 91 53 92 46 93 48 94 54 95
REMARK SMILES IDX 47 96 49 97 50 98 51 99 52 100
REMARK H PARENT 74 53 42 64
REMARK Flexibility Score: inf
ROOT
ATOM      1  C   UNL A   1      38.893  21.445  25.748  1.00  0.00     0.202 C 
ENDROOT
BRANCH   1   2
ATOM      2  O   UNL A   1      39.322  22.333  26.775  1.00  0.00    -0.374 OA
BRANCH   2   3
ATOM      3  C   UNL A   1      38.718  23.623  26.837  1.00  0.00     0.202 C 
BRANCH   3   4
ATOM      4  C   UNL A   1      37.633  23.957  25.802  1.00  0.00     0.261 C 
BRANCH   4   5
ATOM      5  O   UNL A   1      36.295  23.502  26.116  1.00  0.00    -0.463 OA
BRANCH   5   6
ATOM      6  C   UNL A   1      35.718  22.712  25.184  1.00  0.00     0.311 C 
ATOM      7  O   UNL A   1      36.092  22.645  24.014  1.00  0.00    -0.252 OA
BRANCH   6   8
ATOM      8  C   UNL A   1      34.474  21.959  25.619  1.00  0.00     0.134 C 
ATOM      9  C   UNL A   1      32.153  20.227  23.196  1.00  0.00     0.147 C 
ATOM     10  N   UNL A   1      33.199  20.709  24.084  1.00  0.00    -0.339 N 
ATOM     11  C   UNL A   1      34.147  19.823  24.576  1.00  0.00     0.223 C 
ATOM     12  C   UNL A   1      33.122  21.958  24.857  1.00  0.00     0.060 C 
ATOM     13  O   UNL A   1      34.310  18.664  24.234  1.00  0.00    -0.275 OA
ATOM     14  C   UNL A   1      34.886  20.483  25.700  1.00  0.00     0.118 C 
ATOM     15  C   UNL A   1      32.840  23.183  23.969  1.00  0.00     0.051 C 
ATOM     16  C   UNL A   1      31.946  21.839  25.880  1.00  0.00     0.051 C 
ATOM     17  C   UNL A   1      32.634  24.452  24.788  1.00  0.00     0.122 C 
ATOM     18  C   UNL A   1      31.615  23.144  26.608  1.00  0.00     0.122 C 
ATOM     19  N   UNL A   1      31.511  24.284  25.700  1.00  0.00    -0.338 N 
ATOM     20  C   UNL A   1      30.472  25.199  25.904  1.00  0.00     0.254 C 
ATOM     21  O   UNL A   1      29.601  25.018  26.757  1.00  0.00    -0.269 OA
BRANCH  20  22
ATOM     22  C   UNL A   1      30.418  26.503  25.187  1.00  0.00     0.047 A 
ATOM     23  C   UNL A   1      29.819  26.437  23.915  1.00  0.00     0.014 A 
ATOM     24  C   UNL A   1      31.037  27.703  25.632  1.00  0.00    -0.006 A 
ATOM     25  C   UNL A   1      29.822  27.541  23.070  1.00  0.00     0.001 A 
ATOM     26  C   UNL A   1      31.020  28.822  24.755  1.00  0.00    -0.018 A 
ATOM     27  C   UNL A   1      31.683  27.872  26.881  1.00  0.00     0.009 A 
ATOM     28  C   UNL A   1      30.426  28.723  23.488  1.00  0.00     0.009 A 
ATOM     29  C   UNL A   1      31.610  30.036  25.142  1.00  0.00     0.009 A 
ATOM     30  C   UNL A   1      32.225  29.101  27.270  1.00  0.00     0.001 A 
ATOM     31  C   UNL A   1      32.194  30.181  26.397  1.00  0.00     0.001 A 
ENDBRANCH  20  22
ENDBRANCH   6   8
ENDBRANCH   5   6
ENDBRANCH   4   5
ENDBRANCH   3   4
ENDBRANCH   2   3
ENDBRANCH   1   2
BRANCH   1  32
ATOM     32  C   UNL A   1      39.522  20.048  25.753  1.00  0.00     0.261 C 
BRANCH  32  33
ATOM     33  O   UNL A   1      40.596  19.949  26.703  1.00  0.00    -0.460 OA
BRANCH  33  34
ATOM     34  C   UNL A   1      41.826  20.010  26.132  1.00  0.00     0.338 C 
ATOM     35  O   UNL A   1      42.300  19.218  25.335  1.00  0.00    -0.246 OA
BRANCH  34  36
ATOM     36  C   UNL A   1      42.472  21.298  26.439  1.00  0.00     0.060 A 
ATOM     37  C   UNL A   1      42.699  21.601  27.788  1.00  0.00     0.016 A 
ATOM     38  C   UNL A   1      42.711  22.250  25.447  1.00  0.00     0.016 A 
ATOM     39  C   UNL A   1      43.110  22.881  28.155  1.00  0.00     0.010 A 
ATOM     40  C   UNL A   1      43.125  23.537  25.820  1.00  0.00     0.010 A 
ATOM     41  C   UNL A   1      43.283  23.872  27.178  1.00  0.00    -0.014 A 
BRANCH  41  42
ATOM     42  C   UNL A   1      43.493  25.279  27.605  1.00  0.00     0.031 A 
ATOM     43  C   UNL A   1      44.870  25.883  27.515  1.00  0.00     0.074 A 
ATOM     44  C   UNL A   1      42.460  26.026  28.034  1.00  0.00     0.049 A 
ATOM     45  N   UNL A   1      45.256  27.108  27.764  1.00  0.00    -0.248 NA
ATOM     46  C   UNL A   1      45.958  24.989  27.084  1.00  0.00     0.031 C 
ATOM     47  C   UNL A   1      41.083  25.556  28.179  1.00  0.00     0.029 A 
ATOM     48  N   UNL A   1      42.412  27.338  28.439  1.00  0.00    -0.354 N 
ATOM     49  C   UNL A   1      46.627  27.131  27.537  1.00  0.00     0.074 A 
ATOM     50  C   UNL A   1      47.012  25.791  27.148  1.00  0.00     0.031 C 
ATOM     51  C   UNL A   1      40.327  26.560  28.656  1.00  0.00     0.029 A 
ATOM     52  C   UNL A   1      41.165  27.740  28.860  1.00  0.00     0.049 A 
ATOM     53  H   UNL A   1      43.194  27.935  28.428  1.00  0.00     0.167 HD
ATOM     54  C   UNL A   1      47.486  28.175  27.620  1.00  0.00     0.034 A 
ATOM     55  C   UNL A   1      40.750  28.923  29.355  1.00  0.00     0.034 A 
ATOM     56  C   UNL A   1      47.100  29.510  27.991  1.00  0.00     0.049 A 
ATOM     57  C   UNL A   1      41.725  30.067  29.448  1.00  0.00     0.074 A 
ATOM     58  C   UNL A   1      47.887  30.647  28.057  1.00  0.00     0.029 A 
ATOM     59  N   UNL A   1      45.822  29.887  28.372  1.00  0.00    -0.354 N 
ATOM     60  N   UNL A   1      42.987  30.106  29.093  1.00  0.00    -0.248 NA
ATOM     61  C   UNL A   1      41.212  31.341  29.973  1.00  0.00     0.031 C 
ATOM     62  C   UNL A   1      47.088  31.706  28.501  1.00  0.00     0.029 A 
ATOM     63  C   UNL A   1      45.799  31.235  28.688  1.00  0.00     0.049 A 
ATOM     64  H   UNL A   1      45.044  29.284  28.413  1.00  0.00     0.167 HD
ATOM     65  C   UNL A   1      43.408  31.412  29.317  1.00  0.00     0.074 A 
ATOM     66  C   UNL A   1      42.261  32.139  29.821  1.00  0.00     0.031 C 
ATOM     67  C   UNL A   1      44.637  31.957  29.137  1.00  0.00     0.034 A 
BRANCH  54  68
ATOM     68  C   UNL A   1      48.930  27.923  27.271  1.00  0.00     0.023 A 
ATOM     69  C   UNL A   1      49.841  27.581  28.292  1.00  0.00     0.012 A 
ATOM     70  C   UNL A   1      49.374  27.967  25.935  1.00  0.00     0.148 A 
ATOM     71  C   UNL A   1      51.177  27.317  27.992  1.00  0.00     0.002 A 
ATOM     72  C   UNL A   1      50.698  27.665  25.640  1.00  0.00     0.091 A 
ATOM     73  F   UNL A   1      48.499  28.316  24.982  1.00  0.00    -0.205 F 
ATOM     74  C   UNL A   1      51.603  27.350  26.668  1.00  0.00     0.022 A 
BRANCH  72  75
ATOM     75  S   UNL A   1      51.328  27.613  23.958  1.00  0.00     0.127 S 
ATOM     76  O   UNL A   1      51.216  29.016  23.559  1.00  0.00    -0.237 OA
ATOM     77  O   UNL A   1      52.700  27.143  24.155  1.00  0.00    -0.237 OA
ATOM     78  O   UNL A   1      50.466  26.687  23.237  1.00  0.00    -0.744 OA
ENDBRANCH  72  75
ENDBRANCH  54  68
BRANCH  55  79
ATOM     79  C   UNL A   1      39.325  29.100  29.756  1.00  0.00     0.023 A 
ATOM     80  C   UNL A   1      38.913  28.730  31.051  1.00  0.00     0.012 A 
ATOM     81  C   UNL A   1      38.383  29.655  28.868  1.00  0.00     0.148 A 
ATOM     82  C   UNL A   1      37.582  28.886  31.446  1.00  0.00     0.002 A 
ATOM     83  C   UNL A   1      37.072  29.857  29.286  1.00  0.00     0.091 A 
ATOM     84  F   UNL A   1      38.789  29.980  27.634  1.00  0.00    -0.205 F 
ATOM     85  C   UNL A   1      36.666  29.460  30.569  1.00  0.00     0.022 A 
BRANCH  83  86
ATOM     86  S   UNL A   1      35.860  30.707  28.267  1.00  0.00     0.127 S 
ATOM     87  O   UNL A   1      36.580  31.924  27.901  1.00  0.00    -0.237 OA
ATOM     88  O   UNL A   1      35.665  29.753  27.175  1.00  0.00    -0.237 OA
ATOM     89  O   UNL A   1      34.695  30.891  29.119  1.00  0.00    -0.744 OA
ENDBRANCH  83  86
ENDBRANCH  55  79
BRANCH  67  90
ATOM     90  C   UNL A   1      44.808  33.420  29.456  1.00  0.00     0.023 A 
ATOM     91  C   UNL A   1      45.328  33.808  30.707  1.00  0.00     0.012 A 
ATOM     92  C   UNL A   1      44.532  34.405  28.486  1.00  0.00     0.148 A 
ATOM     93  C   UNL A   1      45.543  35.154  30.999  1.00  0.00     0.002 A 
ATOM     94  C   UNL A   1      44.793  35.742  28.768  1.00  0.00     0.091 A 
ATOM     95  F   UNL A   1      44.019  34.020  27.310  1.00  0.00    -0.205 F 
ATOM     96  C   UNL A   1      45.287  36.118  30.027  1.00  0.00     0.022 A 
BRANCH  94  97
ATOM     97  S   UNL A   1      44.583  37.041  27.545  1.00  0.00     0.127 S 
ATOM     98  O   UNL A   1      45.801  36.900  26.749  1.00  0.00    -0.237 OA
ATOM     99  O   UNL A   1      43.356  36.631  26.861  1.00  0.00    -0.237 OA
ATOM    100  O   UNL A   1      44.466  38.283  28.299  1.00  0.00    -0.744 OA
ENDBRANCH  94  97
ENDBRANCH  67  90
ENDBRANCH  41  42
ENDBRANCH  34  36
ENDBRANCH  33  34
ENDBRANCH  32  33
ENDBRANCH   1  32
TORSDOF 18
ENDMDL
MODEL 2
REMARK VINA RESULT:     -12.1      2.046      3.340
REMARK SMILES CN1C(=O)C[C@@H](C(=O)OCCOCCOC(=O)c2ccc(-c3c4nc(c(-c5cccc(S(=O)(=O)[O-])c5F)c5ccc([nH]5)c(-c5cccc(S(=O)(=O)[O-])c5F)c5nc(c(-c6cccc(S(=O)(=O)[O-])c6F)c6ccc3[nH]6)C=C5)C=C4)cc2)C12CCN(C(=O)c1cccc3ccccc13)CC2
REMARK SMILES IDX 13 1 12 2 11 3 10 4 9 5 7 6 8 7 6 8 1 9 2 10 3 11 81 12 4 13
REMARK SMILES IDX 5 14 82 15 98 16 83 17 97 18 84 19 85 20 86 21 87 22 88 23
REMARK SMILES IDX 96 24 89 25 91 26 95 27 90 28 92 29 94 30 93 31 14 32 15 33
REMARK SMILES IDX 16 34 17 35 18 36 19 37 80 38 20 39 79 40 21 41 22 42 23 43
REMARK SMILES IDX 73 44 24 45 78 46 72 47 74 48 25 49 77 50 71 51 70 52 26 54
REMARK SMILES IDX 58 55 38 56 57 57 39 58 42 59 56 60 75 61 40 62 41 63 55 65
REMARK SMILES IDX 76 66 43 67 27 68 28 69 36 70 29 71 31 72 37 73 30 74 32 75
REMARK SMILES IDX 33 76 34 77 35 78 59 79 60 80 68 81 61 82 63 83 69 84 62 85
REMARK SMILES IDX 64 86 65 87 66 88 67 89 44 90 45 91 53 92 46 93 48 94 54 95
REMARK SMILES IDX 47 96 49 97 50 98 51 99 52 100
REMARK H PARENT 74 53 42 64
REMARK Flexibility Score: inf
ROOT
ATOM      1  C   UNL A   1      35.392  21.348  25.336  1.00  0.00     0.202 C 
ENDROOT
BRANCH   1   2
ATOM      2  O   UNL A   1      35.072  21.802  26.646  1.00  0.00    -0.374 OA
BRANCH   2   3
ATOM      3  C   UNL A   1      34.310  23.002  26.768  1.00  0.00     0.202 C 
BRANCH   3   4
ATOM      4  C   UNL A   1      32.973  22.927  27.520  1.00  0.00     0.261 C 
BRANCH   4   5
ATOM      5  O   UNL A   1      31.815  22.583  26.721  1.00  0.00    -0.463 OA
BRANCH   5   6
ATOM      6  C   UNL A   1      31.018  23.621  26.381  1.00  0.00     0.311 C 
ATOM      7  O   UNL A   1      30.232  24.165  27.155  1.00  0.00    -0.252 OA
BRANCH   6   8
ATOM      8  C   UNL A   1      31.047  24.039  24.922  1.00  0.00     0.134 C 
ATOM      9  C   UNL A   1      34.228  24.268  22.901  1.00  0.00     0.147 C 
ATOM     10  N   UNL A   1      33.031  23.939  23.659  1.00  0.00    -0.339 N 
ATOM     11  C   UNL A   1      32.433  22.697  23.496  1.00  0.00     0.223 C 
ATOM     12  C   UNL A   1      32.138  24.933  24.273  1.00  0.00     0.060 C 
ATOM     13  O   UNL A   1      32.879  21.747  22.876  1.00  0.00    -0.275 OA
ATOM     14  C   UNL A   1      31.068  22.735  24.115  1.00  0.00     0.118 C 
ATOM     15  C   UNL A   1      32.885  25.890  25.220  1.00  0.00     0.051 C 
ATOM     16  C   UNL A   1      31.499  25.797  23.139  1.00  0.00     0.051 C 
ATOM     17  C   UNL A   1      31.980  26.995  25.752  1.00  0.00     0.122 C 
ATOM     18  C   UNL A   1      30.709  27.007  23.644  1.00  0.00     0.122 C 
ATOM     19  N   UNL A   1      31.439  27.776  24.649  1.00  0.00    -0.338 N 
ATOM     20  C   UNL A   1      31.396  29.173  24.573  1.00  0.00     0.254 C 
ATOM     21  O   UNL A   1      30.845  29.759  23.640  1.00  0.00    -0.269 OA
BRANCH  20  22
ATOM     22  C   UNL A   1      31.907  30.038  25.672  1.00  0.00     0.047 A 
ATOM     23  C   UNL A   1      31.068  31.121  25.992  1.00  0.00     0.014 A 
ATOM     24  C   UNL A   1      33.192  29.919  26.271  1.00  0.00    -0.006 A 
ATOM     25  C   UNL A   1      31.475  32.094  26.897  1.00  0.00     0.001 A 
ATOM     26  C   UNL A   1      33.584  30.921  27.201  1.00  0.00    -0.018 A 
ATOM     27  C   UNL A   1      34.122  28.885  26.007  1.00  0.00     0.009 A 
ATOM     28  C   UNL A   1      32.729  31.995  27.491  1.00  0.00     0.009 A 
ATOM     29  C   UNL A   1      34.838  30.854  27.829  1.00  0.00     0.009 A 
ATOM     30  C   UNL A   1      35.347  28.808  26.676  1.00  0.00     0.001 A 
ATOM     31  C   UNL A   1      35.707  29.796  27.582  1.00  0.00     0.001 A 
ENDBRANCH  20  22
ENDBRANCH   6   8
ENDBRANCH   5   6
ENDBRANCH   4   5
ENDBRANCH   3   4
ENDBRANCH   2   3
ENDBRANCH   1   2
BRANCH   1  32
ATOM     32  C   UNL A   1      36.723  20.604  25.182  1.00  0.00     0.261 C 
BRANCH  32  33
ATOM     33  O   UNL A   1      37.826  21.510  25.021  1.00  0.00    -0.460 OA
BRANCH  33  34
ATOM     34  C   UNL A   1      38.886  21.213  25.816  1.00  0.00     0.338 C 
ATOM     35  O   UNL A   1      39.526  20.175  25.819  1.00  0.00    -0.246 OA
BRANCH  34  36
ATOM     36  C   UNL A   1      39.321  22.407  26.561  1.00  0.00     0.060 A 
ATOM     37  C   UNL A   1      38.727  23.630  26.223  1.00  0.00     0.016 A 
ATOM     38  C   UNL A   1      40.387  22.360  27.461  1.00  0.00     0.016 A 
ATOM     39  C   UNL A   1      39.239  24.820  26.739  1.00  0.00     0.010 A 
ATOM     40  C   UNL A   1      40.899  23.559  27.978  1.00  0.00     0.010 A 
ATOM     41  C   UNL A   1      40.358  24.796  27.585  1.00  0.00    -0.014 A 
BRANCH  41  42
ATOM     42  C   UNL A   1      41.026  26.076  27.934  1.00  0.00     0.031 A 
ATOM     43  C   UNL A   1      42.438  26.325  27.471  1.00  0.00     0.074 A 
ATOM     44  C   UNL A   1      40.369  27.026  28.625  1.00  0.00     0.049 A 
ATOM     45  N   UNL A   1      43.175  27.397  27.603  1.00  0.00    -0.248 NA
ATOM     46  C   UNL A   1      43.107  25.220  26.765  1.00  0.00     0.031 C 
ATOM     47  C   UNL A   1      39.006  26.902  29.139  1.00  0.00     0.029 A 
ATOM     48  N   UNL A   1      40.766  28.279  29.022  1.00  0.00    -0.354 N 
ATOM     49  C   UNL A   1      44.397  27.095  27.011  1.00  0.00     0.074 A 
ATOM     50  C   UNL A   1      44.310  25.731  26.538  1.00  0.00     0.031 C 
ATOM     51  C   UNL A   1      38.685  28.028  29.800  1.00  0.00     0.029 A 
ATOM     52  C   UNL A   1      39.821  28.948  29.764  1.00  0.00     0.049 A 
ATOM     53  H   UNL A   1      41.644  28.663  28.798  1.00  0.00     0.167 HD
ATOM     54  C   UNL A   1      45.485  27.886  26.855  1.00  0.00     0.034 A 
ATOM     55  C   UNL A   1      39.867  30.161  30.350  1.00  0.00     0.034 A 
ATOM     56  C   UNL A   1      45.566  29.248  27.311  1.00  0.00     0.049 A 
ATOM     57  C   UNL A   1      41.093  31.020  30.170  1.00  0.00     0.074 A 
ATOM     58  C   UNL A   1      46.606  30.148  27.158  1.00  0.00     0.029 A 
ATOM     59  N   UNL A   1      44.574  29.903  28.024  1.00  0.00    -0.354 N 
ATOM     60  N   UNL A   1      42.183  30.769  29.486  1.00  0.00    -0.248 NA
ATOM     61  C   UNL A   1      41.080  32.343  30.810  1.00  0.00     0.031 C 
ATOM     62  C   UNL A   1      46.251  31.340  27.798  1.00  0.00     0.029 A 
ATOM     63  C   UNL A   1      44.980  31.191  28.329  1.00  0.00     0.049 A 
ATOM     64  H   UNL A   1      43.707  29.510  28.277  1.00  0.00     0.167 HD
ATOM     65  C   UNL A   1      42.968  31.912  29.583  1.00  0.00     0.074 A 
ATOM     66  C   UNL A   1      42.219  32.865  30.377  1.00  0.00     0.031 C 
ATOM     67  C   UNL A   1      44.203  32.147  29.074  1.00  0.00     0.034 A 
BRANCH  54  68
ATOM     68  C   UNL A   1      46.672  27.309  26.128  1.00  0.00     0.023 A 
ATOM     69  C   UNL A   1      46.746  27.418  24.725  1.00  0.00     0.012 A 
ATOM     70  C   UNL A   1      47.738  26.714  26.832  1.00  0.00     0.148 A 
ATOM     71  C   UNL A   1      47.846  26.916  24.030  1.00  0.00     0.002 A 
ATOM     72  C   UNL A   1      48.848  26.251  26.136  1.00  0.00     0.091 A 
ATOM     73  F   UNL A   1      47.640  26.600  28.164  1.00  0.00    -0.205 F 
ATOM     74  C   UNL A   1      48.899  26.342  24.735  1.00  0.00     0.022 A 
BRANCH  72  75
ATOM     75  S   UNL A   1      50.287  25.557  26.959  1.00  0.00     0.127 S 
ATOM     76  O   UNL A   1      50.632  26.625  27.897  1.00  0.00    -0.237 OA
ATOM     77  O   UNL A   1      49.736  24.353  27.583  1.00  0.00    -0.237 OA
ATOM     78  O   UNL A   1      51.264  25.304  25.910  1.00  0.00    -0.744 OA
ENDBRANCH  72  75
ENDBRANCH  54  68
BRANCH  55  79
ATOM     79  C   UNL A   1      38.693  30.659  31.122  1.00  0.00     0.023 A 
ATOM     80  C   UNL A   1      38.499  30.232  32.449  1.00  0.00     0.012 A 
ATOM     81  C   UNL A   1      37.782  31.571  30.553  1.00  0.00     0.148 A 
ATOM     82  C   UNL A   1      37.404  30.684  33.189  1.00  0.00     0.002 A 
ATOM     83  C   UNL A   1      36.725  32.058  31.313  1.00  0.00     0.091 A 
ATOM     84  F   UNL A   1      37.972  31.948  29.281  1.00  0.00    -0.205 F 
ATOM     85  C   UNL A   1      36.525  31.605  32.626  1.00  0.00     0.022 A 
BRANCH  83  86
ATOM     86  S   UNL A   1      35.622  33.342  30.710  1.00  0.00     0.127 S 
ATOM     87  O   UNL A   1      36.127  33.557  29.356  1.00  0.00    -0.237 OA
ATOM     88  O   UNL A   1      34.320  32.679  30.786  1.00  0.00    -0.237 OA
ATOM     89  O   UNL A   1      35.782  34.458  31.631  1.00  0.00    -0.744 OA
ENDBRANCH  83  86
ENDBRANCH  55  79
BRANCH  67  90
ATOM     90  C   UNL A   1      44.821  33.498  29.330  1.00  0.00     0.023 A 
ATOM     91  C   UNL A   1      45.574  33.713  30.501  1.00  0.00     0.012 A 
ATOM     92  C   UNL A   1      44.725  34.526  28.370  1.00  0.00     0.148 A 
ATOM     93  C   UNL A   1      46.196  34.940  30.729  1.00  0.00     0.002 A 
ATOM     94  C   UNL A   1      45.388  35.730  28.582  1.00  0.00     0.091 A 
ATOM     95  F   UNL A   1      43.990  34.310  27.271  1.00  0.00    -0.205 F 
ATOM     96  C   UNL A   1      46.114  35.942  29.765  1.00  0.00     0.022 A 
BRANCH  94  97
ATOM     97  S   UNL A   1      45.416  37.041  27.354  1.00  0.00     0.127 S 
ATOM     98  O   UNL A   1      46.103  36.391  26.239  1.00  0.00    -0.237 OA
ATOM     99  O   UNL A   1      43.991  37.290  27.131  1.00  0.00    -0.237 OA
ATOM    100  O   UNL A   1      46.131  38.150  27.971  1.00  0.00    -0.744 OA
ENDBRANCH  94  97
ENDBRANCH  67  90
ENDBRANCH  41  42
ENDBRANCH  34  36
ENDBRANCH  33  34
ENDBRANCH  32  33
ENDBRANCH   1  32
TORSDOF 18
ENDMDL
MODEL 3
REMARK VINA RESULT:     -12.0      5.437     10.922
REMARK SMILES CN1C(=O)C[C@@H](C(=O)OCCOCCOC(=O)c2ccc(-c3c4nc(c(-c5cccc(S(=O)(=O)[O-])c5F)c5ccc([nH]5)c(-c5cccc(S(=O)(=O)[O-])c5F)c5nc(c(-c6cccc(S(=O)(=O)[O-])c6F)c6ccc3[nH]6)C=C5)C=C4)cc2)C12CCN(C(=O)c1cccc3ccccc13)CC2
REMARK SMILES IDX 13 1 12 2 11 3 10 4 9 5 7 6 8 7 6 8 1 9 2 10 3 11 81 12 4 13
REMARK SMILES IDX 5 14 82 15 98 16 83 17 97 18 84 19 85 20 86 21 87 22 88 23
REMARK SMILES IDX 96 24 89 25 91 26 95 27 90 28 92 29 94 30 93 31 14 32 15 33
REMARK SMILES IDX 16 34 17 35 18 36 19 37 80 38 20 39 79 40 21 41 22 42 23 43
REMARK SMILES IDX 73 44 24 45 78 46 72 47 74 48 25 49 77 50 71 51 70 52 26 54
REMARK SMILES IDX 58 55 38 56 57 57 39 58 42 59 56 60 75 61 40 62 41 63 55 65
REMARK SMILES IDX 76 66 43 67 27 68 28 69 36 70 29 71 31 72 37 73 30 74 32 75
REMARK SMILES IDX 33 76 34 77 35 78 59 79 60 80 68 81 61 82 63 83 69 84 62 85
REMARK SMILES IDX 64 86 65 87 66 88 67 89 44 90 45 91 53 92 46 93 48 94 54 95
REMARK SMILES IDX 47 96 49 97 50 98 51 99 52 100
REMARK H PARENT 74 53 42 64
REMARK Flexibility Score: inf
ROOT
ATOM      1  C   UNL A   1      31.772  33.050  26.870  1.00  0.00     0.202 C 
ENDROOT
BRANCH   1   2
ATOM      2  O   UNL A   1      31.627  31.663  26.584  1.00  0.00    -0.374 OA
BRANCH   2   3
ATOM      3  C   UNL A   1      32.500  30.750  27.247  1.00  0.00     0.202 C 
BRANCH   3   4
ATOM      4  C   UNL A   1      32.728  29.378  26.595  1.00  0.00     0.261 C 
BRANCH   4   5
ATOM      5  O   UNL A   1      31.864  29.053  25.480  1.00  0.00    -0.463 OA
BRANCH   5   6
ATOM      6  C   UNL A   1      32.464  29.037  24.269  1.00  0.00     0.311 C 
ATOM      7  O   UNL A   1      33.535  29.590  24.026  1.00  0.00    -0.252 OA
BRANCH   6   8
ATOM      8  C   UNL A   1      31.686  28.379  23.144  1.00  0.00     0.134 C 
ATOM      9  C   UNL A   1      28.548  26.356  23.706  1.00  0.00     0.147 C 
ATOM     10  N   UNL A   1      29.615  27.329  23.536  1.00  0.00    -0.339 N 
ATOM     11  C   UNL A   1      29.304  28.649  23.246  1.00  0.00     0.223 C 
ATOM     12  C   UNL A   1      31.011  26.984  23.224  1.00  0.00     0.060 C 
ATOM     13  O   UNL A   1      28.195  29.157  23.253  1.00  0.00    -0.275 OA
ATOM     14  C   UNL A   1      30.550  29.352  22.798  1.00  0.00     0.118 C 
ATOM     15  C   UNL A   1      31.613  25.994  24.237  1.00  0.00     0.051 C 
ATOM     16  C   UNL A   1      31.053  26.301  21.818  1.00  0.00     0.051 C 
ATOM     17  C   UNL A   1      33.013  25.542  23.837  1.00  0.00     0.122 C 
ATOM     18  C   UNL A   1      32.412  25.700  21.455  1.00  0.00     0.122 C 
ATOM     19  N   UNL A   1      32.978  24.893  22.534  1.00  0.00    -0.338 N 
ATOM     20  C   UNL A   1      33.593  23.681  22.201  1.00  0.00     0.254 C 
ATOM     21  O   UNL A   1      33.585  23.240  21.050  1.00  0.00    -0.269 OA
BRANCH  20  22
ATOM     22  C   UNL A   1      34.395  22.907  23.188  1.00  0.00     0.047 A 
ATOM     23  C   UNL A   1      35.757  23.258  23.226  1.00  0.00     0.014 A 
ATOM     24  C   UNL A   1      33.914  21.798  23.938  1.00  0.00    -0.006 A 
ATOM     25  C   UNL A   1      36.658  22.529  23.993  1.00  0.00     0.001 A 
ATOM     26  C   UNL A   1      34.852  21.072  24.722  1.00  0.00    -0.018 A 
ATOM     27  C   UNL A   1      32.572  21.347  23.956  1.00  0.00     0.009 A 
ATOM     28  C   UNL A   1      36.206  21.440  24.731  1.00  0.00     0.009 A 
ATOM     29  C   UNL A   1      34.435  19.972  25.488  1.00  0.00     0.009 A 
ATOM     30  C   UNL A   1      32.165  20.278  24.760  1.00  0.00     0.001 A 
ATOM     31  C   UNL A   1      33.098  19.587  25.521  1.00  0.00     0.001 A 
ENDBRANCH  20  22
ENDBRANCH   6   8
ENDBRANCH   5   6
ENDBRANCH   4   5
ENDBRANCH   3   4
ENDBRANCH   2   3
ENDBRANCH   1   2
BRANCH   1  32
ATOM     32  C   UNL A   1      33.038  33.456  27.631  1.00  0.00     0.261 C 
BRANCH  32  33
ATOM     33  O   UNL A   1      32.878  34.718  28.300  1.00  0.00    -0.460 OA
BRANCH  33  34
ATOM     34  C   UNL A   1      33.381  34.726  29.560  1.00  0.00     0.338 C 
ATOM     35  O   UNL A   1      32.871  35.232  30.545  1.00  0.00    -0.246 OA
BRANCH  34  36
ATOM     36  C   UNL A   1      34.559  33.845  29.649  1.00  0.00     0.060 A 
ATOM     37  C   UNL A   1      34.440  32.686  30.426  1.00  0.00     0.016 A 
ATOM     38  C   UNL A   1      35.793  34.218  29.112  1.00  0.00     0.016 A 
ATOM     39  C   UNL A   1      35.571  31.925  30.719  1.00  0.00     0.010 A 
ATOM     40  C   UNL A   1      36.927  33.450  29.410  1.00  0.00     0.010 A 
ATOM     41  C   UNL A   1      36.830  32.326  30.251  1.00  0.00    -0.014 A 
BRANCH  41  42
ATOM     42  C   UNL A   1      38.044  31.640  30.763  1.00  0.00     0.031 A 
ATOM     43  C   UNL A   1      38.587  32.008  32.119  1.00  0.00     0.074 A 
ATOM     44  C   UNL A   1      38.636  30.668  30.045  1.00  0.00     0.049 A 
ATOM     45  N   UNL A   1      39.585  31.484  32.782  1.00  0.00    -0.248 NA
ATOM     46  C   UNL A   1      37.916  33.114  32.822  1.00  0.00     0.031 C 
ATOM     47  C   UNL A   1      38.215  30.227  28.716  1.00  0.00     0.029 A 
ATOM     48  N   UNL A   1      39.727  29.884  30.330  1.00  0.00    -0.354 N 
ATOM     49  C   UNL A   1      39.673  32.201  33.971  1.00  0.00     0.074 A 
ATOM     50  C   UNL A   1      38.639  33.212  33.929  1.00  0.00     0.031 C 
ATOM     51  C   UNL A   1      39.049  29.262  28.292  1.00  0.00     0.029 A 
ATOM     52  C   UNL A   1      40.067  29.022  29.313  1.00  0.00     0.049 A 
ATOM     53  H   UNL A   1      40.219  29.933  31.180  1.00  0.00     0.167 HD
ATOM     54  C   UNL A   1      40.520  32.021  35.012  1.00  0.00     0.034 A 
ATOM     55  C   UNL A   1      41.085  28.143  29.216  1.00  0.00     0.034 A 
ATOM     56  C   UNL A   1      41.536  31.005  35.060  1.00  0.00     0.049 A 
ATOM     57  C   UNL A   1      42.021  27.967  30.384  1.00  0.00     0.074 A 
ATOM     58  C   UNL A   1      42.412  30.710  36.090  1.00  0.00     0.029 A 
ATOM     59  N   UNL A   1      41.825  30.125  34.027  1.00  0.00    -0.354 N 
ATOM     60  N   UNL A   1      41.998  28.557  31.555  1.00  0.00    -0.248 NA
ATOM     61  C   UNL A   1      43.098  26.978  30.233  1.00  0.00     0.031 C 
ATOM     62  C   UNL A   1      43.246  29.667  35.671  1.00  0.00     0.029 A 
ATOM     63  C   UNL A   1      42.873  29.296  34.389  1.00  0.00     0.049 A 
ATOM     64  H   UNL A   1      41.354  30.095  33.163  1.00  0.00     0.167 HD
ATOM     65  C   UNL A   1      43.032  27.987  32.290  1.00  0.00     0.074 A 
ATOM     66  C   UNL A   1      43.649  26.990  31.439  1.00  0.00     0.031 C 
ATOM     67  C   UNL A   1      43.442  28.272  33.551  1.00  0.00     0.034 A 
BRANCH  54  68
ATOM     68  C   UNL A   1      40.362  32.925  36.207  1.00  0.00     0.023 A 
ATOM     69  C   UNL A   1      41.067  34.144  36.252  1.00  0.00     0.012 A 
ATOM     70  C   UNL A   1      39.477  32.599  37.254  1.00  0.00     0.148 A 
ATOM     71  C   UNL A   1      40.919  35.011  37.334  1.00  0.00     0.002 A 
ATOM     72  C   UNL A   1      39.305  33.486  38.310  1.00  0.00     0.091 A 
ATOM     73  F   UNL A   1      38.831  31.426  37.204  1.00  0.00    -0.205 F 
ATOM     74  C   UNL A   1      40.032  34.687  38.357  1.00  0.00     0.022 A 
BRANCH  72  75
ATOM     75  S   UNL A   1      38.135  33.191  39.641  1.00  0.00     0.127 S 
ATOM     76  O   UNL A   1      38.728  32.029  40.302  1.00  0.00    -0.237 OA
ATOM     77  O   UNL A   1      38.216  34.436  40.407  1.00  0.00    -0.237 OA
ATOM     78  O   UNL A   1      36.849  32.957  38.998  1.00  0.00    -0.744 OA
ENDBRANCH  72  75
ENDBRANCH  54  68
BRANCH  55  79
ATOM     79  C   UNL A   1      41.243  27.323  27.981  1.00  0.00     0.023 A 
ATOM     80  C   UNL A   1      41.806  27.900  26.827  1.00  0.00     0.012 A 
ATOM     81  C   UNL A   1      40.857  25.968  27.953  1.00  0.00     0.148 A 
ATOM     82  C   UNL A   1      41.961  27.150  25.659  1.00  0.00     0.002 A 
ATOM     83  C   UNL A   1      41.064  25.213  26.804  1.00  0.00     0.091 A 
ATOM     84  F   UNL A   1      40.303  25.443  29.054  1.00  0.00    -0.205 F 
ATOM     85  C   UNL A   1      41.601  25.805  25.651  1.00  0.00     0.022 A 
BRANCH  83  86
ATOM     86  S   UNL A   1      40.749  23.445  26.749  1.00  0.00     0.127 S 
ATOM     87  O   UNL A   1      39.319  23.406  26.456  1.00  0.00    -0.237 OA
ATOM     88  O   UNL A   1      41.617  23.019  25.650  1.00  0.00    -0.237 OA
ATOM     89  O   UNL A   1      41.143  22.938  28.056  1.00  0.00    -0.744 OA
ENDBRANCH  83  86
ENDBRANCH  55  79
BRANCH  67  90
ATOM     90  C   UNL A   1      44.598  27.481  34.108  1.00  0.00     0.023 A 
ATOM     91  C   UNL A   1      45.917  27.935  33.911  1.00  0.00     0.012 A 
ATOM     92  C   UNL A   1      44.371  26.335  34.896  1.00  0.00     0.148 A 
ATOM     93  C   UNL A   1      46.995  27.244  34.464  1.00  0.00     0.002 A 
ATOM     94  C   UNL A   1      45.447  25.678  35.483  1.00  0.00     0.091 A 
ATOM     95  F   UNL A   1      43.111  25.907  35.057  1.00  0.00    -0.205 F 
ATOM     96  C   UNL A   1      46.759  26.124  35.259  1.00  0.00     0.022 A 
BRANCH  94  97
ATOM     97  S   UNL A   1      45.231  24.286  36.599  1.00  0.00     0.127 S 
ATOM     98  O   UNL A   1      44.612  23.294  35.722  1.00  0.00    -0.237 OA
ATOM     99  O   UNL A   1      46.609  23.982  36.988  1.00  0.00    -0.237 OA
ATOM    100  O   UNL A   1      44.392  24.773  37.687  1.00  0.00    -0.744 OA
ENDBRANCH  94  97
ENDBRANCH  67  90
ENDBRANCH  41  42
ENDBRANCH  34  36
ENDBRANCH  33  34
ENDBRANCH  32  33
ENDBRANCH   1  32
TORSDOF 18
ENDMDL
