MODEL 1
REMARK VINA RESULT:     -11.6      0.000      0.000
REMARK SMILES COc1cccc(NC(=O)[C@@H]2[C@@H](C(=O)OCCOCCOC(=O)c3ccc(-c4c5nc(c(-c6cccc(S(=O)(=O)[O-])c6F)c6ccc([nH]6)c(-c6cccc(S(=O)(=O)[O-])c6F)c6nc(c(-c7cccc(S(=O)(=O)[O-])c7F)c7ccc4[nH]7)C=C6)C=C5)cc3)[C@H]3C=C[C@@H]2C3)c1
REMARK SMILES IDX 18 1 17 2 16 3 15 4 13 5 14 6 12 7 11 8 90 9 87 10 89 11
REMARK SMILES IDX 91 12 88 13 9 14 8 15 10 17 7 18 3 19 4 20 92 21 5 22 6 23
REMARK SMILES IDX 2 24 1 25 19 26 20 27 21 28 22 29 23 30 24 31 25 32 86 33
REMARK SMILES IDX 26 34 85 35 27 36 28 37 29 38 79 39 30 40 84 41 78 42 80 43
REMARK SMILES IDX 31 44 83 45 77 46 76 47 32 49 64 50 44 51 63 52 45 53 48 54
REMARK SMILES IDX 62 55 81 56 46 57 47 58 61 60 82 61 49 62 33 63 34 64 42 65
REMARK SMILES IDX 35 66 37 67 43 68 36 69 38 70 39 71 40 72 41 73 65 74 66 75
REMARK SMILES IDX 74 76 67 77 69 78 75 79 68 80 70 81 71 82 72 83 73 84 50 85
REMARK SMILES IDX 51 86 59 87 52 88 54 89 60 90 53 91 55 92 56 93 57 94 58 95
REMARK H PARENT 8 16 80 48 48 59
REMARK Flexibility Score: inf
ROOT
ATOM      1  O   UNL A   1      35.082  19.410  24.557  1.00  0.00    -0.374 OA
ENDROOT
BRANCH   1   2
ATOM      2  C   UNL A   1      33.791  19.138  25.063  1.00  0.00     0.202 C 
BRANCH   2   3
ATOM      3  C   UNL A   1      32.684  20.165  24.834  1.00  0.00     0.261 C 
BRANCH   3   4
ATOM      4  O   UNL A   1      32.842  20.963  23.646  1.00  0.00    -0.463 OA
BRANCH   4   5
ATOM      5  C   UNL A   1      32.314  22.216  23.729  1.00  0.00     0.310 C 
ATOM      6  O   UNL A   1      31.481  22.655  22.946  1.00  0.00    -0.252 OA
BRANCH   5   7
ATOM      7  C   UNL A   1      32.872  22.986  24.923  1.00  0.00     0.119 C 
ATOM      8  C   UNL A   1      32.311  24.464  25.069  1.00  0.00     0.100 C 
ATOM      9  C   UNL A   1      33.634  25.281  24.911  1.00  0.00     0.025 C 
ATOM     10  C   UNL A   1      34.407  23.191  24.708  1.00  0.00     0.027 C 
ATOM     11  C   UNL A   1      34.143  25.127  23.494  1.00  0.00    -0.027 C 
ATOM     12  C   UNL A   1      34.686  24.388  25.604  1.00  0.00     0.017 C 
ATOM     13  C   UNL A   1      34.656  23.892  23.390  1.00  0.00    -0.027 C 
BRANCH   8  14
ATOM     14  C   UNL A   1      31.750  24.778  26.469  1.00  0.00     0.228 C 
ATOM     15  N   UNL A   1      31.344  25.978  26.950  1.00  0.00    -0.326 N 
ATOM     16  H   UNL A   1      30.974  25.882  27.857  1.00  0.00     0.169 HD
ATOM     17  O   UNL A   1      31.573  23.860  27.284  1.00  0.00    -0.274 OA
BRANCH  15  18
ATOM     18  C   UNL A   1      31.297  27.315  26.536  1.00  0.00     0.044 A 
ATOM     19  C   UNL A   1      31.101  28.736  24.567  1.00  0.00     0.120 A 
ATOM     20  C   UNL A   1      31.560  29.822  25.301  1.00  0.00     0.046 A 
ATOM     21  C   UNL A   1      30.902  27.504  25.194  1.00  0.00     0.072 A 
ATOM     22  C   UNL A   1      31.801  29.675  26.671  1.00  0.00     0.006 A 
ATOM     23  C   UNL A   1      31.695  28.416  27.287  1.00  0.00     0.026 A 
BRANCH  19  24
ATOM     24  O   UNL A   1      31.181  28.785  23.200  1.00  0.00    -0.497 OA
ATOM     25  C   UNL A   1      30.245  29.683  22.625  1.00  0.00     0.278 C 
ENDBRANCH  19  24
ENDBRANCH  15  18
ENDBRANCH   8  14
ENDBRANCH   5   7
ENDBRANCH   4   5
ENDBRANCH   3   4
ENDBRANCH   2   3
ENDBRANCH   1   2
BRANCH   1  26
ATOM     26  C   UNL A   1      35.972  20.272  25.244  1.00  0.00     0.202 C 
BRANCH  26  27
ATOM     27  C   UNL A   1      37.482  20.295  24.979  1.00  0.00     0.261 C 
BRANCH  27  28
ATOM     28  O   UNL A   1      38.209  21.395  25.464  1.00  0.00    -0.460 OA
BRANCH  28  29
ATOM     29  C   UNL A   1      39.262  21.061  26.239  1.00  0.00     0.338 C 
ATOM     30  O   UNL A   1      39.720  19.964  26.493  1.00  0.00    -0.246 OA
BRANCH  29  31
ATOM     31  C   UNL A   1      39.846  22.350  26.577  1.00  0.00     0.060 A 
ATOM     32  C   UNL A   1      39.235  23.490  26.058  1.00  0.00     0.016 A 
ATOM     33  C   UNL A   1      40.878  22.407  27.520  1.00  0.00     0.016 A 
ATOM     34  C   UNL A   1      39.680  24.729  26.478  1.00  0.00     0.010 A 
ATOM     35  C   UNL A   1      41.317  23.648  27.943  1.00  0.00     0.010 A 
ATOM     36  C   UNL A   1      40.731  24.804  27.403  1.00  0.00    -0.014 A 
BRANCH  36  37
ATOM     37  C   UNL A   1      41.308  26.115  27.716  1.00  0.00     0.031 A 
ATOM     38  C   UNL A   1      42.705  26.390  27.261  1.00  0.00     0.074 A 
ATOM     39  C   UNL A   1      40.574  27.010  28.396  1.00  0.00     0.049 A 
ATOM     40  N   UNL A   1      43.424  27.464  27.426  1.00  0.00    -0.248 NA
ATOM     41  C   UNL A   1      43.389  25.309  26.526  1.00  0.00     0.031 C 
ATOM     42  C   UNL A   1      39.208  26.791  28.878  1.00  0.00     0.029 A 
ATOM     43  N   UNL A   1      40.880  28.274  28.812  1.00  0.00    -0.354 N 
ATOM     44  C   UNL A   1      44.654  27.179  26.850  1.00  0.00     0.074 A 
ATOM     45  C   UNL A   1      44.592  25.828  26.340  1.00  0.00     0.031 C 
ATOM     46  C   UNL A   1      38.800  27.885  29.542  1.00  0.00     0.029 A 
ATOM     47  C   UNL A   1      39.884  28.860  29.554  1.00  0.00     0.049 A 
ATOM     48  H   UNL A   1      41.733  28.720  28.602  1.00  0.00     0.167 HD
ATOM     49  C   UNL A   1      45.731  27.987  26.750  1.00  0.00     0.034 A 
ATOM     50  C   UNL A   1      39.875  30.049  30.184  1.00  0.00     0.034 A 
ATOM     51  C   UNL A   1      45.752  29.328  27.261  1.00  0.00     0.049 A 
ATOM     52  C   UNL A   1      41.094  30.922  30.058  1.00  0.00     0.074 A 
ATOM     53  C   UNL A   1      46.762  30.266  27.177  1.00  0.00     0.029 A 
ATOM     54  N   UNL A   1      44.711  29.916  27.967  1.00  0.00    -0.354 N 
ATOM     55  N   UNL A   1      42.210  30.693  29.406  1.00  0.00    -0.248 NA
ATOM     56  C   UNL A   1      41.043  32.229  30.723  1.00  0.00     0.031 C 
ATOM     57  C   UNL A   1      46.348  31.408  27.868  1.00  0.00     0.029 A 
ATOM     58  C   UNL A   1      45.060  31.198  28.341  1.00  0.00     0.049 A 
ATOM     59  H   UNL A   1      43.852  29.481  28.171  1.00  0.00     0.167 HD
ATOM     60  C   UNL A   1      42.977  31.842  29.547  1.00  0.00     0.074 A 
ATOM     61  C   UNL A   1      42.189  32.771  30.332  1.00  0.00     0.031 C 
ATOM     62  C   UNL A   1      44.224  32.108  29.083  1.00  0.00     0.034 A 
BRANCH  49  63
ATOM     63  C   UNL A   1      46.958  27.445  26.072  1.00  0.00     0.023 A 
ATOM     64  C   UNL A   1      47.155  27.656  24.692  1.00  0.00     0.012 A 
ATOM     65  C   UNL A   1      47.940  26.762  26.814  1.00  0.00     0.148 A 
ATOM     66  C   UNL A   1      48.300  27.175  24.057  1.00  0.00     0.002 A 
ATOM     67  C   UNL A   1      49.101  26.329  26.185  1.00  0.00     0.091 A 
ATOM     68  F   UNL A   1      47.718  26.543  28.118  1.00  0.00    -0.205 F 
ATOM     69  C   UNL A   1      49.278  26.524  24.805  1.00  0.00     0.022 A 
BRANCH  67  70
ATOM     70  S   UNL A   1      50.452  25.549  27.074  1.00  0.00     0.127 S 
ATOM     71  O   UNL A   1      49.790  24.378  27.649  1.00  0.00    -0.237 OA
ATOM     72  O   UNL A   1      51.392  25.250  25.994  1.00  0.00    -0.237 OA
ATOM     73  O   UNL A   1      50.922  26.531  28.040  1.00  0.00    -0.744 OA
ENDBRANCH  67  70
ENDBRANCH  49  63
BRANCH  50  74
ATOM     74  C   UNL A   1      38.677  30.486  30.952  1.00  0.00     0.023 A 
ATOM     75  C   UNL A   1      38.599  30.222  32.333  1.00  0.00     0.012 A 
ATOM     76  C   UNL A   1      37.620  31.173  30.325  1.00  0.00     0.148 A 
ATOM     77  C   UNL A   1      37.472  30.596  33.067  1.00  0.00     0.002 A 
ATOM     78  C   UNL A   1      36.525  31.593  31.072  1.00  0.00     0.091 A 
ATOM     79  F   UNL A   1      37.707  31.408  29.007  1.00  0.00    -0.205 F 
ATOM     80  C   UNL A   1      36.440  31.288  32.439  1.00  0.00     0.022 A 
BRANCH  78  81
ATOM     81  S   UNL A   1      35.212  32.599  30.372  1.00  0.00     0.127 S 
ATOM     82  O   UNL A   1      34.283  32.700  31.495  1.00  0.00    -0.237 OA
ATOM     83  O   UNL A   1      35.922  33.836  30.045  1.00  0.00    -0.237 OA
ATOM     84  O   UNL A   1      34.728  31.862  29.213  1.00  0.00    -0.744 OA
ENDBRANCH  78  81
ENDBRANCH  50  74
BRANCH  62  85
ATOM     85  C   UNL A   1      44.787  33.473  29.367  1.00  0.00     0.023 A 
ATOM     86  C   UNL A   1      45.489  33.712  30.564  1.00  0.00     0.012 A 
ATOM     87  C   UNL A   1      44.681  34.496  28.404  1.00  0.00     0.148 A 
ATOM     88  C   UNL A   1      46.046  34.964  30.816  1.00  0.00     0.002 A 
ATOM     89  C   UNL A   1      45.290  35.720  28.636  1.00  0.00     0.091 A 
ATOM     90  F   UNL A   1      43.995  34.247  27.280  1.00  0.00    -0.205 F 
ATOM     91  C   UNL A   1      45.958  35.963  29.847  1.00  0.00     0.022 A 
BRANCH  89  92
ATOM     92  S   UNL A   1      45.322  37.025  27.403  1.00  0.00     0.127 S 
ATOM     93  O   UNL A   1      43.897  37.243  27.164  1.00  0.00    -0.237 OA
ATOM     94  O   UNL A   1      45.995  38.110  28.120  1.00  0.00    -0.237 OA
ATOM     95  O   UNL A   1      46.070  36.493  26.272  1.00  0.00    -0.744 OA
ENDBRANCH  89  92
ENDBRANCH  62  85
ENDBRANCH  36  37
ENDBRANCH  29  31
ENDBRANCH  28  29
ENDBRANCH  27  28
ENDBRANCH  26  27
ENDBRANCH   1  26
TORSDOF 20
ENDMDL
MODEL 2
REMARK VINA RESULT:     -11.4      4.999      9.999
REMARK SMILES COc1cccc(NC(=O)[C@@H]2[C@@H](C(=O)OCCOCCOC(=O)c3ccc(-c4c5nc(c(-c6cccc(S(=O)(=O)[O-])c6F)c6ccc([nH]6)c(-c6cccc(S(=O)(=O)[O-])c6F)c6nc(c(-c7cccc(S(=O)(=O)[O-])c7F)c7ccc4[nH]7)C=C6)C=C5)cc3)[C@H]3C=C[C@@H]2C3)c1
REMARK SMILES IDX 18 1 17 2 16 3 15 4 13 5 14 6 12 7 11 8 90 9 87 10 89 11
REMARK SMILES IDX 91 12 88 13 9 14 8 15 10 17 7 18 3 19 4 20 92 21 5 22 6 23
REMARK SMILES IDX 2 24 1 25 19 26 20 27 21 28 22 29 23 30 24 31 25 32 86 33
REMARK SMILES IDX 26 34 85 35 27 36 28 37 29 38 79 39 30 40 84 41 78 42 80 43
REMARK SMILES IDX 31 44 83 45 77 46 76 47 32 49 64 50 44 51 63 52 45 53 48 54
REMARK SMILES IDX 62 55 81 56 46 57 47 58 61 60 82 61 49 62 33 63 34 64 42 65
REMARK SMILES IDX 35 66 37 67 43 68 36 69 38 70 39 71 40 72 41 73 65 74 66 75
REMARK SMILES IDX 74 76 67 77 69 78 75 79 68 80 70 81 71 82 72 83 73 84 50 85
REMARK SMILES IDX 51 86 59 87 52 88 54 89 60 90 53 91 55 92 56 93 57 94 58 95
REMARK H PARENT 8 16 80 48 48 59
REMARK Flexibility Score: inf
ROOT
ATOM      1  O   UNL A   1      31.876  29.034  25.382  1.00  0.00    -0.374 OA
ENDROOT
BRANCH   1   2
ATOM      2  C   UNL A   1      31.412  27.921  26.119  1.00  0.00     0.202 C 
BRANCH   2   3
ATOM      3  C   UNL A   1      32.194  26.612  26.038  1.00  0.00     0.261 C 
BRANCH   3   4
ATOM      4  O   UNL A   1      31.906  25.674  27.091  1.00  0.00    -0.463 OA
BRANCH   4   5
ATOM      5  C   UNL A   1      31.618  24.413  26.665  1.00  0.00     0.310 C 
ATOM      6  O   UNL A   1      30.722  23.725  27.137  1.00  0.00    -0.252 OA
BRANCH   5   7
ATOM      7  C   UNL A   1      32.533  23.979  25.523  1.00  0.00     0.119 C 
ATOM      8  C   UNL A   1      32.153  22.582  24.873  1.00  0.00     0.100 C 
ATOM      9  C   UNL A   1      33.447  21.765  25.189  1.00  0.00     0.025 C 
ATOM     10  C   UNL A   1      33.967  23.742  26.099  1.00  0.00     0.027 C 
ATOM     11  C   UNL A   1      33.547  21.557  26.684  1.00  0.00    -0.027 C 
ATOM     12  C   UNL A   1      34.570  22.816  25.053  1.00  0.00     0.017 C 
ATOM     13  C   UNL A   1      33.914  22.730  27.223  1.00  0.00    -0.027 C 
BRANCH   8  14
ATOM     14  C   UNL A   1      32.010  22.630  23.340  1.00  0.00     0.228 C 
ATOM     15  N   UNL A   1      32.164  23.702  22.526  1.00  0.00    -0.326 N 
ATOM     16  H   UNL A   1      32.073  23.437  21.582  1.00  0.00     0.169 HD
ATOM     17  O   UNL A   1      31.780  21.587  22.708  1.00  0.00    -0.274 OA
BRANCH  15  18
ATOM     18  C   UNL A   1      32.414  25.075  22.632  1.00  0.00     0.044 A 
ATOM     19  C   UNL A   1      31.360  27.264  22.454  1.00  0.00     0.120 A 
ATOM     20  C   UNL A   1      32.610  27.863  22.367  1.00  0.00     0.046 A 
ATOM     21  C   UNL A   1      31.259  25.886  22.656  1.00  0.00     0.072 A 
ATOM     22  C   UNL A   1      33.760  27.079  22.502  1.00  0.00     0.006 A 
ATOM     23  C   UNL A   1      33.667  25.680  22.609  1.00  0.00     0.026 A 
BRANCH  19  24
ATOM     24  O   UNL A   1      30.267  27.955  22.002  1.00  0.00    -0.497 OA
ATOM     25  C   UNL A   1      29.320  28.220  23.025  1.00  0.00     0.278 C 
ENDBRANCH  19  24
ENDBRANCH  15  18
ENDBRANCH   8  14
ENDBRANCH   5   7
ENDBRANCH   4   5
ENDBRANCH   3   4
ENDBRANCH   2   3
ENDBRANCH   1   2
BRANCH   1  26
ATOM     26  C   UNL A   1      31.280  30.310  25.528  1.00  0.00     0.202 C 
BRANCH  26  27
ATOM     27  C   UNL A   1      31.807  31.371  26.502  1.00  0.00     0.261 C 
BRANCH  27  28
ATOM     28  O   UNL A   1      33.060  31.143  27.095  1.00  0.00    -0.460 OA
BRANCH  28  29
ATOM     29  C   UNL A   1      33.638  32.250  27.604  1.00  0.00     0.338 C 
ATOM     30  O   UNL A   1      33.229  33.395  27.631  1.00  0.00    -0.246 OA
BRANCH  29  31
ATOM     31  C   UNL A   1      34.814  31.728  28.283  1.00  0.00     0.060 A 
ATOM     32  C   UNL A   1      34.815  30.376  28.620  1.00  0.00     0.016 A 
ATOM     33  C   UNL A   1      35.942  32.544  28.424  1.00  0.00     0.016 A 
ATOM     34  C   UNL A   1      35.973  29.823  29.133  1.00  0.00     0.010 A 
ATOM     35  C   UNL A   1      37.101  31.986  28.932  1.00  0.00     0.010 A 
ATOM     36  C   UNL A   1      37.104  30.633  29.306  1.00  0.00    -0.014 A 
BRANCH  36  37
ATOM     37  C   UNL A   1      38.271  30.084  30.002  1.00  0.00     0.031 A 
ATOM     38  C   UNL A   1      38.533  30.549  31.399  1.00  0.00     0.074 A 
ATOM     39  C   UNL A   1      39.056  29.198  29.370  1.00  0.00     0.049 A 
ATOM     40  N   UNL A   1      39.499  30.214  32.206  1.00  0.00    -0.248 NA
ATOM     41  C   UNL A   1      37.584  31.528  31.962  1.00  0.00     0.031 C 
ATOM     42  C   UNL A   1      38.856  28.718  28.001  1.00  0.00     0.029 A 
ATOM     43  N   UNL A   1      40.187  28.558  29.791  1.00  0.00    -0.354 N 
ATOM     44  C   UNL A   1      39.298  30.964  33.356  1.00  0.00     0.074 A 
ATOM     45  C   UNL A   1      38.126  31.781  33.143  1.00  0.00     0.031 C 
ATOM     46  C   UNL A   1      39.848  27.867  27.689  1.00  0.00     0.029 A 
ATOM     47  C   UNL A   1      40.761  27.770  28.823  1.00  0.00     0.049 A 
ATOM     48  H   UNL A   1      40.556  28.654  30.699  1.00  0.00     0.167 HD
ATOM     49  C   UNL A   1      40.028  30.954  34.492  1.00  0.00     0.034 A 
ATOM     50  C   UNL A   1      41.909  27.071  28.859  1.00  0.00     0.034 A 
ATOM     51  C   UNL A   1      41.182  30.119  34.671  1.00  0.00     0.049 A 
ATOM     52  C   UNL A   1      42.702  27.086  30.138  1.00  0.00     0.074 A 
ATOM     53  C   UNL A   1      41.977  29.978  35.793  1.00  0.00     0.029 A 
ATOM     54  N   UNL A   1      41.715  29.293  33.691  1.00  0.00    -0.354 N 
ATOM     55  N   UNL A   1      42.438  27.704  31.266  1.00  0.00    -0.248 NA
ATOM     56  C   UNL A   1      43.931  26.284  30.164  1.00  0.00     0.031 C 
ATOM     57  C   UNL A   1      43.015  29.097  35.476  1.00  0.00     0.029 A 
ATOM     58  C   UNL A   1      42.838  28.652  34.174  1.00  0.00     0.049 A 
ATOM     59  H   UNL A   1      41.345  29.182  32.785  1.00  0.00     0.167 HD
ATOM     60  C   UNL A   1      43.444  27.333  32.149  1.00  0.00     0.074 A 
ATOM     61  C   UNL A   1      44.312  26.422  31.427  1.00  0.00     0.031 C 
ATOM     62  C   UNL A   1      43.646  27.715  33.435  1.00  0.00     0.034 A 
BRANCH  49  63
ATOM     63  C   UNL A   1      39.603  31.863  35.611  1.00  0.00     0.023 A 
ATOM     64  C   UNL A   1      40.057  33.197  35.650  1.00  0.00     0.012 A 
ATOM     65  C   UNL A   1      38.715  31.405  36.603  1.00  0.00     0.148 A 
ATOM     66  C   UNL A   1      39.652  34.055  36.673  1.00  0.00     0.002 A 
ATOM     67  C   UNL A   1      38.278  32.278  37.591  1.00  0.00     0.091 A 
ATOM     68  F   UNL A   1      38.321  30.124  36.566  1.00  0.00    -0.205 F 
ATOM     69  C   UNL A   1      38.754  33.600  37.634  1.00  0.00     0.022 A 
BRANCH  67  70
ATOM     70  S   UNL A   1      37.063  31.812  38.828  1.00  0.00     0.127 S 
ATOM     71  O   UNL A   1      35.950  32.702  38.499  1.00  0.00    -0.237 OA
ATOM     72  O   UNL A   1      36.833  30.404  38.511  1.00  0.00    -0.237 OA
ATOM     73  O   UNL A   1      37.688  32.054  40.120  1.00  0.00    -0.744 OA
ENDBRANCH  67  70
ENDBRANCH  49  63
BRANCH  50  74
ATOM     74  C   UNL A   1      42.351  26.286  27.675  1.00  0.00     0.023 A 
ATOM     75  C   UNL A   1      43.162  26.894  26.697  1.00  0.00     0.012 A 
ATOM     76  C   UNL A   1      41.985  24.935  27.517  1.00  0.00     0.148 A 
ATOM     77  C   UNL A   1      43.564  26.186  25.564  1.00  0.00     0.002 A 
ATOM     78  C   UNL A   1      42.436  24.218  26.414  1.00  0.00     0.091 A 
ATOM     79  F   UNL A   1      41.206  24.373  28.453  1.00  0.00    -0.205 F 
ATOM     80  C   UNL A   1      43.208  24.847  25.427  1.00  0.00     0.022 A 
BRANCH  78  81
ATOM     81  S   UNL A   1      42.132  22.458  26.222  1.00  0.00     0.127 S 
ATOM     82  O   UNL A   1      42.879  22.158  25.003  1.00  0.00    -0.237 OA
ATOM     83  O   UNL A   1      42.713  21.916  27.451  1.00  0.00    -0.237 OA
ATOM     84  O   UNL A   1      40.686  22.317  26.130  1.00  0.00    -0.744 OA
ENDBRANCH  78  81
ENDBRANCH  50  74
BRANCH  62  85
ATOM     85  C   UNL A   1      44.817  27.107  34.157  1.00  0.00     0.023 A 
ATOM     86  C   UNL A   1      46.051  27.785  34.195  1.00  0.00     0.012 A 
ATOM     87  C   UNL A   1      44.664  25.897  34.861  1.00  0.00     0.148 A 
ATOM     88  C   UNL A   1      47.129  27.246  34.895  1.00  0.00     0.002 A 
ATOM     89  C   UNL A   1      45.723  25.398  35.604  1.00  0.00     0.091 A 
ATOM     90  F   UNL A   1      43.483  25.265  34.796  1.00  0.00    -0.205 F 
ATOM     91  C   UNL A   1      46.961  26.061  35.610  1.00  0.00     0.022 A 
BRANCH  89  92
ATOM     92  S   UNL A   1      45.565  23.940  36.640  1.00  0.00     0.127 S 
ATOM     93  O   UNL A   1      44.694  24.428  37.707  1.00  0.00    -0.237 OA
ATOM     94  O   UNL A   1      44.938  22.981  35.729  1.00  0.00    -0.237 OA
ATOM     95  O   UNL A   1      46.918  23.589  37.051  1.00  0.00    -0.744 OA
ENDBRANCH  89  92
ENDBRANCH  62  85
ENDBRANCH  36  37
ENDBRANCH  29  31
ENDBRANCH  28  29
ENDBRANCH  27  28
ENDBRANCH  26  27
ENDBRANCH   1  26
TORSDOF 20
ENDMDL
MODEL 3
REMARK VINA RESULT:     -11.3      2.143      4.137
REMARK SMILES COc1cccc(NC(=O)[C@@H]2[C@@H](C(=O)OCCOCCOC(=O)c3ccc(-c4c5nc(c(-c6cccc(S(=O)(=O)[O-])c6F)c6ccc([nH]6)c(-c6cccc(S(=O)(=O)[O-])c6F)c6nc(c(-c7cccc(S(=O)(=O)[O-])c7F)c7ccc4[nH]7)C=C6)C=C5)cc3)[C@H]3C=C[C@@H]2C3)c1
REMARK SMILES IDX 18 1 17 2 16 3 15 4 13 5 14 6 12 7 11 8 90 9 87 10 89 11
REMARK SMILES IDX 91 12 88 13 9 14 8 15 10 17 7 18 3 19 4 20 92 21 5 22 6 23
REMARK SMILES IDX 2 24 1 25 19 26 20 27 21 28 22 29 23 30 24 31 25 32 86 33
REMARK SMILES IDX 26 34 85 35 27 36 28 37 29 38 79 39 30 40 84 41 78 42 80 43
REMARK SMILES IDX 31 44 83 45 77 46 76 47 32 49 64 50 44 51 63 52 45 53 48 54
REMARK SMILES IDX 62 55 81 56 46 57 47 58 61 60 82 61 49 62 33 63 34 64 42 65
REMARK SMILES IDX 35 66 37 67 43 68 36 69 38 70 39 71 40 72 41 73 65 74 66 75
REMARK SMILES IDX 74 76 67 77 69 78 75 79 68 80 70 81 71 82 72 83 73 84 50 85
REMARK SMILES IDX 51 86 59 87 52 88 54 89 60 90 53 91 55 92 56 93 57 94 58 95
REMARK H PARENT 8 16 80 48 48 59
REMARK Flexibility Score: inf
ROOT
ATOM      1  O   UNL A   1      36.758  22.469  26.119  1.00  0.00    -0.374 OA
ENDROOT
BRANCH   1   2
ATOM      2  C   UNL A   1      36.306  23.731  25.672  1.00  0.00     0.202 C 
BRANCH   2   3
ATOM      3  C   UNL A   1      35.710  23.841  24.270  1.00  0.00     0.261 C 
BRANCH   3   4
ATOM      4  O   UNL A   1      34.325  24.228  24.235  1.00  0.00    -0.463 OA
BRANCH   4   5
ATOM      5  C   UNL A   1      33.881  24.854  25.361  1.00  0.00     0.310 C 
ATOM      6  O   UNL A   1      34.056  26.045  25.589  1.00  0.00    -0.252 OA
BRANCH   5   7
ATOM      7  C   UNL A   1      33.129  23.896  26.280  1.00  0.00     0.119 C 
ATOM      8  C   UNL A   1      32.844  22.468  25.648  1.00  0.00     0.100 C 
ATOM      9  C   UNL A   1      31.282  22.468  25.650  1.00  0.00     0.025 C 
ATOM     10  C   UNL A   1      31.702  24.478  26.541  1.00  0.00     0.027 C 
ATOM     11  C   UNL A   1      30.786  23.507  24.667  1.00  0.00    -0.027 C 
ATOM     12  C   UNL A   1      30.930  23.231  26.946  1.00  0.00     0.017 C 
ATOM     13  C   UNL A   1      30.988  24.709  25.226  1.00  0.00    -0.027 C 
BRANCH   8  14
ATOM     14  C   UNL A   1      33.298  21.295  26.537  1.00  0.00     0.228 C 
ATOM     15  N   UNL A   1      33.357  19.981  26.211  1.00  0.00    -0.326 N 
ATOM     16  H   UNL A   1      33.739  19.456  26.951  1.00  0.00     0.169 HD
ATOM     17  O   UNL A   1      33.723  21.516  27.682  1.00  0.00    -0.274 OA
BRANCH  15  18
ATOM     18  C   UNL A   1      33.032  19.150  25.132  1.00  0.00     0.044 A 
ATOM     19  C   UNL A   1      33.359  16.909  24.235  1.00  0.00     0.120 A 
ATOM     20  C   UNL A   1      32.931  17.342  22.987  1.00  0.00     0.046 A 
ATOM     21  C   UNL A   1      33.344  17.787  25.321  1.00  0.00     0.072 A 
ATOM     22  C   UNL A   1      32.470  18.654  22.834  1.00  0.00     0.006 A 
ATOM     23  C   UNL A   1      32.543  19.569  23.899  1.00  0.00     0.026 A 
BRANCH  19  24
ATOM     24  O   UNL A   1      34.103  15.762  24.314  1.00  0.00    -0.497 OA
ATOM     25  C   UNL A   1      35.153  15.848  25.263  1.00  0.00     0.278 C 
ENDBRANCH  19  24
ENDBRANCH  15  18
ENDBRANCH   8  14
ENDBRANCH   5   7
ENDBRANCH   4   5
ENDBRANCH   3   4
ENDBRANCH   2   3
ENDBRANCH   1   2
BRANCH   1  26
ATOM     26  C   UNL A   1      36.964  21.401  25.212  1.00  0.00     0.202 C 
BRANCH  26  27
ATOM     27  C   UNL A   1      38.150  20.434  25.315  1.00  0.00     0.261 C 
BRANCH  27  28
ATOM     28  O   UNL A   1      39.437  20.992  25.388  1.00  0.00    -0.460 OA
BRANCH  28  29
ATOM     29  C   UNL A   1      40.041  20.830  26.584  1.00  0.00     0.338 C 
ATOM     30  O   UNL A   1      40.258  19.811  27.210  1.00  0.00    -0.246 OA
BRANCH  29  31
ATOM     31  C   UNL A   1      40.538  22.163  26.887  1.00  0.00     0.060 A 
ATOM     32  C   UNL A   1      40.038  23.224  26.134  1.00  0.00     0.016 A 
ATOM     33  C   UNL A   1      41.359  22.350  28.004  1.00  0.00     0.016 A 
ATOM     34  C   UNL A   1      40.382  24.512  26.494  1.00  0.00     0.010 A 
ATOM     35  C   UNL A   1      41.697  23.641  28.366  1.00  0.00     0.010 A 
ATOM     36  C   UNL A   1      41.225  24.716  27.596  1.00  0.00    -0.014 A 
BRANCH  36  37
ATOM     37  C   UNL A   1      41.720  26.068  27.871  1.00  0.00     0.031 A 
ATOM     38  C   UNL A   1      43.095  26.418  27.400  1.00  0.00     0.074 A 
ATOM     39  C   UNL A   1      40.934  26.933  28.532  1.00  0.00     0.049 A 
ATOM     40  N   UNL A   1      43.746  27.539  27.532  1.00  0.00    -0.248 NA
ATOM     41  C   UNL A   1      43.842  25.363  26.689  1.00  0.00     0.031 C 
ATOM     42  C   UNL A   1      39.588  26.641  29.028  1.00  0.00     0.029 A 
ATOM     43  N   UNL A   1      41.163  28.224  28.913  1.00  0.00    -0.354 N 
ATOM     44  C   UNL A   1      44.988  27.316  26.955  1.00  0.00     0.074 A 
ATOM     45  C   UNL A   1      45.009  25.952  26.481  1.00  0.00     0.031 C 
ATOM     46  C   UNL A   1      39.115  27.725  29.666  1.00  0.00     0.029 A 
ATOM     47  C   UNL A   1      40.136  28.766  29.646  1.00  0.00     0.049 A 
ATOM     48  H   UNL A   1      41.985  28.717  28.685  1.00  0.00     0.167 HD
ATOM     49  C   UNL A   1      46.012  28.187  26.828  1.00  0.00     0.034 A 
ATOM     50  C   UNL A   1      40.055  29.968  30.245  1.00  0.00     0.034 A 
ATOM     51  C   UNL A   1      45.950  29.540  27.303  1.00  0.00     0.049 A 
ATOM     52  C   UNL A   1      41.216  30.913  30.088  1.00  0.00     0.074 A 
ATOM     53  C   UNL A   1      46.900  30.537  27.187  1.00  0.00     0.029 A 
ATOM     54  N   UNL A   1      44.879  30.080  28.000  1.00  0.00    -0.354 N 
ATOM     55  N   UNL A   1      42.340  30.737  29.434  1.00  0.00    -0.248 NA
ATOM     56  C   UNL A   1      41.086  32.231  30.719  1.00  0.00     0.031 C 
ATOM     57  C   UNL A   1      46.418  31.669  27.852  1.00  0.00     0.029 A 
ATOM     58  C   UNL A   1      45.148  31.391  28.338  1.00  0.00     0.049 A 
ATOM     59  H   UNL A   1      44.049  29.598  28.221  1.00  0.00     0.167 HD
ATOM     60  C   UNL A   1      43.035  31.935  29.541  1.00  0.00     0.074 A 
ATOM     61  C   UNL A   1      42.193  32.833  30.306  1.00  0.00     0.031 C 
ATOM     62  C   UNL A   1      44.260  32.266  29.062  1.00  0.00     0.034 A 
BRANCH  49  63
ATOM     63  C   UNL A   1      47.268  27.706  26.155  1.00  0.00     0.023 A 
ATOM     64  C   UNL A   1      48.235  26.992  26.892  1.00  0.00     0.012 A 
ATOM     65  C   UNL A   1      47.468  27.923  24.779  1.00  0.00     0.148 A 
ATOM     66  C   UNL A   1      49.393  26.523  26.274  1.00  0.00     0.002 A 
ATOM     67  C   UNL A   1      48.600  27.410  24.159  1.00  0.00     0.091 A 
ATOM     68  F   UNL A   1      46.551  28.631  24.104  1.00  0.00    -0.205 F 
ATOM     69  C   UNL A   1      49.569  26.720  24.906  1.00  0.00     0.022 A 
BRANCH  67  70
ATOM     70  S   UNL A   1      48.882  27.544  22.391  1.00  0.00     0.127 S 
ATOM     71  O   UNL A   1      49.309  26.186  22.057  1.00  0.00    -0.237 OA
ATOM     72  O   UNL A   1      47.553  27.905  21.899  1.00  0.00    -0.237 OA
ATOM     73  O   UNL A   1      49.898  28.572  22.220  1.00  0.00    -0.744 OA
ENDBRANCH  67  70
ENDBRANCH  49  63
BRANCH  50  74
ATOM     74  C   UNL A   1      38.835  30.349  31.008  1.00  0.00     0.023 A 
ATOM     75  C   UNL A   1      38.729  30.005  32.370  1.00  0.00     0.012 A 
ATOM     76  C   UNL A   1      37.785  31.062  30.398  1.00  0.00     0.148 A 
ATOM     77  C   UNL A   1      37.582  30.326  33.098  1.00  0.00     0.002 A 
ATOM     78  C   UNL A   1      36.670  31.428  31.143  1.00  0.00     0.091 A 
ATOM     79  F   UNL A   1      37.899  31.374  29.099  1.00  0.00    -0.205 F 
ATOM     80  C   UNL A   1      36.557  31.044  32.488  1.00  0.00     0.022 A 
BRANCH  78  81
ATOM     81  S   UNL A   1      35.363  32.461  30.473  1.00  0.00     0.127 S 
ATOM     82  O   UNL A   1      34.413  32.497  31.581  1.00  0.00    -0.237 OA
ATOM     83  O   UNL A   1      36.070  33.719  30.225  1.00  0.00    -0.237 OA
ATOM     84  O   UNL A   1      34.907  31.784  29.267  1.00  0.00    -0.744 OA
ENDBRANCH  78  81
ENDBRANCH  50  74
BRANCH  62  85
ATOM     85  C   UNL A   1      44.737  33.671  29.306  1.00  0.00     0.023 A 
ATOM     86  C   UNL A   1      45.264  34.029  30.562  1.00  0.00     0.012 A 
ATOM     87  C   UNL A   1      44.731  34.613  28.258  1.00  0.00     0.148 A 
ATOM     88  C   UNL A   1      45.743  35.318  30.783  1.00  0.00     0.002 A 
ATOM     89  C   UNL A   1      45.265  35.875  28.469  1.00  0.00     0.091 A 
ATOM     90  F   UNL A   1      44.211  34.251  27.077  1.00  0.00    -0.205 F 
ATOM     91  C   UNL A   1      45.756  36.237  29.734  1.00  0.00     0.022 A 
BRANCH  89  92
ATOM     92  S   UNL A   1      45.423  37.082  27.149  1.00  0.00     0.127 S 
ATOM     93  O   UNL A   1      44.038  37.516  26.976  1.00  0.00    -0.237 OA
ATOM     94  O   UNL A   1      46.306  38.082  27.751  1.00  0.00    -0.237 OA
ATOM     95  O   UNL A   1      45.999  36.370  26.017  1.00  0.00    -0.744 OA
ENDBRANCH  89  92
ENDBRANCH  62  85
ENDBRANCH  36  37
ENDBRANCH  29  31
ENDBRANCH  28  29
ENDBRANCH  27  28
ENDBRANCH  26  27
ENDBRANCH   1  26
TORSDOF 20
ENDMDL
