MODEL 1
REMARK VINA RESULT:     -12.4      0.000      0.000
REMARK SMILES O=C1O[C@@H](c2ccc(O)c(O)c2)[C@H](C(=O)OCCOCCOC(=O)c2ccc(-c3c4nc(c(-c5cccc(S(=O)(=O)[O-])c5F)c5ccc([nH]5)c(-c5cccc(S(=O)(=O)[O-])c5F)c5nc(c(-c6cccc(S(=O)(=O)[O-])c6F)c6ccc3[nH]6)C=C5)C=C4)cc2)/C1=C\c1ccc(O)c(O)c1
REMARK SMILES IDX 20 1 19 2 18 3 17 4 16 5 14 6 15 7 13 8 1 9 2 10 3 11 88 12
REMARK SMILES IDX 4 13 89 14 5 15 6 16 12 17 7 18 10 19 8 20 11 21 9 23 90 25
REMARK SMILES IDX 91 26 97 27 92 28 95 29 93 30 96 31 94 33 21 35 22 36 23 37
REMARK SMILES IDX 24 38 25 39 26 40 87 41 27 42 86 43 28 44 29 45 30 46 80 47
REMARK SMILES IDX 31 48 85 49 79 50 81 51 32 52 84 53 78 54 77 55 33 57 65 58
REMARK SMILES IDX 45 59 64 60 46 61 49 62 63 63 82 64 47 65 48 66 62 68 83 69
REMARK SMILES IDX 50 70 34 71 35 72 43 73 36 74 38 75 44 76 37 77 39 78 40 79
REMARK SMILES IDX 41 80 42 81 66 82 67 83 75 84 68 85 70 86 76 87 69 88 71 89
REMARK SMILES IDX 72 90 73 91 74 92 51 93 52 94 60 95 53 96 55 97 61 98 54 99
REMARK SMILES IDX 56 100 57 101 58 102 59 103
REMARK H PARENT 11 22 9 24 96 32 94 34 81 56 49 67
REMARK Flexibility Score: inf
ROOT
ATOM      1  C   UNL A   1      31.809  28.649  27.160  1.00  0.00     0.202 C 
ENDROOT
BRANCH   1   2
ATOM      2  O   UNL A   1      32.355  27.368  26.873  1.00  0.00    -0.374 OA
BRANCH   2   3
ATOM      3  C   UNL A   1      33.262  27.238  25.783  1.00  0.00     0.202 C 
BRANCH   3   4
ATOM      4  C   UNL A   1      32.945  26.214  24.693  1.00  0.00     0.261 C 
BRANCH   4   5
ATOM      5  O   UNL A   1      33.729  25.021  24.864  1.00  0.00    -0.463 OA
BRANCH   5   6
ATOM      6  C   UNL A   1      33.091  23.994  25.496  1.00  0.00     0.317 C 
ATOM      7  O   UNL A   1      32.231  24.126  26.355  1.00  0.00    -0.251 OA
BRANCH   6   8
ATOM      8  C   UNL A   1      33.558  22.667  24.918  1.00  0.00     0.182 C 
ATOM      9  O   UNL A   1      33.642  23.434  21.457  1.00  0.00    -0.247 OA
ATOM     10  C   UNL A   1      33.411  23.013  22.578  1.00  0.00     0.335 C 
ATOM     11  O   UNL A   1      32.219  22.515  23.009  1.00  0.00    -0.453 OA
ATOM     12  C   UNL A   1      34.370  22.938  23.701  1.00  0.00     0.056 C 
ATOM     13  C   UNL A   1      32.353  21.956  24.333  1.00  0.00     0.226 C 
ATOM     14  C   UNL A   1      35.687  23.107  23.501  1.00  0.00     0.020 C 
BRANCH  13  15
ATOM     15  C   UNL A   1      32.478  20.437  24.285  1.00  0.00    -0.002 A 
ATOM     16  C   UNL A   1      32.855  19.713  25.435  1.00  0.00     0.012 A 
ATOM     17  C   UNL A   1      32.153  19.717  23.122  1.00  0.00     0.057 A 
ATOM     18  C   UNL A   1      32.927  18.313  25.419  1.00  0.00     0.050 A 
ATOM     19  C   UNL A   1      32.226  18.331  23.116  1.00  0.00     0.157 A 
ATOM     20  C   UNL A   1      32.608  17.630  24.254  1.00  0.00     0.157 A 
BRANCH  19  21
ATOM     21  O   UNL A   1      31.893  17.653  21.977  1.00  0.00    -0.504 OA
ATOM     22  H   UNL A   1      31.094  17.850  21.531  1.00  0.00     0.293 HD
ENDBRANCH  19  21
BRANCH  20  23
ATOM     23  O   UNL A   1      32.639  16.265  24.180  1.00  0.00    -0.504 OA
ATOM     24  H   UNL A   1      32.185  15.751  24.819  1.00  0.00     0.293 HD
ENDBRANCH  20  23
ENDBRANCH  13  15
BRANCH  14  25
ATOM     25  C   UNL A   1      36.741  23.018  24.517  1.00  0.00    -0.021 A 
ATOM     26  C   UNL A   1      36.969  24.075  25.413  1.00  0.00     0.012 A 
ATOM     27  C   UNL A   1      37.487  21.838  24.645  1.00  0.00     0.058 A 
ATOM     28  C   UNL A   1      37.946  23.970  26.413  1.00  0.00     0.051 A 
ATOM     29  C   UNL A   1      38.460  21.746  25.636  1.00  0.00     0.157 A 
ATOM     30  C   UNL A   1      38.697  22.806  26.508  1.00  0.00     0.157 A 
BRANCH  29  31
ATOM     31  O   UNL A   1      39.215  20.612  25.726  1.00  0.00    -0.504 OA
ATOM     32  H   UNL A   1      39.689  20.303  24.979  1.00  0.00     0.293 HD
ENDBRANCH  29  31
BRANCH  30  33
ATOM     33  O   UNL A   1      39.697  22.660  27.428  1.00  0.00    -0.504 OA
ATOM     34  H   UNL A   1      40.016  21.805  27.642  1.00  0.00     0.293 HD
ENDBRANCH  30  33
ENDBRANCH  14  25
ENDBRANCH   6   8
ENDBRANCH   5   6
ENDBRANCH   4   5
ENDBRANCH   3   4
ENDBRANCH   2   3
ENDBRANCH   1   2
BRANCH   1  35
ATOM     35  C   UNL A   1      31.918  29.770  26.116  1.00  0.00     0.261 C 
BRANCH  35  36
ATOM     36  O   UNL A   1      33.213  30.368  26.036  1.00  0.00    -0.460 OA
BRANCH  36  37
ATOM     37  C   UNL A   1      33.467  31.248  27.038  1.00  0.00     0.338 C 
ATOM     38  O   UNL A   1      32.699  32.053  27.534  1.00  0.00    -0.246 OA
BRANCH  37  39
ATOM     39  C   UNL A   1      34.801  30.965  27.585  1.00  0.00     0.060 A 
ATOM     40  C   UNL A   1      35.131  29.628  27.836  1.00  0.00     0.016 A 
ATOM     41  C   UNL A   1      35.691  31.998  27.879  1.00  0.00     0.016 A 
ATOM     42  C   UNL A   1      36.354  29.316  28.418  1.00  0.00     0.010 A 
ATOM     43  C   UNL A   1      36.910  31.685  28.477  1.00  0.00     0.010 A 
ATOM     44  C   UNL A   1      37.230  30.346  28.777  1.00  0.00    -0.014 A 
BRANCH  44  45
ATOM     45  C   UNL A   1      38.413  30.049  29.609  1.00  0.00     0.031 A 
ATOM     46  C   UNL A   1      39.475  29.147  29.048  1.00  0.00     0.074 A 
ATOM     47  C   UNL A   1      38.522  30.555  30.849  1.00  0.00     0.049 A 
ATOM     48  N   UNL A   1      40.539  28.665  29.629  1.00  0.00    -0.248 NA
ATOM     49  C   UNL A   1      39.307  28.724  27.647  1.00  0.00     0.031 C 
ATOM     50  C   UNL A   1      37.557  31.455  31.480  1.00  0.00     0.029 A 
ATOM     51  N   UNL A   1      39.477  30.353  31.811  1.00  0.00    -0.354 N 
ATOM     52  C   UNL A   1      41.147  27.850  28.682  1.00  0.00     0.074 A 
ATOM     53  C   UNL A   1      40.330  27.898  27.490  1.00  0.00     0.031 C 
ATOM     54  C   UNL A   1      37.950  31.697  32.742  1.00  0.00     0.029 A 
ATOM     55  C   UNL A   1      39.171  30.940  33.015  1.00  0.00     0.049 A 
ATOM     56  H   UNL A   1      40.301  29.837  31.654  1.00  0.00     0.167 HD
ATOM     57  C   UNL A   1      42.288  27.132  28.797  1.00  0.00     0.034 A 
ATOM     58  C   UNL A   1      39.784  30.841  34.209  1.00  0.00     0.034 A 
ATOM     59  C   UNL A   1      43.099  27.108  29.983  1.00  0.00     0.049 A 
ATOM     60  C   UNL A   1      41.033  30.006  34.322  1.00  0.00     0.074 A 
ATOM     61  C   UNL A   1      44.300  26.455  30.188  1.00  0.00     0.029 A 
ATOM     62  N   UNL A   1      42.782  27.749  31.171  1.00  0.00    -0.354 N 
ATOM     63  N   UNL A   1      41.653  29.319  33.393  1.00  0.00    -0.248 NA
ATOM     64  C   UNL A   1      41.683  29.953  35.640  1.00  0.00     0.031 C 
ATOM     65  C   UNL A   1      44.688  26.666  31.515  1.00  0.00     0.029 A 
ATOM     66  C   UNL A   1      43.754  27.491  32.120  1.00  0.00     0.049 A 
ATOM     67  H   UNL A   1      41.983  28.305  31.316  1.00  0.00     0.167 HD
ATOM     68  C   UNL A   1      42.787  28.790  34.000  1.00  0.00     0.074 A 
ATOM     69  C   UNL A   1      42.771  29.242  35.375  1.00  0.00     0.031 C 
ATOM     70  C   UNL A   1      43.749  27.996  33.469  1.00  0.00     0.034 A 
BRANCH  57  71
ATOM     71  C   UNL A   1      42.728  26.318  27.611  1.00  0.00     0.023 A 
ATOM     72  C   UNL A   1      43.372  26.943  26.525  1.00  0.00     0.012 A 
ATOM     73  C   UNL A   1      42.550  24.921  27.598  1.00  0.00     0.148 A 
ATOM     74  C   UNL A   1      43.804  26.194  25.429  1.00  0.00     0.002 A 
ATOM     75  C   UNL A   1      43.025  24.176  26.526  1.00  0.00     0.091 A 
ATOM     76  F   UNL A   1      41.912  24.349  28.630  1.00  0.00    -0.205 F 
ATOM     77  C   UNL A   1      43.641  24.812  25.436  1.00  0.00     0.022 A 
BRANCH  75  78
ATOM     78  S   UNL A   1      42.933  22.384  26.477  1.00  0.00     0.127 S 
ATOM     79  O   UNL A   1      41.956  22.168  25.410  1.00  0.00    -0.237 OA
ATOM     80  O   UNL A   1      44.306  22.016  26.131  1.00  0.00    -0.237 OA
ATOM     81  O   UNL A   1      42.507  21.964  27.804  1.00  0.00    -0.744 OA
ENDBRANCH  75  78
ENDBRANCH  57  71
BRANCH  58  82
ATOM     82  C   UNL A   1      39.233  31.558  35.392  1.00  0.00     0.023 A 
ATOM     83  C   UNL A   1      38.316  30.907  36.239  1.00  0.00     0.012 A 
ATOM     84  C   UNL A   1      39.628  32.876  35.690  1.00  0.00     0.148 A 
ATOM     85  C   UNL A   1      37.778  31.567  37.344  1.00  0.00     0.002 A 
ATOM     86  C   UNL A   1      39.132  33.508  36.823  1.00  0.00     0.091 A 
ATOM     87  F   UNL A   1      40.493  33.482  34.865  1.00  0.00    -0.205 F 
ATOM     88  C   UNL A   1      38.193  32.863  37.642  1.00  0.00     0.022 A 
BRANCH  86  89
ATOM     89  S   UNL A   1      39.707  35.125  37.354  1.00  0.00     0.127 S 
ATOM     90  O   UNL A   1      38.947  35.322  38.586  1.00  0.00    -0.237 OA
ATOM     91  O   UNL A   1      41.138  34.885  37.542  1.00  0.00    -0.237 OA
ATOM     92  O   UNL A   1      39.388  36.035  36.262  1.00  0.00    -0.744 OA
ENDBRANCH  86  89
ENDBRANCH  58  82
BRANCH  70  93
ATOM     93  C   UNL A   1      44.907  27.607  34.350  1.00  0.00     0.023 A 
ATOM     94  C   UNL A   1      46.034  28.445  34.450  1.00  0.00     0.012 A 
ATOM     95  C   UNL A   1      44.823  26.457  35.161  1.00  0.00     0.148 A 
ATOM     96  C   UNL A   1      47.072  28.131  35.326  1.00  0.00     0.002 A 
ATOM     97  C   UNL A   1      45.835  26.181  36.071  1.00  0.00     0.091 A 
ATOM     98  F   UNL A   1      43.746  25.668  35.038  1.00  0.00    -0.205 F 
ATOM     99  C   UNL A   1      46.966  27.009  36.146  1.00  0.00     0.022 A 
BRANCH  97 100
ATOM    100  S   UNL A   1      45.737  24.820  37.239  1.00  0.00     0.127 S 
ATOM    101  O   UNL A   1      46.958  25.011  38.020  1.00  0.00    -0.237 OA
ATOM    102  O   UNL A   1      44.499  25.121  37.958  1.00  0.00    -0.237 OA
ATOM    103  O   UNL A   1      45.695  23.602  36.442  1.00  0.00    -0.744 OA
ENDBRANCH  97 100
ENDBRANCH  70  93
ENDBRANCH  44  45
ENDBRANCH  37  39
ENDBRANCH  36  37
ENDBRANCH  35  36
ENDBRANCH   1  35
TORSDOF 23
ENDMDL
MODEL 2
REMARK VINA RESULT:     -11.7      2.961      4.797
REMARK SMILES O=C1O[C@@H](c2ccc(O)c(O)c2)[C@H](C(=O)OCCOCCOC(=O)c2ccc(-c3c4nc(c(-c5cccc(S(=O)(=O)[O-])c5F)c5ccc([nH]5)c(-c5cccc(S(=O)(=O)[O-])c5F)c5nc(c(-c6cccc(S(=O)(=O)[O-])c6F)c6ccc3[nH]6)C=C5)C=C4)cc2)/C1=C\c1ccc(O)c(O)c1
REMARK SMILES IDX 20 1 19 2 18 3 17 4 16 5 14 6 15 7 13 8 1 9 2 10 3 11 88 12
REMARK SMILES IDX 4 13 89 14 5 15 6 16 12 17 7 18 10 19 8 20 11 21 9 23 90 25
REMARK SMILES IDX 91 26 97 27 92 28 95 29 93 30 96 31 94 33 21 35 22 36 23 37
REMARK SMILES IDX 24 38 25 39 26 40 87 41 27 42 86 43 28 44 29 45 30 46 80 47
REMARK SMILES IDX 31 48 85 49 79 50 81 51 32 52 84 53 78 54 77 55 33 57 65 58
REMARK SMILES IDX 45 59 64 60 46 61 49 62 63 63 82 64 47 65 48 66 62 68 83 69
REMARK SMILES IDX 50 70 34 71 35 72 43 73 36 74 38 75 44 76 37 77 39 78 40 79
REMARK SMILES IDX 41 80 42 81 66 82 67 83 75 84 68 85 70 86 76 87 69 88 71 89
REMARK SMILES IDX 72 90 73 91 74 92 51 93 52 94 60 95 53 96 55 97 61 98 54 99
REMARK SMILES IDX 56 100 57 101 58 102 59 103
REMARK H PARENT 11 22 9 24 96 32 94 34 81 56 49 67
REMARK Flexibility Score: inf
ROOT
ATOM      1  C   UNL A   1      31.680  30.910  26.293  1.00  0.00     0.202 C 
ENDROOT
BRANCH   1   2
ATOM      2  O   UNL A   1      31.499  29.776  27.132  1.00  0.00    -0.374 OA
BRANCH   2   3
ATOM      3  C   UNL A   1      32.636  28.997  27.487  1.00  0.00     0.202 C 
BRANCH   3   4
ATOM      4  C   UNL A   1      32.848  27.657  26.780  1.00  0.00     0.261 C 
BRANCH   4   5
ATOM      5  O   UNL A   1      34.040  27.681  25.978  1.00  0.00    -0.463 OA
BRANCH   5   6
ATOM      6  C   UNL A   1      33.847  27.987  24.663  1.00  0.00     0.317 C 
ATOM      7  O   UNL A   1      34.651  28.577  23.955  1.00  0.00    -0.251 OA
BRANCH   6   8
ATOM      8  C   UNL A   1      32.516  27.420  24.194  1.00  0.00     0.182 C 
ATOM      9  O   UNL A   1      33.367  26.321  20.931  1.00  0.00    -0.247 OA
ATOM     10  C   UNL A   1      32.928  26.878  21.924  1.00  0.00     0.335 C 
ATOM     11  O   UNL A   1      32.472  28.159  21.978  1.00  0.00    -0.453 OA
ATOM     12  C   UNL A   1      32.782  26.284  23.270  1.00  0.00     0.056 C 
ATOM     13  C   UNL A   1      31.874  28.431  23.263  1.00  0.00     0.226 C 
ATOM     14  C   UNL A   1      32.898  24.960  23.461  1.00  0.00     0.020 C 
BRANCH  13  15
ATOM     15  C   UNL A   1      30.352  28.350  23.196  1.00  0.00    -0.002 A 
ATOM     16  C   UNL A   1      29.666  27.269  23.789  1.00  0.00     0.012 A 
ATOM     17  C   UNL A   1      29.595  29.378  22.609  1.00  0.00     0.057 A 
ATOM     18  C   UNL A   1      28.266  27.206  23.778  1.00  0.00     0.050 A 
ATOM     19  C   UNL A   1      28.208  29.307  22.603  1.00  0.00     0.157 A 
ATOM     20  C   UNL A   1      27.544  28.232  23.183  1.00  0.00     0.157 A 
BRANCH  19  21
ATOM     21  O   UNL A   1      27.493  30.325  22.038  1.00  0.00    -0.504 OA
ATOM     22  H   UNL A   1      26.638  30.531  22.358  1.00  0.00     0.293 HD
ENDBRANCH  19  21
BRANCH  20  23
ATOM     23  O   UNL A   1      26.177  28.239  23.158  1.00  0.00    -0.504 OA
ATOM     24  H   UNL A   1      25.724  28.630  22.436  1.00  0.00     0.293 HD
ENDBRANCH  20  23
ENDBRANCH  13  15
BRANCH  14  25
ATOM     25  C   UNL A   1      32.738  24.245  24.731  1.00  0.00    -0.021 A 
ATOM     26  C   UNL A   1      33.833  23.620  25.350  1.00  0.00     0.012 A 
ATOM     27  C   UNL A   1      31.493  24.242  25.375  1.00  0.00     0.058 A 
ATOM     28  C   UNL A   1      33.687  22.977  26.586  1.00  0.00     0.051 A 
ATOM     29  C   UNL A   1      31.356  23.594  26.599  1.00  0.00     0.157 A 
ATOM     30  C   UNL A   1      32.440  22.957  27.198  1.00  0.00     0.157 A 
BRANCH  29  31
ATOM     31  O   UNL A   1      30.131  23.554  27.200  1.00  0.00    -0.504 OA
ATOM     32  H   UNL A   1      29.397  23.978  26.798  1.00  0.00     0.293 HD
ENDBRANCH  29  31
BRANCH  30  33
ATOM     33  O   UNL A   1      32.221  22.305  28.379  1.00  0.00    -0.504 OA
ATOM     34  H   UNL A   1      32.260  22.776  29.189  1.00  0.00     0.293 HD
ENDBRANCH  30  33
ENDBRANCH  14  25
ENDBRANCH   6   8
ENDBRANCH   5   6
ENDBRANCH   4   5
ENDBRANCH   3   4
ENDBRANCH   2   3
ENDBRANCH   1   2
BRANCH   1  35
ATOM     35  C   UNL A   1      31.877  32.295  26.926  1.00  0.00     0.261 C 
BRANCH  35  36
ATOM     36  O   UNL A   1      33.229  32.586  27.284  1.00  0.00    -0.460 OA
BRANCH  36  37
ATOM     37  C   UNL A   1      33.349  33.623  28.151  1.00  0.00     0.338 C 
ATOM     38  O   UNL A   1      32.595  34.569  28.288  1.00  0.00    -0.246 OA
BRANCH  37  39
ATOM     39  C   UNL A   1      34.470  33.347  29.061  1.00  0.00     0.060 A 
ATOM     40  C   UNL A   1      35.707  33.932  28.766  1.00  0.00     0.016 A 
ATOM     41  C   UNL A   1      34.313  32.501  30.158  1.00  0.00     0.016 A 
ATOM     42  C   UNL A   1      36.813  33.645  29.558  1.00  0.00     0.010 A 
ATOM     43  C   UNL A   1      35.426  32.201  30.941  1.00  0.00     0.010 A 
ATOM     44  C   UNL A   1      36.684  32.748  30.623  1.00  0.00    -0.014 A 
BRANCH  44  45
ATOM     45  C   UNL A   1      37.890  32.250  31.315  1.00  0.00     0.031 A 
ATOM     46  C   UNL A   1      38.662  31.124  30.689  1.00  0.00     0.074 A 
ATOM     47  C   UNL A   1      38.270  32.778  32.491  1.00  0.00     0.049 A 
ATOM     48  N   UNL A   1      39.680  30.459  31.162  1.00  0.00    -0.248 NA
ATOM     49  C   UNL A   1      38.218  30.682  29.356  1.00  0.00     0.031 C 
ATOM     50  C   UNL A   1      37.601  33.884  33.174  1.00  0.00     0.029 A 
ATOM     51  N   UNL A   1      39.291  32.426  33.334  1.00  0.00    -0.354 N 
ATOM     52  C   UNL A   1      39.975  29.494  30.207  1.00  0.00     0.074 A 
ATOM     53  C   UNL A   1      39.025  29.656  29.129  1.00  0.00     0.031 C 
ATOM     54  C   UNL A   1      38.208  34.096  34.354  1.00  0.00     0.029 A 
ATOM     55  C   UNL A   1      39.279  33.117  34.522  1.00  0.00     0.049 A 
ATOM     56  H   UNL A   1      39.966  31.744  33.111  1.00  0.00     0.167 HD
ATOM     57  C   UNL A   1      40.955  28.562  30.226  1.00  0.00     0.034 A 
ATOM     58  C   UNL A   1      40.023  32.946  35.632  1.00  0.00     0.034 A 
ATOM     59  C   UNL A   1      41.903  28.424  31.297  1.00  0.00     0.049 A 
ATOM     60  C   UNL A   1      41.084  31.877  35.644  1.00  0.00     0.074 A 
ATOM     61  C   UNL A   1      42.968  27.547  31.393  1.00  0.00     0.029 A 
ATOM     62  N   UNL A   1      41.890  29.170  32.466  1.00  0.00    -0.354 N 
ATOM     63  N   UNL A   1      41.418  31.037  34.695  1.00  0.00    -0.248 NA
ATOM     64  C   UNL A   1      41.889  31.750  36.868  1.00  0.00     0.031 C 
ATOM     65  C   UNL A   1      43.572  27.732  32.640  1.00  0.00     0.029 A 
ATOM     66  C   UNL A   1      42.915  28.759  33.299  1.00  0.00     0.049 A 
ATOM     67  H   UNL A   1      41.246  29.884  32.672  1.00  0.00     0.167 HD
ATOM     68  C   UNL A   1      42.498  30.312  35.188  1.00  0.00     0.074 A 
ATOM     69  C   UNL A   1      42.766  30.819  36.518  1.00  0.00     0.031 C 
ATOM     70  C   UNL A   1      43.200  29.313  34.597  1.00  0.00     0.034 A 
BRANCH  57  71
ATOM     71  C   UNL A   1      41.054  27.622  29.055  1.00  0.00     0.023 A 
ATOM     72  C   UNL A   1      40.191  26.512  28.967  1.00  0.00     0.012 A 
ATOM     73  C   UNL A   1      41.969  27.871  28.014  1.00  0.00     0.148 A 
ATOM     74  C   UNL A   1      40.260  25.645  27.876  1.00  0.00     0.002 A 
ATOM     75  C   UNL A   1      41.999  27.032  26.908  1.00  0.00     0.091 A 
ATOM     76  F   UNL A   1      42.798  28.919  28.130  1.00  0.00    -0.205 F 
ATOM     77  C   UNL A   1      41.153  25.913  26.843  1.00  0.00     0.022 A 
BRANCH  75  78
ATOM     78  S   UNL A   1      43.059  27.335  25.491  1.00  0.00     0.127 S 
ATOM     79  O   UNL A   1      43.169  25.996  24.913  1.00  0.00    -0.237 OA
ATOM     80  O   UNL A   1      42.259  28.275  24.706  1.00  0.00    -0.237 OA
ATOM     81  O   UNL A   1      44.297  27.886  26.023  1.00  0.00    -0.744 OA
ENDBRANCH  75  78
ENDBRANCH  57  71
BRANCH  58  82
ATOM     82  C   UNL A   1      39.796  33.814  36.821  1.00  0.00     0.023 A 
ATOM     83  C   UNL A   1      40.217  35.158  36.795  1.00  0.00     0.012 A 
ATOM     84  C   UNL A   1      39.148  33.319  37.968  1.00  0.00     0.148 A 
ATOM     85  C   UNL A   1      40.026  35.983  37.903  1.00  0.00     0.002 A 
ATOM     86  C   UNL A   1      38.909  34.161  39.046  1.00  0.00     0.091 A 
ATOM     87  F   UNL A   1      38.765  32.034  37.976  1.00  0.00    -0.205 F 
ATOM     88  C   UNL A   1      39.363  35.488  39.024  1.00  0.00     0.022 A 
BRANCH  86  89
ATOM     89  S   UNL A   1      37.952  33.646  40.477  1.00  0.00     0.127 S 
ATOM     90  O   UNL A   1      37.625  34.930  41.094  1.00  0.00    -0.237 OA
ATOM     91  O   UNL A   1      36.825  32.957  39.849  1.00  0.00    -0.237 OA
ATOM     92  O   UNL A   1      38.832  32.780  41.250  1.00  0.00    -0.744 OA
ENDBRANCH  86  89
ENDBRANCH  58  82
BRANCH  70  93
ATOM     93  C   UNL A   1      44.369  28.734  35.348  1.00  0.00     0.023 A 
ATOM     94  C   UNL A   1      45.648  29.309  35.222  1.00  0.00     0.012 A 
ATOM     95  C   UNL A   1      44.170  27.679  36.263  1.00  0.00     0.148 A 
ATOM     96  C   UNL A   1      46.717  28.829  35.978  1.00  0.00     0.002 A 
ATOM     97  C   UNL A   1      45.226  27.243  37.051  1.00  0.00     0.091 A 
ATOM     98  F   UNL A   1      42.946  27.139  36.354  1.00  0.00    -0.205 F 
ATOM     99  C   UNL A   1      46.503  27.807  36.901  1.00  0.00     0.022 A 
BRANCH  97 100
ATOM    100  S   UNL A   1      45.022  26.008  38.339  1.00  0.00     0.127 S 
ATOM    101  O   UNL A   1      44.139  26.700  39.277  1.00  0.00    -0.237 OA
ATOM    102  O   UNL A   1      44.395  24.905  37.611  1.00  0.00    -0.237 OA
ATOM    103  O   UNL A   1      46.359  25.722  38.843  1.00  0.00    -0.744 OA
ENDBRANCH  97 100
ENDBRANCH  70  93
ENDBRANCH  44  45
ENDBRANCH  37  39
ENDBRANCH  36  37
ENDBRANCH  35  36
ENDBRANCH   1  35
TORSDOF 23
ENDMDL
MODEL 3
REMARK VINA RESULT:     -11.7      5.046      9.919
REMARK SMILES O=C1O[C@@H](c2ccc(O)c(O)c2)[C@H](C(=O)OCCOCCOC(=O)c2ccc(-c3c4nc(c(-c5cccc(S(=O)(=O)[O-])c5F)c5ccc([nH]5)c(-c5cccc(S(=O)(=O)[O-])c5F)c5nc(c(-c6cccc(S(=O)(=O)[O-])c6F)c6ccc3[nH]6)C=C5)C=C4)cc2)/C1=C\c1ccc(O)c(O)c1
REMARK SMILES IDX 20 1 19 2 18 3 17 4 16 5 14 6 15 7 13 8 1 9 2 10 3 11 88 12
REMARK SMILES IDX 4 13 89 14 5 15 6 16 12 17 7 18 10 19 8 20 11 21 9 23 90 25
REMARK SMILES IDX 91 26 97 27 92 28 95 29 93 30 96 31 94 33 21 35 22 36 23 37
REMARK SMILES IDX 24 38 25 39 26 40 87 41 27 42 86 43 28 44 29 45 30 46 80 47
REMARK SMILES IDX 31 48 85 49 79 50 81 51 32 52 84 53 78 54 77 55 33 57 65 58
REMARK SMILES IDX 45 59 64 60 46 61 49 62 63 63 82 64 47 65 48 66 62 68 83 69
REMARK SMILES IDX 50 70 34 71 35 72 43 73 36 74 38 75 44 76 37 77 39 78 40 79
REMARK SMILES IDX 41 80 42 81 66 82 67 83 75 84 68 85 70 86 76 87 69 88 71 89
REMARK SMILES IDX 72 90 73 91 74 92 51 93 52 94 60 95 53 96 55 97 61 98 54 99
REMARK SMILES IDX 56 100 57 101 58 102 59 103
REMARK H PARENT 11 22 9 24 96 32 94 34 81 56 49 67
REMARK Flexibility Score: inf
ROOT
ATOM      1  C   UNL A   1      37.706  20.524  25.218  1.00  0.00     0.202 C 
ENDROOT
BRANCH   1   2
ATOM      2  O   UNL A   1      37.775  21.779  25.883  1.00  0.00    -0.374 OA
BRANCH   2   3
ATOM      3  C   UNL A   1      37.747  22.970  25.105  1.00  0.00     0.202 C 
BRANCH   3   4
ATOM      4  C   UNL A   1      36.387  23.551  24.716  1.00  0.00     0.261 C 
BRANCH   4   5
ATOM      5  O   UNL A   1      35.747  24.166  25.847  1.00  0.00    -0.463 OA
BRANCH   5   6
ATOM      6  C   UNL A   1      34.893  23.358  26.539  1.00  0.00     0.317 C 
ATOM      7  O   UNL A   1      34.932  23.167  27.746  1.00  0.00    -0.251 OA
BRANCH   6   8
ATOM      8  C   UNL A   1      33.844  22.792  25.595  1.00  0.00     0.182 C 
ATOM      9  O   UNL A   1      30.929  23.050  27.597  1.00  0.00    -0.247 OA
ATOM     10  C   UNL A   1      31.896  22.700  26.941  1.00  0.00     0.335 C 
ATOM     11  O   UNL A   1      32.557  21.517  27.070  1.00  0.00    -0.453 OA
ATOM     12  C   UNL A   1      32.548  23.472  25.861  1.00  0.00     0.056 C 
ATOM     13  C   UNL A   1      33.540  21.369  26.025  1.00  0.00     0.226 C 
ATOM     14  C   UNL A   1      31.958  24.555  25.329  1.00  0.00     0.020 C 
BRANCH  13  15
ATOM     15  C   UNL A   1      33.031  20.466  24.906  1.00  0.00    -0.002 A 
ATOM     16  C   UNL A   1      32.634  21.015  23.668  1.00  0.00     0.012 A 
ATOM     17  C   UNL A   1      33.011  19.069  25.052  1.00  0.00     0.057 A 
ATOM     18  C   UNL A   1      32.210  20.194  22.614  1.00  0.00     0.050 A 
ATOM     19  C   UNL A   1      32.589  18.264  24.002  1.00  0.00     0.157 A 
ATOM     20  C   UNL A   1      32.192  18.817  22.790  1.00  0.00     0.157 A 
BRANCH  19  21
ATOM     21  O   UNL A   1      32.591  16.907  24.164  1.00  0.00    -0.504 OA
ATOM     22  H   UNL A   1      32.328  16.351  23.458  1.00  0.00     0.293 HD
ENDBRANCH  19  21
BRANCH  20  23
ATOM     23  O   UNL A   1      31.809  17.962  21.795  1.00  0.00    -0.504 OA
ATOM     24  H   UNL A   1      31.009  18.113  21.330  1.00  0.00     0.293 HD
ENDBRANCH  20  23
ENDBRANCH  13  15
BRANCH  14  25
ATOM     25  C   UNL A   1      32.477  25.379  24.233  1.00  0.00    -0.021 A 
ATOM     26  C   UNL A   1      32.288  24.999  22.894  1.00  0.00     0.012 A 
ATOM     27  C   UNL A   1      33.110  26.597  24.517  1.00  0.00     0.058 A 
ATOM     28  C   UNL A   1      32.744  25.812  21.847  1.00  0.00     0.051 A 
ATOM     29  C   UNL A   1      33.567  27.393  23.470  1.00  0.00     0.157 A 
ATOM     30  C   UNL A   1      33.396  27.002  22.145  1.00  0.00     0.157 A 
BRANCH  29  31
ATOM     31  O   UNL A   1      34.224  28.556  23.754  1.00  0.00    -0.504 OA
ATOM     32  H   UNL A   1      35.139  28.540  23.955  1.00  0.00     0.293 HD
ENDBRANCH  29  31
BRANCH  30  33
ATOM     33  O   UNL A   1      33.907  27.813  21.172  1.00  0.00    -0.504 OA
ATOM     34  H   UNL A   1      34.683  28.311  21.337  1.00  0.00     0.293 HD
ENDBRANCH  30  33
ENDBRANCH  14  25
ENDBRANCH   6   8
ENDBRANCH   5   6
ENDBRANCH   4   5
ENDBRANCH   3   4
ENDBRANCH   2   3
ENDBRANCH   1   2
BRANCH   1  35
ATOM     35  C   UNL A   1      38.860  19.523  25.369  1.00  0.00     0.261 C 
BRANCH  35  36
ATOM     36  O   UNL A   1      39.643  19.709  26.548  1.00  0.00    -0.460 OA
BRANCH  36  37
ATOM     37  C   UNL A   1      40.946  19.994  26.296  1.00  0.00     0.338 C 
ATOM     38  O   UNL A   1      41.752  19.314  25.686  1.00  0.00    -0.246 OA
BRANCH  37  39
ATOM     39  C   UNL A   1      41.217  21.373  26.724  1.00  0.00     0.060 A 
ATOM     40  C   UNL A   1      41.243  22.368  25.739  1.00  0.00     0.016 A 
ATOM     41  C   UNL A   1      41.478  21.673  28.061  1.00  0.00     0.016 A 
ATOM     42  C   UNL A   1      41.564  23.675  26.086  1.00  0.00     0.010 A 
ATOM     43  C   UNL A   1      41.815  22.980  28.404  1.00  0.00     0.010 A 
ATOM     44  C   UNL A   1      41.890  23.977  27.412  1.00  0.00    -0.014 A 
BRANCH  44  45
ATOM     45  C   UNL A   1      42.463  25.296  27.746  1.00  0.00     0.031 A 
ATOM     46  C   UNL A   1      41.575  26.321  28.391  1.00  0.00     0.074 A 
ATOM     47  C   UNL A   1      43.744  25.578  27.455  1.00  0.00     0.049 A 
ATOM     48  N   UNL A   1      41.826  27.570  28.674  1.00  0.00    -0.248 NA
ATOM     49  C   UNL A   1      40.217  25.880  28.754  1.00  0.00     0.031 C 
ATOM     50  C   UNL A   1      44.696  24.649  26.847  1.00  0.00     0.029 A 
ATOM     51  N   UNL A   1      44.453  26.742  27.600  1.00  0.00    -0.354 N 
ATOM     52  C   UNL A   1      40.649  28.077  29.210  1.00  0.00     0.074 A 
ATOM     53  C   UNL A   1      39.681  27.003  29.208  1.00  0.00     0.031 C 
ATOM     54  C   UNL A   1      45.856  25.292  26.634  1.00  0.00     0.029 A 
ATOM     55  C   UNL A   1      45.713  26.684  27.057  1.00  0.00     0.049 A 
ATOM     56  H   UNL A   1      44.093  27.541  28.049  1.00  0.00     0.167 HD
ATOM     57  C   UNL A   1      40.403  29.325  29.669  1.00  0.00     0.034 A 
ATOM     58  C   UNL A   1      46.629  27.657  26.883  1.00  0.00     0.034 A 
ATOM     59  C   UNL A   1      41.380  30.379  29.681  1.00  0.00     0.049 A 
ATOM     60  C   UNL A   1      46.318  29.048  27.368  1.00  0.00     0.074 A 
ATOM     61  C   UNL A   1      41.250  31.665  30.170  1.00  0.00     0.029 A 
ATOM     62  N   UNL A   1      42.662  30.273  29.161  1.00  0.00    -0.354 N 
ATOM     63  N   UNL A   1      45.237  29.491  27.964  1.00  0.00    -0.248 NA
ATOM     64  C   UNL A   1      47.360  30.068  27.182  1.00  0.00     0.031 C 
ATOM     65  C   UNL A   1      42.440  32.352  29.907  1.00  0.00     0.029 A 
ATOM     66  C   UNL A   1      43.327  31.477  29.300  1.00  0.00     0.049 A 
ATOM     67  H   UNL A   1      43.041  29.461  28.755  1.00  0.00     0.167 HD
ATOM     68  C   UNL A   1      45.486  30.827  28.265  1.00  0.00     0.074 A 
ATOM     69  C   UNL A   1      46.823  31.117  27.791  1.00  0.00     0.031 C 
ATOM     70  C   UNL A   1      44.678  31.732  28.871  1.00  0.00     0.034 A 
BRANCH  57  71
ATOM     71  C   UNL A   1      39.025  29.620  30.199  1.00  0.00     0.023 A 
ATOM     72  C   UNL A   1      38.690  29.279  31.524  1.00  0.00     0.012 A 
ATOM     73  C   UNL A   1      38.079  30.287  29.396  1.00  0.00     0.148 A 
ATOM     74  C   UNL A   1      37.423  29.567  32.032  1.00  0.00     0.002 A 
ATOM     75  C   UNL A   1      36.836  30.613  29.924  1.00  0.00     0.091 A 
ATOM     76  F   UNL A   1      38.409  30.580  28.130  1.00  0.00    -0.205 F 
ATOM     77  C   UNL A   1      36.503  30.244  31.237  1.00  0.00     0.022 A 
BRANCH  75  78
ATOM     78  S   UNL A   1      35.612  31.552  29.006  1.00  0.00     0.127 S 
ATOM     79  O   UNL A   1      34.686  31.946  30.068  1.00  0.00    -0.237 OA
ATOM     80  O   UNL A   1      36.413  32.646  28.458  1.00  0.00    -0.237 OA
ATOM     81  O   UNL A   1      35.065  30.640  28.012  1.00  0.00    -0.744 OA
ENDBRANCH  75  78
ENDBRANCH  57  71
BRANCH  58  82
ATOM     82  C   UNL A   1      47.930  27.346  26.228  1.00  0.00     0.023 A 
ATOM     83  C   UNL A   1      49.006  26.873  27.002  1.00  0.00     0.012 A 
ATOM     84  C   UNL A   1      48.097  27.500  24.838  1.00  0.00     0.148 A 
ATOM     85  C   UNL A   1      50.237  26.590  26.409  1.00  0.00     0.002 A 
ATOM     86  C   UNL A   1      49.307  27.162  24.245  1.00  0.00     0.091 A 
ATOM     87  F   UNL A   1      47.063  27.961  24.121  1.00  0.00    -0.205 F 
ATOM     88  C   UNL A   1      50.384  26.724  25.030  1.00  0.00     0.022 A 
BRANCH  86  89
ATOM     89  S   UNL A   1      49.545  27.180  22.464  1.00  0.00     0.127 S 
ATOM     90  O   UNL A   1      48.569  26.186  22.023  1.00  0.00    -0.237 OA
ATOM     91  O   UNL A   1      49.211  28.565  22.133  1.00  0.00    -0.237 OA
ATOM     92  O   UNL A   1      50.943  26.831  22.251  1.00  0.00    -0.744 OA
ENDBRANCH  86  89
ENDBRANCH  58  82
BRANCH  70  93
ATOM     93  C   UNL A   1      45.228  33.111  29.120  1.00  0.00     0.023 A 
ATOM     94  C   UNL A   1      45.997  33.371  30.271  1.00  0.00     0.012 A 
ATOM     95  C   UNL A   1      45.067  34.123  28.151  1.00  0.00     0.148 A 
ATOM     96  C   UNL A   1      46.577  34.624  30.465  1.00  0.00     0.002 A 
ATOM     97  C   UNL A   1      45.693  35.349  28.325  1.00  0.00     0.091 A 
ATOM     98  F   UNL A   1      44.319  33.855  27.070  1.00  0.00    -0.205 F 
ATOM     99  C   UNL A   1      46.438  35.607  29.487  1.00  0.00     0.022 A 
BRANCH  97 100
ATOM    100  S   UNL A   1      45.658  36.636  27.073  1.00  0.00     0.127 S 
ATOM    101  O   UNL A   1      46.457  37.686  27.703  1.00  0.00    -0.237 OA
ATOM    102  O   UNL A   1      46.302  35.978  25.937  1.00  0.00    -0.237 OA
ATOM    103  O   UNL A   1      44.254  36.966  26.868  1.00  0.00    -0.744 OA
ENDBRANCH  97 100
ENDBRANCH  70  93
ENDBRANCH  44  45
ENDBRANCH  37  39
ENDBRANCH  36  37
ENDBRANCH  35  36
ENDBRANCH   1  35
TORSDOF 23
ENDMDL
