MODEL 1
REMARK VINA RESULT:     -10.4      0.000      0.000
REMARK SMILES O=C(OCCOCCOC(=O)c1cc(S(=O)(=O)Nc2ccccc2-n2cc(Br)cn2)c[nH]1)c1ccc(-c2c3nc(c(-c4cccc(S(=O)(=O)[O-])c4F)c4ccc([nH]4)c(-c4cccc(S(=O)(=O)[O-])c4F)c4nc(c(-c5cccc(S(=O)(=O)[O-])c5F)c5ccc2[nH]5)C=C4)C=C3)cc1
REMARK SMILES IDX 7 1 6 2 5 3 4 4 3 5 2 6 1 7 33 8 34 9 95 10 35 11 94 12
REMARK SMILES IDX 36 13 37 14 38 15 88 16 39 17 93 18 87 19 89 20 40 21 92 22
REMARK SMILES IDX 86 23 85 24 41 26 73 27 53 28 72 29 54 30 57 31 71 32 90 33
REMARK SMILES IDX 55 34 56 35 70 37 91 38 58 39 42 40 43 41 51 42 44 43 46 44
REMARK SMILES IDX 52 45 45 46 47 47 48 48 49 49 50 50 74 51 75 52 83 53 76 54
REMARK SMILES IDX 78 55 84 56 77 57 79 58 80 59 81 60 82 61 59 62 60 63 68 64
REMARK SMILES IDX 61 65 63 66 69 67 62 68 64 69 65 70 66 71 67 72 8 73 9 74
REMARK SMILES IDX 10 75 11 76 12 77 13 78 32 79 14 80 31 81 15 83 16 84 17 85
REMARK SMILES IDX 18 86 19 88 20 89 24 90 21 91 23 92 22 93 25 94 26 95 30 96
REMARK SMILES IDX 27 97 29 98 28 99
REMARK H PARENT 89 25 57 36 32 82 18 87
REMARK Flexibility Score: inf
ROOT
ATOM      1  C   UNL A   1      41.204  21.143  27.007  1.00  0.00     0.202 C 
ENDROOT
BRANCH   1   2
ATOM      2  O   UNL A   1      41.907  21.262  25.763  1.00  0.00    -0.374 OA
BRANCH   2   3
ATOM      3  C   UNL A   1      43.264  20.826  25.711  1.00  0.00     0.202 C 
BRANCH   3   4
ATOM      4  C   UNL A   1      44.296  21.659  24.952  1.00  0.00     0.261 C 
BRANCH   4   5
ATOM      5  O   UNL A   1      43.783  22.975  24.689  1.00  0.00    -0.460 OA
BRANCH   5   6
ATOM      6  C   UNL A   1      44.445  24.131  24.967  1.00  0.00     0.338 C 
ATOM      7  O   UNL A   1      45.487  24.416  24.388  1.00  0.00    -0.246 OA
BRANCH   6   8
ATOM      8  C   UNL A   1      43.764  25.114  25.821  1.00  0.00     0.060 A 
ATOM      9  C   UNL A   1      44.005  26.488  25.755  1.00  0.00     0.016 A 
ATOM     10  C   UNL A   1      42.912  24.584  26.792  1.00  0.00     0.016 A 
ATOM     11  C   UNL A   1      43.631  27.290  26.808  1.00  0.00     0.010 A 
ATOM     12  C   UNL A   1      42.440  25.406  27.796  1.00  0.00     0.010 A 
ATOM     13  C   UNL A   1      42.848  26.741  27.826  1.00  0.00    -0.014 A 
BRANCH  13  14
ATOM     14  C   UNL A   1      42.237  27.703  28.750  1.00  0.00     0.031 A 
ATOM     15  C   UNL A   1      43.060  27.716  30.067  1.00  0.00     0.074 A 
ATOM     16  C   UNL A   1      41.082  28.297  28.317  1.00  0.00     0.049 A 
ATOM     17  N   UNL A   1      42.673  27.845  31.302  1.00  0.00    -0.248 NA
ATOM     18  C   UNL A   1      44.513  27.364  30.011  1.00  0.00     0.031 C 
ATOM     19  C   UNL A   1      40.481  28.136  26.968  1.00  0.00     0.029 A 
ATOM     20  N   UNL A   1      40.174  29.149  28.903  1.00  0.00    -0.354 N 
ATOM     21  C   UNL A   1      43.849  27.872  32.098  1.00  0.00     0.074 A 
ATOM     22  C   UNL A   1      44.904  27.361  31.286  1.00  0.00     0.031 C 
ATOM     23  C   UNL A   1      39.300  28.791  26.876  1.00  0.00     0.029 A 
ATOM     24  C   UNL A   1      39.024  29.465  28.131  1.00  0.00     0.049 A 
ATOM     25  H   UNL A   1      40.313  29.519  29.804  1.00  0.00     0.167 HD
ATOM     26  C   UNL A   1      43.919  28.512  33.303  1.00  0.00     0.034 A 
ATOM     27  C   UNL A   1      37.919  30.190  28.503  1.00  0.00     0.034 A 
ATOM     28  C   UNL A   1      42.654  29.111  33.574  1.00  0.00     0.049 A 
ATOM     29  C   UNL A   1      38.273  30.750  29.813  1.00  0.00     0.074 A 
ATOM     30  C   UNL A   1      41.450  28.591  33.958  1.00  0.00     0.029 A 
ATOM     31  N   UNL A   1      42.476  30.364  33.030  1.00  0.00    -0.354 N 
ATOM     32  N   UNL A   1      39.135  31.706  29.991  1.00  0.00    -0.248 NA
ATOM     33  C   UNL A   1      37.738  30.115  31.023  1.00  0.00     0.031 C 
ATOM     34  C   UNL A   1      40.530  29.349  33.209  1.00  0.00     0.029 A 
ATOM     35  C   UNL A   1      41.173  30.444  32.616  1.00  0.00     0.049 A 
ATOM     36  H   UNL A   1      43.158  31.070  32.954  1.00  0.00     0.167 HD
ATOM     37  C   UNL A   1      39.512  31.504  31.294  1.00  0.00     0.074 A 
ATOM     38  C   UNL A   1      38.417  30.808  31.932  1.00  0.00     0.031 C 
ATOM     39  C   UNL A   1      40.832  31.419  31.607  1.00  0.00     0.034 A 
BRANCH  26  40
ATOM     40  C   UNL A   1      45.056  28.939  34.204  1.00  0.00     0.023 A 
ATOM     41  C   UNL A   1      44.952  28.500  35.556  1.00  0.00     0.012 A 
ATOM     42  C   UNL A   1      46.004  29.938  33.927  1.00  0.00     0.148 A 
ATOM     43  C   UNL A   1      45.639  29.113  36.600  1.00  0.00     0.002 A 
ATOM     44  C   UNL A   1      46.733  30.515  34.973  1.00  0.00     0.091 A 
ATOM     45  F   UNL A   1      46.146  30.387  32.677  1.00  0.00    -0.205 F 
ATOM     46  C   UNL A   1      46.520  30.137  36.308  1.00  0.00     0.022 A 
BRANCH  44  47
ATOM     47  S   UNL A   1      47.974  31.789  34.715  1.00  0.00     0.127 S 
ATOM     48  O   UNL A   1      47.186  32.864  34.119  1.00  0.00    -0.237 OA
ATOM     49  O   UNL A   1      48.420  32.053  36.085  1.00  0.00    -0.237 OA
ATOM     50  O   UNL A   1      48.992  31.186  33.866  1.00  0.00    -0.744 OA
ENDBRANCH  44  47
ENDBRANCH  26  40
BRANCH  27  51
ATOM     51  C   UNL A   1      36.513  30.469  28.008  1.00  0.00     0.023 A 
ATOM     52  C   UNL A   1      35.590  29.487  27.625  1.00  0.00     0.012 A 
ATOM     53  C   UNL A   1      36.019  31.814  28.003  1.00  0.00     0.148 A 
ATOM     54  C   UNL A   1      34.242  29.817  27.351  1.00  0.00     0.002 A 
ATOM     55  C   UNL A   1      34.670  32.120  27.868  1.00  0.00     0.091 A 
ATOM     56  F   UNL A   1      36.873  32.837  28.090  1.00  0.00    -0.205 F 
ATOM     57  C   UNL A   1      33.771  31.120  27.524  1.00  0.00     0.022 A 
BRANCH  55  58
ATOM     58  S   UNL A   1      34.022  33.754  28.287  1.00  0.00     0.127 S 
ATOM     59  O   UNL A   1      34.394  33.888  29.694  1.00  0.00    -0.237 OA
ATOM     60  O   UNL A   1      34.774  34.608  27.367  1.00  0.00    -0.237 OA
ATOM     61  O   UNL A   1      32.588  33.707  28.029  1.00  0.00    -0.744 OA
ENDBRANCH  55  58
ENDBRANCH  27  51
BRANCH  39  62
ATOM     62  C   UNL A   1      41.776  32.138  30.634  1.00  0.00     0.023 A 
ATOM     63  C   UNL A   1      42.696  31.334  29.930  1.00  0.00     0.012 A 
ATOM     64  C   UNL A   1      41.895  33.538  30.458  1.00  0.00     0.148 A 
ATOM     65  C   UNL A   1      43.698  31.883  29.122  1.00  0.00     0.002 A 
ATOM     66  C   UNL A   1      42.913  34.092  29.667  1.00  0.00     0.091 A 
ATOM     67  F   UNL A   1      41.012  34.333  31.054  1.00  0.00    -0.205 F 
ATOM     68  C   UNL A   1      43.812  33.260  28.995  1.00  0.00     0.022 A 
BRANCH  66  69
ATOM     69  S   UNL A   1      43.207  35.867  29.486  1.00  0.00     0.127 S 
ATOM     70  O   UNL A   1      43.467  36.286  30.865  1.00  0.00    -0.237 OA
ATOM     71  O   UNL A   1      44.384  35.899  28.621  1.00  0.00    -0.237 OA
ATOM     72  O   UNL A   1      41.992  36.429  28.914  1.00  0.00    -0.744 OA
ENDBRANCH  66  69
ENDBRANCH  39  62
ENDBRANCH  13  14
ENDBRANCH   6   8
ENDBRANCH   5   6
ENDBRANCH   4   5
ENDBRANCH   3   4
ENDBRANCH   2   3
ENDBRANCH   1   2
BRANCH   1  73
ATOM     73  C   UNL A   1      40.172  22.226  27.339  1.00  0.00     0.261 C 
BRANCH  73  74
ATOM     74  O   UNL A   1      39.386  22.566  26.187  1.00  0.00    -0.459 OA
BRANCH  74  75
ATOM     75  C   UNL A   1      38.609  23.677  26.347  1.00  0.00     0.354 C 
ATOM     76  O   UNL A   1      38.935  24.704  26.897  1.00  0.00    -0.244 OA
BRANCH  75  77
ATOM     77  C   UNL A   1      37.378  23.519  25.597  1.00  0.00     0.126 A 
ATOM     78  C   UNL A   1      36.052  23.714  25.933  1.00  0.00     0.057 A 
ATOM     79  N   UNL A   1      37.385  23.110  24.281  1.00  0.00    -0.354 N 
ATOM     80  C   UNL A   1      35.388  23.953  24.702  1.00  0.00     0.106 A 
ATOM     81  C   UNL A   1      36.185  23.427  23.705  1.00  0.00     0.105 A 
ATOM     82  H   UNL A   1      38.135  22.660  23.827  1.00  0.00     0.166 HD
BRANCH  80  83
ATOM     83  S   UNL A   1      33.940  24.875  24.518  1.00  0.00     0.263 S 
ATOM     84  O   UNL A   1      34.381  26.186  24.089  1.00  0.00    -0.201 OA
ATOM     85  O   UNL A   1      33.068  24.065  23.698  1.00  0.00    -0.201 OA
BRANCH  83  86
ATOM     86  N   UNL A   1      33.150  25.115  26.027  1.00  0.00    -0.277 N 
ATOM     87  H   UNL A   1      33.576  25.634  26.746  1.00  0.00     0.180 HD
BRANCH  86  88
ATOM     88  C   UNL A   1      31.845  24.530  26.204  1.00  0.00     0.075 A 
ATOM     89  C   UNL A   1      31.775  23.280  26.839  1.00  0.00     0.029 A 
ATOM     90  C   UNL A   1      30.653  25.245  25.955  1.00  0.00     0.089 A 
ATOM     91  C   UNL A   1      30.544  22.753  27.241  1.00  0.00     0.002 A 
ATOM     92  C   UNL A   1      29.423  24.710  26.386  1.00  0.00     0.030 A 
ATOM     93  C   UNL A   1      29.372  23.471  27.025  1.00  0.00     0.002 A 
BRANCH  90  94
ATOM     94  N   UNL A   1      30.652  26.552  25.391  1.00  0.00    -0.238 N 
ATOM     95  C   UNL A   1      30.072  26.988  24.219  1.00  0.00     0.130 A 
ATOM     96  N   UNL A   1      31.359  27.559  25.980  1.00  0.00    -0.175 NA
ATOM     97  C   UNL A   1      30.644  28.197  23.938  1.00  0.00     0.056 A 
ATOM     98  C   UNL A   1      31.458  28.494  25.030  1.00  0.00     0.151 A 
ATOM     99  Br  UNL A   1      30.409  29.255  22.423  1.00  0.00    -0.047 Br
ENDBRANCH  90  94
ENDBRANCH  86  88
ENDBRANCH  83  86
ENDBRANCH  80  83
ENDBRANCH  75  77
ENDBRANCH  74  75
ENDBRANCH  73  74
ENDBRANCH   1  73
TORSDOF 21
ENDMDL
MODEL 2
REMARK VINA RESULT:     -10.2      3.549      9.015
REMARK SMILES O=C(OCCOCCOC(=O)c1cc(S(=O)(=O)Nc2ccccc2-n2cc(Br)cn2)c[nH]1)c1ccc(-c2c3nc(c(-c4cccc(S(=O)(=O)[O-])c4F)c4ccc([nH]4)c(-c4cccc(S(=O)(=O)[O-])c4F)c4nc(c(-c5cccc(S(=O)(=O)[O-])c5F)c5ccc2[nH]5)C=C4)C=C3)cc1
REMARK SMILES IDX 7 1 6 2 5 3 4 4 3 5 2 6 1 7 33 8 34 9 95 10 35 11 94 12
REMARK SMILES IDX 36 13 37 14 38 15 88 16 39 17 93 18 87 19 89 20 40 21 92 22
REMARK SMILES IDX 86 23 85 24 41 26 73 27 53 28 72 29 54 30 57 31 71 32 90 33
REMARK SMILES IDX 55 34 56 35 70 37 91 38 58 39 42 40 43 41 51 42 44 43 46 44
REMARK SMILES IDX 52 45 45 46 47 47 48 48 49 49 50 50 74 51 75 52 83 53 76 54
REMARK SMILES IDX 78 55 84 56 77 57 79 58 80 59 81 60 82 61 59 62 60 63 68 64
REMARK SMILES IDX 61 65 63 66 69 67 62 68 64 69 65 70 66 71 67 72 8 73 9 74
REMARK SMILES IDX 10 75 11 76 12 77 13 78 32 79 14 80 31 81 15 83 16 84 17 85
REMARK SMILES IDX 18 86 19 88 20 89 24 90 21 91 23 92 22 93 25 94 26 95 30 96
REMARK SMILES IDX 27 97 29 98 28 99
REMARK H PARENT 89 25 57 36 32 82 18 87
REMARK Flexibility Score: inf
ROOT
ATOM      1  C   UNL A   1      31.690  29.288  24.888  1.00  0.00     0.202 C 
ENDROOT
BRANCH   1   2
ATOM      2  O   UNL A   1      32.954  28.805  25.363  1.00  0.00    -0.374 OA
BRANCH   2   3
ATOM      3  C   UNL A   1      33.724  29.656  26.210  1.00  0.00     0.202 C 
BRANCH   3   4
ATOM      4  C   UNL A   1      34.355  29.086  27.480  1.00  0.00     0.261 C 
BRANCH   4   5
ATOM      5  O   UNL A   1      35.772  29.326  27.488  1.00  0.00    -0.460 OA
BRANCH   5   6
ATOM      6  C   UNL A   1      36.522  29.482  28.612  1.00  0.00     0.338 C 
ATOM      7  O   UNL A   1      35.992  29.640  29.707  1.00  0.00    -0.246 OA
BRANCH   6   8
ATOM      8  C   UNL A   1      37.968  29.247  28.502  1.00  0.00     0.060 A 
ATOM      9  C   UNL A   1      38.710  29.538  27.355  1.00  0.00     0.016 A 
ATOM     10  C   UNL A   1      38.562  28.613  29.595  1.00  0.00     0.016 A 
ATOM     11  C   UNL A   1      39.945  28.959  27.186  1.00  0.00     0.010 A 
ATOM     12  C   UNL A   1      39.847  28.122  29.474  1.00  0.00     0.010 A 
ATOM     13  C   UNL A   1      40.508  28.251  28.251  1.00  0.00    -0.014 A 
BRANCH  13  14
ATOM     14  C   UNL A   1      41.930  27.920  28.116  1.00  0.00     0.031 A 
ATOM     15  C   UNL A   1      42.763  29.213  28.325  1.00  0.00     0.074 A 
ATOM     16  C   UNL A   1      42.211  26.626  27.767  1.00  0.00     0.049 A 
ATOM     17  N   UNL A   1      43.857  29.615  27.749  1.00  0.00    -0.248 NA
ATOM     18  C   UNL A   1      42.200  30.300  29.188  1.00  0.00     0.031 C 
ATOM     19  C   UNL A   1      41.217  25.530  27.637  1.00  0.00     0.029 A 
ATOM     20  N   UNL A   1      43.372  25.958  27.450  1.00  0.00    -0.354 N 
ATOM     21  C   UNL A   1      44.231  30.829  28.383  1.00  0.00     0.074 A 
ATOM     22  C   UNL A   1      43.081  31.295  29.085  1.00  0.00     0.031 C 
ATOM     23  C   UNL A   1      41.800  24.388  27.205  1.00  0.00     0.029 A 
ATOM     24  C   UNL A   1      43.224  24.607  27.037  1.00  0.00     0.049 A 
ATOM     25  H   UNL A   1      44.254  26.391  27.505  1.00  0.00     0.167 HD
ATOM     26  C   UNL A   1      45.525  31.262  28.462  1.00  0.00     0.034 A 
ATOM     27  C   UNL A   1      44.185  23.749  26.563  1.00  0.00     0.034 A 
ATOM     28  C   UNL A   1      46.364  30.303  27.824  1.00  0.00     0.049 A 
ATOM     29  C   UNL A   1      45.449  24.466  26.767  1.00  0.00     0.074 A 
ATOM     30  C   UNL A   1      46.583  29.996  26.509  1.00  0.00     0.029 A 
ATOM     31  N   UNL A   1      46.768  29.258  28.627  1.00  0.00    -0.354 N 
ATOM     32  N   UNL A   1      45.998  24.663  27.929  1.00  0.00    -0.248 NA
ATOM     33  C   UNL A   1      46.081  25.130  25.622  1.00  0.00     0.031 C 
ATOM     34  C   UNL A   1      46.678  28.591  26.529  1.00  0.00     0.029 A 
ATOM     35  C   UNL A   1      46.775  28.131  27.850  1.00  0.00     0.049 A 
ATOM     36  H   UNL A   1      47.007  29.313  29.580  1.00  0.00     0.167 HD
ATOM     37  C   UNL A   1      46.779  25.763  27.687  1.00  0.00     0.074 A 
ATOM     38  C   UNL A   1      47.057  25.761  26.267  1.00  0.00     0.031 C 
ATOM     39  C   UNL A   1      46.689  26.846  28.504  1.00  0.00     0.034 A 
BRANCH  26  40
ATOM     40  C   UNL A   1      46.235  32.316  29.281  1.00  0.00     0.023 A 
ATOM     41  C   UNL A   1      46.939  33.297  28.522  1.00  0.00     0.012 A 
ATOM     42  C   UNL A   1      46.512  32.252  30.657  1.00  0.00     0.148 A 
ATOM     43  C   UNL A   1      47.964  34.070  29.061  1.00  0.00     0.002 A 
ATOM     44  C   UNL A   1      47.505  33.069  31.206  1.00  0.00     0.091 A 
ATOM     45  F   UNL A   1      45.881  31.353  31.417  1.00  0.00    -0.205 F 
ATOM     46  C   UNL A   1      48.259  33.941  30.405  1.00  0.00     0.022 A 
BRANCH  44  47
ATOM     47  S   UNL A   1      47.922  33.064  32.954  1.00  0.00     0.127 S 
ATOM     48  O   UNL A   1      49.014  34.032  33.009  1.00  0.00    -0.237 OA
ATOM     49  O   UNL A   1      46.671  33.529  33.560  1.00  0.00    -0.237 OA
ATOM     50  O   UNL A   1      48.260  31.686  33.278  1.00  0.00    -0.744 OA
ENDBRANCH  44  47
ENDBRANCH  26  40
BRANCH  27  51
ATOM     51  C   UNL A   1      44.276  22.410  25.857  1.00  0.00     0.023 A 
ATOM     52  C   UNL A   1      45.368  21.982  25.090  1.00  0.00     0.012 A 
ATOM     53  C   UNL A   1      43.233  21.444  26.034  1.00  0.00     0.148 A 
ATOM     54  C   UNL A   1      45.454  20.651  24.618  1.00  0.00     0.002 A 
ATOM     55  C   UNL A   1      43.379  20.106  25.690  1.00  0.00     0.091 A 
ATOM     56  F   UNL A   1      42.046  21.827  26.512  1.00  0.00    -0.205 F 
ATOM     57  C   UNL A   1      44.489  19.702  24.962  1.00  0.00     0.022 A 
BRANCH  55  58
ATOM     58  S   UNL A   1      42.244  18.840  26.302  1.00  0.00     0.127 S 
ATOM     59  O   UNL A   1      40.978  19.230  25.685  1.00  0.00    -0.237 OA
ATOM     60  O   UNL A   1      42.845  17.623  25.756  1.00  0.00    -0.237 OA
ATOM     61  O   UNL A   1      42.275  18.926  27.757  1.00  0.00    -0.744 OA
ENDBRANCH  55  58
ENDBRANCH  27  51
BRANCH  39  62
ATOM     62  C   UNL A   1      46.203  26.545  29.927  1.00  0.00     0.023 A 
ATOM     63  C   UNL A   1      44.879  26.915  30.239  1.00  0.00     0.012 A 
ATOM     64  C   UNL A   1      46.986  26.038  30.994  1.00  0.00     0.148 A 
ATOM     65  C   UNL A   1      44.365  26.820  31.537  1.00  0.00     0.002 A 
ATOM     66  C   UNL A   1      46.482  25.964  32.301  1.00  0.00     0.091 A 
ATOM     67  F   UNL A   1      48.221  25.620  30.735  1.00  0.00    -0.205 F 
ATOM     68  C   UNL A   1      45.166  26.353  32.569  1.00  0.00     0.022 A 
BRANCH  66  69
ATOM     69  S   UNL A   1      47.451  25.444  33.735  1.00  0.00     0.127 S 
ATOM     70  O   UNL A   1      47.710  26.714  34.419  1.00  0.00    -0.237 OA
ATOM     71  O   UNL A   1      46.517  24.568  34.438  1.00  0.00    -0.237 OA
ATOM     72  O   UNL A   1      48.646  24.797  33.212  1.00  0.00    -0.744 OA
ENDBRANCH  66  69
ENDBRANCH  39  62
ENDBRANCH  13  14
ENDBRANCH   6   8
ENDBRANCH   5   6
ENDBRANCH   4   5
ENDBRANCH   3   4
ENDBRANCH   2   3
ENDBRANCH   1   2
BRANCH   1  73
ATOM     73  C   UNL A   1      31.361  29.061  23.409  1.00  0.00     0.261 C 
BRANCH  73  74
ATOM     74  O   UNL A   1      31.114  27.673  23.137  1.00  0.00    -0.459 OA
BRANCH  74  75
ATOM     75  C   UNL A   1      29.926  27.210  23.624  1.00  0.00     0.354 C 
ATOM     76  O   UNL A   1      28.833  27.682  23.408  1.00  0.00    -0.244 OA
BRANCH  75  77
ATOM     77  C   UNL A   1      30.140  25.946  24.302  1.00  0.00     0.126 A 
ATOM     78  C   UNL A   1      30.883  24.829  23.973  1.00  0.00     0.057 A 
ATOM     79  N   UNL A   1      29.559  25.677  25.522  1.00  0.00    -0.354 N 
ATOM     80  C   UNL A   1      31.164  24.192  25.210  1.00  0.00     0.106 A 
ATOM     81  C   UNL A   1      30.221  24.636  26.116  1.00  0.00     0.105 A 
ATOM     82  H   UNL A   1      28.789  26.157  25.906  1.00  0.00     0.166 HD
BRANCH  80  83
ATOM     83  S   UNL A   1      32.533  23.187  25.522  1.00  0.00     0.263 S 
ATOM     84  O   UNL A   1      33.656  24.097  25.608  1.00  0.00    -0.201 OA
ATOM     85  O   UNL A   1      32.151  22.350  26.636  1.00  0.00    -0.201 OA
BRANCH  83  86
ATOM     86  N   UNL A   1      32.868  22.150  24.192  1.00  0.00    -0.277 N 
ATOM     87  H   UNL A   1      32.769  22.465  23.264  1.00  0.00     0.180 HD
BRANCH  86  88
ATOM     88  C   UNL A   1      33.298  20.805  24.478  1.00  0.00     0.075 A 
ATOM     89  C   UNL A   1      32.346  19.780  24.361  1.00  0.00     0.029 A 
ATOM     90  C   UNL A   1      34.656  20.466  24.664  1.00  0.00     0.089 A 
ATOM     91  C   UNL A   1      32.733  18.438  24.407  1.00  0.00     0.002 A 
ATOM     92  C   UNL A   1      35.033  19.109  24.687  1.00  0.00     0.030 A 
ATOM     93  C   UNL A   1      34.075  18.103  24.559  1.00  0.00     0.002 A 
BRANCH  90  94
ATOM     94  N   UNL A   1      35.687  21.447  24.709  1.00  0.00    -0.238 N 
ATOM     95  C   UNL A   1      36.532  21.767  25.750  1.00  0.00     0.130 A 
ATOM     96  N   UNL A   1      35.892  22.282  23.650  1.00  0.00    -0.175 NA
ATOM     97  C   UNL A   1      37.077  22.982  25.438  1.00  0.00     0.056 A 
ATOM     98  C   UNL A   1      36.627  23.279  24.153  1.00  0.00     0.151 A 
ATOM     99  Br  UNL A   1      38.190  24.045  26.486  1.00  0.00    -0.047 Br
ENDBRANCH  90  94
ENDBRANCH  86  88
ENDBRANCH  83  86
ENDBRANCH  80  83
ENDBRANCH  75  77
ENDBRANCH  74  75
ENDBRANCH  73  74
ENDBRANCH   1  73
TORSDOF 21
ENDMDL
MODEL 3
REMARK VINA RESULT:     -10.2      3.387      5.628
REMARK SMILES O=C(OCCOCCOC(=O)c1cc(S(=O)(=O)Nc2ccccc2-n2cc(Br)cn2)c[nH]1)c1ccc(-c2c3nc(c(-c4cccc(S(=O)(=O)[O-])c4F)c4ccc([nH]4)c(-c4cccc(S(=O)(=O)[O-])c4F)c4nc(c(-c5cccc(S(=O)(=O)[O-])c5F)c5ccc2[nH]5)C=C4)C=C3)cc1
REMARK SMILES IDX 7 1 6 2 5 3 4 4 3 5 2 6 1 7 33 8 34 9 95 10 35 11 94 12
REMARK SMILES IDX 36 13 37 14 38 15 88 16 39 17 93 18 87 19 89 20 40 21 92 22
REMARK SMILES IDX 86 23 85 24 41 26 73 27 53 28 72 29 54 30 57 31 71 32 90 33
REMARK SMILES IDX 55 34 56 35 70 37 91 38 58 39 42 40 43 41 51 42 44 43 46 44
REMARK SMILES IDX 52 45 45 46 47 47 48 48 49 49 50 50 74 51 75 52 83 53 76 54
REMARK SMILES IDX 78 55 84 56 77 57 79 58 80 59 81 60 82 61 59 62 60 63 68 64
REMARK SMILES IDX 61 65 63 66 69 67 62 68 64 69 65 70 66 71 67 72 8 73 9 74
REMARK SMILES IDX 10 75 11 76 12 77 13 78 32 79 14 80 31 81 15 83 16 84 17 85
REMARK SMILES IDX 18 86 19 88 20 89 24 90 21 91 23 92 22 93 25 94 26 95 30 96
REMARK SMILES IDX 27 97 29 98 28 99
REMARK H PARENT 89 25 57 36 32 82 18 87
REMARK Flexibility Score: inf
ROOT
ATOM      1  C   UNL A   1      34.439  22.564  26.750  1.00  0.00     0.202 C 
ENDROOT
BRANCH   1   2
ATOM      2  O   UNL A   1      35.314  22.498  25.615  1.00  0.00    -0.374 OA
BRANCH   2   3
ATOM      3  C   UNL A   1      35.714  21.211  25.147  1.00  0.00     0.202 C 
BRANCH   3   4
ATOM      4  C   UNL A   1      37.183  20.952  24.819  1.00  0.00     0.261 C 
BRANCH   4   5
ATOM      5  O   UNL A   1      38.015  21.971  25.397  1.00  0.00    -0.460 OA
BRANCH   5   6
ATOM      6  C   UNL A   1      39.188  21.736  26.045  1.00  0.00     0.338 C 
ATOM      7  O   UNL A   1      39.820  20.704  25.849  1.00  0.00    -0.246 OA
BRANCH   6   8
ATOM      8  C   UNL A   1      39.770  22.842  26.817  1.00  0.00     0.060 A 
ATOM      9  C   UNL A   1      39.545  24.188  26.523  1.00  0.00     0.016 A 
ATOM     10  C   UNL A   1      40.659  22.470  27.828  1.00  0.00     0.016 A 
ATOM     11  C   UNL A   1      40.397  25.141  27.030  1.00  0.00     0.010 A 
ATOM     12  C   UNL A   1      41.444  23.437  28.425  1.00  0.00     0.010 A 
ATOM     13  C   UNL A   1      41.345  24.757  27.982  1.00  0.00    -0.014 A 
BRANCH  13  14
ATOM     14  C   UNL A   1      42.010  25.852  28.696  1.00  0.00     0.031 A 
ATOM     15  C   UNL A   1      43.546  25.643  28.605  1.00  0.00     0.074 A 
ATOM     16  C   UNL A   1      41.184  26.737  29.335  1.00  0.00     0.049 A 
ATOM     17  N   UNL A   1      44.483  25.877  29.476  1.00  0.00    -0.248 NA
ATOM     18  C   UNL A   1      44.103  24.907  27.426  1.00  0.00     0.031 C 
ATOM     19  C   UNL A   1      39.700  26.743  29.260  1.00  0.00     0.029 A 
ATOM     20  N   UNL A   1      41.403  27.807  30.173  1.00  0.00    -0.354 N 
ATOM     21  C   UNL A   1      45.717  25.584  28.838  1.00  0.00     0.074 A 
ATOM     22  C   UNL A   1      45.406  24.801  27.687  1.00  0.00     0.031 C 
ATOM     23  C   UNL A   1      39.172  27.696  30.063  1.00  0.00     0.029 A 
ATOM     24  C   UNL A   1      40.244  28.423  30.717  1.00  0.00     0.049 A 
ATOM     25  H   UNL A   1      42.309  28.127  30.383  1.00  0.00     0.167 HD
ATOM     26  C   UNL A   1      46.895  26.183  29.182  1.00  0.00     0.034 A 
ATOM     27  C   UNL A   1      40.169  29.423  31.654  1.00  0.00     0.034 A 
ATOM     28  C   UNL A   1      46.644  27.106  30.239  1.00  0.00     0.049 A 
ATOM     29  C   UNL A   1      41.557  29.869  31.826  1.00  0.00     0.074 A 
ATOM     30  C   UNL A   1      46.381  26.936  31.570  1.00  0.00     0.029 A 
ATOM     31  N   UNL A   1      46.239  28.359  29.834  1.00  0.00    -0.354 N 
ATOM     32  N   UNL A   1      42.220  30.554  30.942  1.00  0.00    -0.248 NA
ATOM     33  C   UNL A   1      42.310  29.408  32.997  1.00  0.00     0.031 C 
ATOM     34  C   UNL A   1      45.400  27.914  31.821  1.00  0.00     0.029 A 
ATOM     35  C   UNL A   1      45.299  28.790  30.731  1.00  0.00     0.049 A 
ATOM     36  H   UNL A   1      46.565  28.851  29.046  1.00  0.00     0.167 HD
ATOM     37  C   UNL A   1      43.517  30.260  31.275  1.00  0.00     0.074 A 
ATOM     38  C   UNL A   1      43.505  29.892  32.673  1.00  0.00     0.031 C 
ATOM     39  C   UNL A   1      44.375  29.818  30.316  1.00  0.00     0.034 A 
BRANCH  26  40
ATOM     40  C   UNL A   1      48.255  26.286  28.529  1.00  0.00     0.023 A 
ATOM     41  C   UNL A   1      49.335  25.762  29.298  1.00  0.00     0.012 A 
ATOM     42  C   UNL A   1      48.586  27.087  27.423  1.00  0.00     0.148 A 
ATOM     43  C   UNL A   1      50.661  26.127  29.077  1.00  0.00     0.002 A 
ATOM     44  C   UNL A   1      49.925  27.407  27.171  1.00  0.00     0.091 A 
ATOM     45  F   UNL A   1      47.615  27.603  26.665  1.00  0.00    -0.205 F 
ATOM     46  C   UNL A   1      50.953  26.968  28.020  1.00  0.00     0.022 A 
BRANCH  44  47
ATOM     47  S   UNL A   1      50.445  28.414  25.776  1.00  0.00     0.127 S 
ATOM     48  O   UNL A   1      50.207  29.766  26.273  1.00  0.00    -0.237 OA
ATOM     49  O   UNL A   1      51.860  28.052  25.659  1.00  0.00    -0.237 OA
ATOM     50  O   UNL A   1      49.628  27.985  24.651  1.00  0.00    -0.744 OA
ENDBRANCH  44  47
ENDBRANCH  26  40
BRANCH  27  51
ATOM     51  C   UNL A   1      39.137  30.074  32.554  1.00  0.00     0.023 A 
ATOM     52  C   UNL A   1      39.236  30.170  33.948  1.00  0.00     0.012 A 
ATOM     53  C   UNL A   1      38.005  30.733  31.971  1.00  0.00     0.148 A 
ATOM     54  C   UNL A   1      38.324  30.951  34.695  1.00  0.00     0.002 A 
ATOM     55  C   UNL A   1      37.194  31.607  32.684  1.00  0.00     0.091 A 
ATOM     56  F   UNL A   1      37.671  30.484  30.702  1.00  0.00    -0.205 F 
ATOM     57  C   UNL A   1      37.338  31.710  34.060  1.00  0.00     0.022 A 
BRANCH  55  58
ATOM     58  S   UNL A   1      36.058  32.740  31.850  1.00  0.00     0.127 S 
ATOM     59  O   UNL A   1      35.266  33.262  32.961  1.00  0.00    -0.237 OA
ATOM     60  O   UNL A   1      36.990  33.698  31.254  1.00  0.00    -0.237 OA
ATOM     61  O   UNL A   1      35.316  31.941  30.883  1.00  0.00    -0.744 OA
ENDBRANCH  55  58
ENDBRANCH  27  51
BRANCH  39  62
ATOM     62  C   UNL A   1      44.025  30.249  28.886  1.00  0.00     0.023 A 
ATOM     63  C   UNL A   1      43.329  29.314  28.092  1.00  0.00     0.012 A 
ATOM     64  C   UNL A   1      44.431  31.445  28.244  1.00  0.00     0.148 A 
ATOM     65  C   UNL A   1      43.076  29.533  26.734  1.00  0.00     0.002 A 
ATOM     66  C   UNL A   1      44.199  31.657  26.877  1.00  0.00     0.091 A 
ATOM     67  F   UNL A   1      45.036  32.382  28.967  1.00  0.00    -0.205 F 
ATOM     68  C   UNL A   1      43.515  30.699  26.123  1.00  0.00     0.022 A 
BRANCH  66  69
ATOM     69  S   UNL A   1      44.788  33.098  25.959  1.00  0.00     0.127 S 
ATOM     70  O   UNL A   1      46.243  32.951  26.038  1.00  0.00    -0.237 OA
ATOM     71  O   UNL A   1      44.236  32.863  24.627  1.00  0.00    -0.237 OA
ATOM     72  O   UNL A   1      44.271  34.269  26.654  1.00  0.00    -0.744 OA
ENDBRANCH  66  69
ENDBRANCH  39  62
ENDBRANCH  13  14
ENDBRANCH   6   8
ENDBRANCH   5   6
ENDBRANCH   4   5
ENDBRANCH   3   4
ENDBRANCH   2   3
ENDBRANCH   1   2
BRANCH   1  73
ATOM     73  C   UNL A   1      33.183  23.432  26.620  1.00  0.00     0.261 C 
BRANCH  73  74
ATOM     74  O   UNL A   1      32.006  22.624  26.467  1.00  0.00    -0.459 OA
BRANCH  74  75
ATOM     75  C   UNL A   1      31.980  21.884  25.320  1.00  0.00     0.354 C 
ATOM     76  O   UNL A   1      31.786  20.693  25.243  1.00  0.00    -0.244 OA
BRANCH  75  77
ATOM     77  C   UNL A   1      32.041  22.769  24.173  1.00  0.00     0.126 A 
ATOM     78  C   UNL A   1      31.231  23.807  23.755  1.00  0.00     0.057 A 
ATOM     79  N   UNL A   1      33.053  22.672  23.242  1.00  0.00    -0.354 N 
ATOM     80  C   UNL A   1      32.062  24.623  22.943  1.00  0.00     0.106 A 
ATOM     81  C   UNL A   1      33.113  23.833  22.520  1.00  0.00     0.105 A 
ATOM     82  H   UNL A   1      33.641  21.891  23.117  1.00  0.00     0.166 HD
BRANCH  80  83
ATOM     83  S   UNL A   1      31.849  26.318  22.691  1.00  0.00     0.263 S 
ATOM     84  O   UNL A   1      33.081  26.924  23.151  1.00  0.00    -0.201 OA
ATOM     85  O   UNL A   1      31.407  26.452  21.322  1.00  0.00    -0.201 OA
BRANCH  83  86
ATOM     86  N   UNL A   1      30.608  26.952  23.698  1.00  0.00    -0.277 N 
ATOM     87  H   UNL A   1      30.167  26.391  24.375  1.00  0.00     0.180 HD
BRANCH  86  88
ATOM     88  C   UNL A   1      30.234  28.333  23.517  1.00  0.00     0.075 A 
ATOM     89  C   UNL A   1      29.247  28.617  22.559  1.00  0.00     0.029 A 
ATOM     90  C   UNL A   1      30.663  29.355  24.390  1.00  0.00     0.089 A 
ATOM     91  C   UNL A   1      28.678  29.891  22.480  1.00  0.00     0.002 A 
ATOM     92  C   UNL A   1      30.064  30.628  24.311  1.00  0.00     0.030 A 
ATOM     93  C   UNL A   1      29.078  30.891  23.361  1.00  0.00     0.002 A 
BRANCH  90  94
ATOM     94  N   UNL A   1      31.598  29.121  25.437  1.00  0.00    -0.238 N 
ATOM     95  C   UNL A   1      32.733  29.834  25.760  1.00  0.00     0.130 A 
ATOM     96  N   UNL A   1      31.479  28.021  26.236  1.00  0.00    -0.175 NA
ATOM     97  C   UNL A   1      33.469  29.027  26.582  1.00  0.00     0.056 A 
ATOM     98  C   UNL A   1      32.676  27.905  26.819  1.00  0.00     0.151 A 
ATOM     99  Br  UNL A   1      35.177  29.330  27.262  1.00  0.00    -0.047 Br
ENDBRANCH  90  94
ENDBRANCH  86  88
ENDBRANCH  83  86
ENDBRANCH  80  83
ENDBRANCH  75  77
ENDBRANCH  74  75
ENDBRANCH  73  74
ENDBRANCH   1  73
TORSDOF 21
ENDMDL
