MODEL 1
REMARK VINA RESULT:     -10.4      0.000      0.000
REMARK SMILES O=C(CCC(=O)OCCOCCOC(=O)c1ccc(-c2c3nc(c(-c4cccc(S(=O)(=O)[O-])c4F)c4ccc([nH]4)c(-c4cccc(S(=O)(=O)[O-])c4F)c4nc(c(-c5cccc(S(=O)(=O)[O-])c5F)c5ccc2[nH]5)C=C4)C=C3)cc1)Nc1ccc(Br)c([N+](=O)[O-])c1
REMARK SMILES IDX 9 1 8 2 7 3 5 4 6 5 4 6 3 7 2 8 1 9 79 10 80 12 81 13 89 14
REMARK SMILES IDX 82 15 85 16 83 17 84 18 86 19 87 20 88 21 10 22 11 23 12 24
REMARK SMILES IDX 13 25 14 26 15 27 16 28 17 29 78 30 18 31 77 32 19 33 20 34
REMARK SMILES IDX 21 35 71 36 22 37 76 38 70 39 72 40 23 41 75 42 69 43 68 44
REMARK SMILES IDX 24 46 56 47 36 48 55 49 37 50 40 51 54 52 73 53 38 54 39 55
REMARK SMILES IDX 53 57 74 58 41 59 25 60 26 61 34 62 27 63 29 64 35 65 28 66
REMARK SMILES IDX 30 67 31 68 32 69 33 70 57 71 58 72 66 73 59 74 61 75 67 76
REMARK SMILES IDX 60 77 62 78 63 79 64 80 65 81 42 82 43 83 51 84 44 85 46 86
REMARK SMILES IDX 52 87 45 88 47 89 48 90 49 91 50 92
REMARK H PARENT 79 11 72 45 40 56
REMARK Flexibility Score: inf
ROOT
ATOM      1  C   UNL A   1      33.767  23.049  23.249  1.00  0.00     0.202 C 
ENDROOT
BRANCH   1   2
ATOM      2  C   UNL A   1      32.681  22.059  22.814  1.00  0.00     0.261 C 
BRANCH   2   3
ATOM      3  O   UNL A   1      31.713  21.848  23.868  1.00  0.00    -0.463 OA
BRANCH   3   4
ATOM      4  C   UNL A   1      32.145  21.188  24.979  1.00  0.00     0.306 C 
ATOM      5  O   UNL A   1      32.602  20.055  24.994  1.00  0.00    -0.252 OA
BRANCH   4   6
ATOM      6  C   UNL A   1      31.970  22.041  26.217  1.00  0.00     0.132 C 
BRANCH   6   7
ATOM      7  C   UNL A   1      30.614  22.732  26.318  1.00  0.00     0.112 C 
BRANCH   7   8
ATOM      8  C   UNL A   1      30.621  24.228  26.045  1.00  0.00     0.224 C 
ATOM      9  O   UNL A   1      30.894  25.009  26.952  1.00  0.00    -0.275 OA
ATOM     10  N   UNL A   1      30.329  24.579  24.745  1.00  0.00    -0.326 N 
ATOM     11  H   UNL A   1      30.197  23.849  24.098  1.00  0.00     0.169 HD
BRANCH  10  12
ATOM     12  C   UNL A   1      30.204  25.895  24.265  1.00  0.00     0.048 A 
ATOM     13  C   UNL A   1      28.937  26.298  23.834  1.00  0.00     0.028 A 
ATOM     14  C   UNL A   1      31.259  26.804  24.233  1.00  0.00     0.113 A 
ATOM     15  C   UNL A   1      28.703  27.633  23.489  1.00  0.00     0.025 A 
ATOM     16  C   UNL A   1      31.025  28.118  23.795  1.00  0.00     0.285 A 
ATOM     17  C   UNL A   1      29.749  28.556  23.449  1.00  0.00     0.095 A 
ATOM     18  Br  UNL A   1      29.348  30.339  22.954  1.00  0.00    -0.043 Br
BRANCH  16  19
ATOM     19  N   UNL A   1      32.179  28.980  23.644  1.00  0.00     0.064 N 
ATOM     20  O   UNL A   1      32.766  28.953  22.553  1.00  0.00    -0.258 OA
ATOM     21  O   UNL A   1      32.565  29.591  24.650  1.00  0.00    -0.258 OA
ENDBRANCH  16  19
ENDBRANCH  10  12
ENDBRANCH   7   8
ENDBRANCH   6   7
ENDBRANCH   4   6
ENDBRANCH   3   4
ENDBRANCH   2   3
ENDBRANCH   1   2
BRANCH   1  22
ATOM     22  O   UNL A   1      35.060  22.485  23.480  1.00  0.00    -0.374 OA
BRANCH  22  23
ATOM     23  C   UNL A   1      35.499  22.454  24.835  1.00  0.00     0.202 C 
BRANCH  23  24
ATOM     24  C   UNL A   1      36.466  21.324  25.213  1.00  0.00     0.261 C 
BRANCH  24  25
ATOM     25  O   UNL A   1      37.830  21.635  24.879  1.00  0.00    -0.460 OA
BRANCH  25  26
ATOM     26  C   UNL A   1      38.743  21.231  25.800  1.00  0.00     0.338 C 
ATOM     27  O   UNL A   1      39.130  20.093  26.001  1.00  0.00    -0.246 OA
BRANCH  26  28
ATOM     28  C   UNL A   1      39.375  22.409  26.427  1.00  0.00     0.060 A 
ATOM     29  C   UNL A   1      38.910  23.676  26.053  1.00  0.00     0.016 A 
ATOM     30  C   UNL A   1      40.441  22.283  27.315  1.00  0.00     0.016 A 
ATOM     31  C   UNL A   1      39.521  24.829  26.553  1.00  0.00     0.010 A 
ATOM     32  C   UNL A   1      41.050  23.442  27.811  1.00  0.00     0.010 A 
ATOM     33  C   UNL A   1      40.609  24.726  27.428  1.00  0.00    -0.014 A 
BRANCH  33  34
ATOM     34  C   UNL A   1      41.362  25.928  27.888  1.00  0.00     0.031 A 
ATOM     35  C   UNL A   1      40.613  27.062  28.541  1.00  0.00     0.074 A 
ATOM     36  C   UNL A   1      42.683  26.059  27.659  1.00  0.00     0.049 A 
ATOM     37  N   UNL A   1      41.041  28.249  28.883  1.00  0.00    -0.248 NA
ATOM     38  C   UNL A   1      39.197  26.819  28.861  1.00  0.00     0.031 C 
ATOM     39  C   UNL A   1      43.553  25.045  27.066  1.00  0.00     0.029 A 
ATOM     40  N   UNL A   1      43.508  27.152  27.810  1.00  0.00    -0.354 N 
ATOM     41  C   UNL A   1      39.953  28.895  29.456  1.00  0.00     0.074 A 
ATOM     42  C   UNL A   1      38.828  27.989  29.361  1.00  0.00     0.031 C 
ATOM     43  C   UNL A   1      44.740  25.603  26.772  1.00  0.00     0.029 A 
ATOM     44  C   UNL A   1      44.713  27.008  27.160  1.00  0.00     0.049 A 
ATOM     45  H   UNL A   1      43.261  27.951  28.329  1.00  0.00     0.167 HD
ATOM     46  C   UNL A   1      39.901  30.109  30.056  1.00  0.00     0.034 A 
ATOM     47  C   UNL A   1      45.664  27.916  26.858  1.00  0.00     0.034 A 
ATOM     48  C   UNL A   1      41.022  31.004  30.159  1.00  0.00     0.049 A 
ATOM     49  C   UNL A   1      45.554  29.312  27.403  1.00  0.00     0.074 A 
ATOM     50  C   UNL A   1      41.111  32.199  30.849  1.00  0.00     0.029 A 
ATOM     51  N   UNL A   1      42.238  30.819  29.521  1.00  0.00    -0.354 N 
ATOM     52  N   UNL A   1      44.590  29.840  28.116  1.00  0.00    -0.248 NA
ATOM     53  C   UNL A   1      46.692  30.212  27.171  1.00  0.00     0.031 C 
ATOM     54  C   UNL A   1      42.371  32.756  30.596  1.00  0.00     0.029 A 
ATOM     55  C   UNL A   1      43.077  31.891  29.775  1.00  0.00     0.049 A 
ATOM     56  H   UNL A   1      42.472  30.039  28.968  1.00  0.00     0.167 HD
ATOM     57  C   UNL A   1      45.030  31.110  28.472  1.00  0.00     0.074 A 
ATOM     58  C   UNL A   1      46.344  31.275  27.885  1.00  0.00     0.031 C 
ATOM     59  C   UNL A   1      44.403  32.043  29.231  1.00  0.00     0.034 A 
BRANCH  46  60
ATOM     60  C   UNL A   1      38.599  30.505  30.704  1.00  0.00     0.023 A 
ATOM     61  C   UNL A   1      38.350  30.128  32.041  1.00  0.00     0.012 A 
ATOM     62  C   UNL A   1      37.639  31.272  30.015  1.00  0.00     0.148 A 
ATOM     63  C   UNL A   1      37.149  30.461  32.665  1.00  0.00     0.002 A 
ATOM     64  C   UNL A   1      36.463  31.641  30.660  1.00  0.00     0.091 A 
ATOM     65  F   UNL A   1      37.883  31.611  28.741  1.00  0.00    -0.205 F 
ATOM     66  C   UNL A   1      36.210  31.223  31.978  1.00  0.00     0.022 A 
BRANCH  64  67
ATOM     67  S   UNL A   1      35.225  32.690  29.890  1.00  0.00     0.127 S 
ATOM     68  O   UNL A   1      36.024  33.850  29.497  1.00  0.00    -0.237 OA
ATOM     69  O   UNL A   1      34.768  31.859  28.775  1.00  0.00    -0.237 OA
ATOM     70  O   UNL A   1      34.217  32.936  30.912  1.00  0.00    -0.744 OA
ENDBRANCH  64  67
ENDBRANCH  46  60
BRANCH  47  71
ATOM     71  C   UNL A   1      46.818  27.516  26.004  1.00  0.00     0.023 A 
ATOM     72  C   UNL A   1      46.777  27.738  24.617  1.00  0.00     0.012 A 
ATOM     73  C   UNL A   1      47.972  26.945  26.577  1.00  0.00     0.148 A 
ATOM     74  C   UNL A   1      47.859  27.379  23.810  1.00  0.00     0.002 A 
ATOM     75  C   UNL A   1      49.063  26.630  25.775  1.00  0.00     0.091 A 
ATOM     76  F   UNL A   1      47.985  26.731  27.897  1.00  0.00    -0.205 F 
ATOM     77  C   UNL A   1      49.004  26.834  24.389  1.00  0.00     0.022 A 
BRANCH  75  78
ATOM     78  S   UNL A   1      50.620  26.037  26.449  1.00  0.00     0.127 S 
ATOM     79  O   UNL A   1      51.444  25.927  25.249  1.00  0.00    -0.237 OA
ATOM     80  O   UNL A   1      50.985  27.130  27.353  1.00  0.00    -0.237 OA
ATOM     81  O   UNL A   1      50.309  24.784  27.121  1.00  0.00    -0.744 OA
ENDBRANCH  75  78
ENDBRANCH  47  71
BRANCH  59  82
ATOM     82  C   UNL A   1      45.141  33.322  29.531  1.00  0.00     0.023 A 
ATOM     83  C   UNL A   1      45.926  33.427  30.696  1.00  0.00     0.012 A 
ATOM     84  C   UNL A   1      45.119  34.393  28.614  1.00  0.00     0.148 A 
ATOM     85  C   UNL A   1      46.655  34.588  30.956  1.00  0.00     0.002 A 
ATOM     86  C   UNL A   1      45.887  35.526  28.855  1.00  0.00     0.091 A 
ATOM     87  F   UNL A   1      44.351  34.281  27.520  1.00  0.00    -0.205 F 
ATOM     88  C   UNL A   1      46.646  35.630  30.031  1.00  0.00     0.022 A 
BRANCH  86  89
ATOM     89  S   UNL A   1      46.013  36.878  27.678  1.00  0.00     0.127 S 
ATOM     90  O   UNL A   1      44.642  37.388  27.663  1.00  0.00    -0.237 OA
ATOM     91  O   UNL A   1      46.984  37.761  28.326  1.00  0.00    -0.237 OA
ATOM     92  O   UNL A   1      46.470  36.287  26.429  1.00  0.00    -0.744 OA
ENDBRANCH  86  89
ENDBRANCH  59  82
ENDBRANCH  33  34
ENDBRANCH  26  28
ENDBRANCH  25  26
ENDBRANCH  24  25
ENDBRANCH  23  24
ENDBRANCH  22  23
ENDBRANCH   1  22
TORSDOF 21
ENDMDL
MODEL 2
REMARK VINA RESULT:     -10.0      1.872      7.888
REMARK SMILES O=C(CCC(=O)OCCOCCOC(=O)c1ccc(-c2c3nc(c(-c4cccc(S(=O)(=O)[O-])c4F)c4ccc([nH]4)c(-c4cccc(S(=O)(=O)[O-])c4F)c4nc(c(-c5cccc(S(=O)(=O)[O-])c5F)c5ccc2[nH]5)C=C4)C=C3)cc1)Nc1ccc(Br)c([N+](=O)[O-])c1
REMARK SMILES IDX 9 1 8 2 7 3 5 4 6 5 4 6 3 7 2 8 1 9 79 10 80 12 81 13 89 14
REMARK SMILES IDX 82 15 85 16 83 17 84 18 86 19 87 20 88 21 10 22 11 23 12 24
REMARK SMILES IDX 13 25 14 26 15 27 16 28 17 29 78 30 18 31 77 32 19 33 20 34
REMARK SMILES IDX 21 35 71 36 22 37 76 38 70 39 72 40 23 41 75 42 69 43 68 44
REMARK SMILES IDX 24 46 56 47 36 48 55 49 37 50 40 51 54 52 73 53 38 54 39 55
REMARK SMILES IDX 53 57 74 58 41 59 25 60 26 61 34 62 27 63 29 64 35 65 28 66
REMARK SMILES IDX 30 67 31 68 32 69 33 70 57 71 58 72 66 73 59 74 61 75 67 76
REMARK SMILES IDX 60 77 62 78 63 79 64 80 65 81 42 82 43 83 51 84 44 85 46 86
REMARK SMILES IDX 52 87 45 88 47 89 48 90 49 91 50 92
REMARK H PARENT 79 11 72 45 40 56
REMARK Flexibility Score: inf
ROOT
ATOM      1  C   UNL A   1      37.289  21.081  24.839  1.00  0.00     0.202 C 
ENDROOT
BRANCH   1   2
ATOM      2  C   UNL A   1      35.855  21.569  25.071  1.00  0.00     0.261 C 
BRANCH   2   3
ATOM      3  O   UNL A   1      35.355  21.135  26.356  1.00  0.00    -0.463 OA
BRANCH   3   4
ATOM      4  C   UNL A   1      34.016  21.272  26.576  1.00  0.00     0.306 C 
ATOM      5  O   UNL A   1      33.506  21.617  27.631  1.00  0.00    -0.252 OA
BRANCH   4   6
ATOM      6  C   UNL A   1      33.226  20.921  25.334  1.00  0.00     0.132 C 
BRANCH   6   7
ATOM      7  C   UNL A   1      31.900  21.663  25.202  1.00  0.00     0.112 C 
BRANCH   7   8
ATOM      8  C   UNL A   1      32.009  23.137  24.843  1.00  0.00     0.224 C 
ATOM      9  O   UNL A   1      32.956  23.528  24.165  1.00  0.00    -0.275 OA
ATOM     10  N   UNL A   1      30.980  23.924  25.313  1.00  0.00    -0.326 N 
ATOM     11  H   UNL A   1      30.245  23.471  25.785  1.00  0.00     0.169 HD
BRANCH  10  12
ATOM     12  C   UNL A   1      30.893  25.321  25.174  1.00  0.00     0.048 A 
ATOM     13  C   UNL A   1      31.484  26.098  26.174  1.00  0.00     0.028 A 
ATOM     14  C   UNL A   1      30.287  25.948  24.088  1.00  0.00     0.113 A 
ATOM     15  C   UNL A   1      31.572  27.486  26.026  1.00  0.00     0.025 A 
ATOM     16  C   UNL A   1      30.303  27.350  24.004  1.00  0.00     0.285 A 
ATOM     17  C   UNL A   1      30.966  28.130  24.946  1.00  0.00     0.095 A 
ATOM     18  Br  UNL A   1      31.117  30.015  24.832  1.00  0.00    -0.043 Br
BRANCH  16  19
ATOM     19  N   UNL A   1      29.536  27.956  22.935  1.00  0.00     0.064 N 
ATOM     20  O   UNL A   1      30.159  28.317  21.927  1.00  0.00    -0.258 OA
ATOM     21  O   UNL A   1      28.337  28.177  23.153  1.00  0.00    -0.258 OA
ENDBRANCH  16  19
ENDBRANCH  10  12
ENDBRANCH   7   8
ENDBRANCH   6   7
ENDBRANCH   4   6
ENDBRANCH   3   4
ENDBRANCH   2   3
ENDBRANCH   1   2
BRANCH   1  22
ATOM     22  O   UNL A   1      37.434  19.678  24.605  1.00  0.00    -0.374 OA
BRANCH  22  23
ATOM     23  C   UNL A   1      38.426  19.011  25.380  1.00  0.00     0.202 C 
BRANCH  23  24
ATOM     24  C   UNL A   1      39.533  19.891  25.976  1.00  0.00     0.261 C 
BRANCH  24  25
ATOM     25  O   UNL A   1      40.845  19.345  25.757  1.00  0.00    -0.460 OA
BRANCH  25  26
ATOM     26  C   UNL A   1      41.753  19.653  26.718  1.00  0.00     0.338 C 
ATOM     27  O   UNL A   1      42.503  18.885  27.293  1.00  0.00    -0.246 OA
BRANCH  26  28
ATOM     28  C   UNL A   1      41.857  21.120  26.857  1.00  0.00     0.060 A 
ATOM     29  C   UNL A   1      42.138  21.866  25.705  1.00  0.00     0.016 A 
ATOM     30  C   UNL A   1      41.744  21.750  28.094  1.00  0.00     0.016 A 
ATOM     31  C   UNL A   1      42.326  23.248  25.787  1.00  0.00     0.010 A 
ATOM     32  C   UNL A   1      41.935  23.134  28.169  1.00  0.00     0.010 A 
ATOM     33  C   UNL A   1      42.241  23.898  27.023  1.00  0.00    -0.014 A 
BRANCH  33  34
ATOM     34  C   UNL A   1      42.551  25.349  27.170  1.00  0.00     0.031 A 
ATOM     35  C   UNL A   1      43.946  25.839  26.875  1.00  0.00     0.074 A 
ATOM     36  C   UNL A   1      41.636  26.218  27.642  1.00  0.00     0.049 A 
ATOM     37  N   UNL A   1      44.468  27.021  27.072  1.00  0.00    -0.248 NA
ATOM     38  C   UNL A   1      44.869  24.868  26.263  1.00  0.00     0.031 C 
ATOM     39  C   UNL A   1      40.241  25.909  27.947  1.00  0.00     0.029 A 
ATOM     40  N   UNL A   1      41.778  27.528  28.042  1.00  0.00    -0.354 N 
ATOM     41  C   UNL A   1      45.777  26.940  26.613  1.00  0.00     0.074 A 
ATOM     42  C   UNL A   1      45.987  25.574  26.181  1.00  0.00     0.031 C 
ATOM     43  C   UNL A   1      39.698  26.942  28.614  1.00  0.00     0.029 A 
ATOM     44  C   UNL A   1      40.706  27.983  28.777  1.00  0.00     0.049 A 
ATOM     45  H   UNL A   1      42.563  28.081  27.824  1.00  0.00     0.167 HD
ATOM     46  C   UNL A   1      46.705  27.922  26.507  1.00  0.00     0.034 A 
ATOM     47  C   UNL A   1      40.567  29.085  29.544  1.00  0.00     0.034 A 
ATOM     48  C   UNL A   1      46.491  29.280  26.926  1.00  0.00     0.049 A 
ATOM     49  C   UNL A   1      41.652  30.124  29.546  1.00  0.00     0.074 A 
ATOM     50  C   UNL A   1      47.316  30.376  26.753  1.00  0.00     0.029 A 
ATOM     51  N   UNL A   1      45.386  29.720  27.636  1.00  0.00    -0.354 N 
ATOM     52  N   UNL A   1      42.811  30.102  28.935  1.00  0.00    -0.248 NA
ATOM     53  C   UNL A   1      41.382  31.371  30.276  1.00  0.00     0.031 C 
ATOM     54  C   UNL A   1      46.725  31.472  27.394  1.00  0.00     0.029 A 
ATOM     55  C   UNL A   1      45.518  31.065  27.937  1.00  0.00     0.049 A 
ATOM     56  H   UNL A   1      44.618  29.158  27.889  1.00  0.00     0.167 HD
ATOM     57  C   UNL A   1      43.382  31.352  29.152  1.00  0.00     0.074 A 
ATOM     58  C   UNL A   1      42.444  32.103  29.962  1.00  0.00     0.031 C 
ATOM     59  C   UNL A   1      44.569  31.831  28.704  1.00  0.00     0.034 A 
BRANCH  46  60
ATOM     60  C   UNL A   1      48.016  27.565  25.852  1.00  0.00     0.023 A 
ATOM     61  C   UNL A   1      49.093  27.130  26.654  1.00  0.00     0.012 A 
ATOM     62  C   UNL A   1      48.179  27.625  24.455  1.00  0.00     0.148 A 
ATOM     63  C   UNL A   1      50.323  26.811  26.083  1.00  0.00     0.002 A 
ATOM     64  C   UNL A   1      49.396  27.260  23.889  1.00  0.00     0.091 A 
ATOM     65  F   UNL A   1      47.152  28.054  23.707  1.00  0.00    -0.205 F 
ATOM     66  C   UNL A   1      50.473  26.869  24.702  1.00  0.00     0.022 A 
BRANCH  64  67
ATOM     67  S   UNL A   1      49.664  27.222  22.113  1.00  0.00     0.127 S 
ATOM     68  O   UNL A   1      49.389  28.608  21.742  1.00  0.00    -0.237 OA
ATOM     69  O   UNL A   1      51.073  26.836  22.023  1.00  0.00    -0.237 OA
ATOM     70  O   UNL A   1      48.734  26.232  21.589  1.00  0.00    -0.744 OA
ENDBRANCH  64  67
ENDBRANCH  46  60
BRANCH  47  71
ATOM     71  C   UNL A   1      39.335  29.262  30.362  1.00  0.00     0.023 A 
ATOM     72  C   UNL A   1      39.160  28.519  31.541  1.00  0.00     0.012 A 
ATOM     73  C   UNL A   1      38.349  30.196  29.984  1.00  0.00     0.148 A 
ATOM     74  C   UNL A   1      38.014  28.688  32.322  1.00  0.00     0.002 A 
ATOM     75  C   UNL A   1      37.232  30.392  30.787  1.00  0.00     0.091 A 
ATOM     76  F   UNL A   1      38.530  30.884  28.851  1.00  0.00    -0.205 F 
ATOM     77  C   UNL A   1      37.056  29.629  31.950  1.00  0.00     0.022 A 
BRANCH  75  78
ATOM     78  S   UNL A   1      36.009  31.664  30.450  1.00  0.00     0.127 S 
ATOM     79  O   UNL A   1      35.198  31.631  31.664  1.00  0.00    -0.237 OA
ATOM     80  O   UNL A   1      36.853  32.852  30.301  1.00  0.00    -0.237 OA
ATOM     81  O   UNL A   1      35.335  31.252  29.227  1.00  0.00    -0.744 OA
ENDBRANCH  75  78
ENDBRANCH  47  71
BRANCH  59  82
ATOM     82  C   UNL A   1      44.917  33.262  29.025  1.00  0.00     0.023 A 
ATOM     83  C   UNL A   1      45.723  33.559  30.141  1.00  0.00     0.012 A 
ATOM     84  C   UNL A   1      44.509  34.307  28.170  1.00  0.00     0.148 A 
ATOM     85  C   UNL A   1      46.095  34.876  30.415  1.00  0.00     0.002 A 
ATOM     86  C   UNL A   1      44.924  35.609  28.422  1.00  0.00     0.091 A 
ATOM     87  F   UNL A   1      43.727  34.006  27.123  1.00  0.00    -0.205 F 
ATOM     88  C   UNL A   1      45.707  35.897  29.551  1.00  0.00     0.022 A 
BRANCH  86  89
ATOM     89  S   UNL A   1      44.553  36.974  27.314  1.00  0.00     0.127 S 
ATOM     90  O   UNL A   1      43.384  36.467  26.597  1.00  0.00    -0.237 OA
ATOM     91  O   UNL A   1      44.269  38.062  28.250  1.00  0.00    -0.237 OA
ATOM     92  O   UNL A   1      45.745  37.170  26.500  1.00  0.00    -0.744 OA
ENDBRANCH  86  89
ENDBRANCH  59  82
ENDBRANCH  33  34
ENDBRANCH  26  28
ENDBRANCH  25  26
ENDBRANCH  24  25
ENDBRANCH  23  24
ENDBRANCH  22  23
ENDBRANCH   1  22
TORSDOF 21
ENDMDL
MODEL 3
REMARK VINA RESULT:      -9.7      1.796      2.350
REMARK SMILES O=C(CCC(=O)OCCOCCOC(=O)c1ccc(-c2c3nc(c(-c4cccc(S(=O)(=O)[O-])c4F)c4ccc([nH]4)c(-c4cccc(S(=O)(=O)[O-])c4F)c4nc(c(-c5cccc(S(=O)(=O)[O-])c5F)c5ccc2[nH]5)C=C4)C=C3)cc1)Nc1ccc(Br)c([N+](=O)[O-])c1
REMARK SMILES IDX 9 1 8 2 7 3 5 4 6 5 4 6 3 7 2 8 1 9 79 10 80 12 81 13 89 14
REMARK SMILES IDX 82 15 85 16 83 17 84 18 86 19 87 20 88 21 10 22 11 23 12 24
REMARK SMILES IDX 13 25 14 26 15 27 16 28 17 29 78 30 18 31 77 32 19 33 20 34
REMARK SMILES IDX 21 35 71 36 22 37 76 38 70 39 72 40 23 41 75 42 69 43 68 44
REMARK SMILES IDX 24 46 56 47 36 48 55 49 37 50 40 51 54 52 73 53 38 54 39 55
REMARK SMILES IDX 53 57 74 58 41 59 25 60 26 61 34 62 27 63 29 64 35 65 28 66
REMARK SMILES IDX 30 67 31 68 32 69 33 70 57 71 58 72 66 73 59 74 61 75 67 76
REMARK SMILES IDX 60 77 62 78 63 79 64 80 65 81 42 82 43 83 51 84 44 85 46 86
REMARK SMILES IDX 52 87 45 88 47 89 48 90 49 91 50 92
REMARK H PARENT 79 11 72 45 40 56
REMARK Flexibility Score: inf
ROOT
ATOM      1  C   UNL A   1      36.432  23.205  24.725  1.00  0.00     0.202 C 
ENDROOT
BRANCH   1   2
ATOM      2  C   UNL A   1      34.920  23.394  24.890  1.00  0.00     0.261 C 
BRANCH   2   3
ATOM      3  O   UNL A   1      34.324  22.272  25.580  1.00  0.00    -0.463 OA
BRANCH   3   4
ATOM      4  C   UNL A   1      33.204  22.524  26.316  1.00  0.00     0.306 C 
ATOM      5  O   UNL A   1      33.160  22.584  27.536  1.00  0.00    -0.252 OA
BRANCH   4   6
ATOM      6  C   UNL A   1      31.998  22.705  25.421  1.00  0.00     0.132 C 
BRANCH   6   7
ATOM      7  C   UNL A   1      30.767  23.260  26.130  1.00  0.00     0.112 C 
BRANCH   7   8
ATOM      8  C   UNL A   1      30.412  24.700  25.794  1.00  0.00     0.224 C 
ATOM      9  O   UNL A   1      30.535  25.571  26.650  1.00  0.00    -0.275 OA
ATOM     10  N   UNL A   1      29.988  24.904  24.498  1.00  0.00    -0.326 N 
ATOM     11  H   UNL A   1      30.002  24.128  23.892  1.00  0.00     0.169 HD
BRANCH  10  12
ATOM     12  C   UNL A   1      29.538  26.127  23.971  1.00  0.00     0.048 A 
ATOM     13  C   UNL A   1      28.168  26.388  24.046  1.00  0.00     0.028 A 
ATOM     14  C   UNL A   1      30.388  27.084  23.419  1.00  0.00     0.113 A 
ATOM     15  C   UNL A   1      27.669  27.642  23.684  1.00  0.00     0.025 A 
ATOM     16  C   UNL A   1      29.854  28.305  22.974  1.00  0.00     0.285 A 
ATOM     17  C   UNL A   1      28.505  28.611  23.126  1.00  0.00     0.095 A 
ATOM     18  Br  UNL A   1      27.745  30.278  22.646  1.00  0.00    -0.043 Br
BRANCH  16  19
ATOM     19  N   UNL A   1      30.753  29.203  22.279  1.00  0.00     0.064 N 
ATOM     20  O   UNL A   1      30.299  29.810  21.298  1.00  0.00    -0.258 OA
ATOM     21  O   UNL A   1      31.937  29.212  22.641  1.00  0.00    -0.258 OA
ENDBRANCH  16  19
ENDBRANCH  10  12
ENDBRANCH   7   8
ENDBRANCH   6   7
ENDBRANCH   4   6
ENDBRANCH   3   4
ENDBRANCH   2   3
ENDBRANCH   1   2
BRANCH   1  22
ATOM     22  O   UNL A   1      37.083  22.486  25.774  1.00  0.00    -0.374 OA
BRANCH  22  23
ATOM     23  C   UNL A   1      37.809  21.324  25.384  1.00  0.00     0.202 C 
BRANCH  23  24
ATOM     24  C   UNL A   1      39.156  21.095  26.083  1.00  0.00     0.261 C 
BRANCH  24  25
ATOM     25  O   UNL A   1      39.895  20.004  25.506  1.00  0.00    -0.460 OA
BRANCH  25  26
ATOM     26  C   UNL A   1      41.096  19.763  26.091  1.00  0.00     0.338 C 
ATOM     27  O   UNL A   1      41.667  18.691  26.183  1.00  0.00    -0.246 OA
BRANCH  26  28
ATOM     28  C   UNL A   1      41.741  21.042  26.454  1.00  0.00     0.060 A 
ATOM     29  C   UNL A   1      41.977  21.291  27.813  1.00  0.00     0.016 A 
ATOM     30  C   UNL A   1      42.052  22.005  25.497  1.00  0.00     0.016 A 
ATOM     31  C   UNL A   1      42.512  22.515  28.224  1.00  0.00     0.010 A 
ATOM     32  C   UNL A   1      42.586  23.229  25.916  1.00  0.00     0.010 A 
ATOM     33  C   UNL A   1      42.809  23.506  27.281  1.00  0.00    -0.014 A 
BRANCH  33  34
ATOM     34  C   UNL A   1      43.267  24.864  27.688  1.00  0.00     0.031 A 
ATOM     35  C   UNL A   1      42.254  25.873  28.166  1.00  0.00     0.074 A 
ATOM     36  C   UNL A   1      44.556  25.238  27.560  1.00  0.00     0.049 A 
ATOM     37  N   UNL A   1      42.411  27.144  28.430  1.00  0.00    -0.248 NA
ATOM     38  C   UNL A   1      40.885  25.377  28.387  1.00  0.00     0.031 C 
ATOM     39  C   UNL A   1      45.658  24.376  27.141  1.00  0.00     0.029 A 
ATOM     40  N   UNL A   1      45.137  26.481  27.677  1.00  0.00    -0.354 N 
ATOM     41  C   UNL A   1      41.166  27.602  28.846  1.00  0.00     0.074 A 
ATOM     42  C   UNL A   1      40.251  26.485  28.742  1.00  0.00     0.031 C 
ATOM     43  C   UNL A   1      46.741  25.134  26.897  1.00  0.00     0.029 A 
ATOM     44  C   UNL A   1      46.407  26.532  27.148  1.00  0.00     0.049 A 
ATOM     45  H   UNL A   1      44.690  27.252  28.096  1.00  0.00     0.167 HD
ATOM     46  C   UNL A   1      40.824  28.823  29.322  1.00  0.00     0.034 A 
ATOM     47  C   UNL A   1      47.193  27.585  26.843  1.00  0.00     0.034 A 
ATOM     48  C   UNL A   1      41.736  29.928  29.435  1.00  0.00     0.049 A 
ATOM     49  C   UNL A   1      46.763  28.968  27.244  1.00  0.00     0.074 A 
ATOM     50  C   UNL A   1      41.526  31.166  30.016  1.00  0.00     0.029 A 
ATOM     51  N   UNL A   1      43.024  29.941  28.923  1.00  0.00    -0.354 N 
ATOM     52  N   UNL A   1      45.649  29.346  27.820  1.00  0.00    -0.248 NA
ATOM     53  C   UNL A   1      47.726  30.057  27.025  1.00  0.00     0.031 C 
ATOM     54  C   UNL A   1      42.675  31.941  29.819  1.00  0.00     0.029 A 
ATOM     55  C   UNL A   1      43.612  31.175  29.145  1.00  0.00     0.049 A 
ATOM     56  H   UNL A   1      43.457  29.183  28.467  1.00  0.00     0.167 HD
ATOM     57  C   UNL A   1      45.800  30.702  28.091  1.00  0.00     0.074 A 
ATOM     58  C   UNL A   1      47.111  31.080  27.605  1.00  0.00     0.031 C 
ATOM     59  C   UNL A   1      44.933  31.546  28.703  1.00  0.00     0.034 A 
BRANCH  46  60
ATOM     60  C   UNL A   1      39.411  29.000  29.818  1.00  0.00     0.023 A 
ATOM     61  C   UNL A   1      39.071  28.550  31.113  1.00  0.00     0.012 A 
ATOM     62  C   UNL A   1      38.430  29.634  29.031  1.00  0.00     0.148 A 
ATOM     63  C   UNL A   1      37.771  28.681  31.595  1.00  0.00     0.002 A 
ATOM     64  C   UNL A   1      37.146  29.803  29.538  1.00  0.00     0.091 A 
ATOM     65  F   UNL A   1      38.763  30.043  27.799  1.00  0.00    -0.205 F 
ATOM     66  C   UNL A   1      36.811  29.313  30.812  1.00  0.00     0.022 A 
BRANCH  64  67
ATOM     67  S   UNL A   1      35.858  30.677  28.641  1.00  0.00     0.127 S 
ATOM     68  O   UNL A   1      36.643  31.595  27.817  1.00  0.00    -0.237 OA
ATOM     69  O   UNL A   1      35.211  29.594  27.899  1.00  0.00    -0.237 OA
ATOM     70  O   UNL A   1      35.018  31.300  29.654  1.00  0.00    -0.744 OA
ENDBRANCH  64  67
ENDBRANCH  46  60
BRANCH  47  71
ATOM     71  C   UNL A   1      48.482  27.359  26.131  1.00  0.00     0.023 A 
ATOM     72  C   UNL A   1      49.624  26.968  26.850  1.00  0.00     0.012 A 
ATOM     73  C   UNL A   1      48.564  27.501  24.731  1.00  0.00     0.148 A 
ATOM     74  C   UNL A   1      50.834  26.742  26.189  1.00  0.00     0.002 A 
ATOM     75  C   UNL A   1      49.758  27.231  24.074  1.00  0.00     0.091 A 
ATOM     76  F   UNL A   1      47.468  27.885  24.068  1.00  0.00    -0.205 F 
ATOM     77  C   UNL A   1      50.899  26.864  24.802  1.00  0.00     0.022 A 
BRANCH  75  78
ATOM     78  S   UNL A   1      49.902  27.247  22.282  1.00  0.00     0.127 S 
ATOM     79  O   UNL A   1      48.850  26.314  21.889  1.00  0.00    -0.237 OA
ATOM     80  O   UNL A   1      49.630  28.653  21.977  1.00  0.00    -0.237 OA
ATOM     81  O   UNL A   1      51.264  26.824  21.991  1.00  0.00    -0.744 OA
ENDBRANCH  75  78
ENDBRANCH  47  71
BRANCH  59  82
ATOM     82  C   UNL A   1      45.380  32.965  28.943  1.00  0.00     0.023 A 
ATOM     83  C   UNL A   1      46.152  33.280  30.078  1.00  0.00     0.012 A 
ATOM     84  C   UNL A   1      45.098  33.973  27.998  1.00  0.00     0.148 A 
ATOM     85  C   UNL A   1      46.614  34.580  30.281  1.00  0.00     0.002 A 
ATOM     86  C   UNL A   1      45.604  35.255  28.182  1.00  0.00     0.091 A 
ATOM     87  F   UNL A   1      44.345  33.658  26.934  1.00  0.00    -0.205 F 
ATOM     88  C   UNL A   1      46.352  35.563  29.330  1.00  0.00     0.022 A 
BRANCH  86  89
ATOM     89  S   UNL A   1      45.397  36.560  26.965  1.00  0.00     0.127 S 
ATOM     90  O   UNL A   1      45.817  37.740  27.720  1.00  0.00    -0.237 OA
ATOM     91  O   UNL A   1      46.326  36.149  25.911  1.00  0.00    -0.237 OA
ATOM     92  O   UNL A   1      43.994  36.536  26.580  1.00  0.00    -0.744 OA
ENDBRANCH  86  89
ENDBRANCH  59  82
ENDBRANCH  33  34
ENDBRANCH  26  28
ENDBRANCH  25  26
ENDBRANCH  24  25
ENDBRANCH  23  24
ENDBRANCH  22  23
ENDBRANCH   1  22
TORSDOF 21
ENDMDL
