MODEL 1
REMARK VINA RESULT:      -9.8      0.000      0.000
REMARK SMILES Cc1cc(C(=O)Nc2nc(CC(=O)OCCOCCOC(=O)c3ccc(-c4c5nc(c(-c6cccc(S(=O)(=O)[O-])c6F)c6ccc([nH]6)c(-c6cccc(S(=O)(=O)[O-])c6F)c6nc(c(-c7cccc(S(=O)(=O)[O-])c7F)c7ccc4[nH]7)C=C6)C=C5)cc3)cs2)sc1C
REMARK SMILES IDX 17 1 16 2 15 3 14 4 12 5 13 6 11 7 10 8 8 9 9 10 87 11 86 12
REMARK SMILES IDX 7 13 5 14 6 15 4 17 1 18 2 19 3 20 89 21 88 22 90 23 18 24
REMARK SMILES IDX 19 25 20 26 21 27 22 28 23 29 24 30 85 31 25 32 84 33 26 34
REMARK SMILES IDX 27 35 28 36 78 37 29 38 83 39 77 40 79 41 30 42 82 43 76 44
REMARK SMILES IDX 75 45 31 47 63 48 43 49 62 50 44 51 47 52 61 53 80 54 45 55
REMARK SMILES IDX 46 56 60 58 81 59 48 60 32 61 33 62 41 63 34 64 36 65 42 66
REMARK SMILES IDX 35 67 37 68 38 69 39 70 40 71 64 72 65 73 73 74 66 75 68 76
REMARK SMILES IDX 74 77 67 78 69 79 70 80 71 81 72 82 49 83 50 84 58 85 51 86
REMARK SMILES IDX 53 87 59 88 52 89 54 90 55 91 56 92 57 93
REMARK H PARENT 7 16 79 46 47 57
REMARK Flexibility Score: inf
ROOT
ATOM      1  O   UNL A   1      32.793  34.614  28.402  1.00  0.00    -0.374 OA
ENDROOT
BRANCH   1   2
ATOM      2  C   UNL A   1      33.972  33.909  28.000  1.00  0.00     0.202 C 
BRANCH   2   3
ATOM      3  C   UNL A   1      34.213  32.561  28.689  1.00  0.00     0.261 C 
BRANCH   3   4
ATOM      4  O   UNL A   1      33.832  31.449  27.853  1.00  0.00    -0.463 OA
BRANCH   4   5
ATOM      5  C   UNL A   1      34.810  30.550  27.571  1.00  0.00     0.311 C 
ATOM      6  O   UNL A   1      36.010  30.812  27.550  1.00  0.00    -0.252 OA
BRANCH   5   7
ATOM      7  C   UNL A   1      34.316  29.159  27.266  1.00  0.00     0.179 C 
BRANCH   7   8
ATOM      8  C   UNL A   1      33.413  28.980  26.090  1.00  0.00     0.065 A 
ATOM      9  C   UNL A   1      33.048  28.221  24.052  1.00  0.00     0.189 A 
ATOM     10  N   UNL A   1      33.986  28.535  24.907  1.00  0.00    -0.224 NA
ATOM     11  S   UNL A   1      31.464  28.683  24.463  1.00  0.00    -0.105 S 
ATOM     12  C   UNL A   1      32.028  28.987  26.058  1.00  0.00     0.093 A 
BRANCH   9  13
ATOM     13  N   UNL A   1      33.147  27.455  22.933  1.00  0.00    -0.297 N 
ATOM     14  C   UNL A   1      33.476  26.116  22.912  1.00  0.00     0.267 C 
ATOM     15  O   UNL A   1      33.824  25.650  21.823  1.00  0.00    -0.268 OA
ATOM     16  H   UNL A   1      32.972  27.892  22.068  1.00  0.00     0.172 HD
BRANCH  14  17
ATOM     17  C   UNL A   1      33.313  25.253  24.086  1.00  0.00     0.093 A 
ATOM     18  C   UNL A   1      31.160  23.339  26.520  1.00  0.00     0.045 C 
ATOM     19  C   UNL A   1      32.294  23.944  25.765  1.00  0.00    -0.037 A 
ATOM     20  C   UNL A   1      32.120  24.796  24.618  1.00  0.00     0.029 A 
ATOM     21  C   UNL A   1      33.640  23.753  26.025  1.00  0.00     0.005 A 
ATOM     22  S   UNL A   1      34.589  24.887  25.174  1.00  0.00    -0.135 S 
ATOM     23  C   UNL A   1      34.302  22.793  26.955  1.00  0.00     0.056 C 
ENDBRANCH  14  17
ENDBRANCH   9  13
ENDBRANCH   7   8
ENDBRANCH   5   7
ENDBRANCH   4   5
ENDBRANCH   3   4
ENDBRANCH   2   3
ENDBRANCH   1   2
BRANCH   1  24
ATOM     24  C   UNL A   1      32.959  35.987  28.746  1.00  0.00     0.202 C 
BRANCH  24  25
ATOM     25  C   UNL A   1      32.770  36.329  30.230  1.00  0.00     0.261 C 
BRANCH  25  26
ATOM     26  O   UNL A   1      32.686  35.145  31.044  1.00  0.00    -0.460 OA
BRANCH  26  27
ATOM     27  C   UNL A   1      33.445  35.190  32.163  1.00  0.00     0.338 C 
ATOM     28  O   UNL A   1      33.148  35.718  33.229  1.00  0.00    -0.246 OA
BRANCH  27  29
ATOM     29  C   UNL A   1      34.648  34.350  32.025  1.00  0.00     0.060 A 
ATOM     30  C   UNL A   1      34.695  33.185  32.799  1.00  0.00     0.016 A 
ATOM     31  C   UNL A   1      35.751  34.741  31.263  1.00  0.00     0.016 A 
ATOM     32  C   UNL A   1      35.872  32.447  32.874  1.00  0.00     0.010 A 
ATOM     33  C   UNL A   1      36.937  33.994  31.341  1.00  0.00     0.010 A 
ATOM     34  C   UNL A   1      37.017  32.871  32.184  1.00  0.00    -0.014 A 
BRANCH  34  35
ATOM     35  C   UNL A   1      38.305  32.189  32.473  1.00  0.00     0.031 A 
ATOM     36  C   UNL A   1      39.054  32.514  33.739  1.00  0.00     0.074 A 
ATOM     37  C   UNL A   1      38.761  31.222  31.656  1.00  0.00     0.049 A 
ATOM     38  N   UNL A   1      40.101  31.924  34.254  1.00  0.00    -0.248 NA
ATOM     39  C   UNL A   1      38.555  33.650  34.533  1.00  0.00     0.031 C 
ATOM     40  C   UNL A   1      38.141  30.826  30.392  1.00  0.00     0.029 A 
ATOM     41  N   UNL A   1      39.850  30.396  31.771  1.00  0.00    -0.354 N 
ATOM     42  C   UNL A   1      40.392  32.613  35.425  1.00  0.00     0.074 A 
ATOM     43  C   UNL A   1      39.426  33.686  35.532  1.00  0.00     0.031 C 
ATOM     44  C   UNL A   1      38.863  29.832  29.846  1.00  0.00     0.029 A 
ATOM     45  C   UNL A   1      39.993  29.521  30.720  1.00  0.00     0.049 A 
ATOM     46  H   UNL A   1      40.471  30.426  32.535  1.00  0.00     0.167 HD
ATOM     47  C   UNL A   1      41.355  32.362  36.345  1.00  0.00     0.034 A 
ATOM     48  C   UNL A   1      40.921  28.571  30.493  1.00  0.00     0.034 A 
ATOM     49  C   UNL A   1      42.304  31.285  36.252  1.00  0.00     0.049 A 
ATOM     50  C   UNL A   1      41.978  28.308  31.536  1.00  0.00     0.074 A 
ATOM     51  C   UNL A   1      43.287  30.923  37.156  1.00  0.00     0.029 A 
ATOM     52  N   UNL A   1      42.396  30.401  35.189  1.00  0.00    -0.354 N 
ATOM     53  N   UNL A   1      42.142  28.872  32.707  1.00  0.00    -0.248 NA
ATOM     54  C   UNL A   1      42.950  27.244  31.240  1.00  0.00     0.031 C 
ATOM     55  C   UNL A   1      43.985  29.829  36.631  1.00  0.00     0.029 A 
ATOM     56  C   UNL A   1      43.425  29.500  35.408  1.00  0.00     0.049 A 
ATOM     57  H   UNL A   1      41.816  30.413  34.393  1.00  0.00     0.167 HD
ATOM     58  C   UNL A   1      43.216  28.215  33.301  1.00  0.00     0.074 A 
ATOM     59  C   UNL A   1      43.641  27.189  32.371  1.00  0.00     0.031 C 
ATOM     60  C   UNL A   1      43.811  28.454  34.496  1.00  0.00     0.034 A 
BRANCH  47  61
ATOM     61  C   UNL A   1      41.400  33.244  37.566  1.00  0.00     0.023 A 
ATOM     62  C   UNL A   1      42.359  34.275  37.637  1.00  0.00     0.012 A 
ATOM     63  C   UNL A   1      40.462  33.099  38.607  1.00  0.00     0.148 A 
ATOM     64  C   UNL A   1      42.399  35.132  38.735  1.00  0.00     0.002 A 
ATOM     65  C   UNL A   1      40.487  33.980  39.681  1.00  0.00     0.091 A 
ATOM     66  F   UNL A   1      39.575  32.097  38.532  1.00  0.00    -0.205 F 
ATOM     67  C   UNL A   1      41.459  34.992  39.751  1.00  0.00     0.022 A 
BRANCH  65  68
ATOM     68  S   UNL A   1      39.275  33.923  41.007  1.00  0.00     0.127 S 
ATOM     69  O   UNL A   1      38.018  33.944  40.258  1.00  0.00    -0.237 OA
ATOM     70  O   UNL A   1      39.579  32.644  41.649  1.00  0.00    -0.237 OA
ATOM     71  O   UNL A   1      39.532  35.092  41.834  1.00  0.00    -0.744 OA
ENDBRANCH  65  68
ENDBRANCH  47  61
BRANCH  48  72
ATOM     72  C   UNL A   1      40.854  27.748  29.253  1.00  0.00     0.023 A 
ATOM     73  C   UNL A   1      39.894  26.723  29.147  1.00  0.00     0.012 A 
ATOM     74  C   UNL A   1      41.724  27.988  28.172  1.00  0.00     0.148 A 
ATOM     75  C   UNL A   1      39.820  25.933  28.000  1.00  0.00     0.002 A 
ATOM     76  C   UNL A   1      41.608  27.234  27.010  1.00  0.00     0.091 A 
ATOM     77  F   UNL A   1      42.648  28.950  28.300  1.00  0.00    -0.205 F 
ATOM     78  C   UNL A   1      40.669  26.196  26.927  1.00  0.00     0.022 A 
BRANCH  76  79
ATOM     79  S   UNL A   1      42.571  27.600  25.538  1.00  0.00     0.127 S 
ATOM     80  O   UNL A   1      42.292  26.438  24.700  1.00  0.00    -0.237 OA
ATOM     81  O   UNL A   1      41.966  28.851  25.080  1.00  0.00    -0.237 OA
ATOM     82  O   UNL A   1      43.945  27.739  26.001  1.00  0.00    -0.744 OA
ENDBRANCH  76  79
ENDBRANCH  48  72
BRANCH  60  83
ATOM     83  C   UNL A   1      44.982  27.585  34.873  1.00  0.00     0.023 A 
ATOM     84  C   UNL A   1      46.282  27.964  34.484  1.00  0.00     0.012 A 
ATOM     85  C   UNL A   1      44.809  26.422  35.649  1.00  0.00     0.148 A 
ATOM     86  C   UNL A   1      47.385  27.181  34.825  1.00  0.00     0.002 A 
ATOM     87  C   UNL A   1      45.917  25.670  36.025  1.00  0.00     0.091 A 
ATOM     88  F   UNL A   1      43.564  26.060  35.997  1.00  0.00    -0.205 F 
ATOM     89  C   UNL A   1      47.204  26.040  35.603  1.00  0.00     0.022 A 
BRANCH  87  90
ATOM     90  S   UNL A   1      45.773  24.238  37.101  1.00  0.00     0.127 S 
ATOM     91  O   UNL A   1      45.028  24.785  38.231  1.00  0.00    -0.237 OA
ATOM     92  O   UNL A   1      45.019  23.294  36.274  1.00  0.00    -0.237 OA
ATOM     93  O   UNL A   1      47.141  23.823  37.384  1.00  0.00    -0.744 OA
ENDBRANCH  87  90
ENDBRANCH  60  83
ENDBRANCH  34  35
ENDBRANCH  27  29
ENDBRANCH  26  27
ENDBRANCH  25  26
ENDBRANCH  24  25
ENDBRANCH   1  24
TORSDOF 20
ENDMDL
MODEL 2
REMARK VINA RESULT:      -9.6      2.616      3.429
REMARK SMILES Cc1cc(C(=O)Nc2nc(CC(=O)OCCOCCOC(=O)c3ccc(-c4c5nc(c(-c6cccc(S(=O)(=O)[O-])c6F)c6ccc([nH]6)c(-c6cccc(S(=O)(=O)[O-])c6F)c6nc(c(-c7cccc(S(=O)(=O)[O-])c7F)c7ccc4[nH]7)C=C6)C=C5)cc3)cs2)sc1C
REMARK SMILES IDX 17 1 16 2 15 3 14 4 12 5 13 6 11 7 10 8 8 9 9 10 87 11 86 12
REMARK SMILES IDX 7 13 5 14 6 15 4 17 1 18 2 19 3 20 89 21 88 22 90 23 18 24
REMARK SMILES IDX 19 25 20 26 21 27 22 28 23 29 24 30 85 31 25 32 84 33 26 34
REMARK SMILES IDX 27 35 28 36 78 37 29 38 83 39 77 40 79 41 30 42 82 43 76 44
REMARK SMILES IDX 75 45 31 47 63 48 43 49 62 50 44 51 47 52 61 53 80 54 45 55
REMARK SMILES IDX 46 56 60 58 81 59 48 60 32 61 33 62 41 63 34 64 36 65 42 66
REMARK SMILES IDX 35 67 37 68 38 69 39 70 40 71 64 72 65 73 73 74 66 75 68 76
REMARK SMILES IDX 74 77 67 78 69 79 70 80 71 81 72 82 49 83 50 84 58 85 51 86
REMARK SMILES IDX 53 87 59 88 52 89 54 90 55 91 56 92 57 93
REMARK H PARENT 7 16 79 46 47 57
REMARK Flexibility Score: inf
ROOT
ATOM      1  O   UNL A   1      31.810  33.449  27.226  1.00  0.00    -0.374 OA
ENDROOT
BRANCH   1   2
ATOM      2  C   UNL A   1      31.393  32.227  26.609  1.00  0.00     0.202 C 
BRANCH   2   3
ATOM      3  C   UNL A   1      32.281  31.007  26.876  1.00  0.00     0.261 C 
BRANCH   3   4
ATOM      4  O   UNL A   1      31.725  29.799  26.316  1.00  0.00    -0.463 OA
BRANCH   4   5
ATOM      5  C   UNL A   1      32.305  29.347  25.174  1.00  0.00     0.311 C 
ATOM      6  O   UNL A   1      33.515  29.347  24.961  1.00  0.00    -0.252 OA
BRANCH   5   7
ATOM      7  C   UNL A   1      31.337  28.833  24.139  1.00  0.00     0.179 C 
BRANCH   7   8
ATOM      8  C   UNL A   1      30.904  27.406  24.235  1.00  0.00     0.065 A 
ATOM      9  C   UNL A   1      30.391  25.636  25.445  1.00  0.00     0.189 A 
ATOM     10  N   UNL A   1      31.006  26.790  25.474  1.00  0.00    -0.224 NA
ATOM     11  S   UNL A   1      29.904  25.076  23.916  1.00  0.00    -0.105 S 
ATOM     12  C   UNL A   1      30.203  26.654  23.306  1.00  0.00     0.093 A 
BRANCH   9  13
ATOM     13  N   UNL A   1      29.970  24.879  26.493  1.00  0.00    -0.297 N 
ATOM     14  C   UNL A   1      30.386  23.592  26.763  1.00  0.00     0.267 C 
ATOM     15  O   UNL A   1      29.694  22.941  27.551  1.00  0.00    -0.268 OA
ATOM     16  H   UNL A   1      29.315  25.280  27.108  1.00  0.00     0.172 HD
BRANCH  14  17
ATOM     17  C   UNL A   1      31.646  23.052  26.240  1.00  0.00     0.093 A 
ATOM     18  C   UNL A   1      33.657  20.300  24.627  1.00  0.00     0.045 C 
ATOM     19  C   UNL A   1      33.194  21.575  25.245  1.00  0.00    -0.037 A 
ATOM     20  C   UNL A   1      31.843  21.799  25.687  1.00  0.00     0.029 A 
ATOM     21  C   UNL A   1      33.962  22.709  25.444  1.00  0.00     0.005 A 
ATOM     22  S   UNL A   1      33.170  23.803  26.487  1.00  0.00    -0.135 S 
ATOM     23  C   UNL A   1      35.335  23.027  24.953  1.00  0.00     0.056 C 
ENDBRANCH  14  17
ENDBRANCH   9  13
ENDBRANCH   7   8
ENDBRANCH   5   7
ENDBRANCH   4   5
ENDBRANCH   3   4
ENDBRANCH   2   3
ENDBRANCH   1   2
BRANCH   1  24
ATOM     24  C   UNL A   1      33.071  33.429  27.892  1.00  0.00     0.202 C 
BRANCH  24  25
ATOM     25  C   UNL A   1      33.382  34.652  28.764  1.00  0.00     0.261 C 
BRANCH  25  26
ATOM     26  O   UNL A   1      34.711  34.593  29.312  1.00  0.00    -0.460 OA
BRANCH  26  27
ATOM     27  C   UNL A   1      34.854  33.702  30.320  1.00  0.00     0.338 C 
ATOM     28  O   UNL A   1      34.028  33.437  31.186  1.00  0.00    -0.246 OA
BRANCH  27  29
ATOM     29  C   UNL A   1      36.092  32.917  30.166  1.00  0.00     0.060 A 
ATOM     30  C   UNL A   1      36.158  31.704  30.860  1.00  0.00     0.016 A 
ATOM     31  C   UNL A   1      37.203  33.397  29.469  1.00  0.00     0.016 A 
ATOM     32  C   UNL A   1      37.360  31.003  30.924  1.00  0.00     0.010 A 
ATOM     33  C   UNL A   1      38.412  32.689  29.536  1.00  0.00     0.010 A 
ATOM     34  C   UNL A   1      38.508  31.514  30.303  1.00  0.00    -0.014 A 
BRANCH  34  35
ATOM     35  C   UNL A   1      39.812  30.860  30.588  1.00  0.00     0.031 A 
ATOM     36  C   UNL A   1      40.609  31.280  31.795  1.00  0.00     0.074 A 
ATOM     37  C   UNL A   1      40.240  29.837  29.826  1.00  0.00     0.049 A 
ATOM     38  N   UNL A   1      41.680  30.732  32.309  1.00  0.00    -0.248 NA
ATOM     39  C   UNL A   1      40.136  32.469  32.523  1.00  0.00     0.031 C 
ATOM     40  C   UNL A   1      39.572  29.347  28.621  1.00  0.00     0.029 A 
ATOM     41  N   UNL A   1      41.339  29.026  29.956  1.00  0.00    -0.354 N 
ATOM     42  C   UNL A   1      42.014  31.507  33.414  1.00  0.00     0.074 A 
ATOM     43  C   UNL A   1      41.046  32.581  33.480  1.00  0.00     0.031 C 
ATOM     44  C   UNL A   1      40.277  28.318  28.121  1.00  0.00     0.029 A 
ATOM     45  C   UNL A   1      41.444  28.077  28.968  1.00  0.00     0.049 A 
ATOM     46  H   UNL A   1      41.990  29.114  30.690  1.00  0.00     0.167 HD
ATOM     47  C   UNL A   1      43.015  31.328  34.309  1.00  0.00     0.034 A 
ATOM     48  C   UNL A   1      42.369  27.115  28.773  1.00  0.00     0.034 A 
ATOM     49  C   UNL A   1      43.967  30.250  34.256  1.00  0.00     0.049 A 
ATOM     50  C   UNL A   1      43.469  26.934  29.788  1.00  0.00     0.074 A 
ATOM     51  C   UNL A   1      44.988  29.959  35.143  1.00  0.00     0.029 A 
ATOM     52  N   UNL A   1      44.021  29.291  33.258  1.00  0.00    -0.354 N 
ATOM     53  N   UNL A   1      43.676  27.583  30.907  1.00  0.00    -0.248 NA
ATOM     54  C   UNL A   1      44.435  25.854  29.531  1.00  0.00     0.031 C 
ATOM     55  C   UNL A   1      45.671  28.831  34.672  1.00  0.00     0.029 A 
ATOM     56  C   UNL A   1      45.064  28.412  33.499  1.00  0.00     0.049 A 
ATOM     57  H   UNL A   1      43.409  29.242  32.488  1.00  0.00     0.167 HD
ATOM     58  C   UNL A   1      44.778  26.975  31.503  1.00  0.00     0.074 A 
ATOM     59  C   UNL A   1      45.172  25.885  30.634  1.00  0.00     0.031 C 
ATOM     60  C   UNL A   1      45.419  27.303  32.652  1.00  0.00     0.034 A 
BRANCH  47  61
ATOM     61  C   UNL A   1      43.104  32.297  35.459  1.00  0.00     0.023 A 
ATOM     62  C   UNL A   1      43.790  33.515  35.283  1.00  0.00     0.012 A 
ATOM     63  C   UNL A   1      42.460  32.037  36.685  1.00  0.00     0.148 A 
ATOM     64  C   UNL A   1      43.856  34.450  36.315  1.00  0.00     0.002 A 
ATOM     65  C   UNL A   1      42.499  32.989  37.696  1.00  0.00     0.091 A 
ATOM     66  F   UNL A   1      41.834  30.862  36.840  1.00  0.00    -0.205 F 
ATOM     67  C   UNL A   1      43.203  34.192  37.517  1.00  0.00     0.022 A 
BRANCH  65  68
ATOM     68  S   UNL A   1      41.633  32.778  39.257  1.00  0.00     0.127 S 
ATOM     69  O   UNL A   1      42.278  31.580  39.793  1.00  0.00    -0.237 OA
ATOM     70  O   UNL A   1      41.964  34.016  39.964  1.00  0.00    -0.237 OA
ATOM     71  O   UNL A   1      40.225  32.633  38.916  1.00  0.00    -0.744 OA
ENDBRANCH  65  68
ENDBRANCH  47  61
BRANCH  48  72
ATOM     72  C   UNL A   1      42.256  26.203  27.600  1.00  0.00     0.023 A 
ATOM     73  C   UNL A   1      42.810  26.585  26.363  1.00  0.00     0.012 A 
ATOM     74  C   UNL A   1      41.619  24.952  27.710  1.00  0.00     0.148 A 
ATOM     75  C   UNL A   1      42.707  25.751  25.250  1.00  0.00     0.002 A 
ATOM     76  C   UNL A   1      41.569  24.102  26.612  1.00  0.00     0.091 A 
ATOM     77  F   UNL A   1      41.075  24.616  28.888  1.00  0.00    -0.205 F 
ATOM     78  C   UNL A   1      42.097  24.505  25.376  1.00  0.00     0.022 A 
BRANCH  76  79
ATOM     79  S   UNL A   1      40.922  22.430  26.730  1.00  0.00     0.127 S 
ATOM     80  O   UNL A   1      41.521  21.793  25.561  1.00  0.00    -0.237 OA
ATOM     81  O   UNL A   1      41.458  21.986  28.017  1.00  0.00    -0.237 OA
ATOM     82  O   UNL A   1      39.473  22.575  26.707  1.00  0.00    -0.744 OA
ENDBRANCH  76  79
ENDBRANCH  48  72
BRANCH  60  83
ATOM     83  C   UNL A   1      46.611  26.468  33.043  1.00  0.00     0.023 A 
ATOM     84  C   UNL A   1      47.902  26.870  32.646  1.00  0.00     0.012 A 
ATOM     85  C   UNL A   1      46.464  25.315  33.840  1.00  0.00     0.148 A 
ATOM     86  C   UNL A   1      49.023  26.119  33.000  1.00  0.00     0.002 A 
ATOM     87  C   UNL A   1      47.590  24.596  34.228  1.00  0.00     0.091 A 
ATOM     88  F   UNL A   1      45.229  24.931  34.195  1.00  0.00    -0.205 F 
ATOM     89  C   UNL A   1      48.868  24.989  33.799  1.00  0.00     0.022 A 
BRANCH  87  90
ATOM     90  S   UNL A   1      47.480  23.180  35.329  1.00  0.00     0.127 S 
ATOM     91  O   UNL A   1      48.870  22.732  35.382  1.00  0.00    -0.237 OA
ATOM     92  O   UNL A   1      46.986  23.780  36.570  1.00  0.00    -0.237 OA
ATOM     93  O   UNL A   1      46.542  22.264  34.694  1.00  0.00    -0.744 OA
ENDBRANCH  87  90
ENDBRANCH  60  83
ENDBRANCH  34  35
ENDBRANCH  27  29
ENDBRANCH  26  27
ENDBRANCH  25  26
ENDBRANCH  24  25
ENDBRANCH   1  24
TORSDOF 20
ENDMDL
MODEL 3
REMARK VINA RESULT:      -9.2      3.573      8.839
REMARK SMILES Cc1cc(C(=O)Nc2nc(CC(=O)OCCOCCOC(=O)c3ccc(-c4c5nc(c(-c6cccc(S(=O)(=O)[O-])c6F)c6ccc([nH]6)c(-c6cccc(S(=O)(=O)[O-])c6F)c6nc(c(-c7cccc(S(=O)(=O)[O-])c7F)c7ccc4[nH]7)C=C6)C=C5)cc3)cs2)sc1C
REMARK SMILES IDX 17 1 16 2 15 3 14 4 12 5 13 6 11 7 10 8 8 9 9 10 87 11 86 12
REMARK SMILES IDX 7 13 5 14 6 15 4 17 1 18 2 19 3 20 89 21 88 22 90 23 18 24
REMARK SMILES IDX 19 25 20 26 21 27 22 28 23 29 24 30 85 31 25 32 84 33 26 34
REMARK SMILES IDX 27 35 28 36 78 37 29 38 83 39 77 40 79 41 30 42 82 43 76 44
REMARK SMILES IDX 75 45 31 47 63 48 43 49 62 50 44 51 47 52 61 53 80 54 45 55
REMARK SMILES IDX 46 56 60 58 81 59 48 60 32 61 33 62 41 63 34 64 36 65 42 66
REMARK SMILES IDX 35 67 37 68 38 69 39 70 40 71 64 72 65 73 73 74 66 75 68 76
REMARK SMILES IDX 74 77 67 78 69 79 70 80 71 81 72 82 49 83 50 84 58 85 51 86
REMARK SMILES IDX 53 87 59 88 52 89 54 90 55 91 56 92 57 93
REMARK H PARENT 7 16 79 46 47 57
REMARK Flexibility Score: inf
ROOT
ATOM      1  O   UNL A   1      35.565  31.382  27.595  1.00  0.00    -0.374 OA
ENDROOT
BRANCH   1   2
ATOM      2  C   UNL A   1      34.221  30.893  27.553  1.00  0.00     0.202 C 
BRANCH   2   3
ATOM      3  C   UNL A   1      33.988  29.656  26.679  1.00  0.00     0.261 C 
BRANCH   3   4
ATOM      4  O   UNL A   1      33.388  28.574  27.420  1.00  0.00    -0.463 OA
BRANCH   4   5
ATOM      5  C   UNL A   1      32.069  28.348  27.188  1.00  0.00     0.311 C 
ATOM      6  O   UNL A   1      31.306  27.806  27.984  1.00  0.00    -0.252 OA
BRANCH   5   7
ATOM      7  C   UNL A   1      31.579  28.815  25.841  1.00  0.00     0.179 C 
BRANCH   7   8
ATOM      8  C   UNL A   1      31.089  27.782  24.879  1.00  0.00     0.065 A 
ATOM      9  C   UNL A   1      31.103  26.874  22.870  1.00  0.00     0.189 A 
ATOM     10  N   UNL A   1      31.405  27.956  23.539  1.00  0.00    -0.224 NA
ATOM     11  S   UNL A   1      30.184  25.705  23.695  1.00  0.00    -0.105 S 
ATOM     12  C   UNL A   1      30.539  26.541  25.155  1.00  0.00     0.093 A 
BRANCH   9  13
ATOM     13  N   UNL A   1      31.536  26.496  21.638  1.00  0.00    -0.297 N 
ATOM     14  C   UNL A   1      32.651  25.724  21.389  1.00  0.00     0.267 C 
ATOM     15  O   UNL A   1      33.079  25.728  20.231  1.00  0.00    -0.268 OA
ATOM     16  H   UNL A   1      31.013  26.799  20.861  1.00  0.00     0.172 HD
BRANCH  14  17
ATOM     17  C   UNL A   1      33.237  24.847  22.407  1.00  0.00     0.093 A 
ATOM     18  C   UNL A   1      35.316  24.292  25.505  1.00  0.00     0.045 C 
ATOM     19  C   UNL A   1      34.442  24.135  24.309  1.00  0.00    -0.037 A 
ATOM     20  C   UNL A   1      34.040  25.231  23.468  1.00  0.00     0.029 A 
ATOM     21  C   UNL A   1      33.874  22.952  23.865  1.00  0.00     0.005 A 
ATOM     22  S   UNL A   1      33.249  23.134  22.287  1.00  0.00    -0.135 S 
ATOM     23  C   UNL A   1      33.821  21.616  24.524  1.00  0.00     0.056 C 
ENDBRANCH  14  17
ENDBRANCH   9  13
ENDBRANCH   7   8
ENDBRANCH   5   7
ENDBRANCH   4   5
ENDBRANCH   3   4
ENDBRANCH   2   3
ENDBRANCH   1   2
BRANCH   1  24
ATOM     24  C   UNL A   1      35.758  32.667  28.184  1.00  0.00     0.202 C 
BRANCH  24  25
ATOM     25  C   UNL A   1      35.658  32.720  29.713  1.00  0.00     0.261 C 
BRANCH  25  26
ATOM     26  O   UNL A   1      36.192  31.532  30.326  1.00  0.00    -0.460 OA
BRANCH  26  27
ATOM     27  C   UNL A   1      36.292  31.603  31.673  1.00  0.00     0.338 C 
ATOM     28  O   UNL A   1      35.428  31.988  32.453  1.00  0.00    -0.246 OA
BRANCH  27  29
ATOM     29  C   UNL A   1      37.538  30.976  32.148  1.00  0.00     0.060 A 
ATOM     30  C   UNL A   1      38.727  31.670  31.896  1.00  0.00     0.016 A 
ATOM     31  C   UNL A   1      37.568  29.698  32.711  1.00  0.00     0.016 A 
ATOM     32  C   UNL A   1      39.954  31.058  32.135  1.00  0.00     0.010 A 
ATOM     33  C   UNL A   1      38.807  29.084  32.951  1.00  0.00     0.010 A 
ATOM     34  C   UNL A   1      40.004  29.743  32.619  1.00  0.00    -0.014 A 
BRANCH  34  35
ATOM     35  C   UNL A   1      41.320  29.051  32.641  1.00  0.00     0.031 A 
ATOM     36  C   UNL A   1      41.778  28.281  31.430  1.00  0.00     0.074 A 
ATOM     37  C   UNL A   1      42.139  29.181  33.700  1.00  0.00     0.049 A 
ATOM     38  N   UNL A   1      42.946  27.747  31.184  1.00  0.00    -0.248 NA
ATOM     39  C   UNL A   1      40.794  28.094  30.350  1.00  0.00     0.031 C 
ATOM     40  C   UNL A   1      41.808  29.882  34.940  1.00  0.00     0.029 A 
ATOM     41  N   UNL A   1      43.419  28.730  33.899  1.00  0.00    -0.354 N 
ATOM     42  C   UNL A   1      42.840  27.156  29.930  1.00  0.00     0.074 A 
ATOM     43  C   UNL A   1      41.483  27.374  29.476  1.00  0.00     0.031 C 
ATOM     44  C   UNL A   1      42.860  29.813  35.773  1.00  0.00     0.029 A 
ATOM     45  C   UNL A   1      43.937  29.064  35.128  1.00  0.00     0.049 A 
ATOM     46  H   UNL A   1      43.920  28.216  33.225  1.00  0.00     0.167 HD
ATOM     47  C   UNL A   1      43.791  26.515  29.208  1.00  0.00     0.034 A 
ATOM     48  C   UNL A   1      45.145  28.807  35.667  1.00  0.00     0.034 A 
ATOM     49  C   UNL A   1      45.146  26.314  29.648  1.00  0.00     0.049 A 
ATOM     50  C   UNL A   1      46.187  28.098  34.839  1.00  0.00     0.074 A 
ATOM     51  C   UNL A   1      46.193  25.718  28.967  1.00  0.00     0.029 A 
ATOM     52  N   UNL A   1      45.641  26.695  30.885  1.00  0.00    -0.354 N 
ATOM     53  N   UNL A   1      46.114  27.682  33.598  1.00  0.00    -0.248 NA
ATOM     54  C   UNL A   1      47.492  27.865  35.475  1.00  0.00     0.031 C 
ATOM     55  C   UNL A   1      47.318  25.723  29.800  1.00  0.00     0.029 A 
ATOM     56  C   UNL A   1      46.975  26.339  30.993  1.00  0.00     0.049 A 
ATOM     57  H   UNL A   1      45.120  27.152  31.585  1.00  0.00     0.167 HD
ATOM     58  C   UNL A   1      47.369  27.164  33.295  1.00  0.00     0.074 A 
ATOM     59  C   UNL A   1      48.192  27.349  34.473  1.00  0.00     0.031 C 
ATOM     60  C   UNL A   1      47.797  26.569  32.154  1.00  0.00     0.034 A 
BRANCH  47  61
ATOM     61  C   UNL A   1      43.412  26.025  27.835  1.00  0.00     0.023 A 
ATOM     62  C   UNL A   1      43.486  26.911  26.741  1.00  0.00     0.012 A 
ATOM     63  C   UNL A   1      43.047  24.682  27.613  1.00  0.00     0.148 A 
ATOM     64  C   UNL A   1      43.180  26.476  25.453  1.00  0.00     0.002 A 
ATOM     65  C   UNL A   1      42.779  24.248  26.320  1.00  0.00     0.091 A 
ATOM     66  F   UNL A   1      42.959  23.862  28.669  1.00  0.00    -0.205 F 
ATOM     67  C   UNL A   1      42.837  25.145  25.241  1.00  0.00     0.022 A 
BRANCH  65  68
ATOM     68  S   UNL A   1      42.393  22.535  25.936  1.00  0.00     0.127 S 
ATOM     69  O   UNL A   1      40.933  22.537  26.015  1.00  0.00    -0.237 OA
ATOM     70  O   UNL A   1      42.928  22.395  24.581  1.00  0.00    -0.237 OA
ATOM     71  O   UNL A   1      43.075  21.736  26.943  1.00  0.00    -0.744 OA
ENDBRANCH  65  68
ENDBRANCH  47  61
BRANCH  48  72
ATOM     72  C   UNL A   1      45.461  29.283  37.043  1.00  0.00     0.023 A 
ATOM     73  C   UNL A   1      45.830  30.626  37.250  1.00  0.00     0.012 A 
ATOM     74  C   UNL A   1      45.380  28.415  38.149  1.00  0.00     0.148 A 
ATOM     75  C   UNL A   1      46.141  31.090  38.528  1.00  0.00     0.002 A 
ATOM     76  C   UNL A   1      45.637  28.898  39.427  1.00  0.00     0.091 A 
ATOM     77  F   UNL A   1      45.053  27.134  37.932  1.00  0.00    -0.205 F 
ATOM     78  C   UNL A   1      46.033  30.230  39.618  1.00  0.00     0.022 A 
BRANCH  76  79
ATOM     79  S   UNL A   1      45.388  27.890  40.894  1.00  0.00     0.127 S 
ATOM     80  O   UNL A   1      45.176  28.903  41.923  1.00  0.00    -0.237 OA
ATOM     81  O   UNL A   1      44.198  27.117  40.535  1.00  0.00    -0.237 OA
ATOM     82  O   UNL A   1      46.599  27.092  41.023  1.00  0.00    -0.744 OA
ENDBRANCH  76  79
ENDBRANCH  48  72
BRANCH  60  83
ATOM     83  C   UNL A   1      49.222  26.079  32.118  1.00  0.00     0.023 A 
ATOM     84  C   UNL A   1      50.213  26.871  31.504  1.00  0.00     0.012 A 
ATOM     85  C   UNL A   1      49.592  24.865  32.729  1.00  0.00     0.148 A 
ATOM     86  C   UNL A   1      51.540  26.445  31.463  1.00  0.00     0.002 A 
ATOM     87  C   UNL A   1      50.925  24.468  32.724  1.00  0.00     0.091 A 
ATOM     88  F   UNL A   1      48.636  24.111  33.292  1.00  0.00    -0.205 F 
ATOM     89  C   UNL A   1      51.898  25.249  32.081  1.00  0.00     0.022 A 
BRANCH  87  90
ATOM     90  S   UNL A   1      51.477  22.984  33.576  1.00  0.00     0.127 S 
ATOM     91  O   UNL A   1      51.129  23.287  34.962  1.00  0.00    -0.237 OA
ATOM     92  O   UNL A   1      50.659  21.940  32.957  1.00  0.00    -0.237 OA
ATOM     93  O   UNL A   1      52.901  22.876  33.289  1.00  0.00    -0.744 OA
ENDBRANCH  87  90
ENDBRANCH  60  83
ENDBRANCH  34  35
ENDBRANCH  27  29
ENDBRANCH  26  27
ENDBRANCH  25  26
ENDBRANCH  24  25
ENDBRANCH   1  24
TORSDOF 20
ENDMDL
