MODEL 1
REMARK VINA RESULT:     -10.0      0.000      0.000
REMARK SMILES O=C(CNC(=O)OCc1ccccc1)NCC(=O)OCCOCCOC(=O)c1ccc(-c2c3nc(c(-c4cccc(S(=O)(=O)[O-])c4F)c4ccc([nH]4)c(-c4cccc(S(=O)(=O)[O-])c4F)c4nc(c(-c5cccc(S(=O)(=O)[O-])c5F)c5ccc2[nH]5)C=C4)C=C3)cc1
REMARK SMILES IDX 20 1 19 2 17 3 18 4 16 5 15 6 1 7 2 8 3 10 4 11 5 12 6 14
REMARK SMILES IDX 7 15 8 16 9 17 10 18 14 19 11 20 13 21 12 22 21 23 22 24
REMARK SMILES IDX 23 25 24 26 25 27 26 28 27 29 28 30 29 31 90 32 30 33 89 34
REMARK SMILES IDX 31 35 32 36 33 37 83 38 34 39 88 40 82 41 84 42 35 43 87 44
REMARK SMILES IDX 81 45 80 46 36 48 68 49 48 50 67 51 49 52 52 53 66 54 85 55
REMARK SMILES IDX 50 56 51 57 65 59 86 60 53 61 37 62 38 63 46 64 39 65 41 66
REMARK SMILES IDX 47 67 40 68 42 69 43 70 44 71 45 72 69 73 70 74 78 75 71 76
REMARK SMILES IDX 73 77 79 78 72 79 74 80 75 81 76 82 77 83 54 84 55 85 63 86
REMARK SMILES IDX 56 87 58 88 64 89 57 90 59 91 60 92 61 93 62 94
REMARK H PARENT 15 9 4 13 84 47 52 58
REMARK Flexibility Score: inf
ROOT
ATOM      1  C   UNL A   1      42.111  19.582  25.688  1.00  0.00     0.261 C 
ENDROOT
BRANCH   1   2
ATOM      2  O   UNL A   1      41.671  19.762  27.043  1.00  0.00    -0.462 OA
BRANCH   2   3
ATOM      3  C   UNL A   1      40.923  20.876  27.271  1.00  0.00     0.325 C 
ATOM      4  O   UNL A   1      40.676  21.344  28.378  1.00  0.00    -0.250 OA
BRANCH   3   5
ATOM      5  C   UNL A   1      40.513  21.588  25.984  1.00  0.00     0.238 C 
BRANCH   5   6
ATOM      6  N   UNL A   1      39.095  21.740  25.696  1.00  0.00    -0.344 N 
ATOM      7  O   UNL A   1      38.841  23.723  26.813  1.00  0.00    -0.273 OA
ATOM      8  C   UNL A   1      38.378  22.850  26.090  1.00  0.00     0.240 C 
ATOM      9  H   UNL A   1      38.631  21.025  25.203  1.00  0.00     0.164 HD
BRANCH   8  10
ATOM     10  C   UNL A   1      36.952  22.896  25.533  1.00  0.00     0.219 C 
BRANCH  10  11
ATOM     11  N   UNL A   1      36.066  22.405  26.581  1.00  0.00    -0.312 N 
ATOM     12  C   UNL A   1      34.970  21.620  26.445  1.00  0.00     0.407 C 
ATOM     13  H   UNL A   1      36.292  22.676  27.500  1.00  0.00     0.167 HD
ATOM     14  O   UNL A   1      34.238  21.400  27.405  1.00  0.00    -0.225 OA
BRANCH  12  15
ATOM     15  O   UNL A   1      34.787  21.158  25.188  1.00  0.00    -0.445 OA
BRANCH  15  16
ATOM     16  C   UNL A   1      35.497  19.951  24.870  1.00  0.00     0.270 C 
BRANCH  16  17
ATOM     17  C   UNL A   1      34.545  18.796  24.686  1.00  0.00    -0.011 A 
ATOM     18  C   UNL A   1      35.019  17.542  24.271  1.00  0.00     0.007 A 
ATOM     19  C   UNL A   1      33.166  18.971  24.867  1.00  0.00     0.007 A 
ATOM     20  C   UNL A   1      34.134  16.490  24.029  1.00  0.00     0.000 A 
ATOM     21  C   UNL A   1      32.283  17.914  24.632  1.00  0.00     0.000 A 
ATOM     22  C   UNL A   1      32.766  16.677  24.208  1.00  0.00     0.000 A 
ENDBRANCH  16  17
ENDBRANCH  15  16
ENDBRANCH  12  15
ENDBRANCH  10  11
ENDBRANCH   8  10
ENDBRANCH   5   6
ENDBRANCH   3   5
ENDBRANCH   2   3
ENDBRANCH   1   2
BRANCH   1  23
ATOM     23  C   UNL A   1      43.544  19.045  25.623  1.00  0.00     0.202 C 
BRANCH  23  24
ATOM     24  O   UNL A   1      44.468  19.715  24.767  1.00  0.00    -0.374 OA
BRANCH  24  25
ATOM     25  C   UNL A   1      45.512  20.477  25.369  1.00  0.00     0.202 C 
BRANCH  25  26
ATOM     26  C   UNL A   1      45.491  22.006  25.214  1.00  0.00     0.261 C 
BRANCH  26  27
ATOM     27  O   UNL A   1      44.525  22.668  26.048  1.00  0.00    -0.460 OA
BRANCH  27  28
ATOM     28  C   UNL A   1      43.707  23.532  25.389  1.00  0.00     0.338 C 
ATOM     29  O   UNL A   1      43.321  23.441  24.235  1.00  0.00    -0.246 OA
BRANCH  28  30
ATOM     30  C   UNL A   1      43.173  24.544  26.321  1.00  0.00     0.060 A 
ATOM     31  C   UNL A   1      43.805  25.794  26.364  1.00  0.00     0.016 A 
ATOM     32  C   UNL A   1      42.126  24.248  27.192  1.00  0.00     0.016 A 
ATOM     33  C   UNL A   1      43.391  26.755  27.285  1.00  0.00     0.010 A 
ATOM     34  C   UNL A   1      41.723  25.209  28.125  1.00  0.00     0.010 A 
ATOM     35  C   UNL A   1      42.361  26.462  28.187  1.00  0.00    -0.014 A 
BRANCH  35  36
ATOM     36  C   UNL A   1      41.977  27.448  29.227  1.00  0.00     0.031 A 
ATOM     37  C   UNL A   1      42.705  27.473  30.542  1.00  0.00     0.074 A 
ATOM     38  C   UNL A   1      40.958  28.300  29.005  1.00  0.00     0.049 A 
ATOM     39  N   UNL A   1      42.466  28.196  31.605  1.00  0.00    -0.248 NA
ATOM     40  C   UNL A   1      43.853  26.563  30.678  1.00  0.00     0.031 C 
ATOM     41  C   UNL A   1      40.183  28.378  27.767  1.00  0.00     0.029 A 
ATOM     42  N   UNL A   1      40.380  29.234  29.826  1.00  0.00    -0.354 N 
ATOM     43  C   UNL A   1      43.407  27.806  32.549  1.00  0.00     0.074 A 
ATOM     44  C   UNL A   1      44.222  26.781  31.932  1.00  0.00     0.031 C 
ATOM     45  C   UNL A   1      39.206  29.286  27.923  1.00  0.00     0.029 A 
ATOM     46  C   UNL A   1      39.261  29.821  29.282  1.00  0.00     0.049 A 
ATOM     47  H   UNL A   1      40.730  29.462  30.717  1.00  0.00     0.167 HD
ATOM     48  C   UNL A   1      43.579  28.265  33.813  1.00  0.00     0.034 A 
ATOM     49  C   UNL A   1      38.359  30.660  29.829  1.00  0.00     0.034 A 
ATOM     50  C   UNL A   1      42.771  29.290  34.419  1.00  0.00     0.049 A 
ATOM     51  C   UNL A   1      38.544  31.115  31.253  1.00  0.00     0.074 A 
ATOM     52  C   UNL A   1      42.906  29.862  35.673  1.00  0.00     0.029 A 
ATOM     53  N   UNL A   1      41.663  29.881  33.831  1.00  0.00    -0.354 N 
ATOM     54  N   UNL A   1      39.508  30.828  32.093  1.00  0.00    -0.248 NA
ATOM     55  C   UNL A   1      37.526  32.027  31.796  1.00  0.00     0.031 C 
ATOM     56  C   UNL A   1      41.852  30.763  35.859  1.00  0.00     0.029 A 
ATOM     57  C   UNL A   1      41.086  30.786  34.705  1.00  0.00     0.049 A 
ATOM     58  H   UNL A   1      41.335  29.685  32.923  1.00  0.00     0.167 HD
ATOM     59  C   UNL A   1      39.229  31.544  33.252  1.00  0.00     0.074 A 
ATOM     60  C   UNL A   1      38.021  32.300  32.996  1.00  0.00     0.031 C 
ATOM     61  C   UNL A   1      39.903  31.561  34.430  1.00  0.00     0.034 A 
BRANCH  48  62
ATOM     62  C   UNL A   1      44.691  27.663  34.634  1.00  0.00     0.023 A 
ATOM     63  C   UNL A   1      45.946  28.302  34.695  1.00  0.00     0.012 A 
ATOM     64  C   UNL A   1      44.469  26.502  35.401  1.00  0.00     0.148 A 
ATOM     65  C   UNL A   1      46.972  27.776  35.479  1.00  0.00     0.002 A 
ATOM     66  C   UNL A   1      45.482  26.011  36.216  1.00  0.00     0.091 A 
ATOM     67  F   UNL A   1      43.275  25.899  35.316  1.00  0.00    -0.205 F 
ATOM     68  C   UNL A   1      46.737  26.639  36.247  1.00  0.00     0.022 A 
BRANCH  66  69
ATOM     69  S   UNL A   1      45.254  24.598  37.302  1.00  0.00     0.127 S 
ATOM     70  O   UNL A   1      46.598  24.430  37.852  1.00  0.00    -0.237 OA
ATOM     71  O   UNL A   1      44.263  25.100  38.254  1.00  0.00    -0.237 OA
ATOM     72  O   UNL A   1      44.789  23.509  36.455  1.00  0.00    -0.744 OA
ENDBRANCH  66  69
ENDBRANCH  48  62
BRANCH  49  73
ATOM     73  C   UNL A   1      37.193  31.125  29.026  1.00  0.00     0.023 A 
ATOM     74  C   UNL A   1      37.077  32.487  28.690  1.00  0.00     0.012 A 
ATOM     75  C   UNL A   1      36.206  30.220  28.588  1.00  0.00     0.148 A 
ATOM     76  C   UNL A   1      35.982  32.946  27.956  1.00  0.00     0.002 A 
ATOM     77  C   UNL A   1      35.149  30.674  27.808  1.00  0.00     0.091 A 
ATOM     78  F   UNL A   1      36.328  28.931  28.932  1.00  0.00    -0.205 F 
ATOM     79  C   UNL A   1      35.025  32.040  27.507  1.00  0.00     0.022 A 
BRANCH  77  80
ATOM     80  S   UNL A   1      33.942  29.564  27.079  1.00  0.00     0.127 S 
ATOM     81  O   UNL A   1      33.868  30.062  25.708  1.00  0.00    -0.237 OA
ATOM     82  O   UNL A   1      34.602  28.267  27.229  1.00  0.00    -0.237 OA
ATOM     83  O   UNL A   1      32.732  29.720  27.874  1.00  0.00    -0.744 OA
ENDBRANCH  77  80
ENDBRANCH  49  73
BRANCH  61  84
ATOM     84  C   UNL A   1      39.367  32.443  35.530  1.00  0.00     0.023 A 
ATOM     85  C   UNL A   1      38.404  31.938  36.427  1.00  0.00     0.012 A 
ATOM     86  C   UNL A   1      39.865  33.748  35.717  1.00  0.00     0.148 A 
ATOM     87  C   UNL A   1      37.919  32.729  37.469  1.00  0.00     0.002 A 
ATOM     88  C   UNL A   1      39.417  34.511  36.788  1.00  0.00     0.091 A 
ATOM     89  F   UNL A   1      40.772  34.216  34.846  1.00  0.00    -0.205 F 
ATOM     90  C   UNL A   1      38.434  34.010  37.656  1.00  0.00     0.022 A 
BRANCH  88  91
ATOM     91  S   UNL A   1      40.085  36.136  37.167  1.00  0.00     0.127 S 
ATOM     92  O   UNL A   1      39.929  36.829  35.890  1.00  0.00    -0.237 OA
ATOM     93  O   UNL A   1      39.188  36.598  38.226  1.00  0.00    -0.237 OA
ATOM     94  O   UNL A   1      41.462  35.917  37.591  1.00  0.00    -0.744 OA
ENDBRANCH  88  91
ENDBRANCH  61  84
ENDBRANCH  35  36
ENDBRANCH  28  30
ENDBRANCH  27  28
ENDBRANCH  26  27
ENDBRANCH  25  26
ENDBRANCH  24  25
ENDBRANCH  23  24
ENDBRANCH   1  23
TORSDOF 23
ENDMDL
MODEL 2
REMARK VINA RESULT:      -9.7      5.424      9.642
REMARK SMILES O=C(CNC(=O)OCc1ccccc1)NCC(=O)OCCOCCOC(=O)c1ccc(-c2c3nc(c(-c4cccc(S(=O)(=O)[O-])c4F)c4ccc([nH]4)c(-c4cccc(S(=O)(=O)[O-])c4F)c4nc(c(-c5cccc(S(=O)(=O)[O-])c5F)c5ccc2[nH]5)C=C4)C=C3)cc1
REMARK SMILES IDX 20 1 19 2 17 3 18 4 16 5 15 6 1 7 2 8 3 10 4 11 5 12 6 14
REMARK SMILES IDX 7 15 8 16 9 17 10 18 14 19 11 20 13 21 12 22 21 23 22 24
REMARK SMILES IDX 23 25 24 26 25 27 26 28 27 29 28 30 29 31 90 32 30 33 89 34
REMARK SMILES IDX 31 35 32 36 33 37 83 38 34 39 88 40 82 41 84 42 35 43 87 44
REMARK SMILES IDX 81 45 80 46 36 48 68 49 48 50 67 51 49 52 52 53 66 54 85 55
REMARK SMILES IDX 50 56 51 57 65 59 86 60 53 61 37 62 38 63 46 64 39 65 41 66
REMARK SMILES IDX 47 67 40 68 42 69 43 70 44 71 45 72 69 73 70 74 78 75 71 76
REMARK SMILES IDX 73 77 79 78 72 79 74 80 75 81 76 82 77 83 54 84 55 85 63 86
REMARK SMILES IDX 56 87 58 88 64 89 57 90 59 91 60 92 61 93 62 94
REMARK H PARENT 15 9 4 13 84 47 52 58
REMARK Flexibility Score: inf
ROOT
ATOM      1  C   UNL A   1      35.367  21.400  24.555  1.00  0.00     0.261 C 
ENDROOT
BRANCH   1   2
ATOM      2  O   UNL A   1      34.587  20.566  25.425  1.00  0.00    -0.462 OA
BRANCH   2   3
ATOM      3  C   UNL A   1      33.723  19.718  24.802  1.00  0.00     0.325 C 
ATOM      4  O   UNL A   1      33.944  18.536  24.564  1.00  0.00    -0.250 OA
BRANCH   3   5
ATOM      5  C   UNL A   1      32.360  20.353  24.534  1.00  0.00     0.238 C 
BRANCH   5   6
ATOM      6  N   UNL A   1      31.774  21.198  25.564  1.00  0.00    -0.344 N 
ATOM      7  O   UNL A   1      32.530  23.179  24.698  1.00  0.00    -0.273 OA
ATOM      8  C   UNL A   1      31.857  22.573  25.523  1.00  0.00     0.240 C 
ATOM      9  H   UNL A   1      31.301  20.773  26.316  1.00  0.00     0.164 HD
BRANCH   8  10
ATOM     10  C   UNL A   1      31.024  23.277  26.598  1.00  0.00     0.219 C 
BRANCH  10  11
ATOM     11  N   UNL A   1      30.089  24.157  25.908  1.00  0.00    -0.312 N 
ATOM     12  C   UNL A   1      30.184  25.497  25.729  1.00  0.00     0.407 C 
ATOM     13  H   UNL A   1      29.291  23.726  25.526  1.00  0.00     0.167 HD
ATOM     14  O   UNL A   1      29.249  26.130  25.248  1.00  0.00    -0.225 OA
BRANCH  12  15
ATOM     15  O   UNL A   1      31.361  26.017  26.143  1.00  0.00    -0.445 OA
BRANCH  15  16
ATOM     16  C   UNL A   1      31.541  27.417  25.873  1.00  0.00     0.270 C 
BRANCH  16  17
ATOM     17  C   UNL A   1      32.322  27.626  24.600  1.00  0.00    -0.011 A 
ATOM     18  C   UNL A   1      32.687  26.531  23.802  1.00  0.00     0.007 A 
ATOM     19  C   UNL A   1      32.749  28.907  24.226  1.00  0.00     0.007 A 
ATOM     20  C   UNL A   1      33.472  26.710  22.662  1.00  0.00     0.000 A 
ATOM     21  C   UNL A   1      33.528  29.086  23.080  1.00  0.00     0.000 A 
ATOM     22  C   UNL A   1      33.893  27.988  22.302  1.00  0.00     0.000 A 
ENDBRANCH  16  17
ENDBRANCH  15  16
ENDBRANCH  12  15
ENDBRANCH  10  11
ENDBRANCH   8  10
ENDBRANCH   5   6
ENDBRANCH   3   5
ENDBRANCH   2   3
ENDBRANCH   1   2
BRANCH   1  23
ATOM     23  C   UNL A   1      36.151  22.458  25.337  1.00  0.00     0.202 C 
BRANCH  23  24
ATOM     24  O   UNL A   1      37.572  22.458  25.216  1.00  0.00    -0.374 OA
BRANCH  24  25
ATOM     25  C   UNL A   1      38.257  21.212  25.319  1.00  0.00     0.202 C 
BRANCH  25  26
ATOM     26  C   UNL A   1      39.570  21.156  26.115  1.00  0.00     0.261 C 
BRANCH  26  27
ATOM     27  O   UNL A   1      40.146  19.841  26.209  1.00  0.00    -0.460 OA
BRANCH  27  28
ATOM     28  C   UNL A   1      41.503  19.812  26.124  1.00  0.00     0.338 C 
ATOM     29  O   UNL A   1      42.191  18.907  25.682  1.00  0.00    -0.246 OA
BRANCH  28  30
ATOM     30  C   UNL A   1      42.067  21.128  26.479  1.00  0.00     0.060 A 
ATOM     31  C   UNL A   1      42.231  21.427  27.839  1.00  0.00     0.016 A 
ATOM     32  C   UNL A   1      42.353  22.083  25.504  1.00  0.00     0.016 A 
ATOM     33  C   UNL A   1      42.682  22.686  28.229  1.00  0.00     0.010 A 
ATOM     34  C   UNL A   1      42.792  23.351  25.900  1.00  0.00     0.010 A 
ATOM     35  C   UNL A   1      42.945  23.666  27.263  1.00  0.00    -0.014 A 
BRANCH  35  36
ATOM     36  C   UNL A   1      43.340  25.035  27.677  1.00  0.00     0.031 A 
ATOM     37  C   UNL A   1      42.302  25.987  28.203  1.00  0.00     0.074 A 
ATOM     38  C   UNL A   1      44.619  25.434  27.554  1.00  0.00     0.049 A 
ATOM     39  N   UNL A   1      42.428  27.245  28.535  1.00  0.00    -0.248 NA
ATOM     40  C   UNL A   1      40.943  25.451  28.377  1.00  0.00     0.031 C 
ATOM     41  C   UNL A   1      45.716  24.599  27.066  1.00  0.00     0.029 A 
ATOM     42  N   UNL A   1      45.202  26.652  27.794  1.00  0.00    -0.354 N 
ATOM     43  C   UNL A   1      41.162  27.665  28.922  1.00  0.00     0.074 A 
ATOM     44  C   UNL A   1      40.281  26.526  28.785  1.00  0.00     0.031 C 
ATOM     45  C   UNL A   1      46.835  25.341  27.009  1.00  0.00     0.029 A 
ATOM     46  C   UNL A   1      46.523  26.710  27.415  1.00  0.00     0.049 A 
ATOM     47  H   UNL A   1      44.722  27.411  28.198  1.00  0.00     0.167 HD
ATOM     48  C   UNL A   1      40.772  28.888  29.359  1.00  0.00     0.034 A 
ATOM     49  C   UNL A   1      47.373  27.754  27.361  1.00  0.00     0.034 A 
ATOM     50  C   UNL A   1      41.654  30.016  29.502  1.00  0.00     0.049 A 
ATOM     51  C   UNL A   1      46.901  29.114  27.803  1.00  0.00     0.074 A 
ATOM     52  C   UNL A   1      41.364  31.278  29.992  1.00  0.00     0.029 A 
ATOM     53  N   UNL A   1      42.991  30.031  29.134  1.00  0.00    -0.354 N 
ATOM     54  N   UNL A   1      45.732  29.467  28.281  1.00  0.00    -0.248 NA
ATOM     55  C   UNL A   1      47.872  30.215  27.718  1.00  0.00     0.031 C 
ATOM     56  C   UNL A   1      42.512  32.069  29.875  1.00  0.00     0.029 A 
ATOM     57  C   UNL A   1      43.530  31.287  29.355  1.00  0.00     0.049 A 
ATOM     58  H   UNL A   1      43.485  29.261  28.769  1.00  0.00     0.167 HD
ATOM     59  C   UNL A   1      45.836  30.822  28.578  1.00  0.00     0.074 A 
ATOM     60  C   UNL A   1      47.190  31.218  28.253  1.00  0.00     0.031 C 
ATOM     61  C   UNL A   1      44.890  31.666  29.062  1.00  0.00     0.034 A 
BRANCH  48  62
ATOM     62  C   UNL A   1      39.321  29.075  29.721  1.00  0.00     0.023 A 
ATOM     63  C   UNL A   1      38.869  28.743  31.013  1.00  0.00     0.012 A 
ATOM     64  C   UNL A   1      38.420  29.647  28.800  1.00  0.00     0.148 A 
ATOM     65  C   UNL A   1      37.537  28.945  31.373  1.00  0.00     0.002 A 
ATOM     66  C   UNL A   1      37.105  29.887  29.181  1.00  0.00     0.091 A 
ATOM     67  F   UNL A   1      38.864  29.939  27.569  1.00  0.00    -0.205 F 
ATOM     68  C   UNL A   1      36.659  29.527  30.462  1.00  0.00     0.022 A 
BRANCH  66  69
ATOM     69  S   UNL A   1      35.918  30.703  28.108  1.00  0.00     0.127 S 
ATOM     70  O   UNL A   1      35.864  29.780  26.975  1.00  0.00    -0.237 OA
ATOM     71  O   UNL A   1      34.714  30.720  28.939  1.00  0.00    -0.237 OA
ATOM     72  O   UNL A   1      36.474  32.016  27.814  1.00  0.00    -0.744 OA
ENDBRANCH  66  69
ENDBRANCH  48  62
BRANCH  49  73
ATOM     73  C   UNL A   1      48.764  27.555  26.865  1.00  0.00     0.023 A 
ATOM     74  C   UNL A   1      49.776  27.165  27.763  1.00  0.00     0.012 A 
ATOM     75  C   UNL A   1      49.085  27.742  25.506  1.00  0.00     0.148 A 
ATOM     76  C   UNL A   1      51.089  26.994  27.322  1.00  0.00     0.002 A 
ATOM     77  C   UNL A   1      50.382  27.513  25.063  1.00  0.00     0.091 A 
ATOM     78  F   UNL A   1      48.110  28.128  24.672  1.00  0.00    -0.205 F 
ATOM     79  C   UNL A   1      51.390  27.157  25.973  1.00  0.00     0.022 A 
BRANCH  77  80
ATOM     80  S   UNL A   1      50.832  27.574  23.326  1.00  0.00     0.127 S 
ATOM     81  O   UNL A   1      52.148  26.940  23.337  1.00  0.00    -0.237 OA
ATOM     82  O   UNL A   1      49.769  26.778  22.715  1.00  0.00    -0.237 OA
ATOM     83  O   UNL A   1      50.815  28.985  22.964  1.00  0.00    -0.744 OA
ENDBRANCH  77  80
ENDBRANCH  49  73
BRANCH  61  84
ATOM     84  C   UNL A   1      45.286  33.103  29.293  1.00  0.00     0.023 A 
ATOM     85  C   UNL A   1      45.914  33.472  30.500  1.00  0.00     0.012 A 
ATOM     86  C   UNL A   1      45.098  34.074  28.289  1.00  0.00     0.148 A 
ATOM     87  C   UNL A   1      46.316  34.789  30.718  1.00  0.00     0.002 A 
ATOM     88  C   UNL A   1      45.548  35.373  28.492  1.00  0.00     0.091 A 
ATOM     89  F   UNL A   1      44.487  33.708  27.153  1.00  0.00    -0.205 F 
ATOM     90  C   UNL A   1      46.143  35.736  29.711  1.00  0.00     0.022 A 
BRANCH  88  91
ATOM     91  S   UNL A   1      45.455  36.641  27.222  1.00  0.00     0.127 S 
ATOM     92  O   UNL A   1      44.030  36.630  26.894  1.00  0.00    -0.237 OA
ATOM     93  O   UNL A   1      45.906  37.832  27.942  1.00  0.00    -0.237 OA
ATOM     94  O   UNL A   1      46.342  36.206  26.152  1.00  0.00    -0.744 OA
ENDBRANCH  88  91
ENDBRANCH  61  84
ENDBRANCH  35  36
ENDBRANCH  28  30
ENDBRANCH  27  28
ENDBRANCH  26  27
ENDBRANCH  25  26
ENDBRANCH  24  25
ENDBRANCH  23  24
ENDBRANCH   1  23
TORSDOF 23
ENDMDL
MODEL 3
REMARK VINA RESULT:      -9.7      1.732      2.664
REMARK SMILES O=C(CNC(=O)OCc1ccccc1)NCC(=O)OCCOCCOC(=O)c1ccc(-c2c3nc(c(-c4cccc(S(=O)(=O)[O-])c4F)c4ccc([nH]4)c(-c4cccc(S(=O)(=O)[O-])c4F)c4nc(c(-c5cccc(S(=O)(=O)[O-])c5F)c5ccc2[nH]5)C=C4)C=C3)cc1
REMARK SMILES IDX 20 1 19 2 17 3 18 4 16 5 15 6 1 7 2 8 3 10 4 11 5 12 6 14
REMARK SMILES IDX 7 15 8 16 9 17 10 18 14 19 11 20 13 21 12 22 21 23 22 24
REMARK SMILES IDX 23 25 24 26 25 27 26 28 27 29 28 30 29 31 90 32 30 33 89 34
REMARK SMILES IDX 31 35 32 36 33 37 83 38 34 39 88 40 82 41 84 42 35 43 87 44
REMARK SMILES IDX 81 45 80 46 36 48 68 49 48 50 67 51 49 52 52 53 66 54 85 55
REMARK SMILES IDX 50 56 51 57 65 59 86 60 53 61 37 62 38 63 46 64 39 65 41 66
REMARK SMILES IDX 47 67 40 68 42 69 43 70 44 71 45 72 69 73 70 74 78 75 71 76
REMARK SMILES IDX 73 77 79 78 72 79 74 80 75 81 76 82 77 83 54 84 55 85 63 86
REMARK SMILES IDX 56 87 58 88 64 89 57 90 59 91 60 92 61 93 62 94
REMARK H PARENT 15 9 4 13 84 47 52 58
REMARK Flexibility Score: inf
ROOT
ATOM      1  C   UNL A   1      41.843  19.546  25.746  1.00  0.00     0.261 C 
ENDROOT
BRANCH   1   2
ATOM      2  O   UNL A   1      41.327  19.796  27.062  1.00  0.00    -0.462 OA
BRANCH   2   3
ATOM      3  C   UNL A   1      40.607  20.944  27.199  1.00  0.00     0.325 C 
ATOM      4  O   UNL A   1      40.572  21.637  28.210  1.00  0.00    -0.250 OA
BRANCH   3   5
ATOM      5  C   UNL A   1      39.930  21.376  25.900  1.00  0.00     0.238 C 
BRANCH   5   6
ATOM      6  N   UNL A   1      38.476  21.439  25.864  1.00  0.00    -0.344 N 
ATOM      7  O   UNL A   1      38.332  23.690  26.262  1.00  0.00    -0.273 OA
ATOM      8  C   UNL A   1      37.788  22.628  25.988  1.00  0.00     0.240 C 
ATOM      9  H   UNL A   1      37.966  20.605  25.747  1.00  0.00     0.164 HD
BRANCH   8  10
ATOM     10  C   UNL A   1      36.282  22.500  25.742  1.00  0.00     0.219 C 
BRANCH  10  11
ATOM     11  N   UNL A   1      35.989  23.200  24.498  1.00  0.00    -0.312 N 
ATOM     12  C   UNL A   1      34.825  23.785  24.124  1.00  0.00     0.407 C 
ATOM     13  H   UNL A   1      36.728  23.256  23.849  1.00  0.00     0.167 HD
ATOM     14  O   UNL A   1      34.681  24.218  22.985  1.00  0.00    -0.225 OA
BRANCH  12  15
ATOM     15  O   UNL A   1      33.892  23.809  25.103  1.00  0.00    -0.445 OA
BRANCH  15  16
ATOM     16  C   UNL A   1      33.750  25.066  25.783  1.00  0.00     0.270 C 
BRANCH  16  17
ATOM     17  C   UNL A   1      32.559  25.830  25.262  1.00  0.00    -0.011 A 
ATOM     18  C   UNL A   1      31.256  25.374  25.513  1.00  0.00     0.007 A 
ATOM     19  C   UNL A   1      32.734  26.972  24.469  1.00  0.00     0.007 A 
ATOM     20  C   UNL A   1      30.152  26.036  24.973  1.00  0.00     0.000 A 
ATOM     21  C   UNL A   1      31.627  27.639  23.936  1.00  0.00     0.000 A 
ATOM     22  C   UNL A   1      30.339  27.168  24.183  1.00  0.00     0.000 A 
ENDBRANCH  16  17
ENDBRANCH  15  16
ENDBRANCH  12  15
ENDBRANCH  10  11
ENDBRANCH   8  10
ENDBRANCH   5   6
ENDBRANCH   3   5
ENDBRANCH   2   3
ENDBRANCH   1   2
BRANCH   1  23
ATOM     23  C   UNL A   1      43.259  18.963  25.794  1.00  0.00     0.202 C 
BRANCH  23  24
ATOM     24  O   UNL A   1      44.231  19.500  24.899  1.00  0.00    -0.374 OA
BRANCH  24  25
ATOM     25  C   UNL A   1      45.223  20.377  25.429  1.00  0.00     0.202 C 
BRANCH  25  26
ATOM     26  C   UNL A   1      45.105  21.882  25.141  1.00  0.00     0.261 C 
BRANCH  26  27
ATOM     27  O   UNL A   1      44.125  22.560  25.947  1.00  0.00    -0.460 OA
BRANCH  27  28
ATOM     28  C   UNL A   1      43.396  23.496  25.281  1.00  0.00     0.338 C 
ATOM     29  O   UNL A   1      43.042  23.457  24.114  1.00  0.00    -0.246 OA
BRANCH  28  30
ATOM     30  C   UNL A   1      42.908  24.526  26.217  1.00  0.00     0.060 A 
ATOM     31  C   UNL A   1      43.657  25.704  26.345  1.00  0.00     0.016 A 
ATOM     32  C   UNL A   1      41.785  24.310  27.015  1.00  0.00     0.016 A 
ATOM     33  C   UNL A   1      43.284  26.672  27.275  1.00  0.00     0.010 A 
ATOM     34  C   UNL A   1      41.422  25.277  27.958  1.00  0.00     0.010 A 
ATOM     35  C   UNL A   1      42.176  26.456  28.104  1.00  0.00    -0.014 A 
BRANCH  35  36
ATOM     36  C   UNL A   1      41.828  27.443  29.156  1.00  0.00     0.031 A 
ATOM     37  C   UNL A   1      42.567  27.435  30.466  1.00  0.00     0.074 A 
ATOM     38  C   UNL A   1      40.832  28.324  28.951  1.00  0.00     0.049 A 
ATOM     39  N   UNL A   1      42.356  28.153  31.537  1.00  0.00    -0.248 NA
ATOM     40  C   UNL A   1      43.689  26.491  30.584  1.00  0.00     0.031 C 
ATOM     41  C   UNL A   1      40.050  28.436  27.720  1.00  0.00     0.029 A 
ATOM     42  N   UNL A   1      40.286  29.267  29.785  1.00  0.00    -0.354 N 
ATOM     43  C   UNL A   1      43.293  27.728  32.471  1.00  0.00     0.074 A 
ATOM     44  C   UNL A   1      44.074  26.687  31.837  1.00  0.00     0.031 C 
ATOM     45  C   UNL A   1      39.099  29.370  27.893  1.00  0.00     0.029 A 
ATOM     46  C   UNL A   1      39.180  29.890  29.256  1.00  0.00     0.049 A 
ATOM     47  H   UNL A   1      40.650  29.476  30.676  1.00  0.00     0.167 HD
ATOM     48  C   UNL A   1      43.488  28.170  33.737  1.00  0.00     0.034 A 
ATOM     49  C   UNL A   1      38.306  30.748  29.818  1.00  0.00     0.034 A 
ATOM     50  C   UNL A   1      42.714  29.211  34.360  1.00  0.00     0.049 A 
ATOM     51  C   UNL A   1      38.515  31.184  31.245  1.00  0.00     0.074 A 
ATOM     52  C   UNL A   1      42.875  29.767  35.617  1.00  0.00     0.029 A 
ATOM     53  N   UNL A   1      41.619  29.838  33.785  1.00  0.00    -0.354 N 
ATOM     54  N   UNL A   1      39.478  30.863  32.075  1.00  0.00    -0.248 NA
ATOM     55  C   UNL A   1      37.528  32.119  31.805  1.00  0.00     0.031 C 
ATOM     56  C   UNL A   1      41.847  30.695  35.821  1.00  0.00     0.029 A 
ATOM     57  C   UNL A   1      41.074  30.751  34.673  1.00  0.00     0.049 A 
ATOM     58  H   UNL A   1      41.278  29.661  32.878  1.00  0.00     0.167 HD
ATOM     59  C   UNL A   1      39.227  31.575  33.242  1.00  0.00     0.074 A 
ATOM     60  C   UNL A   1      38.039  32.367  33.003  1.00  0.00     0.031 C 
ATOM     61  C   UNL A   1      39.911  31.562  34.415  1.00  0.00     0.034 A 
BRANCH  48  62
ATOM     62  C   UNL A   1      44.589  27.529  34.543  1.00  0.00     0.023 A 
ATOM     63  C   UNL A   1      45.867  28.121  34.583  1.00  0.00     0.012 A 
ATOM     64  C   UNL A   1      44.335  26.379  35.318  1.00  0.00     0.148 A 
ATOM     65  C   UNL A   1      46.885  27.560  35.354  1.00  0.00     0.002 A 
ATOM     66  C   UNL A   1      45.341  25.853  36.119  1.00  0.00     0.091 A 
ATOM     67  F   UNL A   1      43.118  25.821  35.253  1.00  0.00    -0.205 F 
ATOM     68  C   UNL A   1      46.619  26.434  36.129  1.00  0.00     0.022 A 
BRANCH  66  69
ATOM     69  S   UNL A   1      45.077  24.453  37.213  1.00  0.00     0.127 S 
ATOM     70  O   UNL A   1      44.538  23.456  36.289  1.00  0.00    -0.237 OA
ATOM     71  O   UNL A   1      46.433  24.174  37.688  1.00  0.00    -0.237 OA
ATOM     72  O   UNL A   1      44.154  24.912  38.241  1.00  0.00    -0.744 OA
ENDBRANCH  66  69
ENDBRANCH  48  62
BRANCH  49  73
ATOM     73  C   UNL A   1      37.148  31.254  29.029  1.00  0.00     0.023 A 
ATOM     74  C   UNL A   1      37.096  32.611  28.658  1.00  0.00     0.012 A 
ATOM     75  C   UNL A   1      36.104  30.392  28.639  1.00  0.00     0.148 A 
ATOM     76  C   UNL A   1      36.009  33.108  27.936  1.00  0.00     0.002 A 
ATOM     77  C   UNL A   1      35.054  30.881  27.870  1.00  0.00     0.091 A 
ATOM     78  F   UNL A   1      36.166  29.108  29.017  1.00  0.00    -0.205 F 
ATOM     79  C   UNL A   1      34.996  32.243  27.534  1.00  0.00     0.022 A 
BRANCH  77  80
ATOM     80  S   UNL A   1      33.773  29.818  27.200  1.00  0.00     0.127 S 
ATOM     81  O   UNL A   1      34.095  29.823  25.776  1.00  0.00    -0.237 OA
ATOM     82  O   UNL A   1      34.043  28.556  27.889  1.00  0.00    -0.237 OA
ATOM     83  O   UNL A   1      32.510  30.445  27.565  1.00  0.00    -0.744 OA
ENDBRANCH  77  80
ENDBRANCH  49  73
BRANCH  61  84
ATOM     84  C   UNL A   1      39.408  32.447  35.528  1.00  0.00     0.023 A 
ATOM     85  C   UNL A   1      38.498  31.936  36.474  1.00  0.00     0.012 A 
ATOM     86  C   UNL A   1      39.888  33.764  35.675  1.00  0.00     0.148 A 
ATOM     87  C   UNL A   1      38.046  32.731  37.528  1.00  0.00     0.002 A 
ATOM     88  C   UNL A   1      39.474  34.533  36.755  1.00  0.00     0.091 A 
ATOM     89  F   UNL A   1      40.743  34.239  34.757  1.00  0.00    -0.205 F 
ATOM     90  C   UNL A   1      38.542  34.024  37.674  1.00  0.00     0.022 A 
BRANCH  88  91
ATOM     91  S   UNL A   1      40.126  36.176  37.083  1.00  0.00     0.127 S 
ATOM     92  O   UNL A   1      41.538  35.892  37.335  1.00  0.00    -0.237 OA
ATOM     93  O   UNL A   1      39.859  36.870  35.823  1.00  0.00    -0.237 OA
ATOM     94  O   UNL A   1      39.381  36.685  38.227  1.00  0.00    -0.744 OA
ENDBRANCH  88  91
ENDBRANCH  61  84
ENDBRANCH  35  36
ENDBRANCH  28  30
ENDBRANCH  27  28
ENDBRANCH  26  27
ENDBRANCH  25  26
ENDBRANCH  24  25
ENDBRANCH  23  24
ENDBRANCH   1  23
TORSDOF 23
ENDMDL
