MODEL 1
REMARK VINA RESULT:     -10.5      0.000      0.000
REMARK SMILES Cc1cc(C(=O)N2CCC[C@@H]2C)sc1/C=C/C(=O)OCCOCCOC(=O)c1ccc(-c2c3nc(c(-c4cccc(S(=O)(=O)[O-])c4F)c4ccc([nH]4)c(-c4cccc(S(=O)(=O)[O-])c4F)c4nc(c(-c5cccc(S(=O)(=O)[O-])c5F)c5ccc2[nH]5)C=C4)C=C3)cc1
REMARK SMILES IDX 22 1 21 2 20 3 19 4 17 5 18 6 16 7 15 8 14 9 1 10 2 11 3 12
REMARK SMILES IDX 4 13 13 14 5 15 6 16 7 17 8 18 11 19 9 20 10 21 12 22 23 23
REMARK SMILES IDX 24 24 25 25 26 26 27 27 28 28 29 29 90 30 30 31 89 32 31 33
REMARK SMILES IDX 32 34 33 35 83 36 34 37 88 38 82 39 84 40 35 41 87 42 81 43
REMARK SMILES IDX 80 44 36 46 68 47 48 48 67 49 49 50 52 51 66 52 85 53 50 54
REMARK SMILES IDX 51 55 65 57 86 58 53 59 37 60 38 61 46 62 39 63 41 64 47 65
REMARK SMILES IDX 40 66 42 67 43 68 44 69 45 70 69 71 70 72 78 73 71 74 73 75
REMARK SMILES IDX 79 76 72 77 74 78 75 79 76 80 77 81 54 82 55 83 63 84 56 85
REMARK SMILES IDX 58 86 64 87 57 88 59 89 60 90 61 91 62 92
REMARK H PARENT 84 45 52 56
REMARK Flexibility Score: inf
ROOT
ATOM      1  O   UNL A   1      30.220  31.533  24.869  1.00  0.00    -0.374 OA
ENDROOT
BRANCH   1   2
ATOM      2  C   UNL A   1      29.467  32.228  23.872  1.00  0.00     0.202 C 
BRANCH   2   3
ATOM      3  C   UNL A   1      28.382  31.404  23.175  1.00  0.00     0.261 C 
BRANCH   3   4
ATOM      4  O   UNL A   1      28.504  30.009  23.500  1.00  0.00    -0.460 OA
BRANCH   4   5
ATOM      5  C   UNL A   1      29.232  29.275  22.631  1.00  0.00     0.330 C 
ATOM      6  O   UNL A   1      29.302  29.433  21.420  1.00  0.00    -0.247 OA
BRANCH   5   7
ATOM      7  C   UNL A   1      30.061  28.259  23.307  1.00  0.00     0.095 C 
ATOM      8  C   UNL A   1      30.928  28.465  24.312  1.00  0.00     0.027 C 
BRANCH   8   9
ATOM      9  C   UNL A   1      31.700  27.399  24.892  1.00  0.00     0.031 A 
ATOM     10  C   UNL A   1      33.834  28.657  25.626  1.00  0.00     0.046 C 
ATOM     11  C   UNL A   1      32.971  27.441  25.463  1.00  0.00    -0.032 A 
ATOM     12  C   UNL A   1      33.358  26.159  25.996  1.00  0.00     0.029 A 
ATOM     13  C   UNL A   1      32.398  25.179  25.842  1.00  0.00     0.093 A 
ATOM     14  S   UNL A   1      31.081  25.789  24.957  1.00  0.00    -0.130 S 
BRANCH  13  15
ATOM     15  C   UNL A   1      32.362  23.881  26.514  1.00  0.00     0.264 C 
ATOM     16  O   UNL A   1      31.575  23.669  27.440  1.00  0.00    -0.268 OA
BRANCH  15  17
ATOM     17  N   UNL A   1      33.133  22.829  26.039  1.00  0.00    -0.335 N 
ATOM     18  C   UNL A   1      34.574  22.908  26.103  1.00  0.00     0.120 C 
ATOM     19  C   UNL A   1      32.712  21.630  25.313  1.00  0.00     0.082 C 
ATOM     20  C   UNL A   1      34.985  21.449  26.156  1.00  0.00     0.024 C 
ATOM     21  C   UNL A   1      33.988  20.772  25.218  1.00  0.00     0.026 C 
ATOM     22  C   UNL A   1      32.198  21.986  23.919  1.00  0.00     0.031 C 
ENDBRANCH  15  17
ENDBRANCH  13  15
ENDBRANCH   8   9
ENDBRANCH   5   7
ENDBRANCH   4   5
ENDBRANCH   3   4
ENDBRANCH   2   3
ENDBRANCH   1   2
BRANCH   1  23
ATOM     23  C   UNL A   1      30.640  32.300  26.000  1.00  0.00     0.202 C 
BRANCH  23  24
ATOM     24  C   UNL A   1      31.733  31.663  26.866  1.00  0.00     0.261 C 
BRANCH  24  25
ATOM     25  O   UNL A   1      33.032  32.212  26.581  1.00  0.00    -0.460 OA
BRANCH  25  26
ATOM     26  C   UNL A   1      33.583  32.933  27.587  1.00  0.00     0.338 C 
ATOM     27  O   UNL A   1      33.078  33.879  28.176  1.00  0.00    -0.246 OA
BRANCH  26  28
ATOM     28  C   UNL A   1      34.847  32.309  28.023  1.00  0.00     0.060 A 
ATOM     29  C   UNL A   1      34.808  30.955  28.384  1.00  0.00     0.016 A 
ATOM     30  C   UNL A   1      36.033  33.037  28.133  1.00  0.00     0.016 A 
ATOM     31  C   UNL A   1      35.943  30.338  28.905  1.00  0.00     0.010 A 
ATOM     32  C   UNL A   1      37.171  32.416  28.663  1.00  0.00     0.010 A 
ATOM     33  C   UNL A   1      37.121  31.075  29.084  1.00  0.00    -0.014 A 
BRANCH  33  34
ATOM     34  C   UNL A   1      38.257  30.477  29.828  1.00  0.00     0.031 A 
ATOM     35  C   UNL A   1      38.521  30.919  31.242  1.00  0.00     0.074 A 
ATOM     36  C   UNL A   1      39.045  29.554  29.251  1.00  0.00     0.049 A 
ATOM     37  N   UNL A   1      39.466  30.544  32.063  1.00  0.00    -0.248 NA
ATOM     38  C   UNL A   1      37.597  31.920  31.804  1.00  0.00     0.031 C 
ATOM     39  C   UNL A   1      38.895  29.047  27.889  1.00  0.00     0.029 A 
ATOM     40  N   UNL A   1      40.149  28.896  29.735  1.00  0.00    -0.354 N 
ATOM     41  C   UNL A   1      39.270  31.277  33.227  1.00  0.00     0.074 A 
ATOM     42  C   UNL A   1      38.124  32.131  33.001  1.00  0.00     0.031 C 
ATOM     43  C   UNL A   1      39.889  28.178  27.635  1.00  0.00     0.029 A 
ATOM     44  C   UNL A   1      40.755  28.083  28.808  1.00  0.00     0.049 A 
ATOM     45  H   UNL A   1      40.475  28.998  30.659  1.00  0.00     0.167 HD
ATOM     46  C   UNL A   1      39.968  31.232  34.386  1.00  0.00     0.034 A 
ATOM     47  C   UNL A   1      41.890  27.359  28.890  1.00  0.00     0.034 A 
ATOM     48  C   UNL A   1      41.094  30.368  34.619  1.00  0.00     0.049 A 
ATOM     49  C   UNL A   1      42.659  27.338  30.186  1.00  0.00     0.074 A 
ATOM     50  C   UNL A   1      41.836  30.214  35.777  1.00  0.00     0.029 A 
ATOM     51  N   UNL A   1      41.649  29.521  33.672  1.00  0.00    -0.354 N 
ATOM     52  N   UNL A   1      42.386  27.940  31.319  1.00  0.00    -0.248 NA
ATOM     53  C   UNL A   1      43.875  26.512  30.226  1.00  0.00     0.031 C 
ATOM     54  C   UNL A   1      42.853  29.288  35.523  1.00  0.00     0.029 A 
ATOM     55  C   UNL A   1      42.732  28.849  34.215  1.00  0.00     0.049 A 
ATOM     56  H   UNL A   1      41.323  29.413  32.750  1.00  0.00     0.167 HD
ATOM     57  C   UNL A   1      43.372  27.537  32.213  1.00  0.00     0.074 A 
ATOM     58  C   UNL A   1      44.239  26.624  31.496  1.00  0.00     0.031 C 
ATOM     59  C   UNL A   1      43.553  27.901  33.508  1.00  0.00     0.034 A 
BRANCH  46  60
ATOM     60  C   UNL A   1      39.511  32.123  35.511  1.00  0.00     0.023 A 
ATOM     61  C   UNL A   1      38.645  31.609  36.497  1.00  0.00     0.012 A 
ATOM     62  C   UNL A   1      39.981  33.446  35.623  1.00  0.00     0.148 A 
ATOM     63  C   UNL A   1      38.229  32.407  37.562  1.00  0.00     0.002 A 
ATOM     64  C   UNL A   1      39.595  34.223  36.710  1.00  0.00     0.091 A 
ATOM     65  F   UNL A   1      40.785  33.924  34.663  1.00  0.00    -0.205 F 
ATOM     66  C   UNL A   1      38.711  33.708  37.674  1.00  0.00     0.022 A 
BRANCH  64  67
ATOM     67  S   UNL A   1      40.220  35.884  36.982  1.00  0.00     0.127 S 
ATOM     68  O   UNL A   1      39.720  36.584  35.799  1.00  0.00    -0.237 OA
ATOM     69  O   UNL A   1      39.564  36.261  38.234  1.00  0.00    -0.237 OA
ATOM     70  O   UNL A   1      41.667  35.757  37.070  1.00  0.00    -0.744 OA
ENDBRANCH  64  67
ENDBRANCH  46  60
BRANCH  47  71
ATOM     71  C   UNL A   1      42.349  26.562  27.718  1.00  0.00     0.023 A 
ATOM     72  C   UNL A   1      43.183  27.160  26.754  1.00  0.00     0.012 A 
ATOM     73  C   UNL A   1      41.982  25.211  27.567  1.00  0.00     0.148 A 
ATOM     74  C   UNL A   1      43.619  26.435  25.644  1.00  0.00     0.002 A 
ATOM     75  C   UNL A   1      42.465  24.479  26.489  1.00  0.00     0.091 A 
ATOM     76  F   UNL A   1      41.172  24.666  28.485  1.00  0.00    -0.205 F 
ATOM     77  C   UNL A   1      43.270  25.092  25.517  1.00  0.00     0.022 A 
BRANCH  75  78
ATOM     78  S   UNL A   1      42.173  22.714  26.318  1.00  0.00     0.127 S 
ATOM     79  O   UNL A   1      40.715  22.650  26.321  1.00  0.00    -0.237 OA
ATOM     80  O   UNL A   1      42.802  22.428  25.028  1.00  0.00    -0.237 OA
ATOM     81  O   UNL A   1      42.838  22.097  27.458  1.00  0.00    -0.744 OA
ENDBRANCH  75  78
ENDBRANCH  47  71
BRANCH  59  82
ATOM     82  C   UNL A   1      44.711  27.290  34.254  1.00  0.00     0.023 A 
ATOM     83  C   UNL A   1      45.968  27.925  34.235  1.00  0.00     0.012 A 
ATOM     84  C   UNL A   1      44.533  26.133  35.038  1.00  0.00     0.148 A 
ATOM     85  C   UNL A   1      47.038  27.402  34.961  1.00  0.00     0.002 A 
ATOM     86  C   UNL A   1      45.590  25.643  35.797  1.00  0.00     0.091 A 
ATOM     87  F   UNL A   1      43.334  25.532  35.029  1.00  0.00    -0.205 F 
ATOM     88  C   UNL A   1      46.846  26.270  35.751  1.00  0.00     0.022 A 
BRANCH  86  89
ATOM     89  S   UNL A   1      45.408  24.248  36.914  1.00  0.00     0.127 S 
ATOM     90  O   UNL A   1      44.957  23.196  36.006  1.00  0.00    -0.237 OA
ATOM     91  O   UNL A   1      46.770  24.075  37.421  1.00  0.00    -0.237 OA
ATOM     92  O   UNL A   1      44.440  24.665  37.920  1.00  0.00    -0.744 OA
ENDBRANCH  86  89
ENDBRANCH  59  82
ENDBRANCH  33  34
ENDBRANCH  26  28
ENDBRANCH  25  26
ENDBRANCH  24  25
ENDBRANCH  23  24
ENDBRANCH   1  23
TORSDOF 20
ENDMDL
MODEL 2
REMARK VINA RESULT:     -10.4      2.178      7.835
REMARK SMILES Cc1cc(C(=O)N2CCC[C@@H]2C)sc1/C=C/C(=O)OCCOCCOC(=O)c1ccc(-c2c3nc(c(-c4cccc(S(=O)(=O)[O-])c4F)c4ccc([nH]4)c(-c4cccc(S(=O)(=O)[O-])c4F)c4nc(c(-c5cccc(S(=O)(=O)[O-])c5F)c5ccc2[nH]5)C=C4)C=C3)cc1
REMARK SMILES IDX 22 1 21 2 20 3 19 4 17 5 18 6 16 7 15 8 14 9 1 10 2 11 3 12
REMARK SMILES IDX 4 13 13 14 5 15 6 16 7 17 8 18 11 19 9 20 10 21 12 22 23 23
REMARK SMILES IDX 24 24 25 25 26 26 27 27 28 28 29 29 90 30 30 31 89 32 31 33
REMARK SMILES IDX 32 34 33 35 83 36 34 37 88 38 82 39 84 40 35 41 87 42 81 43
REMARK SMILES IDX 80 44 36 46 68 47 48 48 67 49 49 50 52 51 66 52 85 53 50 54
REMARK SMILES IDX 51 55 65 57 86 58 53 59 37 60 38 61 46 62 39 63 41 64 47 65
REMARK SMILES IDX 40 66 42 67 43 68 44 69 45 70 69 71 70 72 78 73 71 74 73 75
REMARK SMILES IDX 79 76 72 77 74 78 75 79 76 80 77 81 54 82 55 83 63 84 56 85
REMARK SMILES IDX 58 86 64 87 57 88 59 89 60 90 61 91 62 92
REMARK H PARENT 84 45 52 56
REMARK Flexibility Score: inf
ROOT
ATOM      1  O   UNL A   1      31.007  30.683  25.240  1.00  0.00    -0.374 OA
ENDROOT
BRANCH   1   2
ATOM      2  C   UNL A   1      30.150  31.677  24.672  1.00  0.00     0.202 C 
BRANCH   2   3
ATOM      3  C   UNL A   1      29.094  31.154  23.696  1.00  0.00     0.261 C 
BRANCH   3   4
ATOM      4  O   UNL A   1      29.187  29.727  23.549  1.00  0.00    -0.460 OA
BRANCH   4   5
ATOM      5  C   UNL A   1      29.808  29.302  22.427  1.00  0.00     0.330 C 
ATOM      6  O   UNL A   1      29.594  29.682  21.284  1.00  0.00    -0.247 OA
BRANCH   5   7
ATOM      7  C   UNL A   1      30.896  28.347  22.712  1.00  0.00     0.095 C 
ATOM      8  C   UNL A   1      30.909  27.401  23.665  1.00  0.00     0.027 C 
BRANCH   8   9
ATOM      9  C   UNL A   1      32.033  26.527  23.867  1.00  0.00     0.031 A 
ATOM     10  C   UNL A   1      32.889  27.322  26.171  1.00  0.00     0.046 C 
ATOM     11  C   UNL A   1      32.924  26.471  24.937  1.00  0.00    -0.032 A 
ATOM     12  C   UNL A   1      33.873  25.396  24.784  1.00  0.00     0.029 A 
ATOM     13  C   UNL A   1      33.693  24.655  23.633  1.00  0.00     0.093 A 
ATOM     14  S   UNL A   1      32.448  25.331  22.694  1.00  0.00    -0.130 S 
BRANCH  13  15
ATOM     15  C   UNL A   1      34.288  23.354  23.333  1.00  0.00     0.264 C 
ATOM     16  O   UNL A   1      35.318  23.269  22.658  1.00  0.00    -0.268 OA
BRANCH  15  17
ATOM     17  N   UNL A   1      33.767  22.200  23.903  1.00  0.00    -0.335 N 
ATOM     18  C   UNL A   1      34.648  21.261  24.557  1.00  0.00     0.120 C 
ATOM     19  C   UNL A   1      32.405  21.670  23.832  1.00  0.00     0.082 C 
ATOM     20  C   UNL A   1      33.729  20.587  25.559  1.00  0.00     0.024 C 
ATOM     21  C   UNL A   1      32.411  20.470  24.798  1.00  0.00     0.026 C 
ATOM     22  C   UNL A   1      32.067  21.217  22.413  1.00  0.00     0.031 C 
ENDBRANCH  15  17
ENDBRANCH  13  15
ENDBRANCH   8   9
ENDBRANCH   5   7
ENDBRANCH   4   5
ENDBRANCH   3   4
ENDBRANCH   2   3
ENDBRANCH   1   2
BRANCH   1  23
ATOM     23  C   UNL A   1      31.715  31.053  26.425  1.00  0.00     0.202 C 
BRANCH  23  24
ATOM     24  C   UNL A   1      31.582  32.520  26.849  1.00  0.00     0.261 C 
BRANCH  24  25
ATOM     25  O   UNL A   1      32.836  33.220  26.761  1.00  0.00    -0.460 OA
BRANCH  25  26
ATOM     26  C   UNL A   1      33.256  33.790  27.915  1.00  0.00     0.338 C 
ATOM     27  O   UNL A   1      32.654  34.613  28.591  1.00  0.00    -0.246 OA
BRANCH  26  28
ATOM     28  C   UNL A   1      34.503  33.147  28.372  1.00  0.00     0.060 A 
ATOM     29  C   UNL A   1      34.398  31.884  28.970  1.00  0.00     0.016 A 
ATOM     30  C   UNL A   1      35.743  33.782  28.273  1.00  0.00     0.016 A 
ATOM     31  C   UNL A   1      35.524  31.273  29.517  1.00  0.00     0.010 A 
ATOM     32  C   UNL A   1      36.872  33.169  28.828  1.00  0.00     0.010 A 
ATOM     33  C   UNL A   1      36.761  31.929  29.484  1.00  0.00    -0.014 A 
BRANCH  33  34
ATOM     34  C   UNL A   1      37.908  31.376  30.246  1.00  0.00     0.031 A 
ATOM     35  C   UNL A   1      38.766  30.315  29.612  1.00  0.00     0.074 A 
ATOM     36  C   UNL A   1      38.181  31.812  31.488  1.00  0.00     0.049 A 
ATOM     37  N   UNL A   1      39.799  29.683  30.104  1.00  0.00    -0.248 NA
ATOM     38  C   UNL A   1      38.409  29.910  28.241  1.00  0.00     0.031 C 
ATOM     39  C   UNL A   1      37.424  32.831  32.212  1.00  0.00     0.029 A 
ATOM     40  N   UNL A   1      39.160  31.429  32.372  1.00  0.00    -0.354 N 
ATOM     41  C   UNL A   1      40.202  28.790  29.119  1.00  0.00     0.074 A 
ATOM     42  C   UNL A   1      39.292  28.951  28.005  1.00  0.00     0.031 C 
ATOM     43  C   UNL A   1      37.948  32.973  33.441  1.00  0.00     0.029 A 
ATOM     44  C   UNL A   1      39.063  32.042  33.598  1.00  0.00     0.049 A 
ATOM     45  H   UNL A   1      39.864  30.778  32.148  1.00  0.00     0.167 HD
ATOM     46  C   UNL A   1      41.245  27.927  29.130  1.00  0.00     0.034 A 
ATOM     47  C   UNL A   1      39.781  31.858  34.725  1.00  0.00     0.034 A 
ATOM     48  C   UNL A   1      42.162  27.782  30.228  1.00  0.00     0.049 A 
ATOM     49  C   UNL A   1      40.927  30.879  34.719  1.00  0.00     0.074 A 
ATOM     50  C   UNL A   1      43.280  26.971  30.315  1.00  0.00     0.029 A 
ATOM     51  N   UNL A   1      42.063  28.456  31.436  1.00  0.00    -0.354 N 
ATOM     52  N   UNL A   1      41.373  30.135  33.734  1.00  0.00    -0.248 NA
ATOM     53  C   UNL A   1      41.690  30.739  35.967  1.00  0.00     0.031 C 
ATOM     54  C   UNL A   1      43.844  27.139  31.584  1.00  0.00     0.029 A 
ATOM     55  C   UNL A   1      43.091  28.071  32.279  1.00  0.00     0.049 A 
ATOM     56  H   UNL A   1      41.364  29.111  31.661  1.00  0.00     0.167 HD
ATOM     57  C   UNL A   1      42.486  29.469  34.234  1.00  0.00     0.074 A 
ATOM     58  C   UNL A   1      42.660  29.911  35.602  1.00  0.00     0.031 C 
ATOM     59  C   UNL A   1      43.286  28.561  33.619  1.00  0.00     0.034 A 
BRANCH  46  60
ATOM     60  C   UNL A   1      41.472  27.090  27.899  1.00  0.00     0.023 A 
ATOM     61  C   UNL A   1      42.090  27.667  26.771  1.00  0.00     0.012 A 
ATOM     62  C   UNL A   1      41.126  25.725  27.877  1.00  0.00     0.148 A 
ATOM     63  C   UNL A   1      42.335  26.905  25.629  1.00  0.00     0.002 A 
ATOM     64  C   UNL A   1      41.410  24.962  26.749  1.00  0.00     0.091 A 
ATOM     65  F   UNL A   1      40.517  25.201  28.950  1.00  0.00    -0.205 F 
ATOM     66  C   UNL A   1      42.005  25.553  25.622  1.00  0.00     0.022 A 
BRANCH  64  67
ATOM     67  S   UNL A   1      41.090  23.197  26.671  1.00  0.00     0.127 S 
ATOM     68  O   UNL A   1      41.944  22.792  25.554  1.00  0.00    -0.237 OA
ATOM     69  O   UNL A   1      41.547  22.741  27.984  1.00  0.00    -0.237 OA
ATOM     70  O   UNL A   1      39.658  23.059  26.447  1.00  0.00    -0.744 OA
ENDBRANCH  64  67
ENDBRANCH  46  60
BRANCH  47  71
ATOM     71  C   UNL A   1      39.460  32.648  35.947  1.00  0.00     0.023 A 
ATOM     72  C   UNL A   1      40.012  33.933  36.109  1.00  0.00     0.012 A 
ATOM     73  C   UNL A   1      38.594  32.141  36.936  1.00  0.00     0.148 A 
ATOM     74  C   UNL A   1      39.730  34.689  37.248  1.00  0.00     0.002 A 
ATOM     75  C   UNL A   1      38.274  32.921  38.041  1.00  0.00     0.091 A 
ATOM     76  F   UNL A   1      38.095  30.909  36.772  1.00  0.00    -0.205 F 
ATOM     77  C   UNL A   1      38.854  34.188  38.208  1.00  0.00     0.022 A 
BRANCH  75  78
ATOM     78  S   UNL A   1      37.054  32.409  39.256  1.00  0.00     0.127 S 
ATOM     79  O   UNL A   1      37.322  33.331  40.356  1.00  0.00    -0.237 OA
ATOM     80  O   UNL A   1      35.798  32.647  38.542  1.00  0.00    -0.237 OA
ATOM     81  O   UNL A   1      37.334  31.004  39.521  1.00  0.00    -0.744 OA
ENDBRANCH  75  78
ENDBRANCH  47  71
BRANCH  59  82
ATOM     82  C   UNL A   1      44.446  28.003  34.402  1.00  0.00     0.023 A 
ATOM     83  C   UNL A   1      44.285  26.814  35.140  1.00  0.00     0.012 A 
ATOM     84  C   UNL A   1      45.716  28.612  34.342  1.00  0.00     0.148 A 
ATOM     85  C   UNL A   1      45.362  26.256  35.830  1.00  0.00     0.002 A 
ATOM     86  C   UNL A   1      46.795  28.024  34.992  1.00  0.00     0.091 A 
ATOM     87  F   UNL A   1      45.846  29.753  33.649  1.00  0.00    -0.205 F 
ATOM     88  C   UNL A   1      46.617  26.853  35.746  1.00  0.00     0.022 A 
BRANCH  86  89
ATOM     89  S   UNL A   1      48.466  28.672  34.861  1.00  0.00     0.127 S 
ATOM     90  O   UNL A   1      49.242  27.632  35.533  1.00  0.00    -0.237 OA
ATOM     91  O   UNL A   1      48.661  28.740  33.412  1.00  0.00    -0.237 OA
ATOM     92  O   UNL A   1      48.446  29.968  35.528  1.00  0.00    -0.744 OA
ENDBRANCH  86  89
ENDBRANCH  59  82
ENDBRANCH  33  34
ENDBRANCH  26  28
ENDBRANCH  25  26
ENDBRANCH  24  25
ENDBRANCH  23  24
ENDBRANCH   1  23
TORSDOF 20
ENDMDL
MODEL 3
REMARK VINA RESULT:     -10.3      1.198      7.821
REMARK SMILES Cc1cc(C(=O)N2CCC[C@@H]2C)sc1/C=C/C(=O)OCCOCCOC(=O)c1ccc(-c2c3nc(c(-c4cccc(S(=O)(=O)[O-])c4F)c4ccc([nH]4)c(-c4cccc(S(=O)(=O)[O-])c4F)c4nc(c(-c5cccc(S(=O)(=O)[O-])c5F)c5ccc2[nH]5)C=C4)C=C3)cc1
REMARK SMILES IDX 22 1 21 2 20 3 19 4 17 5 18 6 16 7 15 8 14 9 1 10 2 11 3 12
REMARK SMILES IDX 4 13 13 14 5 15 6 16 7 17 8 18 11 19 9 20 10 21 12 22 23 23
REMARK SMILES IDX 24 24 25 25 26 26 27 27 28 28 29 29 90 30 30 31 89 32 31 33
REMARK SMILES IDX 32 34 33 35 83 36 34 37 88 38 82 39 84 40 35 41 87 42 81 43
REMARK SMILES IDX 80 44 36 46 68 47 48 48 67 49 49 50 52 51 66 52 85 53 50 54
REMARK SMILES IDX 51 55 65 57 86 58 53 59 37 60 38 61 46 62 39 63 41 64 47 65
REMARK SMILES IDX 40 66 42 67 43 68 44 69 45 70 69 71 70 72 78 73 71 74 73 75
REMARK SMILES IDX 79 76 72 77 74 78 75 79 76 80 77 81 54 82 55 83 63 84 56 85
REMARK SMILES IDX 58 86 64 87 57 88 59 89 60 90 61 91 62 92
REMARK H PARENT 84 45 52 56
REMARK Flexibility Score: inf
ROOT
ATOM      1  O   UNL A   1      30.823  30.576  25.292  1.00  0.00    -0.374 OA
ENDROOT
BRANCH   1   2
ATOM      2  C   UNL A   1      30.061  31.632  24.703  1.00  0.00     0.202 C 
BRANCH   2   3
ATOM      3  C   UNL A   1      29.060  31.200  23.629  1.00  0.00     0.261 C 
BRANCH   3   4
ATOM      4  O   UNL A   1      29.047  29.769  23.479  1.00  0.00    -0.460 OA
BRANCH   4   5
ATOM      5  C   UNL A   1      29.695  29.298  22.392  1.00  0.00     0.330 C 
ATOM      6  O   UNL A   1      29.593  29.709  21.244  1.00  0.00    -0.247 OA
BRANCH   5   7
ATOM      7  C   UNL A   1      30.665  28.238  22.728  1.00  0.00     0.095 C 
ATOM      8  C   UNL A   1      30.628  27.421  23.794  1.00  0.00     0.027 C 
BRANCH   8   9
ATOM      9  C   UNL A   1      31.637  26.426  24.036  1.00  0.00     0.031 A 
ATOM     10  C   UNL A   1      32.583  27.201  26.312  1.00  0.00     0.046 C 
ATOM     11  C   UNL A   1      32.514  26.304  25.112  1.00  0.00    -0.032 A 
ATOM     12  C   UNL A   1      33.325  25.117  25.006  1.00  0.00     0.029 A 
ATOM     13  C   UNL A   1      33.058  24.358  23.884  1.00  0.00     0.093 A 
ATOM     14  S   UNL A   1      31.905  25.142  22.913  1.00  0.00    -0.130 S 
BRANCH  13  15
ATOM     15  C   UNL A   1      33.490  22.983  23.638  1.00  0.00     0.264 C 
ATOM     16  O   UNL A   1      32.812  22.221  22.944  1.00  0.00    -0.268 OA
BRANCH  15  17
ATOM     17  N   UNL A   1      34.731  22.551  24.087  1.00  0.00    -0.335 N 
ATOM     18  C   UNL A   1      35.923  22.905  23.353  1.00  0.00     0.120 C 
ATOM     19  C   UNL A   1      35.047  21.623  25.174  1.00  0.00     0.082 C 
ATOM     20  C   UNL A   1      36.996  22.869  24.425  1.00  0.00     0.024 C 
ATOM     21  C   UNL A   1      36.582  21.682  25.292  1.00  0.00     0.026 C 
ATOM     22  C   UNL A   1      34.587  20.206  24.835  1.00  0.00     0.031 C 
ENDBRANCH  15  17
ENDBRANCH  13  15
ENDBRANCH   8   9
ENDBRANCH   5   7
ENDBRANCH   4   5
ENDBRANCH   3   4
ENDBRANCH   2   3
ENDBRANCH   1   2
BRANCH   1  23
ATOM     23  C   UNL A   1      31.771  30.955  26.292  1.00  0.00     0.202 C 
BRANCH  23  24
ATOM     24  C   UNL A   1      31.592  32.358  26.882  1.00  0.00     0.261 C 
BRANCH  24  25
ATOM     25  O   UNL A   1      32.773  33.163  26.722  1.00  0.00    -0.460 OA
BRANCH  25  26
ATOM     26  C   UNL A   1      33.211  33.769  27.851  1.00  0.00     0.338 C 
ATOM     27  O   UNL A   1      32.624  34.622  28.503  1.00  0.00    -0.246 OA
BRANCH  26  28
ATOM     28  C   UNL A   1      34.456  33.130  28.318  1.00  0.00     0.060 A 
ATOM     29  C   UNL A   1      34.361  31.832  28.838  1.00  0.00     0.016 A 
ATOM     30  C   UNL A   1      35.682  33.799  28.304  1.00  0.00     0.016 A 
ATOM     31  C   UNL A   1      35.482  31.218  29.392  1.00  0.00     0.010 A 
ATOM     32  C   UNL A   1      36.806  33.182  28.866  1.00  0.00     0.010 A 
ATOM     33  C   UNL A   1      36.702  31.904  29.445  1.00  0.00    -0.014 A 
BRANCH  33  34
ATOM     34  C   UNL A   1      37.833  31.334  30.218  1.00  0.00     0.031 A 
ATOM     35  C   UNL A   1      38.719  30.304  29.570  1.00  0.00     0.074 A 
ATOM     36  C   UNL A   1      38.069  31.727  31.482  1.00  0.00     0.049 A 
ATOM     37  N   UNL A   1      39.745  29.665  30.067  1.00  0.00    -0.248 NA
ATOM     38  C   UNL A   1      38.404  29.946  28.177  1.00  0.00     0.031 C 
ATOM     39  C   UNL A   1      37.282  32.713  32.220  1.00  0.00     0.029 A 
ATOM     40  N   UNL A   1      39.027  31.323  32.378  1.00  0.00    -0.354 N 
ATOM     41  C   UNL A   1      40.184  28.812  29.062  1.00  0.00     0.074 A 
ATOM     42  C   UNL A   1      39.302  29.004  27.930  1.00  0.00     0.031 C 
ATOM     43  C   UNL A   1      37.771  32.816  33.468  1.00  0.00     0.029 A 
ATOM     44  C   UNL A   1      38.891  31.890  33.622  1.00  0.00     0.049 A 
ATOM     45  H   UNL A   1      39.744  30.686  32.150  1.00  0.00     0.167 HD
ATOM     46  C   UNL A   1      41.235  27.959  29.071  1.00  0.00     0.034 A 
ATOM     47  C   UNL A   1      39.580  31.672  34.761  1.00  0.00     0.034 A 
ATOM     48  C   UNL A   1      42.123  27.783  30.188  1.00  0.00     0.049 A 
ATOM     49  C   UNL A   1      40.736  30.705  34.751  1.00  0.00     0.074 A 
ATOM     50  C   UNL A   1      43.247  26.980  30.276  1.00  0.00     0.029 A 
ATOM     51  N   UNL A   1      41.985  28.412  31.416  1.00  0.00    -0.354 N 
ATOM     52  N   UNL A   1      41.216  30.001  33.753  1.00  0.00    -0.248 NA
ATOM     53  C   UNL A   1      41.466  30.528  36.014  1.00  0.00     0.031 C 
ATOM     54  C   UNL A   1      43.774  27.107  31.566  1.00  0.00     0.029 A 
ATOM     55  C   UNL A   1      42.994  28.007  32.273  1.00  0.00     0.049 A 
ATOM     56  H   UNL A   1      41.273  29.052  31.645  1.00  0.00     0.167 HD
ATOM     57  C   UNL A   1      42.322  29.328  34.259  1.00  0.00     0.074 A 
ATOM     58  C   UNL A   1      42.454  29.722  35.646  1.00  0.00     0.031 C 
ATOM     59  C   UNL A   1      43.147  28.450  33.634  1.00  0.00     0.034 A 
BRANCH  46  60
ATOM     60  C   UNL A   1      41.503  27.168  27.818  1.00  0.00     0.023 A 
ATOM     61  C   UNL A   1      42.031  27.821  26.685  1.00  0.00     0.012 A 
ATOM     62  C   UNL A   1      41.287  25.778  27.778  1.00  0.00     0.148 A 
ATOM     63  C   UNL A   1      42.313  27.106  25.522  1.00  0.00     0.002 A 
ATOM     64  C   UNL A   1      41.609  25.065  26.628  1.00  0.00     0.091 A 
ATOM     65  F   UNL A   1      40.763  25.180  28.857  1.00  0.00    -0.205 F 
ATOM     66  C   UNL A   1      42.112  25.729  25.497  1.00  0.00     0.022 A 
BRANCH  64  67
ATOM     67  S   UNL A   1      41.455  23.279  26.523  1.00  0.00     0.127 S 
ATOM     68  O   UNL A   1      42.004  22.860  27.813  1.00  0.00    -0.237 OA
ATOM     69  O   UNL A   1      40.010  23.100  26.389  1.00  0.00    -0.237 OA
ATOM     70  O   UNL A   1      42.226  22.879  25.355  1.00  0.00    -0.744 OA
ENDBRANCH  64  67
ENDBRANCH  46  60
BRANCH  47  71
ATOM     71  C   UNL A   1      39.218  32.415  36.000  1.00  0.00     0.023 A 
ATOM     72  C   UNL A   1      38.252  31.881  36.875  1.00  0.00     0.012 A 
ATOM     73  C   UNL A   1      39.841  33.636  36.328  1.00  0.00     0.148 A 
ATOM     74  C   UNL A   1      37.893  32.562  38.038  1.00  0.00     0.002 A 
ATOM     75  C   UNL A   1      39.519  34.281  37.515  1.00  0.00     0.091 A 
ATOM     76  F   UNL A   1      40.743  34.137  35.473  1.00  0.00    -0.205 F 
ATOM     77  C   UNL A   1      38.533  33.756  38.364  1.00  0.00     0.022 A 
BRANCH  75  78
ATOM     78  S   UNL A   1      40.386  35.751  38.075  1.00  0.00     0.127 S 
ATOM     79  O   UNL A   1      39.978  35.825  39.475  1.00  0.00    -0.237 OA
ATOM     80  O   UNL A   1      41.785  35.377  37.858  1.00  0.00    -0.237 OA
ATOM     81  O   UNL A   1      39.917  36.832  37.218  1.00  0.00    -0.744 OA
ENDBRANCH  75  78
ENDBRANCH  47  71
BRANCH  59  82
ATOM     82  C   UNL A   1      44.292  27.875  34.428  1.00  0.00     0.023 A 
ATOM     83  C   UNL A   1      45.487  28.609  34.565  1.00  0.00     0.012 A 
ATOM     84  C   UNL A   1      44.154  26.647  35.105  1.00  0.00     0.148 A 
ATOM     85  C   UNL A   1      46.538  28.115  35.338  1.00  0.00     0.002 A 
ATOM     86  C   UNL A   1      45.187  26.184  35.912  1.00  0.00     0.091 A 
ATOM     87  F   UNL A   1      43.016  25.954  34.949  1.00  0.00    -0.205 F 
ATOM     88  C   UNL A   1      46.384  26.911  36.020  1.00  0.00     0.022 A 
BRANCH  86  89
ATOM     89  S   UNL A   1      45.040  24.691  36.901  1.00  0.00     0.127 S 
ATOM     90  O   UNL A   1      46.330  24.660  37.588  1.00  0.00    -0.237 OA
ATOM     91  O   UNL A   1      43.898  24.999  37.763  1.00  0.00    -0.237 OA
ATOM     92  O   UNL A   1      44.807  23.607  35.956  1.00  0.00    -0.744 OA
ENDBRANCH  86  89
ENDBRANCH  59  82
ENDBRANCH  33  34
ENDBRANCH  26  28
ENDBRANCH  25  26
ENDBRANCH  24  25
ENDBRANCH  23  24
ENDBRANCH   1  23
TORSDOF 20
ENDMDL
