MODEL 1
REMARK VINA RESULT:     -10.4      0.000      0.000
REMARK SMILES O=C(CN1C(=O)S/C(=C\c2cccn2-c2cccc(C(=O)OCCOCCOC(=O)c3ccc(-c4c5nc(c(-c6cccc(S(=O)(=O)[O-])c6F)c6ccc([nH]6)c(-c6cccc(S(=O)(=O)[O-])c6F)c6nc(c(-c7cccc(S(=O)(=O)[O-])c7F)c7ccc4[nH]7)C=C6)C=C5)cc3)c2)C1=O)Nc1ccc(Cl)cc1
REMARK SMILES IDX 24 1 23 2 22 3 20 4 21 5 19 6 15 7 16 8 94 9 17 10 18 11
REMARK SMILES IDX 14 12 10 13 11 14 12 15 13 16 9 17 4 18 5 19 95 20 6 21 7 22
REMARK SMILES IDX 8 23 96 24 3 25 2 26 1 27 97 28 98 30 99 31 104 32 100 33
REMARK SMILES IDX 103 34 101 35 102 36 25 37 26 38 27 39 28 40 29 41 30 42
REMARK SMILES IDX 31 43 32 44 93 45 33 46 92 47 34 48 35 49 36 50 86 51 37 52
REMARK SMILES IDX 91 53 85 54 87 55 38 56 90 57 84 58 83 59 39 61 71 62 51 63
REMARK SMILES IDX 70 64 52 65 55 66 69 67 88 68 53 69 54 70 68 72 89 73 56 74
REMARK SMILES IDX 40 75 41 76 49 77 42 78 44 79 50 80 43 81 45 82 46 83 47 84
REMARK SMILES IDX 48 85 72 86 73 87 81 88 74 89 76 90 82 91 75 92 77 93 78 94
REMARK SMILES IDX 79 95 80 96 57 97 58 98 66 99 59 100 61 101 67 102 60 103
REMARK SMILES IDX 62 104 63 105 64 106 65 107
REMARK H PARENT 97 29 87 60 55 71
REMARK Flexibility Score: inf
ROOT
ATOM      1  C   UNL A   1      39.963  32.536  36.393  1.00  0.00     0.202 C 
ENDROOT
BRANCH   1   2
ATOM      2  C   UNL A   1      38.499  32.163  36.146  1.00  0.00     0.261 C 
BRANCH   2   3
ATOM      3  O   UNL A   1      38.210  32.018  34.745  1.00  0.00    -0.460 OA
BRANCH   3   4
ATOM      4  C   UNL A   1      38.560  30.825  34.202  1.00  0.00     0.338 C 
ATOM      5  O   UNL A   1      38.252  29.715  34.600  1.00  0.00    -0.246 OA
BRANCH   4   6
ATOM      6  C   UNL A   1      39.227  31.052  32.896  1.00  0.00     0.062 A 
ATOM      7  C   UNL A   1      39.753  30.425  30.620  1.00  0.00     0.046 A 
ATOM      8  C   UNL A   1      40.603  31.536  30.513  1.00  0.00     0.026 A 
ATOM      9  C   UNL A   1      39.092  30.161  31.828  1.00  0.00     0.042 A 
ATOM     10  C   UNL A   1      40.745  32.414  31.588  1.00  0.00     0.003 A 
ATOM     11  C   UNL A   1      40.046  32.180  32.771  1.00  0.00     0.016 A 
BRANCH   7  12
ATOM     12  N   UNL A   1      39.566  29.578  29.488  1.00  0.00    -0.317 N 
ATOM     13  C   UNL A   1      38.670  29.736  28.428  1.00  0.00     0.047 A 
ATOM     14  C   UNL A   1      38.814  28.638  27.593  1.00  0.00     0.028 A 
ATOM     15  C   UNL A   1      39.816  27.805  28.125  1.00  0.00     0.020 A 
ATOM     16  C   UNL A   1      40.292  28.422  29.257  1.00  0.00     0.092 A 
BRANCH  13  17
ATOM     17  C   UNL A   1      37.874  30.910  28.293  1.00  0.00     0.048 C 
ATOM     18  N   UNL A   1      34.411  31.808  27.803  1.00  0.00    -0.259 N 
ATOM     19  C   UNL A   1      34.111  30.471  27.753  1.00  0.00     0.294 C 
ATOM     20  C   UNL A   1      35.732  32.127  28.007  1.00  0.00     0.268 C 
ATOM     21  O   UNL A   1      33.018  30.004  27.505  1.00  0.00    -0.261 OA
ATOM     22  S   UNL A   1      35.505  29.512  28.147  1.00  0.00    -0.022 SA
ATOM     23  C   UNL A   1      36.540  30.884  28.168  1.00  0.00     0.085 C 
ATOM     24  O   UNL A   1      36.212  33.253  27.998  1.00  0.00    -0.268 OA
BRANCH  18  25
ATOM     25  C   UNL A   1      33.414  32.812  27.459  1.00  0.00     0.230 C 
BRANCH  25  26
ATOM     26  C   UNL A   1      33.296  34.002  28.427  1.00  0.00     0.244 C 
ATOM     27  O   UNL A   1      32.550  34.943  28.164  1.00  0.00    -0.273 OA
ATOM     28  N   UNL A   1      33.975  33.834  29.622  1.00  0.00    -0.325 N 
ATOM     29  H   UNL A   1      34.537  33.028  29.690  1.00  0.00     0.169 HD
BRANCH  28  30
ATOM     30  C   UNL A   1      33.960  34.674  30.748  1.00  0.00     0.041 A 
ATOM     31  C   UNL A   1      33.008  35.702  30.760  1.00  0.00     0.027 A 
ATOM     32  C   UNL A   1      34.850  34.551  31.816  1.00  0.00     0.027 A 
ATOM     33  C   UNL A   1      32.911  36.567  31.854  1.00  0.00     0.022 A 
ATOM     34  C   UNL A   1      34.777  35.440  32.894  1.00  0.00     0.022 A 
ATOM     35  C   UNL A   1      33.800  36.433  32.917  1.00  0.00     0.041 A 
ATOM     36  Cl  UNL A   1      33.695  37.497  34.264  1.00  0.00    -0.084 Cl
ENDBRANCH  28  30
ENDBRANCH  25  26
ENDBRANCH  18  25
ENDBRANCH  13  17
ENDBRANCH   7  12
ENDBRANCH   4   6
ENDBRANCH   3   4
ENDBRANCH   2   3
ENDBRANCH   1   2
BRANCH   1  37
ATOM     37  O   UNL A   1      40.820  31.500  36.878  1.00  0.00    -0.374 OA
BRANCH  37  38
ATOM     38  C   UNL A   1      42.086  31.324  36.256  1.00  0.00     0.202 C 
BRANCH  38  39
ATOM     39  C   UNL A   1      42.787  29.973  36.340  1.00  0.00     0.261 C 
BRANCH  39  40
ATOM     40  O   UNL A   1      41.925  28.855  36.516  1.00  0.00    -0.460 OA
BRANCH  40  41
ATOM     41  C   UNL A   1      42.589  27.690  36.338  1.00  0.00     0.338 C 
ATOM     42  O   UNL A   1      43.137  27.024  37.205  1.00  0.00    -0.246 OA
BRANCH  41  43
ATOM     43  C   UNL A   1      42.773  27.410  34.916  1.00  0.00     0.060 A 
ATOM     44  C   UNL A   1      44.069  27.071  34.517  1.00  0.00     0.016 A 
ATOM     45  C   UNL A   1      41.781  27.762  33.996  1.00  0.00     0.016 A 
ATOM     46  C   UNL A   1      44.408  27.202  33.189  1.00  0.00     0.010 A 
ATOM     47  C   UNL A   1      42.135  27.936  32.672  1.00  0.00     0.010 A 
ATOM     48  C   UNL A   1      43.450  27.670  32.278  1.00  0.00    -0.014 A 
BRANCH  48  49
ATOM     49  C   UNL A   1      43.800  27.574  30.852  1.00  0.00     0.031 A 
ATOM     50  C   UNL A   1      43.853  29.040  30.305  1.00  0.00     0.074 A 
ATOM     51  C   UNL A   1      43.878  26.304  30.324  1.00  0.00     0.049 A 
ATOM     52  N   UNL A   1      43.324  29.558  29.237  1.00  0.00    -0.248 NA
ATOM     53  C   UNL A   1      44.406  30.133  31.170  1.00  0.00     0.031 C 
ATOM     54  C   UNL A   1      43.889  25.037  31.106  1.00  0.00     0.029 A 
ATOM     55  N   UNL A   1      43.980  25.787  29.044  1.00  0.00    -0.354 N 
ATOM     56  C   UNL A   1      43.778  30.904  29.162  1.00  0.00     0.074 A 
ATOM     57  C   UNL A   1      44.208  31.254  30.471  1.00  0.00     0.031 C 
ATOM     58  C   UNL A   1      43.879  23.946  30.297  1.00  0.00     0.029 A 
ATOM     59  C   UNL A   1      43.881  24.365  28.906  1.00  0.00     0.049 A 
ATOM     60  H   UNL A   1      44.116  26.372  28.264  1.00  0.00     0.167 HD
ATOM     61  C   UNL A   1      44.033  31.529  27.970  1.00  0.00     0.034 A 
ATOM     62  C   UNL A   1      43.768  23.616  27.749  1.00  0.00     0.034 A 
ATOM     63  C   UNL A   1      43.747  30.603  26.923  1.00  0.00     0.049 A 
ATOM     64  C   UNL A   1      44.005  24.596  26.683  1.00  0.00     0.074 A 
ATOM     65  C   UNL A   1      42.583  30.038  26.472  1.00  0.00     0.029 A 
ATOM     66  N   UNL A   1      44.824  29.824  26.560  1.00  0.00    -0.354 N 
ATOM     67  N   UNL A   1      45.163  25.122  26.413  1.00  0.00    -0.248 NA
ATOM     68  C   UNL A   1      42.844  25.152  25.980  1.00  0.00     0.031 C 
ATOM     69  C   UNL A   1      42.954  28.688  26.329  1.00  0.00     0.029 A 
ATOM     70  C   UNL A   1      44.351  28.567  26.331  1.00  0.00     0.049 A 
ATOM     71  H   UNL A   1      45.759  30.121  26.482  1.00  0.00     0.167 HD
ATOM     72  C   UNL A   1      44.792  26.306  25.832  1.00  0.00     0.074 A 
ATOM     73  C   UNL A   1      43.463  26.102  25.288  1.00  0.00     0.031 C 
ATOM     74  C   UNL A   1      45.288  27.476  26.317  1.00  0.00     0.034 A 
BRANCH  61  75
ATOM     75  C   UNL A   1      44.874  32.721  27.552  1.00  0.00     0.023 A 
ATOM     76  C   UNL A   1      44.166  33.710  26.804  1.00  0.00     0.012 A 
ATOM     77  C   UNL A   1      46.277  32.774  27.509  1.00  0.00     0.148 A 
ATOM     78  C   UNL A   1      44.797  34.563  25.903  1.00  0.00     0.002 A 
ATOM     79  C   UNL A   1      46.909  33.687  26.657  1.00  0.00     0.091 A 
ATOM     80  F   UNL A   1      46.996  31.910  28.228  1.00  0.00    -0.205 F 
ATOM     81  C   UNL A   1      46.174  34.534  25.815  1.00  0.00     0.022 A 
BRANCH  79  82
ATOM     82  S   UNL A   1      48.695  33.852  26.547  1.00  0.00     0.127 S 
ATOM     83  O   UNL A   1      49.113  32.474  26.299  1.00  0.00    -0.237 OA
ATOM     84  O   UNL A   1      48.836  34.744  25.393  1.00  0.00    -0.237 OA
ATOM     85  O   UNL A   1      49.122  34.438  27.809  1.00  0.00    -0.744 OA
ENDBRANCH  79  82
ENDBRANCH  61  75
BRANCH  62  86
ATOM     86  C   UNL A   1      43.398  22.210  27.264  1.00  0.00     0.023 A 
ATOM     87  C   UNL A   1      42.189  21.553  27.523  1.00  0.00     0.012 A 
ATOM     88  C   UNL A   1      44.301  21.485  26.405  1.00  0.00     0.148 A 
ATOM     89  C   UNL A   1      41.866  20.324  26.887  1.00  0.00     0.002 A 
ATOM     90  C   UNL A   1      43.927  20.362  25.670  1.00  0.00     0.091 A 
ATOM     91  F   UNL A   1      45.586  21.845  26.333  1.00  0.00    -0.205 F 
ATOM     92  C   UNL A   1      42.704  19.760  25.920  1.00  0.00     0.022 A 
BRANCH  90  93
ATOM     93  S   UNL A   1      44.923  19.742  24.289  1.00  0.00     0.127 S 
ATOM     94  O   UNL A   1      44.396  18.393  24.095  1.00  0.00    -0.237 OA
ATOM     95  O   UNL A   1      44.576  20.693  23.232  1.00  0.00    -0.237 OA
ATOM     96  O   UNL A   1      46.313  19.804  24.723  1.00  0.00    -0.744 OA
ENDBRANCH  90  93
ENDBRANCH  62  86
BRANCH  74  97
ATOM     97  C   UNL A   1      46.647  27.401  27.021  1.00  0.00     0.023 A 
ATOM     98  C   UNL A   1      46.670  27.744  28.387  1.00  0.00     0.012 A 
ATOM     99  C   UNL A   1      47.898  27.103  26.422  1.00  0.00     0.148 A 
ATOM    100  C   UNL A   1      47.861  27.800  29.121  1.00  0.00     0.002 A 
ATOM    101  C   UNL A   1      49.099  27.198  27.145  1.00  0.00     0.091 A 
ATOM    102  F   UNL A   1      47.920  26.711  25.152  1.00  0.00    -0.205 F 
ATOM    103  C   UNL A   1      49.074  27.534  28.501  1.00  0.00     0.022 A 
BRANCH 101 104
ATOM    104  S   UNL A   1      50.744  26.999  26.415  1.00  0.00     0.127 S 
ATOM    105  O   UNL A   1      50.775  28.061  25.406  1.00  0.00    -0.237 OA
ATOM    106  O   UNL A   1      51.627  27.234  27.553  1.00  0.00    -0.237 OA
ATOM    107  O   UNL A   1      50.786  25.653  25.857  1.00  0.00    -0.744 OA
ENDBRANCH 101 104
ENDBRANCH  74  97
ENDBRANCH  48  49
ENDBRANCH  41  43
ENDBRANCH  40  41
ENDBRANCH  39  40
ENDBRANCH  38  39
ENDBRANCH  37  38
ENDBRANCH   1  37
TORSDOF 22
ENDMDL
MODEL 2
REMARK VINA RESULT:      -9.3      3.901     12.042
REMARK SMILES O=C(CN1C(=O)S/C(=C\c2cccn2-c2cccc(C(=O)OCCOCCOC(=O)c3ccc(-c4c5nc(c(-c6cccc(S(=O)(=O)[O-])c6F)c6ccc([nH]6)c(-c6cccc(S(=O)(=O)[O-])c6F)c6nc(c(-c7cccc(S(=O)(=O)[O-])c7F)c7ccc4[nH]7)C=C6)C=C5)cc3)c2)C1=O)Nc1ccc(Cl)cc1
REMARK SMILES IDX 24 1 23 2 22 3 20 4 21 5 19 6 15 7 16 8 94 9 17 10 18 11
REMARK SMILES IDX 14 12 10 13 11 14 12 15 13 16 9 17 4 18 5 19 95 20 6 21 7 22
REMARK SMILES IDX 8 23 96 24 3 25 2 26 1 27 97 28 98 30 99 31 104 32 100 33
REMARK SMILES IDX 103 34 101 35 102 36 25 37 26 38 27 39 28 40 29 41 30 42
REMARK SMILES IDX 31 43 32 44 93 45 33 46 92 47 34 48 35 49 36 50 86 51 37 52
REMARK SMILES IDX 91 53 85 54 87 55 38 56 90 57 84 58 83 59 39 61 71 62 51 63
REMARK SMILES IDX 70 64 52 65 55 66 69 67 88 68 53 69 54 70 68 72 89 73 56 74
REMARK SMILES IDX 40 75 41 76 49 77 42 78 44 79 50 80 43 81 45 82 46 83 47 84
REMARK SMILES IDX 48 85 72 86 73 87 81 88 74 89 76 90 82 91 75 92 77 93 78 94
REMARK SMILES IDX 79 95 80 96 57 97 58 98 66 99 59 100 61 101 67 102 60 103
REMARK SMILES IDX 62 104 63 105 64 106 65 107
REMARK H PARENT 97 29 87 60 55 71
REMARK Flexibility Score: inf
ROOT
ATOM      1  C   UNL A   1      45.237  24.842  26.216  1.00  0.00     0.202 C 
ENDROOT
BRANCH   1   2
ATOM      2  C   UNL A   1      45.891  24.777  24.833  1.00  0.00     0.261 C 
BRANCH   2   3
ATOM      3  O   UNL A   1      47.317  24.941  24.903  1.00  0.00    -0.460 OA
BRANCH   3   4
ATOM      4  C   UNL A   1      47.788  26.125  24.437  1.00  0.00     0.338 C 
ATOM      5  O   UNL A   1      47.189  26.938  23.753  1.00  0.00    -0.246 OA
BRANCH   4   6
ATOM      6  C   UNL A   1      49.107  26.411  25.052  1.00  0.00     0.062 A 
ATOM      7  C   UNL A   1      50.516  26.994  26.930  1.00  0.00     0.046 A 
ATOM      8  C   UNL A   1      51.632  27.023  26.081  1.00  0.00     0.026 A 
ATOM      9  C   UNL A   1      49.243  26.724  26.407  1.00  0.00     0.042 A 
ATOM     10  C   UNL A   1      51.487  26.724  24.726  1.00  0.00     0.003 A 
ATOM     11  C   UNL A   1      50.230  26.404  24.216  1.00  0.00     0.016 A 
BRANCH   7  12
ATOM     12  N   UNL A   1      50.694  27.233  28.324  1.00  0.00    -0.317 N 
ATOM     13  C   UNL A   1      50.682  28.455  29.002  1.00  0.00     0.047 A 
ATOM     14  C   UNL A   1      50.950  28.194  30.337  1.00  0.00     0.028 A 
ATOM     15  C   UNL A   1      51.109  26.804  30.494  1.00  0.00     0.020 A 
ATOM     16  C   UNL A   1      50.903  26.235  29.260  1.00  0.00     0.092 A 
BRANCH  13  17
ATOM     17  C   UNL A   1      50.345  29.672  28.340  1.00  0.00     0.048 C 
ATOM     18  N   UNL A   1      47.396  31.476  27.299  1.00  0.00    -0.259 N 
ATOM     19  C   UNL A   1      46.638  30.445  27.791  1.00  0.00     0.294 C 
ATOM     20  C   UNL A   1      48.758  31.349  27.437  1.00  0.00     0.268 C 
ATOM     21  O   UNL A   1      45.432  30.348  27.689  1.00  0.00    -0.261 OA
ATOM     22  S   UNL A   1      47.632  29.298  28.636  1.00  0.00    -0.022 SA
ATOM     23  C   UNL A   1      49.084  30.081  28.152  1.00  0.00     0.085 C 
ATOM     24  O   UNL A   1      49.603  32.114  26.992  1.00  0.00    -0.268 OA
BRANCH  18  25
ATOM     25  C   UNL A   1      46.792  32.537  26.506  1.00  0.00     0.230 C 
BRANCH  25  26
ATOM     26  C   UNL A   1      46.173  33.701  27.301  1.00  0.00     0.244 C 
ATOM     27  O   UNL A   1      46.773  34.187  28.257  1.00  0.00    -0.273 OA
ATOM     28  N   UNL A   1      45.002  34.202  26.758  1.00  0.00    -0.325 N 
ATOM     29  H   UNL A   1      44.635  33.707  25.989  1.00  0.00     0.169 HD
BRANCH  28  30
ATOM     30  C   UNL A   1      44.273  35.330  27.171  1.00  0.00     0.041 A 
ATOM     31  C   UNL A   1      44.811  36.585  26.854  1.00  0.00     0.027 A 
ATOM     32  C   UNL A   1      43.080  35.258  27.891  1.00  0.00     0.027 A 
ATOM     33  C   UNL A   1      44.137  37.756  27.208  1.00  0.00     0.022 A 
ATOM     34  C   UNL A   1      42.423  36.432  28.278  1.00  0.00     0.022 A 
ATOM     35  C   UNL A   1      42.945  37.675  27.922  1.00  0.00     0.041 A 
ATOM     36  Cl  UNL A   1      42.112  39.110  28.370  1.00  0.00    -0.084 Cl
ENDBRANCH  28  30
ENDBRANCH  25  26
ENDBRANCH  18  25
ENDBRANCH  13  17
ENDBRANCH   7  12
ENDBRANCH   4   6
ENDBRANCH   3   4
ENDBRANCH   2   3
ENDBRANCH   1   2
BRANCH   1  37
ATOM     37  O   UNL A   1      43.830  25.089  26.253  1.00  0.00    -0.374 OA
BRANCH  37  38
ATOM     38  C   UNL A   1      43.123  24.793  27.450  1.00  0.00     0.202 C 
BRANCH  38  39
ATOM     39  C   UNL A   1      41.851  23.956  27.388  1.00  0.00     0.261 C 
BRANCH  39  40
ATOM     40  O   UNL A   1      40.845  24.315  28.327  1.00  0.00    -0.460 OA
BRANCH  40  41
ATOM     41  C   UNL A   1      39.832  24.984  27.731  1.00  0.00     0.338 C 
ATOM     42  O   UNL A   1      39.249  24.661  26.706  1.00  0.00    -0.246 OA
BRANCH  41  43
ATOM     43  C   UNL A   1      39.641  26.294  28.348  1.00  0.00     0.060 A 
ATOM     44  C   UNL A   1      40.318  27.361  27.751  1.00  0.00     0.016 A 
ATOM     45  C   UNL A   1      39.072  26.396  29.622  1.00  0.00     0.016 A 
ATOM     46  C   UNL A   1      40.529  28.506  28.486  1.00  0.00     0.010 A 
ATOM     47  C   UNL A   1      39.323  27.528  30.373  1.00  0.00     0.010 A 
ATOM     48  C   UNL A   1      40.063  28.570  29.808  1.00  0.00    -0.014 A 
BRANCH  48  49
ATOM     49  C   UNL A   1      40.119  29.888  30.459  1.00  0.00     0.031 A 
ATOM     50  C   UNL A   1      38.901  30.707  29.915  1.00  0.00     0.074 A 
ATOM     51  C   UNL A   1      41.219  30.135  31.252  1.00  0.00     0.049 A 
ATOM     52  N   UNL A   1      38.844  31.918  29.447  1.00  0.00    -0.248 NA
ATOM     53  C   UNL A   1      37.593  30.014  29.672  1.00  0.00     0.031 C 
ATOM     54  C   UNL A   1      42.210  29.119  31.702  1.00  0.00     0.029 A 
ATOM     55  N   UNL A   1      41.744  31.260  31.863  1.00  0.00    -0.354 N 
ATOM     56  C   UNL A   1      37.473  32.202  29.199  1.00  0.00     0.074 A 
ATOM     57  C   UNL A   1      36.814  30.945  29.114  1.00  0.00     0.031 C 
ATOM     58  C   UNL A   1      43.232  29.686  32.394  1.00  0.00     0.029 A 
ATOM     59  C   UNL A   1      43.023  31.120  32.495  1.00  0.00     0.049 A 
ATOM     60  H   UNL A   1      41.260  32.117  31.865  1.00  0.00     0.167 HD
ATOM     61  C   UNL A   1      36.937  33.451  29.372  1.00  0.00     0.034 A 
ATOM     62  C   UNL A   1      43.843  32.107  33.009  1.00  0.00     0.034 A 
ATOM     63  C   UNL A   1      37.985  34.318  29.801  1.00  0.00     0.049 A 
ATOM     64  C   UNL A   1      43.001  33.308  32.968  1.00  0.00     0.074 A 
ATOM     65  C   UNL A   1      39.109  34.796  29.183  1.00  0.00     0.029 A 
ATOM     66  N   UNL A   1      38.137  34.371  31.170  1.00  0.00    -0.354 N 
ATOM     67  N   UNL A   1      41.989  33.522  33.756  1.00  0.00    -0.248 NA
ATOM     68  C   UNL A   1      43.195  34.256  31.866  1.00  0.00     0.031 C 
ATOM     69  C   UNL A   1      40.087  34.614  30.179  1.00  0.00     0.029 A 
ATOM     70  C   UNL A   1      39.475  34.403  31.424  1.00  0.00     0.049 A 
ATOM     71  H   UNL A   1      37.414  34.383  31.838  1.00  0.00     0.167 HD
ATOM     72  C   UNL A   1      41.231  34.374  32.996  1.00  0.00     0.074 A 
ATOM     73  C   UNL A   1      42.143  35.037  32.083  1.00  0.00     0.031 C 
ATOM     74  C   UNL A   1      39.929  34.073  32.748  1.00  0.00     0.034 A 
BRANCH  61  75
ATOM     75  C   UNL A   1      35.535  33.985  29.602  1.00  0.00     0.023 A 
ATOM     76  C   UNL A   1      34.932  34.573  28.449  1.00  0.00     0.012 A 
ATOM     77  C   UNL A   1      34.949  34.276  30.845  1.00  0.00     0.148 A 
ATOM     78  C   UNL A   1      33.946  35.552  28.536  1.00  0.00     0.002 A 
ATOM     79  C   UNL A   1      33.906  35.206  30.919  1.00  0.00     0.091 A 
ATOM     80  F   UNL A   1      35.435  33.715  31.955  1.00  0.00    -0.205 F 
ATOM     81  C   UNL A   1      33.448  35.884  29.780  1.00  0.00     0.022 A 
BRANCH  79  82
ATOM     82  S   UNL A   1      33.074  35.628  32.454  1.00  0.00     0.127 S 
ATOM     83  O   UNL A   1      32.007  36.511  31.989  1.00  0.00    -0.237 OA
ATOM     84  O   UNL A   1      32.617  34.313  32.910  1.00  0.00    -0.237 OA
ATOM     85  O   UNL A   1      34.088  36.234  33.305  1.00  0.00    -0.744 OA
ENDBRANCH  79  82
ENDBRANCH  61  75
BRANCH  62  86
ATOM     86  C   UNL A   1      45.283  32.344  33.478  1.00  0.00     0.023 A 
ATOM     87  C   UNL A   1      45.657  32.847  34.730  1.00  0.00     0.012 A 
ATOM     88  C   UNL A   1      46.386  31.969  32.630  1.00  0.00     0.148 A 
ATOM     89  C   UNL A   1      47.018  32.868  35.140  1.00  0.00     0.002 A 
ATOM     90  C   UNL A   1      47.699  31.851  33.084  1.00  0.00     0.091 A 
ATOM     91  F   UNL A   1      46.187  31.775  31.323  1.00  0.00    -0.205 F 
ATOM     92  C   UNL A   1      48.028  32.319  34.346  1.00  0.00     0.022 A 
BRANCH  90  93
ATOM     93  S   UNL A   1      48.967  30.969  32.136  1.00  0.00     0.127 S 
ATOM     94  O   UNL A   1      48.357  29.658  31.929  1.00  0.00    -0.237 OA
ATOM     95  O   UNL A   1      49.061  31.798  30.934  1.00  0.00    -0.237 OA
ATOM     96  O   UNL A   1      50.169  30.965  32.961  1.00  0.00    -0.744 OA
ENDBRANCH  90  93
ENDBRANCH  62  86
BRANCH  74  97
ATOM     97  C   UNL A   1      39.222  33.194  33.787  1.00  0.00     0.023 A 
ATOM     98  C   UNL A   1      38.715  31.962  33.330  1.00  0.00     0.012 A 
ATOM     99  C   UNL A   1      38.951  33.529  35.138  1.00  0.00     0.148 A 
ATOM    100  C   UNL A   1      37.974  31.110  34.158  1.00  0.00     0.002 A 
ATOM    101  C   UNL A   1      38.174  32.695  35.960  1.00  0.00     0.091 A 
ATOM    102  F   UNL A   1      39.465  34.652  35.633  1.00  0.00    -0.205 F 
ATOM    103  C   UNL A   1      37.698  31.477  35.468  1.00  0.00     0.022 A 
BRANCH 101 104
ATOM    104  S   UNL A   1      37.645  33.126  37.636  1.00  0.00     0.127 S 
ATOM    105  O   UNL A   1      36.200  33.313  37.476  1.00  0.00    -0.237 OA
ATOM    106  O   UNL A   1      38.009  31.937  38.401  1.00  0.00    -0.237 OA
ATOM    107  O   UNL A   1      38.362  34.344  37.993  1.00  0.00    -0.744 OA
ENDBRANCH 101 104
ENDBRANCH  74  97
ENDBRANCH  48  49
ENDBRANCH  41  43
ENDBRANCH  40  41
ENDBRANCH  39  40
ENDBRANCH  38  39
ENDBRANCH  37  38
ENDBRANCH   1  37
TORSDOF 22
ENDMDL
MODEL 3
REMARK VINA RESULT:      -9.0      4.310     12.153
REMARK SMILES O=C(CN1C(=O)S/C(=C\c2cccn2-c2cccc(C(=O)OCCOCCOC(=O)c3ccc(-c4c5nc(c(-c6cccc(S(=O)(=O)[O-])c6F)c6ccc([nH]6)c(-c6cccc(S(=O)(=O)[O-])c6F)c6nc(c(-c7cccc(S(=O)(=O)[O-])c7F)c7ccc4[nH]7)C=C6)C=C5)cc3)c2)C1=O)Nc1ccc(Cl)cc1
REMARK SMILES IDX 24 1 23 2 22 3 20 4 21 5 19 6 15 7 16 8 94 9 17 10 18 11
REMARK SMILES IDX 14 12 10 13 11 14 12 15 13 16 9 17 4 18 5 19 95 20 6 21 7 22
REMARK SMILES IDX 8 23 96 24 3 25 2 26 1 27 97 28 98 30 99 31 104 32 100 33
REMARK SMILES IDX 103 34 101 35 102 36 25 37 26 38 27 39 28 40 29 41 30 42
REMARK SMILES IDX 31 43 32 44 93 45 33 46 92 47 34 48 35 49 36 50 86 51 37 52
REMARK SMILES IDX 91 53 85 54 87 55 38 56 90 57 84 58 83 59 39 61 71 62 51 63
REMARK SMILES IDX 70 64 52 65 55 66 69 67 88 68 53 69 54 70 68 72 89 73 56 74
REMARK SMILES IDX 40 75 41 76 49 77 42 78 44 79 50 80 43 81 45 82 46 83 47 84
REMARK SMILES IDX 48 85 72 86 73 87 81 88 74 89 76 90 82 91 75 92 77 93 78 94
REMARK SMILES IDX 79 95 80 96 57 97 58 98 66 99 59 100 61 101 67 102 60 103
REMARK SMILES IDX 62 104 63 105 64 106 65 107
REMARK H PARENT 97 29 87 60 55 71
REMARK Flexibility Score: inf
ROOT
ATOM      1  C   UNL A   1      48.104  34.241  28.755  1.00  0.00     0.202 C 
ENDROOT
BRANCH   1   2
ATOM      2  C   UNL A   1      48.839  33.233  29.643  1.00  0.00     0.261 C 
BRANCH   2   3
ATOM      3  O   UNL A   1      48.806  31.906  29.091  1.00  0.00    -0.460 OA
BRANCH   3   4
ATOM      4  C   UNL A   1      47.893  31.070  29.647  1.00  0.00     0.338 C 
ATOM      5  O   UNL A   1      47.581  30.997  30.824  1.00  0.00    -0.246 OA
BRANCH   4   6
ATOM      6  C   UNL A   1      47.147  30.366  28.576  1.00  0.00     0.062 A 
ATOM      7  C   UNL A   1      46.904  28.609  26.931  1.00  0.00     0.046 A 
ATOM      8  C   UNL A   1      45.693  29.177  26.507  1.00  0.00     0.026 A 
ATOM      9  C   UNL A   1      47.652  29.227  27.944  1.00  0.00     0.042 A 
ATOM     10  C   UNL A   1      45.202  30.323  27.132  1.00  0.00     0.003 A 
ATOM     11  C   UNL A   1      45.919  30.907  28.175  1.00  0.00     0.016 A 
BRANCH   7  12
ATOM     12  N   UNL A   1      47.356  27.399  26.328  1.00  0.00    -0.317 N 
ATOM     13  C   UNL A   1      46.895  26.098  26.547  1.00  0.00     0.047 A 
ATOM     14  C   UNL A   1      47.671  25.246  25.776  1.00  0.00     0.028 A 
ATOM     15  C   UNL A   1      48.604  26.020  25.061  1.00  0.00     0.020 A 
ATOM     16  C   UNL A   1      48.362  27.335  25.380  1.00  0.00     0.092 A 
BRANCH  13  17
ATOM     17  C   UNL A   1      45.758  25.837  27.366  1.00  0.00     0.048 C 
ATOM     18  N   UNL A   1      42.183  25.475  27.022  1.00  0.00    -0.259 N 
ATOM     19  C   UNL A   1      42.323  25.740  25.684  1.00  0.00     0.294 C 
ATOM     20  C   UNL A   1      43.340  25.461  27.763  1.00  0.00     0.268 C 
ATOM     21  O   UNL A   1      41.410  25.870  24.893  1.00  0.00    -0.261 OA
ATOM     22  S   UNL A   1      44.002  25.820  25.245  1.00  0.00    -0.022 SA
ATOM     23  C   UNL A   1      44.516  25.712  26.881  1.00  0.00     0.085 C 
ATOM     24  O   UNL A   1      43.417  25.328  28.977  1.00  0.00    -0.268 OA
BRANCH  18  25
ATOM     25  C   UNL A   1      40.865  25.412  27.638  1.00  0.00     0.230 C 
BRANCH  25  26
ATOM     26  C   UNL A   1      40.046  24.142  27.345  1.00  0.00     0.244 C 
ATOM     27  O   UNL A   1      40.254  23.110  27.981  1.00  0.00    -0.273 OA
ATOM     28  N   UNL A   1      39.013  24.326  26.442  1.00  0.00    -0.325 N 
ATOM     29  H   UNL A   1      38.970  25.209  26.008  1.00  0.00     0.169 HD
BRANCH  28  30
ATOM     30  C   UNL A   1      38.020  23.405  26.068  1.00  0.00     0.041 A 
ATOM     31  C   UNL A   1      38.453  22.147  25.630  1.00  0.00     0.027 A 
ATOM     32  C   UNL A   1      36.654  23.691  26.085  1.00  0.00     0.027 A 
ATOM     33  C   UNL A   1      37.529  21.165  25.262  1.00  0.00     0.022 A 
ATOM     34  C   UNL A   1      35.730  22.721  25.682  1.00  0.00     0.022 A 
ATOM     35  C   UNL A   1      36.169  21.458  25.287  1.00  0.00     0.041 A 
ATOM     36  Cl  UNL A   1      35.023  20.261  24.828  1.00  0.00    -0.084 Cl
ENDBRANCH  28  30
ENDBRANCH  25  26
ENDBRANCH  18  25
ENDBRANCH  13  17
ENDBRANCH   7  12
ENDBRANCH   4   6
ENDBRANCH   3   4
ENDBRANCH   2   3
ENDBRANCH   1   2
BRANCH   1  37
ATOM     37  O   UNL A   1      48.579  34.387  27.415  1.00  0.00    -0.374 OA
BRANCH  37  38
ATOM     38  C   UNL A   1      47.789  33.860  26.357  1.00  0.00     0.202 C 
BRANCH  38  39
ATOM     39  C   UNL A   1      46.738  34.741  25.690  1.00  0.00     0.261 C 
BRANCH  39  40
ATOM     40  O   UNL A   1      45.396  34.484  26.084  1.00  0.00    -0.460 OA
BRANCH  40  41
ATOM     41  C   UNL A   1      44.973  35.382  27.003  1.00  0.00     0.338 C 
ATOM     42  O   UNL A   1      45.473  36.472  27.240  1.00  0.00    -0.246 OA
BRANCH  41  43
ATOM     43  C   UNL A   1      43.944  34.800  27.861  1.00  0.00     0.060 A 
ATOM     44  C   UNL A   1      43.814  35.360  29.135  1.00  0.00     0.016 A 
ATOM     45  C   UNL A   1      43.357  33.576  27.525  1.00  0.00     0.016 A 
ATOM     46  C   UNL A   1      43.189  34.628  30.119  1.00  0.00     0.010 A 
ATOM     47  C   UNL A   1      42.770  32.824  28.524  1.00  0.00     0.010 A 
ATOM     48  C   UNL A   1      42.704  33.347  29.819  1.00  0.00    -0.014 A 
BRANCH  48  49
ATOM     49  C   UNL A   1      41.854  32.712  30.840  1.00  0.00     0.031 A 
ATOM     50  C   UNL A   1      42.579  31.393  31.268  1.00  0.00     0.074 A 
ATOM     51  C   UNL A   1      40.639  33.314  31.087  1.00  0.00     0.049 A 
ATOM     52  N   UNL A   1      42.119  30.185  31.396  1.00  0.00    -0.248 NA
ATOM     53  C   UNL A   1      44.075  31.373  31.378  1.00  0.00     0.031 C 
ATOM     54  C   UNL A   1      40.223  34.661  30.608  1.00  0.00     0.029 A 
ATOM     55  N   UNL A   1      39.503  32.956  31.791  1.00  0.00    -0.354 N 
ATOM     56  C   UNL A   1      43.178  29.392  31.918  1.00  0.00     0.074 A 
ATOM     57  C   UNL A   1      44.380  30.100  31.644  1.00  0.00     0.031 C 
ATOM     58  C   UNL A   1      38.934  34.935  30.935  1.00  0.00     0.029 A 
ATOM     59  C   UNL A   1      38.367  33.822  31.676  1.00  0.00     0.049 A 
ATOM     60  H   UNL A   1      39.477  32.144  32.347  1.00  0.00     0.167 HD
ATOM     61  C   UNL A   1      42.962  28.357  32.789  1.00  0.00     0.034 A 
ATOM     62  C   UNL A   1      37.073  33.610  32.117  1.00  0.00     0.034 A 
ATOM     63  C   UNL A   1      41.556  28.263  33.013  1.00  0.00     0.049 A 
ATOM     64  C   UNL A   1      37.183  32.396  32.933  1.00  0.00     0.074 A 
ATOM     65  C   UNL A   1      40.507  27.911  32.206  1.00  0.00     0.029 A 
ATOM     66  N   UNL A   1      41.108  29.030  34.066  1.00  0.00    -0.354 N 
ATOM     67  N   UNL A   1      37.754  32.345  34.100  1.00  0.00    -0.248 NA
ATOM     68  C   UNL A   1      36.781  31.118  32.336  1.00  0.00     0.031 C 
ATOM     69  C   UNL A   1      39.566  28.916  32.501  1.00  0.00     0.029 A 
ATOM     70  C   UNL A   1      39.917  29.573  33.689  1.00  0.00     0.049 A 
ATOM     71  H   UNL A   1      41.564  29.160  34.929  1.00  0.00     0.167 HD
ATOM     72  C   UNL A   1      38.124  31.028  34.163  1.00  0.00     0.074 A 
ATOM     73  C   UNL A   1      37.223  30.303  33.287  1.00  0.00     0.031 C 
ATOM     74  C   UNL A   1      39.419  30.706  34.422  1.00  0.00     0.034 A 
BRANCH  61  75
ATOM     75  C   UNL A   1      43.818  27.627  33.808  1.00  0.00     0.023 A 
ATOM     76  C   UNL A   1      44.025  26.243  33.520  1.00  0.00     0.012 A 
ATOM     77  C   UNL A   1      44.102  28.054  35.115  1.00  0.00     0.148 A 
ATOM     78  C   UNL A   1      44.292  25.303  34.512  1.00  0.00     0.002 A 
ATOM     79  C   UNL A   1      44.444  27.114  36.093  1.00  0.00     0.091 A 
ATOM     80  F   UNL A   1      43.978  29.345  35.432  1.00  0.00    -0.205 F 
ATOM     81  C   UNL A   1      44.480  25.740  35.808  1.00  0.00     0.022 A 
BRANCH  79  82
ATOM     82  S   UNL A   1      44.850  27.560  37.785  1.00  0.00     0.127 S 
ATOM     83  O   UNL A   1      44.058  26.601  38.551  1.00  0.00    -0.237 OA
ATOM     84  O   UNL A   1      46.294  27.314  37.815  1.00  0.00    -0.237 OA
ATOM     85  O   UNL A   1      44.482  28.961  37.929  1.00  0.00    -0.744 OA
ENDBRANCH  79  82
ENDBRANCH  61  75
BRANCH  62  86
ATOM     86  C   UNL A   1      35.647  34.148  31.948  1.00  0.00     0.023 A 
ATOM     87  C   UNL A   1      34.880  34.745  32.957  1.00  0.00     0.012 A 
ATOM     88  C   UNL A   1      35.021  34.130  30.650  1.00  0.00     0.148 A 
ATOM     89  C   UNL A   1      33.638  35.370  32.665  1.00  0.00     0.002 A 
ATOM     90  C   UNL A   1      33.881  34.868  30.338  1.00  0.00     0.091 A 
ATOM     91  F   UNL A   1      35.496  33.330  29.691  1.00  0.00    -0.205 F 
ATOM     92  C   UNL A   1      33.167  35.483  31.354  1.00  0.00     0.022 A 
BRANCH  90  93
ATOM     93  S   UNL A   1      33.376  35.176  28.625  1.00  0.00     0.127 S 
ATOM     94  O   UNL A   1      32.547  36.373  28.746  1.00  0.00    -0.237 OA
ATOM     95  O   UNL A   1      34.669  35.390  27.975  1.00  0.00    -0.237 OA
ATOM     96  O   UNL A   1      32.669  33.980  28.182  1.00  0.00    -0.744 OA
ENDBRANCH  90  93
ENDBRANCH  62  86
BRANCH  74  97
ATOM     97  C   UNL A   1      40.230  31.731  35.223  1.00  0.00     0.023 A 
ATOM     98  C   UNL A   1      41.398  32.228  34.612  1.00  0.00     0.012 A 
ATOM     99  C   UNL A   1      39.972  32.169  36.547  1.00  0.00     0.148 A 
ATOM    100  C   UNL A   1      42.269  33.102  35.273  1.00  0.00     0.002 A 
ATOM    101  C   UNL A   1      40.866  33.014  37.228  1.00  0.00     0.091 A 
ATOM    102  F   UNL A   1      38.849  31.779  37.142  1.00  0.00    -0.205 F 
ATOM    103  C   UNL A   1      42.008  33.490  36.580  1.00  0.00     0.022 A 
BRANCH 101 104
ATOM    104  S   UNL A   1      40.697  33.481  38.969  1.00  0.00     0.127 S 
ATOM    105  O   UNL A   1      40.766  32.188  39.655  1.00  0.00    -0.237 OA
ATOM    106  O   UNL A   1      41.863  34.332  39.184  1.00  0.00    -0.237 OA
ATOM    107  O   UNL A   1      39.406  34.146  39.092  1.00  0.00    -0.744 OA
ENDBRANCH 101 104
ENDBRANCH  74  97
ENDBRANCH  48  49
ENDBRANCH  41  43
ENDBRANCH  40  41
ENDBRANCH  39  40
ENDBRANCH  38  39
ENDBRANCH  37  38
ENDBRANCH   1  37
TORSDOF 22
ENDMDL
