MODEL 1
REMARK VINA RESULT:     -12.0      0.000      0.000
REMARK SMILES COc1ccc(/C=C2/C(=O)N(c3ccccc3)C(=O)N=C2OCCOCCOC(=O)c2ccc(-c3c4nc(c(-c5cccc(S(=O)(=O)[O-])c5F)c5ccc([nH]5)c(-c5cccc(S(=O)(=O)[O-])c5F)c5nc(c(-c6cccc(S(=O)(=O)[O-])c6F)c6ccc3[nH]6)C=C5)C=C4)cc2)cc1C(=O)[O-]
REMARK SMILES IDX 26 1 25 2 24 3 23 4 22 5 21 6 7 7 8 8 9 9 10 10 11 11 20 12
REMARK SMILES IDX 18 13 19 14 6 15 3 16 4 17 95 18 5 19 94 20 2 21 1 22 96 23
REMARK SMILES IDX 97 24 98 25 12 26 13 27 17 28 14 29 16 30 15 31 27 32 28 33
REMARK SMILES IDX 29 34 30 35 31 36 32 37 93 38 33 39 92 40 34 41 35 42 36 43
REMARK SMILES IDX 86 44 37 45 91 46 85 47 87 48 38 49 90 50 84 51 83 52 39 54
REMARK SMILES IDX 71 55 51 56 70 57 52 58 55 59 69 60 88 61 53 62 54 63 68 65
REMARK SMILES IDX 89 66 56 67 40 68 41 69 49 70 42 71 44 72 50 73 43 74 45 75
REMARK SMILES IDX 46 76 47 77 48 78 72 79 73 80 81 81 74 82 76 83 82 84 75 85
REMARK SMILES IDX 77 86 78 87 79 88 80 89 57 90 58 91 66 92 59 93 61 94 67 95
REMARK SMILES IDX 60 96 62 97 63 98 64 99 65 100
REMARK H PARENT 87 53 55 64
REMARK Flexibility Score: inf
ROOT
ATOM      1  C   UNL A   1      31.321  30.687  25.809  1.00  0.00     0.202 C 
ENDROOT
BRANCH   1   2
ATOM      2  O   UNL A   1      31.629  29.300  25.949  1.00  0.00    -0.374 OA
BRANCH   2   3
ATOM      3  C   UNL A   1      31.460  28.750  27.260  1.00  0.00     0.202 C 
BRANCH   3   4
ATOM      4  C   UNL A   1      31.987  27.316  27.384  1.00  0.00     0.260 C 
BRANCH   4   5
ATOM      5  O   UNL A   1      31.250  26.445  26.493  1.00  0.00    -0.475 OA
BRANCH   5   6
ATOM      6  C   UNL A   1      31.785  25.260  26.188  1.00  0.00     0.231 C 
ATOM      7  C   UNL A   1      31.703  25.777  23.654  1.00  0.00     0.027 C 
ATOM      8  C   UNL A   1      32.041  25.046  24.753  1.00  0.00     0.103 C 
ATOM      9  C   UNL A   1      32.683  23.701  24.472  1.00  0.00     0.272 C 
ATOM     10  O   UNL A   1      33.099  23.423  23.346  1.00  0.00    -0.268 OA
ATOM     11  N   UNL A   1      32.692  22.808  25.548  1.00  0.00    -0.226 N 
ATOM     12  N   UNL A   1      31.990  24.426  27.132  1.00  0.00    -0.156 NA
ATOM     13  C   UNL A   1      32.423  23.171  26.871  1.00  0.00     0.358 C 
ATOM     14  O   UNL A   1      32.590  22.403  27.817  1.00  0.00    -0.245 OA
BRANCH   7  15
ATOM     15  C   UNL A   1      30.971  27.045  23.314  1.00  0.00    -0.024 A 
ATOM     16  C   UNL A   1      29.402  29.398  22.804  1.00  0.00     0.127 A 
ATOM     17  C   UNL A   1      30.744  29.329  22.456  1.00  0.00     0.048 A 
ATOM     18  C   UNL A   1      28.800  28.256  23.327  1.00  0.00     0.040 A 
ATOM     19  C   UNL A   1      31.499  28.170  22.684  1.00  0.00     0.012 A 
ATOM     20  C   UNL A   1      29.590  27.114  23.619  1.00  0.00     0.022 A 
BRANCH  16  21
ATOM     21  O   UNL A   1      28.798  30.583  22.500  1.00  0.00    -0.496 OA
ATOM     22  C   UNL A   1      28.472  30.752  21.123  1.00  0.00     0.278 C 
ENDBRANCH  16  21
BRANCH  18  23
ATOM     23  C   UNL A   1      27.341  28.133  23.527  1.00  0.00     0.075 C 
ATOM     24  O   UNL A   1      26.524  29.015  23.333  1.00  0.00    -0.545 OA
ATOM     25  O   UNL A   1      27.018  26.951  24.070  1.00  0.00    -0.545 OA
ENDBRANCH  18  23
ENDBRANCH   7  15
BRANCH  11  26
ATOM     26  C   UNL A   1      33.105  21.453  25.348  1.00  0.00     0.054 A 
ATOM     27  C   UNL A   1      34.475  21.136  25.367  1.00  0.00     0.027 A 
ATOM     28  C   UNL A   1      32.181  20.468  24.989  1.00  0.00     0.027 A 
ATOM     29  C   UNL A   1      34.916  19.864  25.003  1.00  0.00     0.002 A 
ATOM     30  C   UNL A   1      32.629  19.204  24.596  1.00  0.00     0.002 A 
ATOM     31  C   UNL A   1      33.993  18.903  24.599  1.00  0.00     0.000 A 
ENDBRANCH  11  26
ENDBRANCH   5   6
ENDBRANCH   4   5
ENDBRANCH   3   4
ENDBRANCH   2   3
ENDBRANCH   1   2
BRANCH   1  32
ATOM     32  C   UNL A   1      31.752  31.563  26.986  1.00  0.00     0.261 C 
BRANCH  32  33
ATOM     33  O   UNL A   1      32.724  32.532  26.566  1.00  0.00    -0.460 OA
BRANCH  33  34
ATOM     34  C   UNL A   1      33.236  33.287  27.566  1.00  0.00     0.338 C 
ATOM     35  O   UNL A   1      32.704  34.239  28.112  1.00  0.00    -0.246 OA
BRANCH  34  36
ATOM     36  C   UNL A   1      34.501  32.694  28.038  1.00  0.00     0.060 A 
ATOM     37  C   UNL A   1      34.479  31.350  28.433  1.00  0.00     0.016 A 
ATOM     38  C   UNL A   1      35.670  33.448  28.153  1.00  0.00     0.016 A 
ATOM     39  C   UNL A   1      35.613  30.769  28.997  1.00  0.00     0.010 A 
ATOM     40  C   UNL A   1      36.802  32.865  28.726  1.00  0.00     0.010 A 
ATOM     41  C   UNL A   1      36.771  31.535  29.182  1.00  0.00    -0.014 A 
BRANCH  41  42
ATOM     42  C   UNL A   1      37.897  31.000  29.986  1.00  0.00     0.031 A 
ATOM     43  C   UNL A   1      38.834  30.007  29.351  1.00  0.00     0.074 A 
ATOM     44  C   UNL A   1      38.080  31.382  31.263  1.00  0.00     0.049 A 
ATOM     45  N   UNL A   1      39.847  29.372  29.879  1.00  0.00    -0.248 NA
ATOM     46  C   UNL A   1      38.591  29.681  27.935  1.00  0.00     0.031 C 
ATOM     47  C   UNL A   1      37.241  32.334  31.988  1.00  0.00     0.029 A 
ATOM     48  N   UNL A   1      39.016  30.991  32.188  1.00  0.00    -0.354 N 
ATOM     49  C   UNL A   1      40.351  28.560  28.870  1.00  0.00     0.074 A 
ATOM     50  C   UNL A   1      39.512  28.755  27.708  1.00  0.00     0.031 C 
ATOM     51  C   UNL A   1      37.676  32.426  33.256  1.00  0.00     0.029 A 
ATOM     52  C   UNL A   1      38.820  31.538  33.435  1.00  0.00     0.049 A 
ATOM     53  H   UNL A   1      39.757  30.377  31.978  1.00  0.00     0.167 HD
ATOM     54  C   UNL A   1      41.435  27.751  28.894  1.00  0.00     0.034 A 
ATOM     55  C   UNL A   1      39.485  31.334  34.590  1.00  0.00     0.034 A 
ATOM     56  C   UNL A   1      42.289  27.583  30.038  1.00  0.00     0.049 A 
ATOM     57  C   UNL A   1      40.677  30.413  34.594  1.00  0.00     0.074 A 
ATOM     58  C   UNL A   1      43.428  26.807  30.155  1.00  0.00     0.029 A 
ATOM     59  N   UNL A   1      42.099  28.205  31.262  1.00  0.00    -0.354 N 
ATOM     60  N   UNL A   1      41.204  29.739  33.599  1.00  0.00    -0.248 NA
ATOM     61  C   UNL A   1      41.392  30.257  35.869  1.00  0.00     0.031 C 
ATOM     62  C   UNL A   1      43.923  26.956  31.455  1.00  0.00     0.029 A 
ATOM     63  C   UNL A   1      43.102  27.836  32.140  1.00  0.00     0.049 A 
ATOM     64  H   UNL A   1      41.360  28.820  31.475  1.00  0.00     0.167 HD
ATOM     65  C   UNL A   1      42.337  29.120  34.118  1.00  0.00     0.074 A 
ATOM     66  C   UNL A   1      42.427  29.511  35.509  1.00  0.00     0.031 C 
ATOM     67  C   UNL A   1      43.218  28.293  33.501  1.00  0.00     0.034 A 
BRANCH  54  68
ATOM     68  C   UNL A   1      41.792  27.029  27.623  1.00  0.00     0.023 A 
ATOM     69  C   UNL A   1      42.271  27.768  26.522  1.00  0.00     0.012 A 
ATOM     70  C   UNL A   1      41.705  25.627  27.530  1.00  0.00     0.148 A 
ATOM     71  C   UNL A   1      42.630  27.127  25.337  1.00  0.00     0.002 A 
ATOM     72  C   UNL A   1      42.103  24.990  26.359  1.00  0.00     0.091 A 
ATOM     73  F   UNL A   1      41.224  24.945  28.579  1.00  0.00    -0.205 F 
ATOM     74  C   UNL A   1      42.556  25.739  25.260  1.00  0.00     0.022 A 
BRANCH  72  75
ATOM     75  S   UNL A   1      42.113  23.203  26.184  1.00  0.00     0.127 S 
ATOM     76  O   UNL A   1      42.920  22.799  27.336  1.00  0.00    -0.237 OA
ATOM     77  O   UNL A   1      40.692  22.875  26.291  1.00  0.00    -0.237 OA
ATOM     78  O   UNL A   1      42.703  22.930  24.881  1.00  0.00    -0.744 OA
ENDBRANCH  72  75
ENDBRANCH  54  68
BRANCH  55  79
ATOM     79  C   UNL A   1      39.085  32.061  35.828  1.00  0.00     0.023 A 
ATOM     80  C   UNL A   1      39.535  33.382  36.025  1.00  0.00     0.012 A 
ATOM     81  C   UNL A   1      38.278  31.457  36.810  1.00  0.00     0.148 A 
ATOM     82  C   UNL A   1      39.222  34.073  37.196  1.00  0.00     0.002 A 
ATOM     83  C   UNL A   1      37.929  32.169  37.953  1.00  0.00     0.091 A 
ATOM     84  F   UNL A   1      37.875  30.195  36.614  1.00  0.00    -0.205 F 
ATOM     85  C   UNL A   1      38.413  33.471  38.155  1.00  0.00     0.022 A 
BRANCH  83  86
ATOM     86  S   UNL A   1      36.810  31.513  39.196  1.00  0.00     0.127 S 
ATOM     87  O   UNL A   1      36.497  30.195  38.650  1.00  0.00    -0.237 OA
ATOM     88  O   UNL A   1      37.655  31.500  40.390  1.00  0.00    -0.237 OA
ATOM     89  O   UNL A   1      35.699  32.453  39.257  1.00  0.00    -0.744 OA
ENDBRANCH  83  86
ENDBRANCH  55  79
BRANCH  67  90
ATOM     90  C   UNL A   1      44.389  27.793  34.304  1.00  0.00     0.023 A 
ATOM     91  C   UNL A   1      45.558  28.574  34.399  1.00  0.00     0.012 A 
ATOM     92  C   UNL A   1      44.300  26.587  35.027  1.00  0.00     0.148 A 
ATOM     93  C   UNL A   1      46.631  28.147  35.180  1.00  0.00     0.002 A 
ATOM     94  C   UNL A   1      45.356  26.192  35.839  1.00  0.00     0.091 A 
ATOM     95  F   UNL A   1      43.186  25.849  34.906  1.00  0.00    -0.205 F 
ATOM     96  C   UNL A   1      46.526  26.964  35.908  1.00  0.00     0.022 A 
BRANCH  94  97
ATOM     97  S   UNL A   1      45.267  24.733  36.885  1.00  0.00     0.127 S 
ATOM     98  O   UNL A   1      45.108  23.668  35.897  1.00  0.00    -0.237 OA
ATOM     99  O   UNL A   1      46.567  24.754  37.557  1.00  0.00    -0.237 OA
ATOM    100  O   UNL A   1      44.129  24.944  37.769  1.00  0.00    -0.744 OA
ENDBRANCH  94  97
ENDBRANCH  67  90
ENDBRANCH  41  42
ENDBRANCH  34  36
ENDBRANCH  33  34
ENDBRANCH  32  33
ENDBRANCH   1  32
TORSDOF 20
ENDMDL
MODEL 2
REMARK VINA RESULT:     -12.0      5.101      8.949
REMARK SMILES COc1ccc(/C=C2/C(=O)N(c3ccccc3)C(=O)N=C2OCCOCCOC(=O)c2ccc(-c3c4nc(c(-c5cccc(S(=O)(=O)[O-])c5F)c5ccc([nH]5)c(-c5cccc(S(=O)(=O)[O-])c5F)c5nc(c(-c6cccc(S(=O)(=O)[O-])c6F)c6ccc3[nH]6)C=C5)C=C4)cc2)cc1C(=O)[O-]
REMARK SMILES IDX 26 1 25 2 24 3 23 4 22 5 21 6 7 7 8 8 9 9 10 10 11 11 20 12
REMARK SMILES IDX 18 13 19 14 6 15 3 16 4 17 95 18 5 19 94 20 2 21 1 22 96 23
REMARK SMILES IDX 97 24 98 25 12 26 13 27 17 28 14 29 16 30 15 31 27 32 28 33
REMARK SMILES IDX 29 34 30 35 31 36 32 37 93 38 33 39 92 40 34 41 35 42 36 43
REMARK SMILES IDX 86 44 37 45 91 46 85 47 87 48 38 49 90 50 84 51 83 52 39 54
REMARK SMILES IDX 71 55 51 56 70 57 52 58 55 59 69 60 88 61 53 62 54 63 68 65
REMARK SMILES IDX 89 66 56 67 40 68 41 69 49 70 42 71 44 72 50 73 43 74 45 75
REMARK SMILES IDX 46 76 47 77 48 78 72 79 73 80 81 81 74 82 76 83 82 84 75 85
REMARK SMILES IDX 77 86 78 87 79 88 80 89 57 90 58 91 66 92 59 93 61 94 67 95
REMARK SMILES IDX 60 96 62 97 63 98 64 99 65 100
REMARK H PARENT 87 53 55 64
REMARK Flexibility Score: inf
ROOT
ATOM      1  C   UNL A   1      37.173  20.276  24.706  1.00  0.00     0.202 C 
ENDROOT
BRANCH   1   2
ATOM      2  O   UNL A   1      36.551  21.081  25.707  1.00  0.00    -0.374 OA
BRANCH   2   3
ATOM      3  C   UNL A   1      36.062  22.356  25.273  1.00  0.00     0.202 C 
BRANCH   3   4
ATOM      4  C   UNL A   1      36.139  22.542  23.754  1.00  0.00     0.260 C 
BRANCH   4   5
ATOM      5  O   UNL A   1      34.805  22.525  23.191  1.00  0.00    -0.475 OA
BRANCH   5   6
ATOM      6  C   UNL A   1      34.048  23.616  23.336  1.00  0.00     0.231 C 
ATOM      7  C   UNL A   1      32.386  22.366  24.875  1.00  0.00     0.027 C 
ATOM      8  C   UNL A   1      32.904  23.461  24.252  1.00  0.00     0.103 C 
ATOM      9  C   UNL A   1      32.105  24.742  24.404  1.00  0.00     0.272 C 
ATOM     10  O   UNL A   1      31.207  24.828  25.244  1.00  0.00    -0.268 OA
ATOM     11  N   UNL A   1      32.416  25.751  23.489  1.00  0.00    -0.226 N 
ATOM     12  N   UNL A   1      34.350  24.657  22.662  1.00  0.00    -0.156 NA
ATOM     13  C   UNL A   1      33.556  25.753  22.679  1.00  0.00     0.358 C 
ATOM     14  O   UNL A   1      33.887  26.723  22.000  1.00  0.00    -0.245 OA
BRANCH   7  15
ATOM     15  C   UNL A   1      32.640  20.888  24.973  1.00  0.00    -0.024 A 
ATOM     16  C   UNL A   1      33.179  18.066  24.938  1.00  0.00     0.127 A 
ATOM     17  C   UNL A   1      33.063  18.769  26.129  1.00  0.00     0.048 A 
ATOM     18  C   UNL A   1      32.934  18.745  23.748  1.00  0.00     0.040 A 
ATOM     19  C   UNL A   1      32.775  20.142  26.142  1.00  0.00     0.012 A 
ATOM     20  C   UNL A   1      32.713  20.147  23.770  1.00  0.00     0.022 A 
BRANCH  16  21
ATOM     21  O   UNL A   1      33.441  16.735  25.089  1.00  0.00    -0.496 OA
ATOM     22  C   UNL A   1      32.457  16.012  25.823  1.00  0.00     0.278 C 
ENDBRANCH  16  21
BRANCH  18  23
ATOM     23  C   UNL A   1      32.808  18.066  22.442  1.00  0.00     0.075 C 
ATOM     24  O   UNL A   1      32.006  18.352  21.570  1.00  0.00    -0.545 OA
ATOM     25  O   UNL A   1      33.615  16.998  22.363  1.00  0.00    -0.545 OA
ENDBRANCH  18  23
ENDBRANCH   7  15
BRANCH  11  26
ATOM     26  C   UNL A   1      31.606  26.928  23.422  1.00  0.00     0.054 A 
ATOM     27  C   UNL A   1      31.932  28.041  24.218  1.00  0.00     0.027 A 
ATOM     28  C   UNL A   1      30.415  26.938  22.690  1.00  0.00     0.027 A 
ATOM     29  C   UNL A   1      31.067  29.131  24.306  1.00  0.00     0.002 A 
ATOM     30  C   UNL A   1      29.537  28.019  22.804  1.00  0.00     0.002 A 
ATOM     31  C   UNL A   1      29.860  29.111  23.613  1.00  0.00     0.000 A 
ENDBRANCH  11  26
ENDBRANCH   5   6
ENDBRANCH   4   5
ENDBRANCH   3   4
ENDBRANCH   2   3
ENDBRANCH   1   2
BRANCH   1  32
ATOM     32  C   UNL A   1      38.553  19.735  25.081  1.00  0.00     0.261 C 
BRANCH  32  33
ATOM     33  O   UNL A   1      38.986  20.281  26.337  1.00  0.00    -0.460 OA
BRANCH  33  34
ATOM     34  C   UNL A   1      40.321  20.478  26.436  1.00  0.00     0.338 C 
ATOM     35  O   UNL A   1      41.204  19.743  26.025  1.00  0.00    -0.246 OA
BRANCH  34  36
ATOM     36  C   UNL A   1      40.585  21.821  26.985  1.00  0.00     0.060 A 
ATOM     37  C   UNL A   1      39.913  22.903  26.402  1.00  0.00     0.016 A 
ATOM     38  C   UNL A   1      41.513  22.030  28.006  1.00  0.00     0.016 A 
ATOM     39  C   UNL A   1      40.209  24.205  26.799  1.00  0.00     0.010 A 
ATOM     40  C   UNL A   1      41.813  23.336  28.396  1.00  0.00     0.010 A 
ATOM     41  C   UNL A   1      41.190  24.432  27.773  1.00  0.00    -0.014 A 
BRANCH  41  42
ATOM     42  C   UNL A   1      41.675  25.809  28.036  1.00  0.00     0.031 A 
ATOM     43  C   UNL A   1      43.078  26.173  27.633  1.00  0.00     0.074 A 
ATOM     44  C   UNL A   1      40.883  26.720  28.633  1.00  0.00     0.049 A 
ATOM     45  N   UNL A   1      43.725  27.294  27.814  1.00  0.00    -0.248 NA
ATOM     46  C   UNL A   1      43.859  25.132  26.942  1.00  0.00     0.031 C 
ATOM     47  C   UNL A   1      39.508  26.487  29.070  1.00  0.00     0.029 A 
ATOM     48  N   UNL A   1      41.136  28.017  29.002  1.00  0.00    -0.354 N 
ATOM     49  C   UNL A   1      44.991  27.090  27.277  1.00  0.00     0.074 A 
ATOM     50  C   UNL A   1      45.034  25.727  26.796  1.00  0.00     0.031 C 
ATOM     51  C   UNL A   1      39.049  27.591  29.683  1.00  0.00     0.029 A 
ATOM     52  C   UNL A   1      40.097  28.607  29.685  1.00  0.00     0.049 A 
ATOM     53  H   UNL A   1      41.980  28.481  28.798  1.00  0.00     0.167 HD
ATOM     54  C   UNL A   1      46.016  27.967  27.162  1.00  0.00     0.034 A 
ATOM     55  C   UNL A   1      40.010  29.826  30.255  1.00  0.00     0.034 A 
ATOM     56  C   UNL A   1      45.961  29.331  27.611  1.00  0.00     0.049 A 
ATOM     57  C   UNL A   1      41.172  30.776  30.129  1.00  0.00     0.074 A 
ATOM     58  C   UNL A   1      46.936  30.308  27.516  1.00  0.00     0.029 A 
ATOM     59  N   UNL A   1      44.869  29.914  28.236  1.00  0.00    -0.354 N 
ATOM     60  N   UNL A   1      42.321  30.601  29.520  1.00  0.00    -0.248 NA
ATOM     61  C   UNL A   1      41.011  32.107  30.732  1.00  0.00     0.031 C 
ATOM     62  C   UNL A   1      46.434  31.481  28.090  1.00  0.00     0.029 A 
ATOM     63  C   UNL A   1      45.143  31.238  28.528  1.00  0.00     0.049 A 
ATOM     64  H   UNL A   1      44.024  29.453  28.440  1.00  0.00     0.167 HD
ATOM     65  C   UNL A   1      42.996  31.813  29.624  1.00  0.00     0.074 A 
ATOM     66  C   UNL A   1      42.122  32.717  30.343  1.00  0.00     0.031 C 
ATOM     67  C   UNL A   1      44.233  32.145  29.177  1.00  0.00     0.034 A 
BRANCH  54  68
ATOM     68  C   UNL A   1      47.265  27.490  26.472  1.00  0.00     0.023 A 
ATOM     69  C   UNL A   1      47.413  27.711  25.087  1.00  0.00     0.012 A 
ATOM     70  C   UNL A   1      48.307  26.875  27.190  1.00  0.00     0.148 A 
ATOM     71  C   UNL A   1      48.568  27.300  24.422  1.00  0.00     0.002 A 
ATOM     72  C   UNL A   1      49.472  26.504  26.528  1.00  0.00     0.091 A 
ATOM     73  F   UNL A   1      48.136  26.652  28.501  1.00  0.00    -0.205 F 
ATOM     74  C   UNL A   1      49.599  26.706  25.144  1.00  0.00     0.022 A 
BRANCH  72  75
ATOM     75  S   UNL A   1      50.888  25.798  27.379  1.00  0.00     0.127 S 
ATOM     76  O   UNL A   1      50.434  24.428  27.616  1.00  0.00    -0.237 OA
ATOM     77  O   UNL A   1      51.945  25.924  26.375  1.00  0.00    -0.237 OA
ATOM     78  O   UNL A   1      51.083  26.608  28.573  1.00  0.00    -0.744 OA
ENDBRANCH  72  75
ENDBRANCH  54  68
BRANCH  55  79
ATOM     79  C   UNL A   1      38.756  30.249  30.941  1.00  0.00     0.023 A 
ATOM     80  C   UNL A   1      38.578  29.931  32.303  1.00  0.00     0.012 A 
ATOM     81  C   UNL A   1      37.741  30.947  30.260  1.00  0.00     0.148 A 
ATOM     82  C   UNL A   1      37.395  30.267  32.962  1.00  0.00     0.002 A 
ATOM     83  C   UNL A   1      36.585  31.321  30.936  1.00  0.00     0.091 A 
ATOM     84  F   UNL A   1      37.922  31.224  28.961  1.00  0.00    -0.205 F 
ATOM     85  C   UNL A   1      36.403  30.968  32.282  1.00  0.00     0.022 A 
BRANCH  83  86
ATOM     86  S   UNL A   1      35.297  32.314  30.172  1.00  0.00     0.127 S 
ATOM     87  O   UNL A   1      34.359  32.489  31.279  1.00  0.00    -0.237 OA
ATOM     88  O   UNL A   1      36.031  33.521  29.790  1.00  0.00    -0.237 OA
ATOM     89  O   UNL A   1      34.811  31.527  29.049  1.00  0.00    -0.744 OA
ENDBRANCH  83  86
ENDBRANCH  55  79
BRANCH  67  90
ATOM     90  C   UNL A   1      44.702  33.558  29.399  1.00  0.00     0.023 A 
ATOM     91  C   UNL A   1      45.287  33.917  30.630  1.00  0.00     0.012 A 
ATOM     92  C   UNL A   1      44.637  34.507  28.360  1.00  0.00     0.148 A 
ATOM     93  C   UNL A   1      45.772  35.208  30.832  1.00  0.00     0.002 A 
ATOM     94  C   UNL A   1      45.164  35.778  28.553  1.00  0.00     0.091 A 
ATOM     95  F   UNL A   1      44.058  34.150  27.204  1.00  0.00    -0.205 F 
ATOM     96  C   UNL A   1      45.722  36.133  29.792  1.00  0.00     0.022 A 
BRANCH  94  97
ATOM     97  S   UNL A   1      45.228  37.000  27.238  1.00  0.00     0.127 S 
ATOM     98  O   UNL A   1      45.986  36.292  26.209  1.00  0.00    -0.237 OA
ATOM     99  O   UNL A   1      43.811  37.196  26.928  1.00  0.00    -0.237 OA
ATOM    100  O   UNL A   1      45.884  38.168  27.811  1.00  0.00    -0.744 OA
ENDBRANCH  94  97
ENDBRANCH  67  90
ENDBRANCH  41  42
ENDBRANCH  34  36
ENDBRANCH  33  34
ENDBRANCH  32  33
ENDBRANCH   1  32
TORSDOF 20
ENDMDL
MODEL 3
REMARK VINA RESULT:     -11.9      1.424      7.404
REMARK SMILES COc1ccc(/C=C2/C(=O)N(c3ccccc3)C(=O)N=C2OCCOCCOC(=O)c2ccc(-c3c4nc(c(-c5cccc(S(=O)(=O)[O-])c5F)c5ccc([nH]5)c(-c5cccc(S(=O)(=O)[O-])c5F)c5nc(c(-c6cccc(S(=O)(=O)[O-])c6F)c6ccc3[nH]6)C=C5)C=C4)cc2)cc1C(=O)[O-]
REMARK SMILES IDX 26 1 25 2 24 3 23 4 22 5 21 6 7 7 8 8 9 9 10 10 11 11 20 12
REMARK SMILES IDX 18 13 19 14 6 15 3 16 4 17 95 18 5 19 94 20 2 21 1 22 96 23
REMARK SMILES IDX 97 24 98 25 12 26 13 27 17 28 14 29 16 30 15 31 27 32 28 33
REMARK SMILES IDX 29 34 30 35 31 36 32 37 93 38 33 39 92 40 34 41 35 42 36 43
REMARK SMILES IDX 86 44 37 45 91 46 85 47 87 48 38 49 90 50 84 51 83 52 39 54
REMARK SMILES IDX 71 55 51 56 70 57 52 58 55 59 69 60 88 61 53 62 54 63 68 65
REMARK SMILES IDX 89 66 56 67 40 68 41 69 49 70 42 71 44 72 50 73 43 74 45 75
REMARK SMILES IDX 46 76 47 77 48 78 72 79 73 80 81 81 74 82 76 83 82 84 75 85
REMARK SMILES IDX 77 86 78 87 79 88 80 89 57 90 58 91 66 92 59 93 61 94 67 95
REMARK SMILES IDX 60 96 62 97 63 98 64 99 65 100
REMARK H PARENT 87 53 55 64
REMARK Flexibility Score: inf
ROOT
ATOM      1  C   UNL A   1      31.692  29.082  26.108  1.00  0.00     0.202 C 
ENDROOT
BRANCH   1   2
ATOM      2  O   UNL A   1      32.180  27.741  26.064  1.00  0.00    -0.374 OA
BRANCH   2   3
ATOM      3  C   UNL A   1      33.548  27.584  25.671  1.00  0.00     0.202 C 
BRANCH   3   4
ATOM      4  C   UNL A   1      34.018  26.126  25.698  1.00  0.00     0.260 C 
BRANCH   4   5
ATOM      5  O   UNL A   1      32.874  25.244  25.781  1.00  0.00    -0.475 OA
BRANCH   5   6
ATOM      6  C   UNL A   1      33.050  23.955  25.477  1.00  0.00     0.231 C 
ATOM      7  C   UNL A   1      31.294  24.072  23.580  1.00  0.00     0.027 C 
ATOM      8  C   UNL A   1      32.274  23.479  24.318  1.00  0.00     0.103 C 
ATOM      9  C   UNL A   1      32.544  22.021  23.999  1.00  0.00     0.272 C 
ATOM     10  O   UNL A   1      32.092  21.506  22.974  1.00  0.00    -0.268 OA
ATOM     11  N   UNL A   1      33.262  21.320  24.972  1.00  0.00    -0.226 N 
ATOM     12  N   UNL A   1      33.825  23.259  26.214  1.00  0.00    -0.156 NA
ATOM     13  C   UNL A   1      33.956  21.925  26.024  1.00  0.00     0.358 C 
ATOM     14  O   UNL A   1      34.704  21.300  26.773  1.00  0.00    -0.245 OA
BRANCH   7  15
ATOM     15  C   UNL A   1      30.540  25.370  23.527  1.00  0.00    -0.024 A 
ATOM     16  C   UNL A   1      29.245  27.922  23.263  1.00  0.00     0.127 A 
ATOM     17  C   UNL A   1      28.637  26.864  23.924  1.00  0.00     0.048 A 
ATOM     18  C   UNL A   1      30.549  27.749  22.806  1.00  0.00     0.040 A 
ATOM     19  C   UNL A   1      29.283  25.628  24.072  1.00  0.00     0.012 A 
ATOM     20  C   UNL A   1      31.165  26.474  22.898  1.00  0.00     0.022 A 
BRANCH  16  21
ATOM     21  O   UNL A   1      28.501  29.065  23.218  1.00  0.00    -0.496 OA
ATOM     22  C   UNL A   1      27.110  28.864  22.981  1.00  0.00     0.278 C 
ENDBRANCH  16  21
BRANCH  18  23
ATOM     23  C   UNL A   1      31.377  28.859  22.290  1.00  0.00     0.075 C 
ATOM     24  O   UNL A   1      32.545  29.060  22.573  1.00  0.00    -0.545 OA
ATOM     25  O   UNL A   1      30.653  29.709  21.549  1.00  0.00    -0.545 OA
ENDBRANCH  18  23
ENDBRANCH   7  15
BRANCH  11  26
ATOM     26  C   UNL A   1      33.416  19.902  24.862  1.00  0.00     0.054 A 
ATOM     27  C   UNL A   1      32.418  19.054  25.375  1.00  0.00     0.027 A 
ATOM     28  C   UNL A   1      34.607  19.345  24.387  1.00  0.00     0.027 A 
ATOM     29  C   UNL A   1      32.621  17.676  25.441  1.00  0.00     0.002 A 
ATOM     30  C   UNL A   1      34.818  17.967  24.483  1.00  0.00     0.002 A 
ATOM     31  C   UNL A   1      33.829  17.135  25.013  1.00  0.00     0.000 A 
ENDBRANCH  11  26
ENDBRANCH   5   6
ENDBRANCH   4   5
ENDBRANCH   3   4
ENDBRANCH   2   3
ENDBRANCH   1   2
BRANCH   1  32
ATOM     32  C   UNL A   1      32.334  29.965  27.179  1.00  0.00     0.261 C 
BRANCH  32  33
ATOM     33  O   UNL A   1      33.308  30.842  26.594  1.00  0.00    -0.460 OA
BRANCH  33  34
ATOM     34  C   UNL A   1      33.872  31.717  27.459  1.00  0.00     0.338 C 
ATOM     35  O   UNL A   1      33.343  32.694  27.965  1.00  0.00    -0.246 OA
BRANCH  34  36
ATOM     36  C   UNL A   1      35.208  31.233  27.854  1.00  0.00     0.060 A 
ATOM     37  C   UNL A   1      35.400  29.847  27.928  1.00  0.00     0.016 A 
ATOM     38  C   UNL A   1      36.235  32.111  28.206  1.00  0.00     0.016 A 
ATOM     39  C   UNL A   1      36.602  29.334  28.407  1.00  0.00     0.010 A 
ATOM     40  C   UNL A   1      37.436  31.592  28.693  1.00  0.00     0.010 A 
ATOM     41  C   UNL A   1      37.615  30.204  28.830  1.00  0.00    -0.014 A 
BRANCH  41  42
ATOM     42  C   UNL A   1      38.799  29.677  29.551  1.00  0.00     0.031 A 
ATOM     43  C   UNL A   1      39.142  30.251  30.900  1.00  0.00     0.074 A 
ATOM     44  C   UNL A   1      39.564  28.710  29.013  1.00  0.00     0.049 A 
ATOM     45  N   UNL A   1      40.155  29.981  31.679  1.00  0.00    -0.248 NA
ATOM     46  C   UNL A   1      38.224  31.271  31.437  1.00  0.00     0.031 C 
ATOM     47  C   UNL A   1      39.337  28.076  27.716  1.00  0.00     0.029 A 
ATOM     48  N   UNL A   1      40.708  28.112  29.480  1.00  0.00    -0.354 N 
ATOM     49  C   UNL A   1      40.009  30.807  32.788  1.00  0.00     0.074 A 
ATOM     50  C   UNL A   1      38.829  31.614  32.565  1.00  0.00     0.031 C 
ATOM     51  C   UNL A   1      40.330  27.205  27.472  1.00  0.00     0.029 A 
ATOM     52  C   UNL A   1      41.266  27.222  28.591  1.00  0.00     0.049 A 
ATOM     53  H   UNL A   1      41.093  28.303  30.365  1.00  0.00     0.167 HD
ATOM     54  C   UNL A   1      40.766  30.867  33.908  1.00  0.00     0.034 A 
ATOM     55  C   UNL A   1      42.408  26.510  28.672  1.00  0.00     0.034 A 
ATOM     56  C   UNL A   1      41.919  30.042  34.144  1.00  0.00     0.049 A 
ATOM     57  C   UNL A   1      43.244  26.609  29.922  1.00  0.00     0.074 A 
ATOM     58  C   UNL A   1      42.739  30.006  35.258  1.00  0.00     0.029 A 
ATOM     59  N   UNL A   1      42.414  29.103  33.252  1.00  0.00    -0.354 N 
ATOM     60  N   UNL A   1      43.028  27.315  31.007  1.00  0.00    -0.248 NA
ATOM     61  C   UNL A   1      44.457  25.781  29.977  1.00  0.00     0.031 C 
ATOM     62  C   UNL A   1      43.734  29.049  35.036  1.00  0.00     0.029 A 
ATOM     63  C   UNL A   1      43.525  28.479  33.791  1.00  0.00     0.049 A 
ATOM     64  H   UNL A   1      42.031  28.909  32.366  1.00  0.00     0.167 HD
ATOM     65  C   UNL A   1      44.050  26.979  31.889  1.00  0.00     0.074 A 
ATOM     66  C   UNL A   1      44.876  25.997  31.217  1.00  0.00     0.031 C 
ATOM     67  C   UNL A   1      44.292  27.450  33.138  1.00  0.00     0.034 A 
BRANCH  54  68
ATOM     68  C   UNL A   1      40.335  31.819  34.989  1.00  0.00     0.023 A 
ATOM     69  C   UNL A   1      40.876  33.122  35.016  1.00  0.00     0.012 A 
ATOM     70  C   UNL A   1      39.369  31.452  35.944  1.00  0.00     0.148 A 
ATOM     71  C   UNL A   1      40.482  34.035  35.993  1.00  0.00     0.002 A 
ATOM     72  C   UNL A   1      38.951  32.381  36.891  1.00  0.00     0.091 A 
ATOM     73  F   UNL A   1      38.886  30.202  35.918  1.00  0.00    -0.205 F 
ATOM     74  C   UNL A   1      39.513  33.668  36.923  1.00  0.00     0.022 A 
BRANCH  72  75
ATOM     75  S   UNL A   1      37.657  32.031  38.087  1.00  0.00     0.127 S 
ATOM     76  O   UNL A   1      36.618  32.978  37.682  1.00  0.00    -0.237 OA
ATOM     77  O   UNL A   1      37.347  30.629  37.803  1.00  0.00    -0.237 OA
ATOM     78  O   UNL A   1      38.246  32.270  39.397  1.00  0.00    -0.744 OA
ENDBRANCH  72  75
ENDBRANCH  54  68
BRANCH  55  79
ATOM     79  C   UNL A   1      42.802  25.589  27.568  1.00  0.00     0.023 A 
ATOM     80  C   UNL A   1      43.711  26.039  26.590  1.00  0.00     0.012 A 
ATOM     81  C   UNL A   1      42.280  24.286  27.473  1.00  0.00     0.148 A 
ATOM     82  C   UNL A   1      44.062  25.222  25.515  1.00  0.00     0.002 A 
ATOM     83  C   UNL A   1      42.671  23.458  26.425  1.00  0.00     0.091 A 
ATOM     84  F   UNL A   1      41.403  23.882  28.402  1.00  0.00    -0.205 F 
ATOM     85  C   UNL A   1      43.548  23.930  25.437  1.00  0.00     0.022 A 
BRANCH  83  86
ATOM     86  S   UNL A   1      42.142  21.746  26.297  1.00  0.00     0.127 S 
ATOM     87  O   UNL A   1      43.003  21.248  25.227  1.00  0.00    -0.237 OA
ATOM     88  O   UNL A   1      42.456  21.231  27.630  1.00  0.00    -0.237 OA
ATOM     89  O   UNL A   1      40.720  21.797  25.993  1.00  0.00    -0.744 OA
ENDBRANCH  83  86
ENDBRANCH  55  79
BRANCH  67  90
ATOM     90  C   UNL A   1      45.463  26.875  33.889  1.00  0.00     0.023 A 
ATOM     91  C   UNL A   1      46.716  27.517  33.830  1.00  0.00     0.012 A 
ATOM     92  C   UNL A   1      45.301  25.747  34.716  1.00  0.00     0.148 A 
ATOM     93  C   UNL A   1      47.797  27.025  34.560  1.00  0.00     0.002 A 
ATOM     94  C   UNL A   1      46.370  25.290  35.476  1.00  0.00     0.091 A 
ATOM     95  F   UNL A   1      44.105  25.138  34.742  1.00  0.00    -0.205 F 
ATOM     96  C   UNL A   1      47.622  25.921  35.391  1.00  0.00     0.022 A 
BRANCH  94  97
ATOM     97  S   UNL A   1      46.208  23.934  36.644  1.00  0.00     0.127 S 
ATOM     98  O   UNL A   1      47.605  23.580  36.886  1.00  0.00    -0.237 OA
ATOM     99  O   UNL A   1      45.536  24.577  37.775  1.00  0.00    -0.237 OA
ATOM    100  O   UNL A   1      45.410  22.919  35.969  1.00  0.00    -0.744 OA
ENDBRANCH  94  97
ENDBRANCH  67  90
ENDBRANCH  41  42
ENDBRANCH  34  36
ENDBRANCH  33  34
ENDBRANCH  32  33
ENDBRANCH   1  32
TORSDOF 20
ENDMDL
