MODEL 1
REMARK VINA RESULT:     -11.5      0.000      0.000
REMARK SMILES O=C(OCCOCCOC(=O)[C@H]1[C@@H]2C[C@H]3C[C@@H](C2)C[C@]1(n1ncc(N2CCN(c4ccc(F)cc4)CC2)c(Cl)c1=O)C3)c1ccc(-c2c3nc(c(-c4cccc(S(=O)(=O)[O-])c4F)c4ccc([nH]4)c(-c4cccc(S(=O)(=O)[O-])c4F)c4nc(c(-c5cccc(S(=O)(=O)[O-])c5F)c5ccc2[nH]5)C=C4)C=C3)cc1
REMARK SMILES IDX 6 1 5 2 4 3 3 4 2 5 1 6 43 7 44 8 105 9 45 10 104 11 46 12
REMARK SMILES IDX 47 13 48 14 98 15 49 16 103 17 97 18 99 19 50 20 102 21
REMARK SMILES IDX 96 22 95 23 51 25 83 26 63 27 82 28 64 29 67 30 81 31 100 32
REMARK SMILES IDX 65 33 66 34 80 36 101 37 68 38 52 39 53 40 61 41 54 42 56 43
REMARK SMILES IDX 62 44 55 45 57 46 58 47 59 48 60 49 84 50 85 51 93 52 86 53
REMARK SMILES IDX 88 54 94 55 87 56 89 57 90 58 91 59 92 60 69 61 70 62 78 63
REMARK SMILES IDX 71 64 73 65 79 66 72 67 74 68 75 69 76 70 77 71 7 72 8 73
REMARK SMILES IDX 9 74 10 75 11 76 12 77 13 78 20 79 18 80 14 81 42 82 19 83
REMARK SMILES IDX 17 84 15 85 16 86 21 87 22 88 40 89 23 90 38 91 41 92 24 93
REMARK SMILES IDX 39 94 25 95 26 96 37 97 27 98 36 99 28 100 29 101 30 102
REMARK SMILES IDX 35 103 31 104 34 105 32 106 33 107
REMARK H PARENT 99 24 67 35
REMARK Flexibility Score: inf
ROOT
ATOM      1  O   UNL A   1      34.364  21.931  26.386  1.00  0.00    -0.374 OA
ENDROOT
BRANCH   1   2
ATOM      2  C   UNL A   1      34.857  21.341  25.188  1.00  0.00     0.202 C 
BRANCH   2   3
ATOM      3  C   UNL A   1      36.330  20.933  25.186  1.00  0.00     0.261 C 
BRANCH   3   4
ATOM      4  O   UNL A   1      37.191  21.955  25.709  1.00  0.00    -0.460 OA
BRANCH   4   5
ATOM      5  C   UNL A   1      38.520  21.880  25.962  1.00  0.00     0.338 C 
ATOM      6  O   UNL A   1      39.076  20.797  25.780  1.00  0.00    -0.246 OA
BRANCH   5   7
ATOM      7  C   UNL A   1      39.306  22.977  26.619  1.00  0.00     0.060 A 
ATOM      8  C   UNL A   1      39.069  24.279  26.141  1.00  0.00     0.016 A 
ATOM      9  C   UNL A   1      40.300  22.817  27.587  1.00  0.00     0.016 A 
ATOM     10  C   UNL A   1      39.862  25.354  26.548  1.00  0.00     0.010 A 
ATOM     11  C   UNL A   1      41.147  23.862  27.939  1.00  0.00     0.010 A 
ATOM     12  C   UNL A   1      40.927  25.134  27.424  1.00  0.00    -0.014 A 
BRANCH  12  13
ATOM     13  C   UNL A   1      41.680  26.248  28.012  1.00  0.00     0.031 A 
ATOM     14  C   UNL A   1      41.052  27.205  28.967  1.00  0.00     0.074 A 
ATOM     15  C   UNL A   1      42.926  26.422  27.539  1.00  0.00     0.049 A 
ATOM     16  N   UNL A   1      41.626  28.156  29.651  1.00  0.00    -0.248 NA
ATOM     17  C   UNL A   1      39.599  27.100  29.179  1.00  0.00     0.031 C 
ATOM     18  C   UNL A   1      43.540  25.593  26.494  1.00  0.00     0.029 A 
ATOM     19  N   UNL A   1      43.880  27.349  27.837  1.00  0.00    -0.354 N 
ATOM     20  C   UNL A   1      40.614  28.765  30.378  1.00  0.00     0.074 A 
ATOM     21  C   UNL A   1      39.380  28.089  30.040  1.00  0.00     0.031 C 
ATOM     22  C   UNL A   1      44.774  26.049  26.244  1.00  0.00     0.029 A 
ATOM     23  C   UNL A   1      45.039  27.181  27.121  1.00  0.00     0.049 A 
ATOM     24  H   UNL A   1      43.751  28.066  28.500  1.00  0.00     0.167 HD
ATOM     25  C   UNL A   1      40.733  29.788  31.256  1.00  0.00     0.034 A 
ATOM     26  C   UNL A   1      46.204  27.846  27.195  1.00  0.00     0.034 A 
ATOM     27  C   UNL A   1      41.988  30.430  31.545  1.00  0.00     0.049 A 
ATOM     28  C   UNL A   1      46.331  28.920  28.227  1.00  0.00     0.074 A 
ATOM     29  C   UNL A   1      42.266  31.389  32.501  1.00  0.00     0.029 A 
ATOM     30  N   UNL A   1      43.169  30.195  30.854  1.00  0.00    -0.354 N 
ATOM     31  N   UNL A   1      45.424  29.342  29.078  1.00  0.00    -0.248 NA
ATOM     32  C   UNL A   1      47.632  29.583  28.349  1.00  0.00     0.031 C 
ATOM     33  C   UNL A   1      43.608  31.755  32.366  1.00  0.00     0.029 A 
ATOM     34  C   UNL A   1      44.173  31.008  31.342  1.00  0.00     0.049 A 
ATOM     35  H   UNL A   1      43.276  29.544  30.122  1.00  0.00     0.167 HD
ATOM     36  C   UNL A   1      46.045  30.312  29.847  1.00  0.00     0.074 A 
ATOM     37  C   UNL A   1      47.413  30.405  29.368  1.00  0.00     0.031 C 
ATOM     38  C   UNL A   1      45.529  31.059  30.852  1.00  0.00     0.034 A 
BRANCH  25  39
ATOM     39  C   UNL A   1      39.513  30.238  32.016  1.00  0.00     0.023 A 
ATOM     40  C   UNL A   1      39.285  29.729  33.311  1.00  0.00     0.012 A 
ATOM     41  C   UNL A   1      38.665  31.245  31.512  1.00  0.00     0.148 A 
ATOM     42  C   UNL A   1      38.229  30.205  34.087  1.00  0.00     0.002 A 
ATOM     43  C   UNL A   1      37.630  31.735  32.303  1.00  0.00     0.091 A 
ATOM     44  F   UNL A   1      38.895  31.713  30.277  1.00  0.00    -0.205 F 
ATOM     45  C   UNL A   1      37.409  31.214  33.588  1.00  0.00     0.022 A 
BRANCH  43  46
ATOM     46  S   UNL A   1      36.546  33.070  31.781  1.00  0.00     0.127 S 
ATOM     47  O   UNL A   1      35.249  32.396  31.734  1.00  0.00    -0.237 OA
ATOM     48  O   UNL A   1      36.694  34.029  32.875  1.00  0.00    -0.237 OA
ATOM     49  O   UNL A   1      37.054  33.525  30.494  1.00  0.00    -0.744 OA
ENDBRANCH  43  46
ENDBRANCH  25  39
BRANCH  26  50
ATOM     50  C   UNL A   1      47.333  27.371  26.357  1.00  0.00     0.023 A 
ATOM     51  C   UNL A   1      48.138  26.323  26.838  1.00  0.00     0.012 A 
ATOM     52  C   UNL A   1      47.482  27.806  25.025  1.00  0.00     0.148 A 
ATOM     53  C   UNL A   1      49.071  25.708  26.005  1.00  0.00     0.002 A 
ATOM     54  C   UNL A   1      48.391  27.167  24.190  1.00  0.00     0.091 A 
ATOM     55  F   UNL A   1      46.681  28.789  24.588  1.00  0.00    -0.205 F 
ATOM     56  C   UNL A   1      49.190  26.121  24.679  1.00  0.00     0.022 A 
BRANCH  54  57
ATOM     57  S   UNL A   1      48.536  27.545  22.439  1.00  0.00     0.127 S 
ATOM     58  O   UNL A   1      47.306  28.295  22.194  1.00  0.00    -0.237 OA
ATOM     59  O   UNL A   1      49.762  28.342  22.405  1.00  0.00    -0.237 OA
ATOM     60  O   UNL A   1      48.628  26.259  21.761  1.00  0.00    -0.744 OA
ENDBRANCH  54  57
ENDBRANCH  26  50
BRANCH  38  61
ATOM     61  C   UNL A   1      46.430  32.067  31.501  1.00  0.00     0.023 A 
ATOM     62  C   UNL A   1      47.279  31.653  32.545  1.00  0.00     0.012 A 
ATOM     63  C   UNL A   1      46.551  33.364  30.968  1.00  0.00     0.148 A 
ATOM     64  C   UNL A   1      48.246  32.519  33.048  1.00  0.00     0.002 A 
ATOM     65  C   UNL A   1      47.540  34.209  31.450  1.00  0.00     0.091 A 
ATOM     66  F   UNL A   1      45.724  33.724  29.976  1.00  0.00    -0.205 F 
ATOM     67  C   UNL A   1      48.386  33.790  32.491  1.00  0.00     0.022 A 
BRANCH  65  68
ATOM     68  S   UNL A   1      47.852  35.832  30.749  1.00  0.00     0.127 S 
ATOM     69  O   UNL A   1      46.503  36.397  30.694  1.00  0.00    -0.237 OA
ATOM     70  O   UNL A   1      48.727  36.436  31.752  1.00  0.00    -0.237 OA
ATOM     71  O   UNL A   1      48.474  35.602  29.451  1.00  0.00    -0.744 OA
ENDBRANCH  65  68
ENDBRANCH  38  61
ENDBRANCH  12  13
ENDBRANCH   5   7
ENDBRANCH   4   5
ENDBRANCH   3   4
ENDBRANCH   2   3
ENDBRANCH   1   2
BRANCH   1  72
ATOM     72  C   UNL A   1      32.947  22.041  26.541  1.00  0.00     0.202 C 
BRANCH  72  73
ATOM     73  C   UNL A   1      32.550  23.382  27.171  1.00  0.00     0.261 C 
BRANCH  73  74
ATOM     74  O   UNL A   1      31.511  24.006  26.407  1.00  0.00    -0.463 OA
BRANCH  74  75
ATOM     75  C   UNL A   1      31.697  25.285  26.025  1.00  0.00     0.311 C 
ATOM     76  O   UNL A   1      31.412  26.280  26.689  1.00  0.00    -0.252 OA
BRANCH  75  77
ATOM     77  C   UNL A   1      32.507  25.356  24.734  1.00  0.00     0.130 C 
ATOM     78  C   UNL A   1      32.129  24.192  23.744  1.00  0.00     0.006 C 
ATOM     79  C   UNL A   1      32.498  26.711  23.984  1.00  0.00     0.081 C 
ATOM     80  C   UNL A   1      30.771  24.415  23.043  1.00  0.00     0.008 C 
ATOM     81  C   UNL A   1      33.190  24.104  22.637  1.00  0.00     0.008 C 
ATOM     82  C   UNL A   1      33.548  26.547  22.812  1.00  0.00     0.035 C 
ATOM     83  C   UNL A   1      31.103  26.912  23.338  1.00  0.00     0.035 C 
ATOM     84  C   UNL A   1      30.767  25.778  22.346  1.00  0.00    -0.008 C 
ATOM     85  C   UNL A   1      33.201  25.416  21.850  1.00  0.00    -0.008 C 
ATOM     86  C   UNL A   1      31.826  25.722  21.240  1.00  0.00     0.007 C 
BRANCH  79  87
ATOM     87  N   UNL A   1      32.903  27.912  24.803  1.00  0.00    -0.222 N 
ATOM     88  N   UNL A   1      32.001  28.954  24.758  1.00  0.00    -0.175 NA
ATOM     89  C   UNL A   1      33.969  27.909  25.710  1.00  0.00     0.288 A 
ATOM     90  C   UNL A   1      32.128  29.913  25.602  1.00  0.00     0.161 A 
ATOM     91  C   UNL A   1      34.166  29.158  26.515  1.00  0.00     0.132 A 
ATOM     92  O   UNL A   1      34.661  26.921  25.938  1.00  0.00    -0.266 OA
ATOM     93  C   UNL A   1      33.197  30.079  26.600  1.00  0.00     0.082 A 
ATOM     94  Cl  UNL A   1      35.567  29.220  27.527  1.00  0.00    -0.076 Cl
BRANCH  93  95
ATOM     95  N   UNL A   1      33.026  31.135  27.483  1.00  0.00    -0.365 N 
ATOM     96  C   UNL A   1      34.097  31.482  28.446  1.00  0.00     0.138 C 
ATOM     97  C   UNL A   1      31.894  32.079  27.450  1.00  0.00     0.138 C 
ATOM     98  C   UNL A   1      34.598  32.926  28.216  1.00  0.00     0.138 C 
ATOM     99  C   UNL A   1      32.371  33.538  27.293  1.00  0.00     0.138 C 
ATOM    100  N   UNL A   1      33.449  33.833  28.252  1.00  0.00    -0.368 N 
BRANCH 100 101
ATOM    101  C   UNL A   1      33.417  34.952  29.043  1.00  0.00     0.037 A 
ATOM    102  C   UNL A   1      33.338  34.831  30.439  1.00  0.00     0.029 A 
ATOM    103  C   UNL A   1      33.466  36.240  28.494  1.00  0.00     0.029 A 
ATOM    104  C   UNL A   1      33.301  35.957  31.262  1.00  0.00     0.041 A 
ATOM    105  C   UNL A   1      33.412  37.373  29.311  1.00  0.00     0.041 A 
ATOM    106  C   UNL A   1      33.330  37.219  30.688  1.00  0.00     0.123 A 
ATOM    107  F   UNL A   1      33.279  38.302  31.475  1.00  0.00    -0.207 F 
ENDBRANCH 100 101
ENDBRANCH  93  95
ENDBRANCH  79  87
ENDBRANCH  75  77
ENDBRANCH  74  75
ENDBRANCH  73  74
ENDBRANCH  72  73
ENDBRANCH   1  72
TORSDOF 20
ENDMDL
MODEL 2
REMARK VINA RESULT:     -11.1      1.829      7.239
REMARK SMILES O=C(OCCOCCOC(=O)[C@H]1[C@@H]2C[C@H]3C[C@@H](C2)C[C@]1(n1ncc(N2CCN(c4ccc(F)cc4)CC2)c(Cl)c1=O)C3)c1ccc(-c2c3nc(c(-c4cccc(S(=O)(=O)[O-])c4F)c4ccc([nH]4)c(-c4cccc(S(=O)(=O)[O-])c4F)c4nc(c(-c5cccc(S(=O)(=O)[O-])c5F)c5ccc2[nH]5)C=C4)C=C3)cc1
REMARK SMILES IDX 6 1 5 2 4 3 3 4 2 5 1 6 43 7 44 8 105 9 45 10 104 11 46 12
REMARK SMILES IDX 47 13 48 14 98 15 49 16 103 17 97 18 99 19 50 20 102 21
REMARK SMILES IDX 96 22 95 23 51 25 83 26 63 27 82 28 64 29 67 30 81 31 100 32
REMARK SMILES IDX 65 33 66 34 80 36 101 37 68 38 52 39 53 40 61 41 54 42 56 43
REMARK SMILES IDX 62 44 55 45 57 46 58 47 59 48 60 49 84 50 85 51 93 52 86 53
REMARK SMILES IDX 88 54 94 55 87 56 89 57 90 58 91 59 92 60 69 61 70 62 78 63
REMARK SMILES IDX 71 64 73 65 79 66 72 67 74 68 75 69 76 70 77 71 7 72 8 73
REMARK SMILES IDX 9 74 10 75 11 76 12 77 13 78 20 79 18 80 14 81 42 82 19 83
REMARK SMILES IDX 17 84 15 85 16 86 21 87 22 88 40 89 23 90 38 91 41 92 24 93
REMARK SMILES IDX 39 94 25 95 26 96 37 97 27 98 36 99 28 100 29 101 30 102
REMARK SMILES IDX 35 103 31 104 34 105 32 106 33 107
REMARK H PARENT 99 24 67 35
REMARK Flexibility Score: inf
ROOT
ATOM      1  O   UNL A   1      34.256  22.288  26.464  1.00  0.00    -0.374 OA
ENDROOT
BRANCH   1   2
ATOM      2  C   UNL A   1      34.895  21.809  25.285  1.00  0.00     0.202 C 
BRANCH   2   3
ATOM      3  C   UNL A   1      36.311  21.261  25.453  1.00  0.00     0.261 C 
BRANCH   3   4
ATOM      4  O   UNL A   1      37.174  22.158  26.167  1.00  0.00    -0.460 OA
BRANCH   4   5
ATOM      5  C   UNL A   1      38.523  22.105  26.285  1.00  0.00     0.338 C 
ATOM      6  O   UNL A   1      39.047  20.993  26.357  1.00  0.00    -0.246 OA
BRANCH   5   7
ATOM      7  C   UNL A   1      39.387  23.310  26.517  1.00  0.00     0.060 A 
ATOM      8  C   UNL A   1      40.217  23.266  27.653  1.00  0.00     0.016 A 
ATOM      9  C   UNL A   1      39.378  24.491  25.771  1.00  0.00     0.016 A 
ATOM     10  C   UNL A   1      40.931  24.391  28.070  1.00  0.00     0.010 A 
ATOM     11  C   UNL A   1      40.020  25.639  26.220  1.00  0.00     0.010 A 
ATOM     12  C   UNL A   1      40.801  25.591  27.369  1.00  0.00    -0.014 A 
BRANCH  12  13
ATOM     13  C   UNL A   1      41.654  26.748  27.662  1.00  0.00     0.031 A 
ATOM     14  C   UNL A   1      43.088  26.792  27.255  1.00  0.00     0.074 A 
ATOM     15  C   UNL A   1      41.097  27.704  28.426  1.00  0.00     0.049 A 
ATOM     16  N   UNL A   1      43.921  27.793  27.342  1.00  0.00    -0.248 NA
ATOM     17  C   UNL A   1      43.674  25.565  26.693  1.00  0.00     0.031 C 
ATOM     18  C   UNL A   1      39.735  27.641  28.971  1.00  0.00     0.029 A 
ATOM     19  N   UNL A   1      41.595  28.881  28.901  1.00  0.00    -0.354 N 
ATOM     20  C   UNL A   1      45.129  27.325  26.846  1.00  0.00     0.074 A 
ATOM     21  C   UNL A   1      44.930  25.941  26.474  1.00  0.00     0.031 C 
ATOM     22  C   UNL A   1      39.506  28.738  29.703  1.00  0.00     0.029 A 
ATOM     23  C   UNL A   1      40.692  29.582  29.659  1.00  0.00     0.049 A 
ATOM     24  H   UNL A   1      42.510  29.195  28.718  1.00  0.00     0.167 HD
ATOM     25  C   UNL A   1      46.285  28.015  26.709  1.00  0.00     0.034 A 
ATOM     26  C   UNL A   1      40.797  30.797  30.224  1.00  0.00     0.034 A 
ATOM     27  C   UNL A   1      46.427  29.391  27.108  1.00  0.00     0.049 A 
ATOM     28  C   UNL A   1      42.057  31.569  29.992  1.00  0.00     0.074 A 
ATOM     29  C   UNL A   1      47.500  30.239  26.911  1.00  0.00     0.029 A 
ATOM     30  N   UNL A   1      45.471  30.108  27.815  1.00  0.00    -0.354 N 
ATOM     31  N   UNL A   1      43.123  31.201  29.319  1.00  0.00    -0.248 NA
ATOM     32  C   UNL A   1      42.127  32.922  30.548  1.00  0.00     0.031 C 
ATOM     33  C   UNL A   1      47.204  31.459  27.525  1.00  0.00     0.029 A 
ATOM     34  C   UNL A   1      45.937  31.380  28.086  1.00  0.00     0.049 A 
ATOM     35  H   UNL A   1      44.589  29.761  28.084  1.00  0.00     0.167 HD
ATOM     36  C   UNL A   1      43.989  32.282  29.357  1.00  0.00     0.074 A 
ATOM     37  C   UNL A   1      43.315  33.324  30.111  1.00  0.00     0.031 C 
ATOM     38  C   UNL A   1      45.228  32.397  28.823  1.00  0.00     0.034 A 
BRANCH  25  39
ATOM     39  C   UNL A   1      47.460  27.340  26.053  1.00  0.00     0.023 A 
ATOM     40  C   UNL A   1      47.656  27.500  24.666  1.00  0.00     0.012 A 
ATOM     41  C   UNL A   1      48.432  26.659  26.813  1.00  0.00     0.148 A 
ATOM     42  C   UNL A   1      48.792  26.984  24.043  1.00  0.00     0.002 A 
ATOM     43  C   UNL A   1      49.576  26.170  26.189  1.00  0.00     0.091 A 
ATOM     44  F   UNL A   1      48.226  26.513  28.129  1.00  0.00    -0.205 F 
ATOM     45  C   UNL A   1      49.756  26.329  24.806  1.00  0.00     0.022 A 
BRANCH  43  46
ATOM     46  S   UNL A   1      50.907  25.357  27.083  1.00  0.00     0.127 S 
ATOM     47  O   UNL A   1      51.374  26.430  27.959  1.00  0.00    -0.237 OA
ATOM     48  O   UNL A   1      50.200  24.276  27.769  1.00  0.00    -0.237 OA
ATOM     49  O   UNL A   1      51.864  24.920  26.075  1.00  0.00    -0.744 OA
ENDBRANCH  43  46
ENDBRANCH  25  39
BRANCH  26  50
ATOM     50  C   UNL A   1      39.605  31.354  30.910  1.00  0.00     0.023 A 
ATOM     51  C   UNL A   1      38.456  31.633  30.148  1.00  0.00     0.012 A 
ATOM     52  C   UNL A   1      39.538  31.414  32.316  1.00  0.00     0.148 A 
ATOM     53  C   UNL A   1      37.253  31.957  30.775  1.00  0.00     0.002 A 
ATOM     54  C   UNL A   1      38.328  31.705  32.935  1.00  0.00     0.091 A 
ATOM     55  F   UNL A   1      40.643  31.116  33.015  1.00  0.00    -0.205 F 
ATOM     56  C   UNL A   1      37.186  31.981  32.166  1.00  0.00     0.022 A 
BRANCH  54  57
ATOM     57  S   UNL A   1      38.109  31.647  34.718  1.00  0.00     0.127 S 
ATOM     58  O   UNL A   1      36.783  32.241  34.874  1.00  0.00    -0.237 OA
ATOM     59  O   UNL A   1      38.175  30.210  34.981  1.00  0.00    -0.237 OA
ATOM     60  O   UNL A   1      39.209  32.420  35.280  1.00  0.00    -0.744 OA
ENDBRANCH  54  57
ENDBRANCH  26  50
BRANCH  38  61
ATOM     61  C   UNL A   1      45.962  33.686  29.045  1.00  0.00     0.023 A 
ATOM     62  C   UNL A   1      45.801  34.733  28.117  1.00  0.00     0.012 A 
ATOM     63  C   UNL A   1      46.665  33.910  30.244  1.00  0.00     0.148 A 
ATOM     64  C   UNL A   1      46.328  35.993  28.383  1.00  0.00     0.002 A 
ATOM     65  C   UNL A   1      47.156  35.179  30.518  1.00  0.00     0.091 A 
ATOM     66  F   UNL A   1      46.801  32.890  31.103  1.00  0.00    -0.205 F 
ATOM     67  C   UNL A   1      46.992  36.220  29.588  1.00  0.00     0.022 A 
BRANCH  65  68
ATOM     68  S   UNL A   1      47.955  35.591  32.071  1.00  0.00     0.127 S 
ATOM     69  O   UNL A   1      48.727  34.378  32.341  1.00  0.00    -0.237 OA
ATOM     70  O   UNL A   1      48.757  36.757  31.704  1.00  0.00    -0.237 OA
ATOM     71  O   UNL A   1      46.883  35.859  33.022  1.00  0.00    -0.744 OA
ENDBRANCH  65  68
ENDBRANCH  38  61
ENDBRANCH  12  13
ENDBRANCH   5   7
ENDBRANCH   4   5
ENDBRANCH   3   4
ENDBRANCH   2   3
ENDBRANCH   1   2
BRANCH   1  72
ATOM     72  C   UNL A   1      32.836  22.149  26.557  1.00  0.00     0.202 C 
BRANCH  72  73
ATOM     73  C   UNL A   1      32.192  23.372  27.223  1.00  0.00     0.261 C 
BRANCH  73  74
ATOM     74  O   UNL A   1      31.356  24.067  26.289  1.00  0.00    -0.463 OA
BRANCH  74  75
ATOM     75  C   UNL A   1      31.676  25.342  25.991  1.00  0.00     0.311 C 
ATOM     76  O   UNL A   1      31.490  26.316  26.717  1.00  0.00    -0.252 OA
BRANCH  75  77
ATOM     77  C   UNL A   1      32.500  25.411  24.709  1.00  0.00     0.130 C 
ATOM     78  C   UNL A   1      32.135  24.244  23.717  1.00  0.00     0.006 C 
ATOM     79  C   UNL A   1      32.498  26.764  23.955  1.00  0.00     0.081 C 
ATOM     80  C   UNL A   1      30.784  24.463  23.001  1.00  0.00     0.008 C 
ATOM     81  C   UNL A   1      33.208  24.154  22.622  1.00  0.00     0.008 C 
ATOM     82  C   UNL A   1      33.560  26.598  22.795  1.00  0.00     0.035 C 
ATOM     83  C   UNL A   1      31.110  26.962  23.294  1.00  0.00     0.035 C 
ATOM     84  C   UNL A   1      30.786  25.825  22.301  1.00  0.00    -0.008 C 
ATOM     85  C   UNL A   1      33.226  25.465  21.832  1.00  0.00    -0.008 C 
ATOM     86  C   UNL A   1      31.857  25.768  21.207  1.00  0.00     0.007 C 
BRANCH  79  87
ATOM     87  N   UNL A   1      32.892  27.967  24.776  1.00  0.00    -0.222 N 
ATOM     88  N   UNL A   1      31.941  28.965  24.806  1.00  0.00    -0.175 NA
ATOM     89  C   UNL A   1      34.008  27.999  25.620  1.00  0.00     0.288 A 
ATOM     90  C   UNL A   1      32.071  29.912  25.662  1.00  0.00     0.161 A 
ATOM     91  C   UNL A   1      34.192  29.241  26.439  1.00  0.00     0.132 A 
ATOM     92  O   UNL A   1      34.759  27.042  25.786  1.00  0.00    -0.266 OA
ATOM     93  C   UNL A   1      33.187  30.111  26.600  1.00  0.00     0.082 A 
ATOM     94  Cl  UNL A   1      35.646  29.352  27.371  1.00  0.00    -0.076 Cl
BRANCH  93  95
ATOM     95  N   UNL A   1      33.018  31.141  27.514  1.00  0.00    -0.365 N 
ATOM     96  C   UNL A   1      34.040  31.385  28.559  1.00  0.00     0.138 C 
ATOM     97  C   UNL A   1      31.948  32.152  27.448  1.00  0.00     0.138 C 
ATOM     98  C   UNL A   1      34.638  32.804  28.424  1.00  0.00     0.138 C 
ATOM     99  C   UNL A   1      32.517  33.585  27.385  1.00  0.00     0.138 C 
ATOM    100  N   UNL A   1      33.543  33.777  28.424  1.00  0.00    -0.368 N 
BRANCH 100 101
ATOM    101  C   UNL A   1      33.522  34.864  29.258  1.00  0.00     0.037 A 
ATOM    102  C   UNL A   1      33.308  36.151  28.741  1.00  0.00     0.029 A 
ATOM    103  C   UNL A   1      33.705  34.731  30.641  1.00  0.00     0.029 A 
ATOM    104  C   UNL A   1      33.285  37.271  29.573  1.00  0.00     0.041 A 
ATOM    105  C   UNL A   1      33.702  35.850  31.478  1.00  0.00     0.041 A 
ATOM    106  C   UNL A   1      33.491  37.109  30.935  1.00  0.00     0.123 A 
ATOM    107  F   UNL A   1      33.486  38.184  31.733  1.00  0.00    -0.207 F 
ENDBRANCH 100 101
ENDBRANCH  93  95
ENDBRANCH  79  87
ENDBRANCH  75  77
ENDBRANCH  74  75
ENDBRANCH  73  74
ENDBRANCH  72  73
ENDBRANCH   1  72
TORSDOF 20
ENDMDL
MODEL 3
REMARK VINA RESULT:     -11.0      1.112      7.050
REMARK SMILES O=C(OCCOCCOC(=O)[C@H]1[C@@H]2C[C@H]3C[C@@H](C2)C[C@]1(n1ncc(N2CCN(c4ccc(F)cc4)CC2)c(Cl)c1=O)C3)c1ccc(-c2c3nc(c(-c4cccc(S(=O)(=O)[O-])c4F)c4ccc([nH]4)c(-c4cccc(S(=O)(=O)[O-])c4F)c4nc(c(-c5cccc(S(=O)(=O)[O-])c5F)c5ccc2[nH]5)C=C4)C=C3)cc1
REMARK SMILES IDX 6 1 5 2 4 3 3 4 2 5 1 6 43 7 44 8 105 9 45 10 104 11 46 12
REMARK SMILES IDX 47 13 48 14 98 15 49 16 103 17 97 18 99 19 50 20 102 21
REMARK SMILES IDX 96 22 95 23 51 25 83 26 63 27 82 28 64 29 67 30 81 31 100 32
REMARK SMILES IDX 65 33 66 34 80 36 101 37 68 38 52 39 53 40 61 41 54 42 56 43
REMARK SMILES IDX 62 44 55 45 57 46 58 47 59 48 60 49 84 50 85 51 93 52 86 53
REMARK SMILES IDX 88 54 94 55 87 56 89 57 90 58 91 59 92 60 69 61 70 62 78 63
REMARK SMILES IDX 71 64 73 65 79 66 72 67 74 68 75 69 76 70 77 71 7 72 8 73
REMARK SMILES IDX 9 74 10 75 11 76 12 77 13 78 20 79 18 80 14 81 42 82 19 83
REMARK SMILES IDX 17 84 15 85 16 86 21 87 22 88 40 89 23 90 38 91 41 92 24 93
REMARK SMILES IDX 39 94 25 95 26 96 37 97 27 98 36 99 28 100 29 101 30 102
REMARK SMILES IDX 35 103 31 104 34 105 32 106 33 107
REMARK H PARENT 99 24 67 35
REMARK Flexibility Score: inf
ROOT
ATOM      1  O   UNL A   1      33.985  22.941  26.927  1.00  0.00    -0.374 OA
ENDROOT
BRANCH   1   2
ATOM      2  C   UNL A   1      35.021  22.326  26.167  1.00  0.00     0.202 C 
BRANCH   2   3
ATOM      3  C   UNL A   1      36.355  23.068  26.110  1.00  0.00     0.261 C 
BRANCH   3   4
ATOM      4  O   UNL A   1      37.425  22.253  25.610  1.00  0.00    -0.460 OA
BRANCH   4   5
ATOM      5  C   UNL A   1      38.668  22.094  26.126  1.00  0.00     0.338 C 
ATOM      6  O   UNL A   1      39.052  20.945  26.346  1.00  0.00    -0.246 OA
BRANCH   5   7
ATOM      7  C   UNL A   1      39.519  23.230  26.612  1.00  0.00     0.060 A 
ATOM      8  C   UNL A   1      39.399  24.439  25.902  1.00  0.00     0.016 A 
ATOM      9  C   UNL A   1      40.470  23.174  27.633  1.00  0.00     0.016 A 
ATOM     10  C   UNL A   1      40.263  25.509  26.146  1.00  0.00     0.010 A 
ATOM     11  C   UNL A   1      41.386  24.201  27.830  1.00  0.00     0.010 A 
ATOM     12  C   UNL A   1      41.283  25.373  27.090  1.00  0.00    -0.014 A 
BRANCH  12  13
ATOM     13  C   UNL A   1      42.105  26.515  27.503  1.00  0.00     0.031 A 
ATOM     14  C   UNL A   1      43.488  26.719  26.984  1.00  0.00     0.074 A 
ATOM     15  C   UNL A   1      41.581  27.290  28.469  1.00  0.00     0.049 A 
ATOM     16  N   UNL A   1      44.277  27.741  27.169  1.00  0.00    -0.248 NA
ATOM     17  C   UNL A   1      44.072  25.644  26.167  1.00  0.00     0.031 C 
ATOM     18  C   UNL A   1      40.284  27.050  29.114  1.00  0.00     0.029 A 
ATOM     19  N   UNL A   1      42.067  28.400  29.095  1.00  0.00    -0.354 N 
ATOM     20  C   UNL A   1      45.451  27.442  26.493  1.00  0.00     0.074 A 
ATOM     21  C   UNL A   1      45.282  26.131  25.905  1.00  0.00     0.031 C 
ATOM     22  C   UNL A   1      40.076  27.991  30.043  1.00  0.00     0.029 A 
ATOM     23  C   UNL A   1      41.211  28.904  30.041  1.00  0.00     0.049 A 
ATOM     24  H   UNL A   1      42.944  28.798  28.889  1.00  0.00     0.167 HD
ATOM     25  C   UNL A   1      46.553  28.218  26.376  1.00  0.00     0.034 A 
ATOM     26  C   UNL A   1      41.314  30.010  30.798  1.00  0.00     0.034 A 
ATOM     27  C   UNL A   1      46.669  29.512  26.994  1.00  0.00     0.049 A 
ATOM     28  C   UNL A   1      42.507  30.888  30.592  1.00  0.00     0.074 A 
ATOM     29  C   UNL A   1      47.676  30.448  26.853  1.00  0.00     0.029 A 
ATOM     30  N   UNL A   1      45.754  30.037  27.898  1.00  0.00    -0.354 N 
ATOM     31  N   UNL A   1      43.517  30.709  29.773  1.00  0.00    -0.248 NA
ATOM     32  C   UNL A   1      42.567  32.130  31.368  1.00  0.00     0.031 C 
ATOM     33  C   UNL A   1      47.384  31.526  27.695  1.00  0.00     0.029 A 
ATOM     34  C   UNL A   1      46.184  31.272  28.344  1.00  0.00     0.049 A 
ATOM     35  H   UNL A   1      44.921  29.594  28.180  1.00  0.00     0.167 HD
ATOM     36  C   UNL A   1      44.330  31.820  29.922  1.00  0.00     0.074 A 
ATOM     37  C   UNL A   1      43.685  32.675  30.903  1.00  0.00     0.031 C 
ATOM     38  C   UNL A   1      45.504  32.103  29.308  1.00  0.00     0.034 A 
BRANCH  25  39
ATOM     39  C   UNL A   1      47.689  27.740  25.510  1.00  0.00     0.023 A 
ATOM     40  C   UNL A   1      48.747  27.021  26.103  1.00  0.00     0.012 A 
ATOM     41  C   UNL A   1      47.654  27.887  24.109  1.00  0.00     0.148 A 
ATOM     42  C   UNL A   1      49.758  26.467  25.320  1.00  0.00     0.002 A 
ATOM     43  C   UNL A   1      48.653  27.308  23.331  1.00  0.00     0.091 A 
ATOM     44  F   UNL A   1      46.643  28.577  23.565  1.00  0.00    -0.205 F 
ATOM     45  C   UNL A   1      49.705  26.602  23.934  1.00  0.00     0.022 A 
BRANCH  43  46
ATOM     46  S   UNL A   1      48.656  27.374  21.535  1.00  0.00     0.127 S 
ATOM     47  O   UNL A   1      48.693  25.954  21.187  1.00  0.00    -0.237 OA
ATOM     48  O   UNL A   1      47.384  28.036  21.250  1.00  0.00    -0.237 OA
ATOM     49  O   UNL A   1      49.840  28.134  21.159  1.00  0.00    -0.744 OA
ENDBRANCH  43  46
ENDBRANCH  25  39
BRANCH  26  50
ATOM     50  C   UNL A   1      40.171  30.366  31.674  1.00  0.00     0.023 A 
ATOM     51  C   UNL A   1      40.106  29.805  32.962  1.00  0.00     0.012 A 
ATOM     52  C   UNL A   1      39.278  31.396  31.318  1.00  0.00     0.148 A 
ATOM     53  C   UNL A   1      39.172  30.269  33.889  1.00  0.00     0.002 A 
ATOM     54  C   UNL A   1      38.372  31.876  32.257  1.00  0.00     0.091 A 
ATOM     55  F   UNL A   1      39.383  31.929  30.092  1.00  0.00    -0.205 F 
ATOM     56  C   UNL A   1      38.315  31.310  33.542  1.00  0.00     0.022 A 
BRANCH  54  57
ATOM     57  S   UNL A   1      37.307  33.289  31.947  1.00  0.00     0.127 S 
ATOM     58  O   UNL A   1      38.274  34.383  31.884  1.00  0.00    -0.237 OA
ATOM     59  O   UNL A   1      36.697  32.931  30.668  1.00  0.00    -0.237 OA
ATOM     60  O   UNL A   1      36.379  33.342  33.069  1.00  0.00    -0.744 OA
ENDBRANCH  54  57
ENDBRANCH  26  50
BRANCH  38  61
ATOM     61  C   UNL A   1      46.194  33.380  29.684  1.00  0.00     0.023 A 
ATOM     62  C   UNL A   1      47.184  33.353  30.685  1.00  0.00     0.012 A 
ATOM     63  C   UNL A   1      45.979  34.555  28.939  1.00  0.00     0.148 A 
ATOM     64  C   UNL A   1      47.960  34.481  30.934  1.00  0.00     0.002 A 
ATOM     65  C   UNL A   1      46.780  35.664  29.169  1.00  0.00     0.091 A 
ATOM     66  F   UNL A   1      45.025  34.545  27.996  1.00  0.00    -0.205 F 
ATOM     67  C   UNL A   1      47.768  35.630  30.168  1.00  0.00     0.022 A 
BRANCH  65  68
ATOM     68  S   UNL A   1      46.665  37.161  28.186  1.00  0.00     0.127 S 
ATOM     69  O   UNL A   1      47.683  38.006  28.811  1.00  0.00    -0.237 OA
ATOM     70  O   UNL A   1      47.009  36.678  26.850  1.00  0.00    -0.237 OA
ATOM     71  O   UNL A   1      45.297  37.640  28.332  1.00  0.00    -0.744 OA
ENDBRANCH  65  68
ENDBRANCH  38  61
ENDBRANCH  12  13
ENDBRANCH   5   7
ENDBRANCH   4   5
ENDBRANCH   3   4
ENDBRANCH   2   3
ENDBRANCH   1   2
BRANCH   1  72
ATOM     72  C   UNL A   1      32.651  22.457  26.750  1.00  0.00     0.202 C 
BRANCH  72  73
ATOM     73  C   UNL A   1      31.613  23.471  27.247  1.00  0.00     0.261 C 
BRANCH  73  74
ATOM     74  O   UNL A   1      31.102  24.241  26.152  1.00  0.00    -0.463 OA
BRANCH  74  75
ATOM     75  C   UNL A   1      31.605  25.479  25.968  1.00  0.00     0.311 C 
ATOM     76  O   UNL A   1      31.536  26.407  26.771  1.00  0.00    -0.252 OA
BRANCH  75  77
ATOM     77  C   UNL A   1      32.467  25.535  24.711  1.00  0.00     0.130 C 
ATOM     78  C   UNL A   1      32.101  24.385  23.700  1.00  0.00     0.006 C 
ATOM     79  C   UNL A   1      32.521  26.893  23.967  1.00  0.00     0.081 C 
ATOM     80  C   UNL A   1      30.777  24.643  22.947  1.00  0.00     0.008 C 
ATOM     81  C   UNL A   1      33.202  24.275  22.635  1.00  0.00     0.008 C 
ATOM     82  C   UNL A   1      33.612  26.708  22.837  1.00  0.00     0.035 C 
ATOM     83  C   UNL A   1      31.158  27.131  23.268  1.00  0.00     0.035 C 
ATOM     84  C   UNL A   1      30.834  26.010  22.258  1.00  0.00    -0.008 C 
ATOM     85  C   UNL A   1      33.276  25.590  21.856  1.00  0.00    -0.008 C 
ATOM     86  C   UNL A   1      31.934  25.932  21.194  1.00  0.00     0.007 C 
BRANCH  79  87
ATOM     87  N   UNL A   1      32.922  28.080  24.808  1.00  0.00    -0.222 N 
ATOM     88  N   UNL A   1      31.997  29.102  24.817  1.00  0.00    -0.175 NA
ATOM     89  C   UNL A   1      34.013  28.077  25.685  1.00  0.00     0.288 A 
ATOM     90  C   UNL A   1      32.126  30.040  25.684  1.00  0.00     0.161 A 
ATOM     91  C   UNL A   1      34.205  29.308  26.518  1.00  0.00     0.132 A 
ATOM     92  O   UNL A   1      34.733  27.099  25.865  1.00  0.00    -0.266 OA
ATOM     93  C   UNL A   1      33.219  30.203  26.656  1.00  0.00     0.082 A 
ATOM     94  Cl  UNL A   1      35.633  29.374  27.492  1.00  0.00    -0.076 Cl
BRANCH  93  95
ATOM     95  N   UNL A   1      33.050  31.231  27.572  1.00  0.00    -0.365 N 
ATOM     96  C   UNL A   1      34.119  31.541  28.550  1.00  0.00     0.138 C 
ATOM     97  C   UNL A   1      31.924  32.182  27.565  1.00  0.00     0.138 C 
ATOM     98  C   UNL A   1      34.629  32.989  28.370  1.00  0.00     0.138 C 
ATOM     99  C   UNL A   1      32.409  33.643  27.458  1.00  0.00     0.138 C 
ATOM    100  N   UNL A   1      33.484  33.901  28.430  1.00  0.00    -0.368 N 
BRANCH 100 101
ATOM    101  C   UNL A   1      33.455  34.993  29.258  1.00  0.00     0.037 A 
ATOM    102  C   UNL A   1      33.557  34.832  30.648  1.00  0.00     0.029 A 
ATOM    103  C   UNL A   1      33.328  36.293  28.751  1.00  0.00     0.029 A 
ATOM    104  C   UNL A   1      33.527  35.930  31.508  1.00  0.00     0.041 A 
ATOM    105  C   UNL A   1      33.278  37.397  29.607  1.00  0.00     0.041 A 
ATOM    106  C   UNL A   1      33.378  37.203  30.978  1.00  0.00     0.123 A 
ATOM    107  F   UNL A   1      33.332  38.259  31.802  1.00  0.00    -0.207 F 
ENDBRANCH 100 101
ENDBRANCH  93  95
ENDBRANCH  79  87
ENDBRANCH  75  77
ENDBRANCH  74  75
ENDBRANCH  73  74
ENDBRANCH  72  73
ENDBRANCH   1  72
TORSDOF 20
ENDMDL
