MODEL 1
REMARK VINA RESULT:     -11.1      0.000      0.000
REMARK SMILES C/C(=C(\C#N)C(=O)OCCOCCOC(=O)c1ccc(-c2c3nc(c(-c4cccc(S(=O)(=O)[O-])c4F)c4ccc([nH]4)c(-c4cccc(S(=O)(=O)[O-])c4F)c4nc(c(-c5cccc(S(=O)(=O)[O-])c5F)c5ccc2[nH]5)C=C4)C=C3)cc1)c1cccc2ccccc12
REMARK SMILES IDX 12 1 11 2 10 3 9 4 8 5 6 6 7 7 3 8 1 9 2 10 80 11 81 12
REMARK SMILES IDX 89 13 82 14 84 15 88 16 83 17 85 18 87 19 86 20 4 21 5 22
REMARK SMILES IDX 13 23 14 24 15 25 16 26 17 27 18 28 79 29 19 30 78 31 20 32
REMARK SMILES IDX 21 33 22 34 72 35 23 36 77 37 71 38 73 39 24 40 76 41 70 42
REMARK SMILES IDX 69 43 25 45 57 46 37 47 56 48 38 49 41 50 55 51 74 52 39 53
REMARK SMILES IDX 40 54 54 56 75 57 42 58 26 59 27 60 35 61 28 62 30 63 36 64
REMARK SMILES IDX 29 65 31 66 32 67 33 68 34 69 58 70 59 71 67 72 60 73 62 74
REMARK SMILES IDX 68 75 61 76 63 77 64 78 65 79 66 80 43 81 44 82 52 83 45 84
REMARK SMILES IDX 47 85 53 86 46 87 48 88 49 89 50 90 51 91
REMARK H PARENT 73 44 41 55
REMARK Flexibility Score: inf
ROOT
ATOM      1  C   UNL A   1      31.607  31.072  26.486  1.00  0.00     0.202 C 
ENDROOT
BRANCH   1   2
ATOM      2  O   UNL A   1      32.285  30.373  25.457  1.00  0.00    -0.374 OA
BRANCH   2   3
ATOM      3  C   UNL A   1      33.293  29.432  25.831  1.00  0.00     0.202 C 
BRANCH   3   4
ATOM      4  C   UNL A   1      33.075  28.559  27.066  1.00  0.00     0.261 C 
BRANCH   4   5
ATOM      5  O   UNL A   1      33.072  27.167  26.694  1.00  0.00    -0.459 OA
BRANCH   5   6
ATOM      6  C   UNL A   1      31.844  26.602  26.646  1.00  0.00     0.349 C 
ATOM      7  O   UNL A   1      30.811  27.100  27.069  1.00  0.00    -0.245 OA
BRANCH   6   8
ATOM      8  C   UNL A   1      31.906  25.299  25.948  1.00  0.00     0.140 C 
ATOM      9  C   UNL A   1      31.093  23.949  23.953  1.00  0.00     0.047 C 
ATOM     10  C   UNL A   1      31.543  25.232  24.615  1.00  0.00    -0.018 C 
BRANCH  10  11
ATOM     11  C   UNL A   1      31.584  26.418  23.674  1.00  0.00    -0.013 A 
ATOM     12  C   UNL A   1      32.809  26.589  23.019  1.00  0.00     0.009 A 
ATOM     13  C   UNL A   1      30.552  27.370  23.373  1.00  0.00    -0.011 A 
ATOM     14  C   UNL A   1      33.153  27.790  22.406  1.00  0.00     0.001 A 
ATOM     15  C   UNL A   1      30.939  28.621  22.802  1.00  0.00    -0.018 A 
ATOM     16  C   UNL A   1      29.154  27.176  23.510  1.00  0.00     0.009 A 
ATOM     17  C   UNL A   1      32.254  28.840  22.402  1.00  0.00     0.009 A 
ATOM     18  C   UNL A   1      30.008  29.639  22.554  1.00  0.00     0.009 A 
ATOM     19  C   UNL A   1      28.222  28.146  23.104  1.00  0.00     0.001 A 
ATOM     20  C   UNL A   1      28.648  29.393  22.670  1.00  0.00     0.001 A 
ENDBRANCH  10  11
BRANCH   8  21
ATOM     21  C   UNL A   1      31.759  24.053  26.807  1.00  0.00     0.107 C 
ATOM     22  N   UNL A   1      31.635  23.020  27.519  1.00  0.00    -0.192 NA
ENDBRANCH   8  21
ENDBRANCH   6   8
ENDBRANCH   5   6
ENDBRANCH   4   5
ENDBRANCH   3   4
ENDBRANCH   2   3
ENDBRANCH   1   2
BRANCH   1  23
ATOM     23  C   UNL A   1      31.966  32.527  26.820  1.00  0.00     0.261 C 
BRANCH  23  24
ATOM     24  O   UNL A   1      32.741  32.675  28.000  1.00  0.00    -0.460 OA
BRANCH  24  25
ATOM     25  C   UNL A   1      33.830  33.463  27.812  1.00  0.00     0.338 C 
ATOM     26  O   UNL A   1      33.854  34.643  27.524  1.00  0.00    -0.246 OA
BRANCH  25  27
ATOM     27  C   UNL A   1      35.013  32.690  28.204  1.00  0.00     0.060 A 
ATOM     28  C   UNL A   1      34.829  31.335  28.513  1.00  0.00     0.016 A 
ATOM     29  C   UNL A   1      36.269  33.292  28.274  1.00  0.00     0.016 A 
ATOM     30  C   UNL A   1      35.909  30.576  28.936  1.00  0.00     0.010 A 
ATOM     31  C   UNL A   1      37.345  32.536  28.722  1.00  0.00     0.010 A 
ATOM     32  C   UNL A   1      37.156  31.191  29.089  1.00  0.00    -0.014 A 
BRANCH  32  33
ATOM     33  C   UNL A   1      38.218  30.497  29.838  1.00  0.00     0.031 A 
ATOM     34  C   UNL A   1      38.438  30.898  31.267  1.00  0.00     0.074 A 
ATOM     35  C   UNL A   1      38.978  29.564  29.245  1.00  0.00     0.049 A 
ATOM     36  N   UNL A   1      39.380  30.531  32.092  1.00  0.00    -0.248 NA
ATOM     37  C   UNL A   1      37.472  31.853  31.840  1.00  0.00     0.031 C 
ATOM     38  C   UNL A   1      38.820  29.097  27.868  1.00  0.00     0.029 A 
ATOM     39  N   UNL A   1      40.060  28.872  29.719  1.00  0.00    -0.354 N 
ATOM     40  C   UNL A   1      39.149  31.242  33.263  1.00  0.00     0.074 A 
ATOM     41  C   UNL A   1      37.980  32.064  33.044  1.00  0.00     0.031 C 
ATOM     42  C   UNL A   1      39.803  28.222  27.594  1.00  0.00     0.029 A 
ATOM     43  C   UNL A   1      40.674  28.102  28.762  1.00  0.00     0.049 A 
ATOM     44  H   UNL A   1      40.367  28.922  30.654  1.00  0.00     0.167 HD
ATOM     45  C   UNL A   1      39.850  31.205  34.417  1.00  0.00     0.034 A 
ATOM     46  C   UNL A   1      41.830  27.414  28.819  1.00  0.00     0.034 A 
ATOM     47  C   UNL A   1      41.001  30.371  34.618  1.00  0.00     0.049 A 
ATOM     48  C   UNL A   1      42.610  27.413  30.108  1.00  0.00     0.074 A 
ATOM     49  C   UNL A   1      41.763  30.219  35.760  1.00  0.00     0.029 A 
ATOM     50  N   UNL A   1      41.563  29.559  33.645  1.00  0.00    -0.354 N 
ATOM     51  N   UNL A   1      42.332  28.013  31.241  1.00  0.00    -0.248 NA
ATOM     52  C   UNL A   1      43.846  26.619  30.138  1.00  0.00     0.031 C 
ATOM     53  C   UNL A   1      42.810  29.341  35.466  1.00  0.00     0.029 A 
ATOM     54  C   UNL A   1      42.670  28.910  34.155  1.00  0.00     0.049 A 
ATOM     55  H   UNL A   1      41.223  29.459  32.725  1.00  0.00     0.167 HD
ATOM     56  C   UNL A   1      43.329  27.631  32.132  1.00  0.00     0.074 A 
ATOM     57  C   UNL A   1      44.216  26.744  31.406  1.00  0.00     0.031 C 
ATOM     58  C   UNL A   1      43.498  27.980  33.430  1.00  0.00     0.034 A 
BRANCH  45  59
ATOM     59  C   UNL A   1      39.392  32.089  35.545  1.00  0.00     0.023 A 
ATOM     60  C   UNL A   1      38.517  31.581  36.526  1.00  0.00     0.012 A 
ATOM     61  C   UNL A   1      39.867  33.409  35.658  1.00  0.00     0.148 A 
ATOM     62  C   UNL A   1      38.096  32.385  37.585  1.00  0.00     0.002 A 
ATOM     63  C   UNL A   1      39.482  34.188  36.742  1.00  0.00     0.091 A 
ATOM     64  F   UNL A   1      40.677  33.882  34.701  1.00  0.00    -0.205 F 
ATOM     65  C   UNL A   1      38.587  33.683  37.699  1.00  0.00     0.022 A 
BRANCH  63  66
ATOM     66  S   UNL A   1      40.124  35.842  37.021  1.00  0.00     0.127 S 
ATOM     67  O   UNL A   1      41.562  35.589  37.111  1.00  0.00    -0.237 OA
ATOM     68  O   UNL A   1      39.703  36.542  35.808  1.00  0.00    -0.237 OA
ATOM     69  O   UNL A   1      39.498  36.318  38.246  1.00  0.00    -0.744 OA
ENDBRANCH  63  66
ENDBRANCH  45  59
BRANCH  46  70
ATOM     70  C   UNL A   1      42.306  26.657  27.629  1.00  0.00     0.023 A 
ATOM     71  C   UNL A   1      43.090  27.311  26.659  1.00  0.00     0.012 A 
ATOM     72  C   UNL A   1      42.005  25.291  27.462  1.00  0.00     0.148 A 
ATOM     73  C   UNL A   1      43.537  26.628  25.528  1.00  0.00     0.002 A 
ATOM     74  C   UNL A   1      42.499  24.602  26.361  1.00  0.00     0.091 A 
ATOM     75  F   UNL A   1      41.250  24.691  28.392  1.00  0.00    -0.205 F 
ATOM     76  C   UNL A   1      43.250  25.273  25.383  1.00  0.00     0.022 A 
BRANCH  74  77
ATOM     77  S   UNL A   1      42.283  22.832  26.152  1.00  0.00     0.127 S 
ATOM     78  O   UNL A   1      42.879  22.612  24.837  1.00  0.00    -0.237 OA
ATOM     79  O   UNL A   1      43.058  22.302  27.276  1.00  0.00    -0.237 OA
ATOM     80  O   UNL A   1      40.850  22.595  26.243  1.00  0.00    -0.744 OA
ENDBRANCH  74  77
ENDBRANCH  46  70
BRANCH  58  81
ATOM     81  C   UNL A   1      44.636  27.353  34.190  1.00  0.00     0.023 A 
ATOM     82  C   UNL A   1      45.889  27.993  34.246  1.00  0.00     0.012 A 
ATOM     83  C   UNL A   1      44.414  26.189  34.952  1.00  0.00     0.148 A 
ATOM     84  C   UNL A   1      46.911  27.470  35.037  1.00  0.00     0.002 A 
ATOM     85  C   UNL A   1      45.418  25.705  35.779  1.00  0.00     0.091 A 
ATOM     86  F   UNL A   1      43.216  25.591  34.869  1.00  0.00    -0.205 F 
ATOM     87  C   UNL A   1      46.672  26.338  35.814  1.00  0.00     0.022 A 
BRANCH  85  88
ATOM     88  S   UNL A   1      45.166  24.321  36.894  1.00  0.00     0.127 S 
ATOM     89  O   UNL A   1      46.502  24.153  37.465  1.00  0.00    -0.237 OA
ATOM     90  O   UNL A   1      44.168  24.851  37.822  1.00  0.00    -0.237 OA
ATOM     91  O   UNL A   1      44.702  23.213  36.069  1.00  0.00    -0.744 OA
ENDBRANCH  85  88
ENDBRANCH  58  81
ENDBRANCH  32  33
ENDBRANCH  25  27
ENDBRANCH  24  25
ENDBRANCH  23  24
ENDBRANCH   1  23
TORSDOF 19
ENDMDL
MODEL 2
REMARK VINA RESULT:     -11.0      4.829      7.816
REMARK SMILES C/C(=C(\C#N)C(=O)OCCOCCOC(=O)c1ccc(-c2c3nc(c(-c4cccc(S(=O)(=O)[O-])c4F)c4ccc([nH]4)c(-c4cccc(S(=O)(=O)[O-])c4F)c4nc(c(-c5cccc(S(=O)(=O)[O-])c5F)c5ccc2[nH]5)C=C4)C=C3)cc1)c1cccc2ccccc12
REMARK SMILES IDX 12 1 11 2 10 3 9 4 8 5 6 6 7 7 3 8 1 9 2 10 80 11 81 12
REMARK SMILES IDX 89 13 82 14 84 15 88 16 83 17 85 18 87 19 86 20 4 21 5 22
REMARK SMILES IDX 13 23 14 24 15 25 16 26 17 27 18 28 79 29 19 30 78 31 20 32
REMARK SMILES IDX 21 33 22 34 72 35 23 36 77 37 71 38 73 39 24 40 76 41 70 42
REMARK SMILES IDX 69 43 25 45 57 46 37 47 56 48 38 49 41 50 55 51 74 52 39 53
REMARK SMILES IDX 40 54 54 56 75 57 42 58 26 59 27 60 35 61 28 62 30 63 36 64
REMARK SMILES IDX 29 65 31 66 32 67 33 68 34 69 58 70 59 71 67 72 60 73 62 74
REMARK SMILES IDX 68 75 61 76 63 77 64 78 65 79 66 80 43 81 44 82 52 83 45 84
REMARK SMILES IDX 47 85 53 86 46 87 48 88 49 89 50 90 51 91
REMARK H PARENT 73 44 41 55
REMARK Flexibility Score: inf
ROOT
ATOM      1  C   UNL A   1      35.666  21.221  25.226  1.00  0.00     0.202 C 
ENDROOT
BRANCH   1   2
ATOM      2  O   UNL A   1      35.256  22.305  24.411  1.00  0.00    -0.374 OA
BRANCH   2   3
ATOM      3  C   UNL A   1      35.357  23.627  24.946  1.00  0.00     0.202 C 
BRANCH   3   4
ATOM      4  C   UNL A   1      34.110  24.292  25.525  1.00  0.00     0.261 C 
BRANCH   4   5
ATOM      5  O   UNL A   1      33.486  25.128  24.531  1.00  0.00    -0.459 OA
BRANCH   5   6
ATOM      6  C   UNL A   1      32.622  24.480  23.717  1.00  0.00     0.349 C 
ATOM      7  O   UNL A   1      32.739  24.351  22.507  1.00  0.00    -0.245 OA
BRANCH   6   8
ATOM      8  C   UNL A   1      31.520  23.888  24.508  1.00  0.00     0.140 C 
ATOM      9  C   UNL A   1      29.910  24.233  26.445  1.00  0.00     0.047 C 
ATOM     10  C   UNL A   1      30.706  24.720  25.255  1.00  0.00    -0.018 C 
BRANCH  10  11
ATOM     11  C   UNL A   1      30.502  26.189  24.948  1.00  0.00    -0.013 A 
ATOM     12  C   UNL A   1      29.619  26.437  23.892  1.00  0.00     0.009 A 
ATOM     13  C   UNL A   1      31.084  27.337  25.588  1.00  0.00    -0.011 A 
ATOM     14  C   UNL A   1      29.577  27.669  23.244  1.00  0.00     0.001 A 
ATOM     15  C   UNL A   1      31.084  28.574  24.875  1.00  0.00    -0.018 A 
ATOM     16  C   UNL A   1      31.602  27.400  26.907  1.00  0.00     0.009 A 
ATOM     17  C   UNL A   1      30.396  28.697  23.670  1.00  0.00     0.009 A 
ATOM     18  C   UNL A   1      31.703  29.722  25.388  1.00  0.00     0.009 A 
ATOM     19  C   UNL A   1      32.072  28.599  27.467  1.00  0.00     0.001 A 
ATOM     20  C   UNL A   1      32.166  29.748  26.695  1.00  0.00     0.001 A 
ENDBRANCH  10  11
BRANCH   8  21
ATOM     21  C   UNL A   1      31.695  22.445  24.955  1.00  0.00     0.107 C 
ATOM     22  N   UNL A   1      31.839  21.249  25.326  1.00  0.00    -0.192 NA
ENDBRANCH   8  21
ENDBRANCH   6   8
ENDBRANCH   5   6
ENDBRANCH   4   5
ENDBRANCH   3   4
ENDBRANCH   2   3
ENDBRANCH   1   2
BRANCH   1  23
ATOM     23  C   UNL A   1      37.035  20.557  25.023  1.00  0.00     0.261 C 
BRANCH  23  24
ATOM     24  O   UNL A   1      38.127  21.464  25.047  1.00  0.00    -0.460 OA
BRANCH  24  25
ATOM     25  C   UNL A   1      39.094  21.091  25.924  1.00  0.00     0.338 C 
ATOM     26  O   UNL A   1      39.581  19.988  26.070  1.00  0.00    -0.246 OA
BRANCH  25  27
ATOM     27  C   UNL A   1      39.610  22.306  26.562  1.00  0.00     0.060 A 
ATOM     28  C   UNL A   1      39.105  23.536  26.120  1.00  0.00     0.016 A 
ATOM     29  C   UNL A   1      40.578  22.231  27.564  1.00  0.00     0.016 A 
ATOM     30  C   UNL A   1      39.598  24.714  26.660  1.00  0.00     0.010 A 
ATOM     31  C   UNL A   1      41.089  23.413  28.085  1.00  0.00     0.010 A 
ATOM     32  C   UNL A   1      40.627  24.652  27.605  1.00  0.00    -0.014 A 
BRANCH  32  33
ATOM     33  C   UNL A   1      41.378  25.874  27.938  1.00  0.00     0.031 A 
ATOM     34  C   UNL A   1      40.652  26.959  28.677  1.00  0.00     0.074 A 
ATOM     35  C   UNL A   1      42.658  26.017  27.560  1.00  0.00     0.049 A 
ATOM     36  N   UNL A   1      41.049  28.166  28.973  1.00  0.00    -0.248 NA
ATOM     37  C   UNL A   1      39.286  26.644  29.134  1.00  0.00     0.031 C 
ATOM     38  C   UNL A   1      43.449  25.007  26.857  1.00  0.00     0.029 A 
ATOM     39  N   UNL A   1      43.502  27.088  27.682  1.00  0.00    -0.354 N 
ATOM     40  C   UNL A   1      39.971  28.769  29.607  1.00  0.00     0.074 A 
ATOM     41  C   UNL A   1      38.901  27.799  29.654  1.00  0.00     0.031 C 
ATOM     42  C   UNL A   1      44.655  25.525  26.572  1.00  0.00     0.029 A 
ATOM     43  C   UNL A   1      44.702  26.910  27.037  1.00  0.00     0.049 A 
ATOM     44  H   UNL A   1      43.272  27.905  28.182  1.00  0.00     0.167 HD
ATOM     45  C   UNL A   1      39.888  30.021  30.110  1.00  0.00     0.034 A 
ATOM     46  C   UNL A   1      45.701  27.785  26.817  1.00  0.00     0.034 A 
ATOM     47  C   UNL A   1      40.969  30.965  30.065  1.00  0.00     0.049 A 
ATOM     48  C   UNL A   1      45.572  29.184  27.361  1.00  0.00     0.074 A 
ATOM     49  C   UNL A   1      41.013  32.246  30.581  1.00  0.00     0.029 A 
ATOM     50  N   UNL A   1      42.192  30.732  29.455  1.00  0.00    -0.354 N 
ATOM     51  N   UNL A   1      44.587  29.717  28.043  1.00  0.00    -0.248 NA
ATOM     52  C   UNL A   1      46.702  30.095  27.131  1.00  0.00     0.031 C 
ATOM     53  C   UNL A   1      42.251  32.802  30.250  1.00  0.00     0.029 A 
ATOM     54  C   UNL A   1      42.995  31.849  29.570  1.00  0.00     0.049 A 
ATOM     55  H   UNL A   1      42.449  29.895  29.005  1.00  0.00     0.167 HD
ATOM     56  C   UNL A   1      44.996  31.005  28.366  1.00  0.00     0.074 A 
ATOM     57  C   UNL A   1      46.322  31.172  27.806  1.00  0.00     0.031 C 
ATOM     58  C   UNL A   1      44.338  31.965  29.060  1.00  0.00     0.034 A 
BRANCH  45  59
ATOM     59  C   UNL A   1      38.590  30.437  30.747  1.00  0.00     0.023 A 
ATOM     60  C   UNL A   1      38.352  30.155  32.107  1.00  0.00     0.012 A 
ATOM     61  C   UNL A   1      37.626  31.149  30.008  1.00  0.00     0.148 A 
ATOM     62  C   UNL A   1      37.159  30.548  32.714  1.00  0.00     0.002 A 
ATOM     63  C   UNL A   1      36.462  31.580  30.632  1.00  0.00     0.091 A 
ATOM     64  F   UNL A   1      37.860  31.383  28.710  1.00  0.00    -0.205 F 
ATOM     65  C   UNL A   1      36.221  31.269  31.980  1.00  0.00     0.022 A 
BRANCH  63  66
ATOM     66  S   UNL A   1      35.231  32.584  29.795  1.00  0.00     0.127 S 
ATOM     67  O   UNL A   1      34.778  31.678  28.741  1.00  0.00    -0.237 OA
ATOM     68  O   UNL A   1      34.254  32.819  30.858  1.00  0.00    -0.237 OA
ATOM     69  O   UNL A   1      35.927  33.777  29.335  1.00  0.00    -0.744 OA
ENDBRANCH  63  66
ENDBRANCH  45  59
BRANCH  46  70
ATOM     70  C   UNL A   1      46.914  27.358  26.067  1.00  0.00     0.023 A 
ATOM     71  C   UNL A   1      46.990  27.593  24.681  1.00  0.00     0.012 A 
ATOM     72  C   UNL A   1      47.999  26.741  26.720  1.00  0.00     0.148 A 
ATOM     73  C   UNL A   1      48.109  27.190  23.952  1.00  0.00     0.002 A 
ATOM     74  C   UNL A   1      49.134  26.392  25.998  1.00  0.00     0.091 A 
ATOM     75  F   UNL A   1      47.902  26.519  28.038  1.00  0.00    -0.205 F 
ATOM     76  C   UNL A   1      49.184  26.598  24.610  1.00  0.00     0.022 A 
BRANCH  74  77
ATOM     77  S   UNL A   1      50.612  25.737  26.779  1.00  0.00     0.127 S 
ATOM     78  O   UNL A   1      50.124  24.476  27.331  1.00  0.00    -0.237 OA
ATOM     79  O   UNL A   1      51.518  25.600  25.637  1.00  0.00    -0.237 OA
ATOM     80  O   UNL A   1      51.020  26.737  27.756  1.00  0.00    -0.744 OA
ENDBRANCH  74  77
ENDBRANCH  46  70
BRANCH  58  81
ATOM     81  C   UNL A   1      45.054  33.261  29.332  1.00  0.00     0.023 A 
ATOM     82  C   UNL A   1      45.864  33.397  30.475  1.00  0.00     0.012 A 
ATOM     83  C   UNL A   1      45.016  34.297  28.378  1.00  0.00     0.148 A 
ATOM     84  C   UNL A   1      46.613  34.557  30.673  1.00  0.00     0.002 A 
ATOM     85  C   UNL A   1      45.805  35.425  28.554  1.00  0.00     0.091 A 
ATOM     86  F   UNL A   1      44.225  34.148  27.305  1.00  0.00    -0.205 F 
ATOM     87  C   UNL A   1      46.596  35.562  29.707  1.00  0.00     0.022 A 
BRANCH  85  88
ATOM     88  S   UNL A   1      45.932  36.718  27.315  1.00  0.00     0.127 S 
ATOM     89  O   UNL A   1      46.832  37.668  27.966  1.00  0.00    -0.237 OA
ATOM     90  O   UNL A   1      46.516  36.002  26.181  1.00  0.00    -0.237 OA
ATOM     91  O   UNL A   1      44.575  37.202  27.094  1.00  0.00    -0.744 OA
ENDBRANCH  85  88
ENDBRANCH  58  81
ENDBRANCH  32  33
ENDBRANCH  25  27
ENDBRANCH  24  25
ENDBRANCH  23  24
ENDBRANCH   1  23
TORSDOF 19
ENDMDL
MODEL 3
REMARK VINA RESULT:     -10.9      5.139      7.683
REMARK SMILES C/C(=C(\C#N)C(=O)OCCOCCOC(=O)c1ccc(-c2c3nc(c(-c4cccc(S(=O)(=O)[O-])c4F)c4ccc([nH]4)c(-c4cccc(S(=O)(=O)[O-])c4F)c4nc(c(-c5cccc(S(=O)(=O)[O-])c5F)c5ccc2[nH]5)C=C4)C=C3)cc1)c1cccc2ccccc12
REMARK SMILES IDX 12 1 11 2 10 3 9 4 8 5 6 6 7 7 3 8 1 9 2 10 80 11 81 12
REMARK SMILES IDX 89 13 82 14 84 15 88 16 83 17 85 18 87 19 86 20 4 21 5 22
REMARK SMILES IDX 13 23 14 24 15 25 16 26 17 27 18 28 79 29 19 30 78 31 20 32
REMARK SMILES IDX 21 33 22 34 72 35 23 36 77 37 71 38 73 39 24 40 76 41 70 42
REMARK SMILES IDX 69 43 25 45 57 46 37 47 56 48 38 49 41 50 55 51 74 52 39 53
REMARK SMILES IDX 40 54 54 56 75 57 42 58 26 59 27 60 35 61 28 62 30 63 36 64
REMARK SMILES IDX 29 65 31 66 32 67 33 68 34 69 58 70 59 71 67 72 60 73 62 74
REMARK SMILES IDX 68 75 61 76 63 77 64 78 65 79 66 80 43 81 44 82 52 83 45 84
REMARK SMILES IDX 47 85 53 86 46 87 48 88 49 89 50 90 51 91
REMARK H PARENT 73 44 41 55
REMARK Flexibility Score: inf
ROOT
ATOM      1  C   UNL A   1      35.313  21.714  25.030  1.00  0.00     0.202 C 
ENDROOT
BRANCH   1   2
ATOM      2  O   UNL A   1      34.710  22.569  25.986  1.00  0.00    -0.374 OA
BRANCH   2   3
ATOM      3  C   UNL A   1      33.387  22.259  26.428  1.00  0.00     0.202 C 
BRANCH   3   4
ATOM      4  C   UNL A   1      32.450  23.397  26.831  1.00  0.00     0.261 C 
BRANCH   4   5
ATOM      5  O   UNL A   1      32.615  24.515  25.938  1.00  0.00    -0.459 OA
BRANCH   5   6
ATOM      6  C   UNL A   1      31.704  24.574  24.940  1.00  0.00     0.349 C 
ATOM      7  O   UNL A   1      30.505  24.772  25.077  1.00  0.00    -0.245 OA
BRANCH   6   8
ATOM      8  C   UNL A   1      32.370  24.419  23.627  1.00  0.00     0.140 C 
ATOM      9  C   UNL A   1      32.698  25.418  21.313  1.00  0.00     0.047 C 
ATOM     10  C   UNL A   1      32.509  25.526  22.810  1.00  0.00    -0.018 C 
BRANCH  10  11
ATOM     11  C   UNL A   1      32.519  26.951  23.323  1.00  0.00    -0.013 A 
ATOM     12  C   UNL A   1      33.739  27.351  23.881  1.00  0.00     0.009 A 
ATOM     13  C   UNL A   1      31.464  27.924  23.309  1.00  0.00    -0.011 A 
ATOM     14  C   UNL A   1      33.837  28.469  24.705  1.00  0.00     0.001 A 
ATOM     15  C   UNL A   1      31.558  29.028  24.210  1.00  0.00    -0.018 A 
ATOM     16  C   UNL A   1      30.350  27.955  22.432  1.00  0.00     0.009 A 
ATOM     17  C   UNL A   1      32.716  29.237  24.956  1.00  0.00     0.009 A 
ATOM     18  C   UNL A   1      30.535  29.980  24.323  1.00  0.00     0.009 A 
ATOM     19  C   UNL A   1      29.416  29.005  22.447  1.00  0.00     0.001 A 
ATOM     20  C   UNL A   1      29.482  29.991  23.421  1.00  0.00     0.001 A 
ENDBRANCH  10  11
BRANCH   8  21
ATOM     21  C   UNL A   1      32.309  23.041  22.986  1.00  0.00     0.107 C 
ATOM     22  N   UNL A   1      32.257  21.899  22.456  1.00  0.00    -0.192 NA
ENDBRANCH   8  21
ENDBRANCH   6   8
ENDBRANCH   5   6
ENDBRANCH   4   5
ENDBRANCH   3   4
ENDBRANCH   2   3
ENDBRANCH   1   2
BRANCH   1  23
ATOM     23  C   UNL A   1      36.579  20.917  25.374  1.00  0.00     0.261 C 
BRANCH  23  24
ATOM     24  O   UNL A   1      37.788  21.570  25.017  1.00  0.00    -0.460 OA
BRANCH  24  25
ATOM     25  C   UNL A   1      38.844  21.150  25.758  1.00  0.00     0.338 C 
ATOM     26  O   UNL A   1      39.352  20.046  25.772  1.00  0.00    -0.246 OA
BRANCH  25  27
ATOM     27  C   UNL A   1      39.416  22.324  26.426  1.00  0.00     0.060 A 
ATOM     28  C   UNL A   1      38.891  23.580  26.092  1.00  0.00     0.016 A 
ATOM     29  C   UNL A   1      40.452  22.187  27.350  1.00  0.00     0.016 A 
ATOM     30  C   UNL A   1      39.432  24.722  26.660  1.00  0.00     0.010 A 
ATOM     31  C   UNL A   1      41.009  23.335  27.899  1.00  0.00     0.010 A 
ATOM     32  C   UNL A   1      40.526  24.601  27.524  1.00  0.00    -0.014 A 
BRANCH  32  33
ATOM     33  C   UNL A   1      41.310  25.799  27.871  1.00  0.00     0.031 A 
ATOM     34  C   UNL A   1      40.618  26.887  28.637  1.00  0.00     0.074 A 
ATOM     35  C   UNL A   1      42.589  25.918  27.481  1.00  0.00     0.049 A 
ATOM     36  N   UNL A   1      41.048  28.078  28.950  1.00  0.00    -0.248 NA
ATOM     37  C   UNL A   1      39.250  26.596  29.104  1.00  0.00     0.031 C 
ATOM     38  C   UNL A   1      43.348  24.902  26.752  1.00  0.00     0.029 A 
ATOM     39  N   UNL A   1      43.460  26.965  27.613  1.00  0.00    -0.354 N 
ATOM     40  C   UNL A   1      39.991  28.695  29.608  1.00  0.00     0.074 A 
ATOM     41  C   UNL A   1      38.899  27.750  29.649  1.00  0.00     0.031 C 
ATOM     42  C   UNL A   1      44.563  25.396  26.462  1.00  0.00     0.029 A 
ATOM     43  C   UNL A   1      44.648  26.770  26.952  1.00  0.00     0.049 A 
ATOM     44  H   UNL A   1      43.255  27.778  28.131  1.00  0.00     0.167 HD
ATOM     45  C   UNL A   1      39.944  29.940  30.134  1.00  0.00     0.034 A 
ATOM     46  C   UNL A   1      45.666  27.625  26.737  1.00  0.00     0.034 A 
ATOM     47  C   UNL A   1      41.047  30.858  30.094  1.00  0.00     0.049 A 
ATOM     48  C   UNL A   1      45.576  29.017  27.307  1.00  0.00     0.074 A 
ATOM     49  C   UNL A   1      41.127  32.127  30.633  1.00  0.00     0.029 A 
ATOM     50  N   UNL A   1      42.257  30.607  29.466  1.00  0.00    -0.354 N 
ATOM     51  N   UNL A   1      44.612  29.560  28.010  1.00  0.00    -0.248 NA
ATOM     52  C   UNL A   1      46.726  29.905  27.082  1.00  0.00     0.031 C 
ATOM     53  C   UNL A   1      42.375  32.660  30.299  1.00  0.00     0.029 A 
ATOM     54  C   UNL A   1      43.089  31.702  29.593  1.00  0.00     0.049 A 
ATOM     55  H   UNL A   1      42.489  29.772  28.998  1.00  0.00     0.167 HD
ATOM     56  C   UNL A   1      45.056  30.832  28.352  1.00  0.00     0.074 A 
ATOM     57  C   UNL A   1      46.380  30.978  27.781  1.00  0.00     0.031 C 
ATOM     58  C   UNL A   1      44.428  31.795  29.071  1.00  0.00     0.034 A 
BRANCH  45  59
ATOM     59  C   UNL A   1      38.664  30.375  30.792  1.00  0.00     0.023 A 
ATOM     60  C   UNL A   1      38.468  30.148  32.170  1.00  0.00     0.012 A 
ATOM     61  C   UNL A   1      37.673  31.051  30.055  1.00  0.00     0.148 A 
ATOM     62  C   UNL A   1      37.292  30.559  32.796  1.00  0.00     0.002 A 
ATOM     63  C   UNL A   1      36.526  31.501  30.696  1.00  0.00     0.091 A 
ATOM     64  F   UNL A   1      37.866  31.233  28.742  1.00  0.00    -0.205 F 
ATOM     65  C   UNL A   1      36.328  31.245  32.062  1.00  0.00     0.022 A 
BRANCH  63  66
ATOM     66  S   UNL A   1      35.264  32.464  29.857  1.00  0.00     0.127 S 
ATOM     67  O   UNL A   1      34.319  32.722  30.944  1.00  0.00    -0.237 OA
ATOM     68  O   UNL A   1      36.018  33.637  29.414  1.00  0.00    -0.237 OA
ATOM     69  O   UNL A   1      34.761  31.623  28.781  1.00  0.00    -0.744 OA
ENDBRANCH  63  66
ENDBRANCH  45  59
BRANCH  46  70
ATOM     70  C   UNL A   1      46.860  27.183  25.966  1.00  0.00     0.023 A 
ATOM     71  C   UNL A   1      47.793  26.317  26.567  1.00  0.00     0.012 A 
ATOM     72  C   UNL A   1      47.066  27.598  24.635  1.00  0.00     0.148 A 
ATOM     73  C   UNL A   1      48.927  25.899  25.870  1.00  0.00     0.002 A 
ATOM     74  C   UNL A   1      48.169  27.135  23.928  1.00  0.00     0.091 A 
ATOM     75  F   UNL A   1      46.170  28.430  24.085  1.00  0.00    -0.205 F 
ATOM     76  C   UNL A   1      49.111  26.300  24.549  1.00  0.00     0.022 A 
BRANCH  74  77
ATOM     77  S   UNL A   1      48.424  27.499  22.188  1.00  0.00     0.127 S 
ATOM     78  O   UNL A   1      47.169  28.157  21.835  1.00  0.00    -0.237 OA
ATOM     79  O   UNL A   1      49.590  28.382  22.236  1.00  0.00    -0.237 OA
ATOM     80  O   UNL A   1      48.665  26.215  21.546  1.00  0.00    -0.744 OA
ENDBRANCH  74  77
ENDBRANCH  46  70
BRANCH  58  81
ATOM     81  C   UNL A   1      45.179  33.068  29.358  1.00  0.00     0.023 A 
ATOM     82  C   UNL A   1      46.023  33.155  30.481  1.00  0.00     0.012 A 
ATOM     83  C   UNL A   1      45.136  34.131  28.435  1.00  0.00     0.148 A 
ATOM     84  C   UNL A   1      46.801  34.294  30.690  1.00  0.00     0.002 A 
ATOM     85  C   UNL A   1      45.953  35.238  28.620  1.00  0.00     0.091 A 
ATOM     86  F   UNL A   1      44.312  34.028  27.381  1.00  0.00    -0.205 F 
ATOM     87  C   UNL A   1      46.778  35.326  29.753  1.00  0.00     0.022 A 
BRANCH  85  88
ATOM     88  S   UNL A   1      46.072  36.562  27.414  1.00  0.00     0.127 S 
ATOM     89  O   UNL A   1      46.367  35.822  26.188  1.00  0.00    -0.237 OA
ATOM     90  O   UNL A   1      44.733  37.148  27.466  1.00  0.00    -0.237 OA
ATOM     91  O   UNL A   1      47.138  37.440  27.879  1.00  0.00    -0.744 OA
ENDBRANCH  85  88
ENDBRANCH  58  81
ENDBRANCH  32  33
ENDBRANCH  25  27
ENDBRANCH  24  25
ENDBRANCH  23  24
ENDBRANCH   1  23
TORSDOF 19
ENDMDL
