MODEL 1
REMARK VINA RESULT:     -11.7      0.000      0.000
REMARK SMILES CCNC(=O)N1[C@@H](C(=O)OCCOCCOC(=O)c2ccc(-c3c4nc(c(-c5cccc(S(=O)(=O)[O-])c5F)c5ccc([nH]5)c(-c5cccc(S(=O)(=O)[O-])c5F)c5nc(c(-c6cccc(S(=O)(=O)[O-])c6F)c6ccc3[nH]6)C=C5)C=C4)cc2)CC[C@@H]2CCCC[C@H]21
REMARK SMILES IDX 14 1 13 2 12 3 11 4 10 5 8 6 9 7 7 8 6 9 89 10 82 11 84 12
REMARK SMILES IDX 88 13 83 14 85 15 87 16 86 17 4 18 3 19 5 21 2 22 1 23 15 24
REMARK SMILES IDX 16 25 17 26 18 27 19 28 20 29 81 30 21 31 80 32 22 33 23 34
REMARK SMILES IDX 24 35 74 36 25 37 79 38 73 39 75 40 26 41 78 42 72 43 71 44
REMARK SMILES IDX 27 46 59 47 39 48 58 49 40 50 43 51 57 52 76 53 41 54 42 55
REMARK SMILES IDX 56 57 77 58 44 59 28 60 29 61 37 62 30 63 32 64 38 65 31 66
REMARK SMILES IDX 33 67 34 68 35 69 36 70 60 71 61 72 69 73 62 74 64 75 70 76
REMARK SMILES IDX 63 77 65 78 66 79 67 80 68 81 45 82 46 83 54 84 47 85 49 86
REMARK SMILES IDX 55 87 48 88 50 89 51 90 52 91 53 92
REMARK H PARENT 3 20 75 45 43 56
REMARK Flexibility Score: inf
ROOT
ATOM      1  C   UNL A   1      35.661  21.456  26.054  1.00  0.00     0.202 C 
ENDROOT
BRANCH   1   2
ATOM      2  O   UNL A   1      34.776  22.393  25.442  1.00  0.00    -0.374 OA
BRANCH   2   3
ATOM      3  C   UNL A   1      34.430  22.159  24.076  1.00  0.00     0.202 C 
BRANCH   3   4
ATOM      4  C   UNL A   1      34.564  23.346  23.122  1.00  0.00     0.261 C 
BRANCH   4   5
ATOM      5  O   UNL A   1      33.299  23.770  22.592  1.00  0.00    -0.462 OA
BRANCH   5   6
ATOM      6  C   UNL A   1      33.240  25.053  22.145  1.00  0.00     0.329 C 
ATOM      7  O   UNL A   1      33.158  25.387  20.967  1.00  0.00    -0.250 OA
BRANCH   6   8
ATOM      8  C   UNL A   1      33.286  26.061  23.297  1.00  0.00     0.197 C 
ATOM      9  N   UNL A   1      32.194  26.061  24.292  1.00  0.00    -0.308 N 
ATOM     10  C   UNL A   1      32.371  27.040  25.390  1.00  0.00     0.091 C 
ATOM     11  C   UNL A   1      33.586  27.469  22.761  1.00  0.00     0.038 C 
ATOM     12  C   UNL A   1      32.784  28.454  24.907  1.00  0.00     0.012 C 
ATOM     13  C   UNL A   1      31.192  27.169  26.377  1.00  0.00     0.025 C 
ATOM     14  C   UNL A   1      33.943  28.395  23.912  1.00  0.00     0.008 C 
ATOM     15  C   UNL A   1      33.178  29.332  26.105  1.00  0.00     0.006 C 
ATOM     16  C   UNL A   1      31.557  28.058  27.566  1.00  0.00     0.002 C 
ATOM     17  C   UNL A   1      32.047  29.433  27.121  1.00  0.00     0.000 C 
BRANCH   9  18
ATOM     18  C   UNL A   1      30.932  25.663  23.910  1.00  0.00     0.318 C 
ATOM     19  N   UNL A   1      30.496  24.446  24.350  1.00  0.00    -0.338 N 
ATOM     20  H   UNL A   1      29.601  24.191  24.029  1.00  0.00     0.165 HD
ATOM     21  O   UNL A   1      30.153  26.371  23.283  1.00  0.00    -0.249 OA
BRANCH  19  22
ATOM     22  C   UNL A   1      31.131  23.462  25.212  1.00  0.00     0.114 C 
ATOM     23  C   UNL A   1      30.524  23.381  26.597  1.00  0.00     0.027 C 
ENDBRANCH  19  22
ENDBRANCH   9  18
ENDBRANCH   6   8
ENDBRANCH   5   6
ENDBRANCH   4   5
ENDBRANCH   3   4
ENDBRANCH   2   3
ENDBRANCH   1   2
BRANCH   1  24
ATOM     24  C   UNL A   1      36.663  20.756  25.133  1.00  0.00     0.261 C 
BRANCH  24  25
ATOM     25  O   UNL A   1      37.842  21.556  24.939  1.00  0.00    -0.460 OA
BRANCH  25  26
ATOM     26  C   UNL A   1      38.865  21.250  25.770  1.00  0.00     0.338 C 
ATOM     27  O   UNL A   1      39.474  20.186  25.823  1.00  0.00    -0.246 OA
BRANCH  26  28
ATOM     28  C   UNL A   1      39.312  22.448  26.503  1.00  0.00     0.060 A 
ATOM     29  C   UNL A   1      38.629  23.643  26.239  1.00  0.00     0.016 A 
ATOM     30  C   UNL A   1      40.406  22.431  27.371  1.00  0.00     0.016 A 
ATOM     31  C   UNL A   1      39.088  24.842  26.772  1.00  0.00     0.010 A 
ATOM     32  C   UNL A   1      40.871  23.639  27.902  1.00  0.00     0.010 A 
ATOM     33  C   UNL A   1      40.246  24.852  27.558  1.00  0.00    -0.014 A 
BRANCH  33  34
ATOM     34  C   UNL A   1      40.894  26.151  27.859  1.00  0.00     0.031 A 
ATOM     35  C   UNL A   1      42.298  26.387  27.368  1.00  0.00     0.074 A 
ATOM     36  C   UNL A   1      40.233  27.114  28.523  1.00  0.00     0.049 A 
ATOM     37  N   UNL A   1      43.057  27.441  27.510  1.00  0.00    -0.248 NA
ATOM     38  C   UNL A   1      42.931  25.289  26.616  1.00  0.00     0.031 C 
ATOM     39  C   UNL A   1      38.870  27.000  29.040  1.00  0.00     0.029 A 
ATOM     40  N   UNL A   1      40.633  28.372  28.897  1.00  0.00    -0.354 N 
ATOM     41  C   UNL A   1      44.266  27.122  26.901  1.00  0.00     0.074 A 
ATOM     42  C   UNL A   1      44.143  25.777  26.388  1.00  0.00     0.031 C 
ATOM     43  C   UNL A   1      38.557  28.132  29.695  1.00  0.00     0.029 A 
ATOM     44  C   UNL A   1      39.705  29.037  29.663  1.00  0.00     0.049 A 
ATOM     45  H   UNL A   1      41.500  28.761  28.641  1.00  0.00     0.167 HD
ATOM     46  C   UNL A   1      45.374  27.888  26.770  1.00  0.00     0.034 A 
ATOM     47  C   UNL A   1      39.787  30.228  30.288  1.00  0.00     0.034 A 
ATOM     48  C   UNL A   1      45.480  29.238  27.252  1.00  0.00     0.049 A 
ATOM     49  C   UNL A   1      41.036  31.055  30.130  1.00  0.00     0.074 A 
ATOM     50  C   UNL A   1      46.537  30.118  27.111  1.00  0.00     0.029 A 
ATOM     51  N   UNL A   1      44.502  29.896  27.979  1.00  0.00    -0.354 N 
ATOM     52  N   UNL A   1      42.120  30.792  29.440  1.00  0.00    -0.248 NA
ATOM     53  C   UNL A   1      41.061  32.359  30.810  1.00  0.00     0.031 C 
ATOM     54  C   UNL A   1      46.211  31.301  27.783  1.00  0.00     0.029 A 
ATOM     55  C   UNL A   1      44.937  31.167  28.311  1.00  0.00     0.049 A 
ATOM     56  H   UNL A   1      43.627  29.518  28.225  1.00  0.00     0.167 HD
ATOM     57  C   UNL A   1      42.938  31.909  29.573  1.00  0.00     0.074 A 
ATOM     58  C   UNL A   1      42.214  32.862  30.390  1.00  0.00     0.031 C 
ATOM     59  C   UNL A   1      44.182  32.124  29.077  1.00  0.00     0.034 A 
BRANCH  46  60
ATOM     60  C   UNL A   1      46.564  27.298  26.062  1.00  0.00     0.023 A 
ATOM     61  C   UNL A   1      46.688  27.435  24.666  1.00  0.00     0.012 A 
ATOM     62  C   UNL A   1      47.600  26.684  26.793  1.00  0.00     0.148 A 
ATOM     63  C   UNL A   1      47.819  26.956  24.005  1.00  0.00     0.002 A 
ATOM     64  C   UNL A   1      48.742  26.248  26.135  1.00  0.00     0.091 A 
ATOM     65  F   UNL A   1      47.449  26.544  28.118  1.00  0.00    -0.205 F 
ATOM     66  C   UNL A   1      48.850  26.375  24.740  1.00  0.00     0.022 A 
BRANCH  64  67
ATOM     67  S   UNL A   1      50.157  25.560  26.999  1.00  0.00     0.127 S 
ATOM     68  O   UNL A   1      51.098  25.344  25.899  1.00  0.00    -0.237 OA
ATOM     69  O   UNL A   1      50.521  26.650  27.906  1.00  0.00    -0.237 OA
ATOM     70  O   UNL A   1      49.683  24.352  27.656  1.00  0.00    -0.744 OA
ENDBRANCH  64  67
ENDBRANCH  46  60
BRANCH  47  71
ATOM     71  C   UNL A   1      38.647  30.719  31.114  1.00  0.00     0.023 A 
ATOM     72  C   UNL A   1      38.657  30.527  32.508  1.00  0.00     0.012 A 
ATOM     73  C   UNL A   1      37.549  31.372  30.518  1.00  0.00     0.148 A 
ATOM     74  C   UNL A   1      37.579  30.944  33.291  1.00  0.00     0.002 A 
ATOM     75  C   UNL A   1      36.505  31.834  31.309  1.00  0.00     0.091 A 
ATOM     76  F   UNL A   1      37.548  31.526  29.186  1.00  0.00    -0.205 F 
ATOM     77  C   UNL A   1      36.508  31.605  32.693  1.00  0.00     0.022 A 
BRANCH  75  78
ATOM     78  S   UNL A   1      35.151  32.803  30.637  1.00  0.00     0.127 S 
ATOM     79  O   UNL A   1      34.261  32.912  31.791  1.00  0.00    -0.237 OA
ATOM     80  O   UNL A   1      35.826  34.046  30.259  1.00  0.00    -0.237 OA
ATOM     81  O   UNL A   1      34.640  32.031  29.512  1.00  0.00    -0.744 OA
ENDBRANCH  75  78
ENDBRANCH  47  71
BRANCH  59  82
ATOM     82  C   UNL A   1      44.832  33.453  29.366  1.00  0.00     0.023 A 
ATOM     83  C   UNL A   1      45.586  33.625  30.543  1.00  0.00     0.012 A 
ATOM     84  C   UNL A   1      44.758  34.504  28.431  1.00  0.00     0.148 A 
ATOM     85  C   UNL A   1      46.226  34.836  30.803  1.00  0.00     0.002 A 
ATOM     86  C   UNL A   1      45.442  35.689  28.672  1.00  0.00     0.091 A 
ATOM     87  F   UNL A   1      44.023  34.326  27.323  1.00  0.00    -0.205 F 
ATOM     88  C   UNL A   1      46.164  35.862  29.864  1.00  0.00     0.022 A 
BRANCH  86  89
ATOM     89  S   UNL A   1      45.500  37.027  27.473  1.00  0.00     0.127 S 
ATOM     90  O   UNL A   1      46.120  36.371  26.324  1.00  0.00    -0.237 OA
ATOM     91  O   UNL A   1      44.083  37.350  27.301  1.00  0.00    -0.237 OA
ATOM     92  O   UNL A   1      46.288  38.085  28.091  1.00  0.00    -0.744 OA
ENDBRANCH  86  89
ENDBRANCH  59  82
ENDBRANCH  33  34
ENDBRANCH  26  28
ENDBRANCH  25  26
ENDBRANCH  24  25
ENDBRANCH   1  24
TORSDOF 19
ENDMDL
MODEL 2
REMARK VINA RESULT:     -11.2      0.539      7.775
REMARK SMILES CCNC(=O)N1[C@@H](C(=O)OCCOCCOC(=O)c2ccc(-c3c4nc(c(-c5cccc(S(=O)(=O)[O-])c5F)c5ccc([nH]5)c(-c5cccc(S(=O)(=O)[O-])c5F)c5nc(c(-c6cccc(S(=O)(=O)[O-])c6F)c6ccc3[nH]6)C=C5)C=C4)cc2)CC[C@@H]2CCCC[C@H]21
REMARK SMILES IDX 14 1 13 2 12 3 11 4 10 5 8 6 9 7 7 8 6 9 89 10 82 11 84 12
REMARK SMILES IDX 88 13 83 14 85 15 87 16 86 17 4 18 3 19 5 21 2 22 1 23 15 24
REMARK SMILES IDX 16 25 17 26 18 27 19 28 20 29 81 30 21 31 80 32 22 33 23 34
REMARK SMILES IDX 24 35 74 36 25 37 79 38 73 39 75 40 26 41 78 42 72 43 71 44
REMARK SMILES IDX 27 46 59 47 39 48 58 49 40 50 43 51 57 52 76 53 41 54 42 55
REMARK SMILES IDX 56 57 77 58 44 59 28 60 29 61 37 62 30 63 32 64 38 65 31 66
REMARK SMILES IDX 33 67 34 68 35 69 36 70 60 71 61 72 69 73 62 74 64 75 70 76
REMARK SMILES IDX 63 77 65 78 66 79 67 80 68 81 45 82 46 83 54 84 47 85 49 86
REMARK SMILES IDX 55 87 48 88 50 89 51 90 52 91 53 92
REMARK H PARENT 3 20 75 45 43 56
REMARK Flexibility Score: inf
ROOT
ATOM      1  C   UNL A   1      35.331  20.958  25.145  1.00  0.00     0.202 C 
ENDROOT
BRANCH   1   2
ATOM      2  O   UNL A   1      34.815  21.677  24.026  1.00  0.00    -0.374 OA
BRANCH   2   3
ATOM      3  C   UNL A   1      35.551  22.823  23.599  1.00  0.00     0.202 C 
BRANCH   3   4
ATOM      4  C   UNL A   1      34.767  24.128  23.457  1.00  0.00     0.261 C 
BRANCH   4   5
ATOM      5  O   UNL A   1      33.799  24.076  22.397  1.00  0.00    -0.462 OA
BRANCH   5   6
ATOM      6  C   UNL A   1      33.237  25.263  22.045  1.00  0.00     0.329 C 
ATOM      7  O   UNL A   1      32.731  25.508  20.953  1.00  0.00    -0.250 OA
BRANCH   6   8
ATOM      8  C   UNL A   1      33.302  26.286  23.183  1.00  0.00     0.197 C 
ATOM      9  N   UNL A   1      32.297  26.217  24.264  1.00  0.00    -0.308 N 
ATOM     10  C   UNL A   1      32.490  27.220  25.338  1.00  0.00     0.091 C 
ATOM     11  C   UNL A   1      33.452  27.705  22.616  1.00  0.00     0.038 C 
ATOM     12  C   UNL A   1      32.757  28.655  24.814  1.00  0.00     0.012 C 
ATOM     13  C   UNL A   1      31.390  27.275  26.417  1.00  0.00     0.025 C 
ATOM     14  C   UNL A   1      33.833  28.668  23.728  1.00  0.00     0.008 C 
ATOM     15  C   UNL A   1      33.182  29.574  25.971  1.00  0.00     0.006 C 
ATOM     16  C   UNL A   1      31.783  28.202  27.567  1.00  0.00     0.002 C 
ATOM     17  C   UNL A   1      32.133  29.604  27.075  1.00  0.00     0.000 C 
BRANCH   9  18
ATOM     18  C   UNL A   1      31.042  25.724  23.990  1.00  0.00     0.318 C 
ATOM     19  N   UNL A   1      30.727  24.492  24.488  1.00  0.00    -0.338 N 
ATOM     20  H   UNL A   1      29.831  24.168  24.242  1.00  0.00     0.165 HD
ATOM     21  O   UNL A   1      30.169  26.360  23.410  1.00  0.00    -0.249 OA
BRANCH  19  22
ATOM     22  C   UNL A   1      31.493  23.577  25.318  1.00  0.00     0.114 C 
ATOM     23  C   UNL A   1      30.638  22.618  26.120  1.00  0.00     0.027 C 
ENDBRANCH  19  22
ENDBRANCH   9  18
ENDBRANCH   6   8
ENDBRANCH   5   6
ENDBRANCH   4   5
ENDBRANCH   3   4
ENDBRANCH   2   3
ENDBRANCH   1   2
BRANCH   1  24
ATOM     24  C   UNL A   1      36.723  20.342  24.982  1.00  0.00     0.261 C 
BRANCH  24  25
ATOM     25  O   UNL A   1      37.747  21.351  25.001  1.00  0.00    -0.460 OA
BRANCH  25  26
ATOM     26  C   UNL A   1      38.827  21.034  25.750  1.00  0.00     0.338 C 
ATOM     27  O   UNL A   1      39.430  19.964  25.754  1.00  0.00    -0.246 OA
BRANCH  26  28
ATOM     28  C   UNL A   1      39.339  22.225  26.451  1.00  0.00     0.060 A 
ATOM     29  C   UNL A   1      38.736  23.451  26.138  1.00  0.00     0.016 A 
ATOM     30  C   UNL A   1      40.418  22.169  27.336  1.00  0.00     0.016 A 
ATOM     31  C   UNL A   1      39.262  24.636  26.640  1.00  0.00     0.010 A 
ATOM     32  C   UNL A   1      40.951  23.362  27.834  1.00  0.00     0.010 A 
ATOM     33  C   UNL A   1      40.408  24.600  27.442  1.00  0.00    -0.014 A 
BRANCH  33  34
ATOM     34  C   UNL A   1      41.132  25.865  27.710  1.00  0.00     0.031 A 
ATOM     35  C   UNL A   1      40.411  26.969  28.438  1.00  0.00     0.074 A 
ATOM     36  C   UNL A   1      42.417  26.015  27.345  1.00  0.00     0.049 A 
ATOM     37  N   UNL A   1      40.844  28.153  28.781  1.00  0.00    -0.248 NA
ATOM     38  C   UNL A   1      39.017  26.702  28.833  1.00  0.00     0.031 C 
ATOM     39  C   UNL A   1      43.217  25.013  26.642  1.00  0.00     0.029 A 
ATOM     40  N   UNL A   1      43.266  27.082  27.496  1.00  0.00    -0.354 N 
ATOM     41  C   UNL A   1      39.769  28.786  29.396  1.00  0.00     0.074 A 
ATOM     42  C   UNL A   1      38.662  27.856  29.380  1.00  0.00     0.031 C 
ATOM     43  C   UNL A   1      44.434  25.527  26.391  1.00  0.00     0.029 A 
ATOM     44  C   UNL A   1      44.489  26.898  26.895  1.00  0.00     0.049 A 
ATOM     45  H   UNL A   1      43.024  27.899  27.988  1.00  0.00     0.167 HD
ATOM     46  C   UNL A   1      39.715  30.024  29.937  1.00  0.00     0.034 A 
ATOM     47  C   UNL A   1      45.522  27.751  26.748  1.00  0.00     0.034 A 
ATOM     48  C   UNL A   1      40.829  30.932  29.982  1.00  0.00     0.049 A 
ATOM     49  C   UNL A   1      45.430  29.127  27.355  1.00  0.00     0.074 A 
ATOM     50  C   UNL A   1      40.892  32.184  30.566  1.00  0.00     0.029 A 
ATOM     51  N   UNL A   1      42.066  30.693  29.407  1.00  0.00    -0.354 N 
ATOM     52  N   UNL A   1      44.453  29.661  28.048  1.00  0.00    -0.248 NA
ATOM     53  C   UNL A   1      46.596  30.007  27.188  1.00  0.00     0.031 C 
ATOM     54  C   UNL A   1      42.161  32.717  30.316  1.00  0.00     0.029 A 
ATOM     55  C   UNL A   1      42.897  31.781  29.607  1.00  0.00     0.049 A 
ATOM     56  H   UNL A   1      42.319  29.871  28.928  1.00  0.00     0.167 HD
ATOM     57  C   UNL A   1      44.900  30.921  28.430  1.00  0.00     0.074 A 
ATOM     58  C   UNL A   1      46.245  31.062  27.911  1.00  0.00     0.031 C 
ATOM     59  C   UNL A   1      44.252  31.883  29.133  1.00  0.00     0.034 A 
BRANCH  46  60
ATOM     60  C   UNL A   1      38.415  30.476  30.546  1.00  0.00     0.023 A 
ATOM     61  C   UNL A   1      38.164  30.248  31.914  1.00  0.00     0.012 A 
ATOM     62  C   UNL A   1      37.480  31.202  29.782  1.00  0.00     0.148 A 
ATOM     63  C   UNL A   1      36.995  30.722  32.508  1.00  0.00     0.002 A 
ATOM     64  C   UNL A   1      36.339  31.708  30.390  1.00  0.00     0.091 A 
ATOM     65  F   UNL A   1      37.729  31.386  28.477  1.00  0.00    -0.205 F 
ATOM     66  C   UNL A   1      36.091  31.462  31.751  1.00  0.00     0.022 A 
BRANCH  64  67
ATOM     67  S   UNL A   1      35.153  32.740  29.522  1.00  0.00     0.127 S 
ATOM     68  O   UNL A   1      34.647  31.816  28.506  1.00  0.00    -0.237 OA
ATOM     69  O   UNL A   1      34.197  33.065  30.581  1.00  0.00    -0.237 OA
ATOM     70  O   UNL A   1      35.904  33.876  29.008  1.00  0.00    -0.744 OA
ENDBRANCH  64  67
ENDBRANCH  46  60
BRANCH  47  71
ATOM     71  C   UNL A   1      46.741  27.327  26.002  1.00  0.00     0.023 A 
ATOM     72  C   UNL A   1      46.820  27.532  24.612  1.00  0.00     0.012 A 
ATOM     73  C   UNL A   1      47.822  26.716  26.668  1.00  0.00     0.148 A 
ATOM     74  C   UNL A   1      47.936  27.104  23.891  1.00  0.00     0.002 A 
ATOM     75  C   UNL A   1      48.954  26.342  25.954  1.00  0.00     0.091 A 
ATOM     76  F   UNL A   1      47.719  26.509  27.989  1.00  0.00    -0.205 F 
ATOM     77  C   UNL A   1      49.007  26.519  24.563  1.00  0.00     0.022 A 
BRANCH  75  78
ATOM     78  S   UNL A   1      50.424  25.697  26.759  1.00  0.00     0.127 S 
ATOM     79  O   UNL A   1      49.925  24.454  27.340  1.00  0.00    -0.237 OA
ATOM     80  O   UNL A   1      51.338  25.527  25.628  1.00  0.00    -0.237 OA
ATOM     81  O   UNL A   1      50.830  26.725  27.709  1.00  0.00    -0.744 OA
ENDBRANCH  75  78
ENDBRANCH  47  71
BRANCH  59  82
ATOM     82  C   UNL A   1      44.996  33.162  29.422  1.00  0.00     0.023 A 
ATOM     83  C   UNL A   1      45.752  33.282  30.604  1.00  0.00     0.012 A 
ATOM     84  C   UNL A   1      45.004  34.213  28.485  1.00  0.00     0.148 A 
ATOM     85  C   UNL A   1      46.477  34.444  30.865  1.00  0.00     0.002 A 
ATOM     86  C   UNL A   1      45.771  35.346  28.727  1.00  0.00     0.091 A 
ATOM     87  F   UNL A   1      44.265  34.086  27.372  1.00  0.00    -0.205 F 
ATOM     88  C   UNL A   1      46.496  35.470  29.923  1.00  0.00     0.022 A 
BRANCH  86  89
ATOM     89  S   UNL A   1      45.933  36.673  27.526  1.00  0.00     0.127 S 
ATOM     90  O   UNL A   1      46.824  37.598  28.223  1.00  0.00    -0.237 OA
ATOM     91  O   UNL A   1      46.539  35.985  26.385  1.00  0.00    -0.237 OA
ATOM     92  O   UNL A   1      44.584  37.165  27.286  1.00  0.00    -0.744 OA
ENDBRANCH  86  89
ENDBRANCH  59  82
ENDBRANCH  33  34
ENDBRANCH  26  28
ENDBRANCH  25  26
ENDBRANCH  24  25
ENDBRANCH   1  24
TORSDOF 19
ENDMDL
MODEL 3
REMARK VINA RESULT:     -11.1      4.620     10.038
REMARK SMILES CCNC(=O)N1[C@@H](C(=O)OCCOCCOC(=O)c2ccc(-c3c4nc(c(-c5cccc(S(=O)(=O)[O-])c5F)c5ccc([nH]5)c(-c5cccc(S(=O)(=O)[O-])c5F)c5nc(c(-c6cccc(S(=O)(=O)[O-])c6F)c6ccc3[nH]6)C=C5)C=C4)cc2)CC[C@@H]2CCCC[C@H]21
REMARK SMILES IDX 14 1 13 2 12 3 11 4 10 5 8 6 9 7 7 8 6 9 89 10 82 11 84 12
REMARK SMILES IDX 88 13 83 14 85 15 87 16 86 17 4 18 3 19 5 21 2 22 1 23 15 24
REMARK SMILES IDX 16 25 17 26 18 27 19 28 20 29 81 30 21 31 80 32 22 33 23 34
REMARK SMILES IDX 24 35 74 36 25 37 79 38 73 39 75 40 26 41 78 42 72 43 71 44
REMARK SMILES IDX 27 46 59 47 39 48 58 49 40 50 43 51 57 52 76 53 41 54 42 55
REMARK SMILES IDX 56 57 77 58 44 59 28 60 29 61 37 62 30 63 32 64 38 65 31 66
REMARK SMILES IDX 33 67 34 68 35 69 36 70 60 71 61 72 69 73 62 74 64 75 70 76
REMARK SMILES IDX 63 77 65 78 66 79 67 80 68 81 45 82 46 83 54 84 47 85 49 86
REMARK SMILES IDX 55 87 48 88 50 89 51 90 52 91 53 92
REMARK H PARENT 3 20 75 45 43 56
REMARK Flexibility Score: inf
ROOT
ATOM      1  C   UNL A   1      31.083  30.733  25.243  1.00  0.00     0.202 C 
ENDROOT
BRANCH   1   2
ATOM      2  O   UNL A   1      31.748  29.472  25.207  1.00  0.00    -0.374 OA
BRANCH   2   3
ATOM      3  C   UNL A   1      32.780  29.313  24.233  1.00  0.00     0.202 C 
BRANCH   3   4
ATOM      4  C   UNL A   1      33.245  27.884  23.954  1.00  0.00     0.261 C 
BRANCH   4   5
ATOM      5  O   UNL A   1      33.995  27.327  25.044  1.00  0.00    -0.462 OA
BRANCH   5   6
ATOM      6  C   UNL A   1      33.342  26.411  25.810  1.00  0.00     0.329 C 
ATOM      7  O   UNL A   1      32.578  26.680  26.732  1.00  0.00    -0.250 OA
BRANCH   6   8
ATOM      8  C   UNL A   1      33.668  24.976  25.387  1.00  0.00     0.197 C 
ATOM      9  N   UNL A   1      32.576  23.983  25.325  1.00  0.00    -0.308 N 
ATOM     10  C   UNL A   1      32.998  22.644  24.852  1.00  0.00     0.091 C 
ATOM     11  C   UNL A   1      34.887  24.456  26.163  1.00  0.00     0.038 C 
ATOM     12  C   UNL A   1      34.291  22.119  25.527  1.00  0.00     0.012 C 
ATOM     13  C   UNL A   1      31.922  21.540  24.900  1.00  0.00     0.025 C 
ATOM     14  C   UNL A   1      35.398  23.175  25.525  1.00  0.00     0.008 C 
ATOM     15  C   UNL A   1      34.788  20.851  24.815  1.00  0.00     0.006 C 
ATOM     16  C   UNL A   1      32.406  20.260  24.216  1.00  0.00     0.002 C 
ATOM     17  C   UNL A   1      33.723  19.762  24.804  1.00  0.00     0.000 C 
BRANCH   9  18
ATOM     18  C   UNL A   1      31.495  24.115  26.167  1.00  0.00     0.318 C 
ATOM     19  N   UNL A   1      30.364  24.683  25.654  1.00  0.00    -0.338 N 
ATOM     20  H   UNL A   1      29.627  24.783  26.299  1.00  0.00     0.165 HD
ATOM     21  O   UNL A   1      31.460  23.672  27.309  1.00  0.00    -0.249 OA
BRANCH  19  22
ATOM     22  C   UNL A   1      30.065  25.166  24.316  1.00  0.00     0.114 C 
ATOM     23  C   UNL A   1      29.761  26.648  24.255  1.00  0.00     0.027 C 
ENDBRANCH  19  22
ENDBRANCH   9  18
ENDBRANCH   6   8
ENDBRANCH   5   6
ENDBRANCH   4   5
ENDBRANCH   3   4
ENDBRANCH   2   3
ENDBRANCH   1   2
BRANCH   1  24
ATOM     24  C   UNL A   1      31.337  31.609  26.472  1.00  0.00     0.261 C 
BRANCH  24  25
ATOM     25  O   UNL A   1      32.540  31.215  27.155  1.00  0.00    -0.460 OA
BRANCH  25  26
ATOM     26  C   UNL A   1      33.356  32.243  27.481  1.00  0.00     0.338 C 
ATOM     27  O   UNL A   1      33.030  33.414  27.653  1.00  0.00    -0.246 OA
BRANCH  26  28
ATOM     28  C   UNL A   1      34.705  31.747  27.810  1.00  0.00     0.060 A 
ATOM     29  C   UNL A   1      34.850  30.363  27.968  1.00  0.00     0.016 A 
ATOM     30  C   UNL A   1      35.787  32.605  28.025  1.00  0.00     0.016 A 
ATOM     31  C   UNL A   1      36.051  29.834  28.426  1.00  0.00     0.010 A 
ATOM     32  C   UNL A   1      36.993  32.072  28.493  1.00  0.00     0.010 A 
ATOM     33  C   UNL A   1      37.108  30.693  28.747  1.00  0.00    -0.014 A 
BRANCH  33  34
ATOM     34  C   UNL A   1      38.255  30.157  29.517  1.00  0.00     0.031 A 
ATOM     35  C   UNL A   1      38.432  30.596  30.947  1.00  0.00     0.074 A 
ATOM     36  C   UNL A   1      39.102  29.270  28.967  1.00  0.00     0.049 A 
ATOM     37  N   UNL A   1      39.356  30.257  31.808  1.00  0.00    -0.248 NA
ATOM     38  C   UNL A   1      37.436  31.542  31.479  1.00  0.00     0.031 C 
ATOM     39  C   UNL A   1      39.025  28.769  27.595  1.00  0.00     0.029 A 
ATOM     40  N   UNL A   1      40.208  28.652  29.492  1.00  0.00    -0.354 N 
ATOM     41  C   UNL A   1      39.076  30.973  32.966  1.00  0.00     0.074 A 
ATOM     42  C   UNL A   1      37.897  31.767  32.701  1.00  0.00     0.031 C 
ATOM     43  C   UNL A   1      40.063  27.943  27.375  1.00  0.00     0.029 A 
ATOM     44  C   UNL A   1      40.887  27.878  28.580  1.00  0.00     0.049 A 
ATOM     45  H   UNL A   1      40.489  28.751  30.430  1.00  0.00     0.167 HD
ATOM     46  C   UNL A   1      39.734  30.960  34.148  1.00  0.00     0.034 A 
ATOM     47  C   UNL A   1      42.054  27.215  28.702  1.00  0.00     0.034 A 
ATOM     48  C   UNL A   1      40.885  30.142  34.418  1.00  0.00     0.049 A 
ATOM     49  C   UNL A   1      42.769  27.225  30.028  1.00  0.00     0.074 A 
ATOM     50  C   UNL A   1      41.583  30.009  35.604  1.00  0.00     0.029 A 
ATOM     51  N   UNL A   1      41.515  29.333  33.487  1.00  0.00    -0.354 N 
ATOM     52  N   UNL A   1      42.418  27.802  31.153  1.00  0.00    -0.248 NA
ATOM     53  C   UNL A   1      44.024  26.463  30.113  1.00  0.00     0.031 C 
ATOM     54  C   UNL A   1      42.659  29.143  35.381  1.00  0.00     0.029 A 
ATOM     55  C   UNL A   1      42.607  28.711  34.066  1.00  0.00     0.049 A 
ATOM     56  H   UNL A   1      41.231  29.218  32.552  1.00  0.00     0.167 HD
ATOM     57  C   UNL A   1      43.387  27.445  32.084  1.00  0.00     0.074 A 
ATOM     58  C   UNL A   1      44.326  26.581  31.399  1.00  0.00     0.031 C 
ATOM     59  C   UNL A   1      43.500  27.809  33.385  1.00  0.00     0.034 A 
BRANCH  46  60
ATOM     60  C   UNL A   1      39.221  31.840  35.255  1.00  0.00     0.023 A 
ATOM     61  C   UNL A   1      38.299  31.328  36.190  1.00  0.00     0.012 A 
ATOM     62  C   UNL A   1      39.720  33.148  35.419  1.00  0.00     0.148 A 
ATOM     63  C   UNL A   1      37.869  32.110  37.261  1.00  0.00     0.002 A 
ATOM     64  C   UNL A   1      39.320  33.905  36.513  1.00  0.00     0.091 A 
ATOM     65  F   UNL A   1      40.578  33.622  34.505  1.00  0.00    -0.205 F 
ATOM     66  C   UNL A   1      38.388  33.391  37.430  1.00  0.00     0.022 A 
BRANCH  64  67
ATOM     67  S   UNL A   1      39.990  35.533  36.863  1.00  0.00     0.127 S 
ATOM     68  O   UNL A   1      39.339  35.854  38.133  1.00  0.00    -0.237 OA
ATOM     69  O   UNL A   1      41.424  35.258  36.966  1.00  0.00    -0.237 OA
ATOM     70  O   UNL A   1      39.610  36.377  35.740  1.00  0.00    -0.744 OA
ENDBRANCH  64  67
ENDBRANCH  46  60
BRANCH  47  71
ATOM     71  C   UNL A   1      42.620  26.476  27.537  1.00  0.00     0.023 A 
ATOM     72  C   UNL A   1      43.494  27.130  26.649  1.00  0.00     0.012 A 
ATOM     73  C   UNL A   1      42.287  25.127  27.305  1.00  0.00     0.148 A 
ATOM     74  C   UNL A   1      43.999  26.465  25.530  1.00  0.00     0.002 A 
ATOM     75  C   UNL A   1      42.837  24.454  26.221  1.00  0.00     0.091 A 
ATOM     76  F   UNL A   1      41.435  24.528  28.150  1.00  0.00    -0.205 F 
ATOM     77  C   UNL A   1      43.679  25.125  25.322  1.00  0.00     0.022 A 
BRANCH  75  78
ATOM     78  S   UNL A   1      42.576  22.698  25.951  1.00  0.00     0.127 S 
ATOM     79  O   UNL A   1      43.172  22.507  24.631  1.00  0.00    -0.237 OA
ATOM     80  O   UNL A   1      43.328  22.106  27.059  1.00  0.00    -0.237 OA
ATOM     81  O   UNL A   1      41.134  22.502  26.032  1.00  0.00    -0.744 OA
ENDBRANCH  75  78
ENDBRANCH  47  71
BRANCH  59  82
ATOM     82  C   UNL A   1      44.655  27.248  34.174  1.00  0.00     0.023 A 
ATOM     83  C   UNL A   1      45.893  27.919  34.180  1.00  0.00     0.012 A 
ATOM     84  C   UNL A   1      44.488  26.096  34.968  1.00  0.00     0.148 A 
ATOM     85  C   UNL A   1      46.958  27.433  34.937  1.00  0.00     0.002 A 
ATOM     86  C   UNL A   1      45.537  25.648  35.761  1.00  0.00     0.091 A 
ATOM     87  F   UNL A   1      43.306  25.463  34.937  1.00  0.00    -0.205 F 
ATOM     88  C   UNL A   1      46.777  26.306  35.735  1.00  0.00     0.022 A 
BRANCH  86  89
ATOM     89  S   UNL A   1      45.363  24.264  36.894  1.00  0.00     0.127 S 
ATOM     90  O   UNL A   1      44.305  24.740  37.784  1.00  0.00    -0.237 OA
ATOM     91  O   UNL A   1      44.965  23.178  35.998  1.00  0.00    -0.237 OA
ATOM     92  O   UNL A   1      46.669  24.087  37.514  1.00  0.00    -0.744 OA
ENDBRANCH  86  89
ENDBRANCH  59  82
ENDBRANCH  33  34
ENDBRANCH  26  28
ENDBRANCH  25  26
ENDBRANCH  24  25
ENDBRANCH   1  24
TORSDOF 19
ENDMDL
