MODEL 1
REMARK VINA RESULT:     -10.7      0.000      0.000
REMARK SMILES C[C@@H]1[C@@H](C(=O)OCCOCCOC(=O)c2ccc(-c3c4nc(c(-c5cccc(S(=O)(=O)[O-])c5F)c5ccc([nH]5)c(-c5cccc(S(=O)(=O)[O-])c5F)c5nc(c(-c6cccc(S(=O)(=O)[O-])c6F)c6ccc3[nH]6)C=C5)C=C4)cc2)CCN1C(=O)[C@]1([NH3+])CCOC1
REMARK SMILES IDX 9 1 8 2 7 3 6 4 4 5 5 6 3 7 1 8 2 9 80 10 78 11 79 12 81 13
REMARK SMILES IDX 82 14 83 15 85 16 88 17 86 18 87 19 84 20 10 24 11 25 12 26
REMARK SMILES IDX 13 27 14 28 15 29 16 30 77 31 17 32 76 33 18 34 19 35 20 36
REMARK SMILES IDX 70 37 21 38 75 39 69 40 71 41 22 42 74 43 68 44 67 45 23 47
REMARK SMILES IDX 55 48 35 49 54 50 36 51 39 52 53 53 72 54 37 55 38 56 52 58
REMARK SMILES IDX 73 59 40 60 24 61 25 62 33 63 26 64 28 65 34 66 27 67 29 68
REMARK SMILES IDX 30 69 31 70 32 71 56 72 57 73 65 74 58 75 60 76 66 77 59 78
REMARK SMILES IDX 61 79 62 80 63 81 64 82 41 83 42 84 50 85 43 86 45 87 51 88
REMARK SMILES IDX 44 89 46 90 47 91 48 92 49 93
REMARK H PARENT 84 21 84 22 84 23 71 46 39 57
REMARK Flexibility Score: inf
ROOT
ATOM      1  O   UNL A   1      35.804  23.271  24.336  1.00  0.00    -0.374 OA
ENDROOT
BRANCH   1   2
ATOM      2  C   UNL A   1      35.551  24.088  25.476  1.00  0.00     0.202 C 
BRANCH   2   3
ATOM      3  C   UNL A   1      34.216  23.895  26.206  1.00  0.00     0.261 C 
BRANCH   3   4
ATOM      4  O   UNL A   1      33.078  24.532  25.589  1.00  0.00    -0.463 OA
BRANCH   4   5
ATOM      5  C   UNL A   1      32.362  23.718  24.770  1.00  0.00     0.311 C 
ATOM      6  O   UNL A   1      32.096  22.546  25.026  1.00  0.00    -0.252 OA
BRANCH   5   7
ATOM      7  C   UNL A   1      32.005  24.343  23.434  1.00  0.00     0.123 C 
ATOM      8  C   UNL A   1      32.561  25.947  21.650  1.00  0.00     0.032 C 
ATOM      9  C   UNL A   1      32.304  25.846  23.161  1.00  0.00     0.096 C 
ATOM     10  N   UNL A   1      31.067  26.561  23.560  1.00  0.00    -0.334 N 
ATOM     11  C   UNL A   1      30.483  24.281  23.237  1.00  0.00     0.039 C 
ATOM     12  C   UNL A   1      30.012  25.590  23.840  1.00  0.00     0.121 C 
BRANCH  10  13
ATOM     13  C   UNL A   1      30.790  27.880  23.868  1.00  0.00     0.286 C 
ATOM     14  O   UNL A   1      29.749  28.366  23.378  1.00  0.00    -0.267 OA
BRANCH  13  15
ATOM     15  C   UNL A   1      31.648  28.864  24.770  1.00  0.00     0.199 C 
ATOM     16  C   UNL A   1      33.094  29.111  24.378  1.00  0.00     0.110 C 
ATOM     17  C   UNL A   1      31.762  28.430  26.222  1.00  0.00     0.239 C 
ATOM     18  C   UNL A   1      33.921  28.420  25.453  1.00  0.00     0.167 C 
ATOM     19  O   UNL A   1      33.015  27.745  26.329  1.00  0.00    -0.374 OA
BRANCH  15  20
ATOM     20  N   UNL A   1      30.954  30.199  24.687  1.00  0.00    -0.343 N 
ATOM     21  H   UNL A   1      30.097  30.171  25.240  1.00  0.00     0.345 HD
ATOM     22  H   UNL A   1      30.724  30.402  23.714  1.00  0.00     0.345 HD
ATOM     23  H   UNL A   1      31.570  30.926  25.050  1.00  0.00     0.345 HD
ENDBRANCH  15  20
ENDBRANCH  13  15
ENDBRANCH  10  13
ENDBRANCH   5   7
ENDBRANCH   4   5
ENDBRANCH   3   4
ENDBRANCH   2   3
ENDBRANCH   1   2
BRANCH   1  24
ATOM     24  C   UNL A   1      35.744  21.857  24.510  1.00  0.00     0.202 C 
BRANCH  24  25
ATOM     25  C   UNL A   1      36.784  21.234  25.442  1.00  0.00     0.261 C 
BRANCH  25  26
ATOM     26  O   UNL A   1      38.128  21.425  24.954  1.00  0.00    -0.460 OA
BRANCH  26  27
ATOM     27  C   UNL A   1      39.085  21.166  25.878  1.00  0.00     0.338 C 
ATOM     28  O   UNL A   1      39.693  20.112  26.017  1.00  0.00    -0.246 OA
BRANCH  27  29
ATOM     29  C   UNL A   1      39.479  22.392  26.599  1.00  0.00     0.060 A 
ATOM     30  C   UNL A   1      38.881  23.597  26.206  1.00  0.00     0.016 A 
ATOM     31  C   UNL A   1      40.525  22.394  27.522  1.00  0.00     0.016 A 
ATOM     32  C   UNL A   1      39.364  24.813  26.696  1.00  0.00     0.010 A 
ATOM     33  C   UNL A   1      41.011  23.617  28.008  1.00  0.00     0.010 A 
ATOM     34  C   UNL A   1      40.461  24.836  27.568  1.00  0.00    -0.014 A 
BRANCH  34  35
ATOM     35  C   UNL A   1      41.095  26.139  27.910  1.00  0.00     0.031 A 
ATOM     36  C   UNL A   1      42.508  26.421  27.465  1.00  0.00     0.074 A 
ATOM     37  C   UNL A   1      40.413  27.082  28.587  1.00  0.00     0.049 A 
ATOM     38  N   UNL A   1      43.221  27.509  27.612  1.00  0.00    -0.248 NA
ATOM     39  C   UNL A   1      43.208  25.337  26.757  1.00  0.00     0.031 C 
ATOM     40  C   UNL A   1      39.046  26.941  29.082  1.00  0.00     0.029 A 
ATOM     41  N   UNL A   1      40.788  28.343  28.986  1.00  0.00    -0.354 N 
ATOM     42  C   UNL A   1      44.455  27.239  27.032  1.00  0.00     0.074 A 
ATOM     43  C   UNL A   1      44.400  25.877  26.544  1.00  0.00     0.031 C 
ATOM     44  C   UNL A   1      38.702  28.063  29.738  1.00  0.00     0.029 A 
ATOM     45  C   UNL A   1      39.826  28.998  29.719  1.00  0.00     0.049 A 
ATOM     46  H   UNL A   1      41.663  28.739  28.769  1.00  0.00     0.167 HD
ATOM     47  C   UNL A   1      45.530  28.053  26.896  1.00  0.00     0.034 A 
ATOM     48  C   UNL A   1      39.849  30.210  30.312  1.00  0.00     0.034 A 
ATOM     49  C   UNL A   1      45.585  29.413  27.358  1.00  0.00     0.049 A 
ATOM     50  C   UNL A   1      41.062  31.091  30.158  1.00  0.00     0.074 A 
ATOM     51  C   UNL A   1      46.615  30.329  27.217  1.00  0.00     0.029 A 
ATOM     52  N   UNL A   1      44.578  30.054  28.061  1.00  0.00    -0.354 N 
ATOM     53  N   UNL A   1      42.162  30.871  29.481  1.00  0.00    -0.248 NA
ATOM     54  C   UNL A   1      41.022  32.405  30.820  1.00  0.00     0.031 C 
ATOM     55  C   UNL A   1      46.234  31.519  27.848  1.00  0.00     0.029 A 
ATOM     56  C   UNL A   1      44.963  31.347  28.370  1.00  0.00     0.049 A 
ATOM     57  H   UNL A   1      43.713  29.648  28.303  1.00  0.00     0.167 HD
ATOM     58  C   UNL A   1      42.929  32.025  29.607  1.00  0.00     0.074 A 
ATOM     59  C   UNL A   1      42.158  32.953  30.409  1.00  0.00     0.031 C 
ATOM     60  C   UNL A   1      44.167  32.286  29.119  1.00  0.00     0.034 A 
BRANCH  47  61
ATOM     61  C   UNL A   1      46.730  27.506  26.170  1.00  0.00     0.023 A 
ATOM     62  C   UNL A   1      46.867  27.743  24.787  1.00  0.00     0.012 A 
ATOM     63  C   UNL A   1      47.751  26.820  26.859  1.00  0.00     0.148 A 
ATOM     64  C   UNL A   1      47.987  27.284  24.095  1.00  0.00     0.002 A 
ATOM     65  C   UNL A   1      48.881  26.396  26.168  1.00  0.00     0.091 A 
ATOM     66  F   UNL A   1      47.592  26.585  28.169  1.00  0.00    -0.205 F 
ATOM     67  C   UNL A   1      48.997  26.620  24.787  1.00  0.00     0.022 A 
BRANCH  65  68
ATOM     68  S   UNL A   1      50.264  25.593  26.986  1.00  0.00     0.127 S 
ATOM     69  O   UNL A   1      51.197  25.408  25.876  1.00  0.00    -0.237 OA
ATOM     70  O   UNL A   1      50.675  26.600  27.965  1.00  0.00    -0.237 OA
ATOM     71  O   UNL A   1      49.727  24.371  27.567  1.00  0.00    -0.744 OA
ENDBRANCH  65  68
ENDBRANCH  47  61
BRANCH  48  72
ATOM     72  C   UNL A   1      38.656  30.688  31.066  1.00  0.00     0.023 A 
ATOM     73  C   UNL A   1      38.598  30.510  32.461  1.00  0.00     0.012 A 
ATOM     74  C   UNL A   1      37.589  31.337  30.413  1.00  0.00     0.148 A 
ATOM     75  C   UNL A   1      37.490  30.947  33.189  1.00  0.00     0.002 A 
ATOM     76  C   UNL A   1      36.515  31.819  31.151  1.00  0.00     0.091 A 
ATOM     77  F   UNL A   1      37.650  31.475  29.081  1.00  0.00    -0.205 F 
ATOM     78  C   UNL A   1      36.455  31.612  32.537  1.00  0.00     0.022 A 
BRANCH  76  79
ATOM     79  S   UNL A   1      35.209  32.800  30.403  1.00  0.00     0.127 S 
ATOM     80  O   UNL A   1      35.940  33.979  29.949  1.00  0.00    -0.237 OA
ATOM     81  O   UNL A   1      34.736  31.917  29.334  1.00  0.00    -0.237 OA
ATOM     82  O   UNL A   1      34.235  33.022  31.464  1.00  0.00    -0.744 OA
ENDBRANCH  76  79
ENDBRANCH  48  72
BRANCH  60  83
ATOM     83  C   UNL A   1      44.771  33.635  29.413  1.00  0.00     0.023 A 
ATOM     84  C   UNL A   1      45.538  33.813  30.580  1.00  0.00     0.012 A 
ATOM     85  C   UNL A   1      44.648  34.700  28.498  1.00  0.00     0.148 A 
ATOM     86  C   UNL A   1      46.153  35.037  30.847  1.00  0.00     0.002 A 
ATOM     87  C   UNL A   1      45.299  35.904  28.749  1.00  0.00     0.091 A 
ATOM     88  F   UNL A   1      43.897  34.521  27.402  1.00  0.00    -0.205 F 
ATOM     89  C   UNL A   1      46.044  36.077  29.926  1.00  0.00     0.022 A 
BRANCH  87  90
ATOM     90  S   UNL A   1      45.282  37.264  27.575  1.00  0.00     0.127 S 
ATOM     91  O   UNL A   1      45.965  36.675  26.425  1.00  0.00    -0.237 OA
ATOM     92  O   UNL A   1      43.849  37.494  27.380  1.00  0.00    -0.237 OA
ATOM     93  O   UNL A   1      45.981  38.361  28.229  1.00  0.00    -0.744 OA
ENDBRANCH  87  90
ENDBRANCH  60  83
ENDBRANCH  34  35
ENDBRANCH  27  29
ENDBRANCH  26  27
ENDBRANCH  25  26
ENDBRANCH  24  25
ENDBRANCH   1  24
TORSDOF 20
ENDMDL
MODEL 2
REMARK VINA RESULT:     -10.7      1.582      2.292
REMARK SMILES C[C@@H]1[C@@H](C(=O)OCCOCCOC(=O)c2ccc(-c3c4nc(c(-c5cccc(S(=O)(=O)[O-])c5F)c5ccc([nH]5)c(-c5cccc(S(=O)(=O)[O-])c5F)c5nc(c(-c6cccc(S(=O)(=O)[O-])c6F)c6ccc3[nH]6)C=C5)C=C4)cc2)CCN1C(=O)[C@]1([NH3+])CCOC1
REMARK SMILES IDX 9 1 8 2 7 3 6 4 4 5 5 6 3 7 1 8 2 9 80 10 78 11 79 12 81 13
REMARK SMILES IDX 82 14 83 15 85 16 88 17 86 18 87 19 84 20 10 24 11 25 12 26
REMARK SMILES IDX 13 27 14 28 15 29 16 30 77 31 17 32 76 33 18 34 19 35 20 36
REMARK SMILES IDX 70 37 21 38 75 39 69 40 71 41 22 42 74 43 68 44 67 45 23 47
REMARK SMILES IDX 55 48 35 49 54 50 36 51 39 52 53 53 72 54 37 55 38 56 52 58
REMARK SMILES IDX 73 59 40 60 24 61 25 62 33 63 26 64 28 65 34 66 27 67 29 68
REMARK SMILES IDX 30 69 31 70 32 71 56 72 57 73 65 74 58 75 60 76 66 77 59 78
REMARK SMILES IDX 61 79 62 80 63 81 64 82 41 83 42 84 50 85 43 86 45 87 51 88
REMARK SMILES IDX 44 89 46 90 47 91 48 92 49 93
REMARK H PARENT 84 21 84 22 84 23 71 46 39 57
REMARK Flexibility Score: inf
ROOT
ATOM      1  O   UNL A   1      35.641  21.677  26.266  1.00  0.00    -0.374 OA
ENDROOT
BRANCH   1   2
ATOM      2  C   UNL A   1      34.991  22.921  26.022  1.00  0.00     0.202 C 
BRANCH   2   3
ATOM      3  C   UNL A   1      33.498  22.887  25.675  1.00  0.00     0.261 C 
BRANCH   3   4
ATOM      4  O   UNL A   1      33.157  23.388  24.365  1.00  0.00    -0.463 OA
BRANCH   4   5
ATOM      5  C   UNL A   1      32.089  24.227  24.351  1.00  0.00     0.311 C 
ATOM      6  O   UNL A   1      30.974  23.914  23.942  1.00  0.00    -0.252 OA
BRANCH   5   7
ATOM      7  C   UNL A   1      32.412  25.646  24.782  1.00  0.00     0.123 C 
ATOM      8  C   UNL A   1      31.912  27.561  26.246  1.00  0.00     0.032 C 
ATOM      9  C   UNL A   1      31.275  26.616  25.216  1.00  0.00     0.096 C 
ATOM     10  N   UNL A   1      30.888  27.332  23.975  1.00  0.00    -0.334 N 
ATOM     11  C   UNL A   1      33.042  26.402  23.602  1.00  0.00     0.039 C 
ATOM     12  C   UNL A   1      31.838  27.013  22.912  1.00  0.00     0.121 C 
BRANCH  10  13
ATOM     13  C   UNL A   1      29.771  28.059  23.608  1.00  0.00     0.286 C 
ATOM     14  O   UNL A   1      28.698  27.428  23.502  1.00  0.00    -0.267 OA
BRANCH  13  15
ATOM     15  C   UNL A   1      29.687  29.612  23.294  1.00  0.00     0.199 C 
ATOM     16  C   UNL A   1      28.352  30.307  23.492  1.00  0.00     0.110 C 
ATOM     17  C   UNL A   1      30.045  29.973  21.862  1.00  0.00     0.239 C 
ATOM     18  C   UNL A   1      27.865  30.640  22.088  1.00  0.00     0.167 C 
ATOM     19  O   UNL A   1      28.801  30.084  21.162  1.00  0.00    -0.374 OA
BRANCH  15  20
ATOM     20  N   UNL A   1      30.652  30.271  24.245  1.00  0.00    -0.343 N 
ATOM     21  H   UNL A   1      30.572  29.836  25.165  1.00  0.00     0.345 HD
ATOM     22  H   UNL A   1      30.431  31.264  24.319  1.00  0.00     0.345 HD
ATOM     23  H   UNL A   1      31.603  30.158  23.897  1.00  0.00     0.345 HD
ENDBRANCH  15  20
ENDBRANCH  13  15
ENDBRANCH  10  13
ENDBRANCH   5   7
ENDBRANCH   4   5
ENDBRANCH   3   4
ENDBRANCH   2   3
ENDBRANCH   1   2
BRANCH   1  24
ATOM     24  C   UNL A   1      36.073  20.924  25.134  1.00  0.00     0.202 C 
BRANCH  24  25
ATOM     25  C   UNL A   1      37.568  20.613  25.045  1.00  0.00     0.261 C 
BRANCH  25  26
ATOM     26  O   UNL A   1      38.376  21.786  25.272  1.00  0.00    -0.460 OA
BRANCH  26  27
ATOM     27  C   UNL A   1      39.399  21.583  26.137  1.00  0.00     0.338 C 
ATOM     28  O   UNL A   1      40.103  20.583  26.208  1.00  0.00    -0.246 OA
BRANCH  27  29
ATOM     29  C   UNL A   1      39.722  22.815  26.882  1.00  0.00     0.060 A 
ATOM     30  C   UNL A   1      38.994  23.972  26.571  1.00  0.00     0.016 A 
ATOM     31  C   UNL A   1      40.818  22.883  27.743  1.00  0.00     0.016 A 
ATOM     32  C   UNL A   1      39.393  25.210  27.081  1.00  0.00     0.010 A 
ATOM     33  C   UNL A   1      41.218  24.130  28.249  1.00  0.00     0.010 A 
ATOM     34  C   UNL A   1      40.533  25.307  27.889  1.00  0.00    -0.014 A 
BRANCH  34  35
ATOM     35  C   UNL A   1      41.065  26.651  28.245  1.00  0.00     0.031 A 
ATOM     36  C   UNL A   1      42.515  26.973  27.984  1.00  0.00     0.074 A 
ATOM     37  C   UNL A   1      40.262  27.594  28.771  1.00  0.00     0.049 A 
ATOM     38  N   UNL A   1      43.161  28.096  28.170  1.00  0.00    -0.248 NA
ATOM     39  C   UNL A   1      43.346  25.888  27.438  1.00  0.00     0.031 C 
ATOM     40  C   UNL A   1      38.845  27.417  29.081  1.00  0.00     0.029 A 
ATOM     41  N   UNL A   1      40.530  28.887  29.151  1.00  0.00    -0.354 N 
ATOM     42  C   UNL A   1      44.472  27.853  27.780  1.00  0.00     0.074 A 
ATOM     43  C   UNL A   1      44.536  26.469  27.361  1.00  0.00     0.031 C 
ATOM     44  C   UNL A   1      38.372  28.552  29.623  1.00  0.00     0.029 A 
ATOM     45  C   UNL A   1      39.453  29.534  29.708  1.00  0.00     0.049 A 
ATOM     46  H   UNL A   1      41.412  29.311  29.034  1.00  0.00     0.167 HD
ATOM     47  C   UNL A   1      45.525  28.706  27.750  1.00  0.00     0.034 A 
ATOM     48  C   UNL A   1      39.348  30.773  30.234  1.00  0.00     0.034 A 
ATOM     49  C   UNL A   1      45.465  30.088  28.142  1.00  0.00     0.049 A 
ATOM     50  C   UNL A   1      40.538  31.698  30.201  1.00  0.00     0.074 A 
ATOM     51  C   UNL A   1      46.471  31.040  28.095  1.00  0.00     0.029 A 
ATOM     52  N   UNL A   1      44.347  30.716  28.665  1.00  0.00    -0.354 N 
ATOM     53  N   UNL A   1      41.729  31.493  29.694  1.00  0.00    -0.248 NA
ATOM     54  C   UNL A   1      40.357  33.038  30.781  1.00  0.00     0.031 C 
ATOM     55  C   UNL A   1      45.962  32.240  28.604  1.00  0.00     0.029 A 
ATOM     56  C   UNL A   1      44.638  32.038  28.955  1.00  0.00     0.049 A 
ATOM     57  H   UNL A   1      43.473  30.285  28.807  1.00  0.00     0.167 HD
ATOM     58  C   UNL A   1      42.428  32.685  29.864  1.00  0.00     0.074 A 
ATOM     59  C   UNL A   1      41.519  33.615  30.502  1.00  0.00     0.031 C 
ATOM     60  C   UNL A   1      43.711  32.976  29.537  1.00  0.00     0.034 A 
BRANCH  47  61
ATOM     61  C   UNL A   1      46.834  28.178  27.225  1.00  0.00     0.023 A 
ATOM     62  C   UNL A   1      47.848  27.821  28.137  1.00  0.00     0.012 A 
ATOM     63  C   UNL A   1      47.039  27.971  25.847  1.00  0.00     0.148 A 
ATOM     64  C   UNL A   1      49.056  27.292  27.684  1.00  0.00     0.002 A 
ATOM     65  C   UNL A   1      48.233  27.411  25.406  1.00  0.00     0.091 A 
ATOM     66  F   UNL A   1      46.071  28.337  24.994  1.00  0.00    -0.205 F 
ATOM     67  C   UNL A   1      49.244  27.079  26.322  1.00  0.00     0.022 A 
BRANCH  65  68
ATOM     68  S   UNL A   1      48.540  27.035  23.676  1.00  0.00     0.127 S 
ATOM     69  O   UNL A   1      49.999  26.951  23.646  1.00  0.00    -0.237 OA
ATOM     70  O   UNL A   1      47.852  25.754  23.508  1.00  0.00    -0.237 OA
ATOM     71  O   UNL A   1      47.958  28.136  22.921  1.00  0.00    -0.744 OA
ENDBRANCH  65  68
ENDBRANCH  47  61
BRANCH  48  72
ATOM     72  C   UNL A   1      38.045  31.233  30.791  1.00  0.00     0.023 A 
ATOM     73  C   UNL A   1      37.758  31.025  32.153  1.00  0.00     0.012 A 
ATOM     74  C   UNL A   1      37.098  31.895  29.984  1.00  0.00     0.148 A 
ATOM     75  C   UNL A   1      36.544  31.446  32.697  1.00  0.00     0.002 A 
ATOM     76  C   UNL A   1      35.914  32.359  30.544  1.00  0.00     0.091 A 
ATOM     77  F   UNL A   1      37.376  32.060  28.683  1.00  0.00    -0.205 F 
ATOM     78  C   UNL A   1      35.628  32.123  31.897  1.00  0.00     0.022 A 
BRANCH  76  79
ATOM     79  S   UNL A   1      34.744  33.354  29.612  1.00  0.00     0.127 S 
ATOM     80  O   UNL A   1      34.168  32.368  28.703  1.00  0.00    -0.237 OA
ATOM     81  O   UNL A   1      33.840  33.829  30.662  1.00  0.00    -0.237 OA
ATOM     82  O   UNL A   1      35.539  34.407  28.992  1.00  0.00    -0.744 OA
ENDBRANCH  76  79
ENDBRANCH  48  72
BRANCH  60  83
ATOM     83  C   UNL A   1      44.218  34.363  29.838  1.00  0.00     0.023 A 
ATOM     84  C   UNL A   1      44.888  34.608  31.053  1.00  0.00     0.012 A 
ATOM     85  C   UNL A   1      44.104  35.399  28.890  1.00  0.00     0.148 A 
ATOM     86  C   UNL A   1      45.415  35.870  31.332  1.00  0.00     0.002 A 
ATOM     87  C   UNL A   1      44.670  36.643  29.157  1.00  0.00     0.091 A 
ATOM     88  F   UNL A   1      43.446  35.155  27.748  1.00  0.00    -0.205 F 
ATOM     89  C   UNL A   1      45.317  36.882  30.380  1.00  0.00     0.022 A 
BRANCH  87  90
ATOM     90  S   UNL A   1      44.665  37.975  27.950  1.00  0.00     0.127 S 
ATOM     91  O   UNL A   1      44.997  39.131  28.780  1.00  0.00    -0.237 OA
ATOM     92  O   UNL A   1      45.724  37.565  27.026  1.00  0.00    -0.237 OA
ATOM     93  O   UNL A   1      43.330  37.978  27.369  1.00  0.00    -0.744 OA
ENDBRANCH  87  90
ENDBRANCH  60  83
ENDBRANCH  34  35
ENDBRANCH  27  29
ENDBRANCH  26  27
ENDBRANCH  25  26
ENDBRANCH  24  25
ENDBRANCH   1  24
TORSDOF 20
ENDMDL
MODEL 3
REMARK VINA RESULT:     -10.6      5.046     10.128
REMARK SMILES C[C@@H]1[C@@H](C(=O)OCCOCCOC(=O)c2ccc(-c3c4nc(c(-c5cccc(S(=O)(=O)[O-])c5F)c5ccc([nH]5)c(-c5cccc(S(=O)(=O)[O-])c5F)c5nc(c(-c6cccc(S(=O)(=O)[O-])c6F)c6ccc3[nH]6)C=C5)C=C4)cc2)CCN1C(=O)[C@]1([NH3+])CCOC1
REMARK SMILES IDX 9 1 8 2 7 3 6 4 4 5 5 6 3 7 1 8 2 9 80 10 78 11 79 12 81 13
REMARK SMILES IDX 82 14 83 15 85 16 88 17 86 18 87 19 84 20 10 24 11 25 12 26
REMARK SMILES IDX 13 27 14 28 15 29 16 30 77 31 17 32 76 33 18 34 19 35 20 36
REMARK SMILES IDX 70 37 21 38 75 39 69 40 71 41 22 42 74 43 68 44 67 45 23 47
REMARK SMILES IDX 55 48 35 49 54 50 36 51 39 52 53 53 72 54 37 55 38 56 52 58
REMARK SMILES IDX 73 59 40 60 24 61 25 62 33 63 26 64 28 65 34 66 27 67 29 68
REMARK SMILES IDX 30 69 31 70 32 71 56 72 57 73 65 74 58 75 60 76 66 77 59 78
REMARK SMILES IDX 61 79 62 80 63 81 64 82 41 83 42 84 50 85 43 86 45 87 51 88
REMARK SMILES IDX 44 89 46 90 47 91 48 92 49 93
REMARK H PARENT 84 21 84 22 84 23 71 46 39 57
REMARK Flexibility Score: inf
ROOT
ATOM      1  O   UNL A   1      33.023  30.482  26.231  1.00  0.00    -0.374 OA
ENDROOT
BRANCH   1   2
ATOM      2  C   UNL A   1      33.306  29.217  26.823  1.00  0.00     0.202 C 
BRANCH   2   3
ATOM      3  C   UNL A   1      33.545  28.028  25.884  1.00  0.00     0.261 C 
BRANCH   3   4
ATOM      4  O   UNL A   1      32.425  27.131  25.728  1.00  0.00    -0.463 OA
BRANCH   4   5
ATOM      5  C   UNL A   1      32.753  25.918  25.212  1.00  0.00     0.311 C 
ATOM      6  O   UNL A   1      33.611  25.177  25.686  1.00  0.00    -0.252 OA
BRANCH   5   7
ATOM      7  C   UNL A   1      32.047  25.589  23.909  1.00  0.00     0.123 C 
ATOM      8  C   UNL A   1      31.589  26.175  21.562  1.00  0.00     0.032 C 
ATOM      9  C   UNL A   1      31.511  26.727  22.993  1.00  0.00     0.096 C 
ATOM     10  N   UNL A   1      30.108  26.940  23.427  1.00  0.00    -0.334 N 
ATOM     11  C   UNL A   1      30.766  24.797  24.215  1.00  0.00     0.039 C 
ATOM     12  C   UNL A   1      29.724  25.887  24.365  1.00  0.00     0.121 C 
BRANCH  10  13
ATOM     13  C   UNL A   1      29.209  27.976  23.259  1.00  0.00     0.286 C 
ATOM     14  O   UNL A   1      27.996  27.679  23.279  1.00  0.00    -0.267 OA
BRANCH  13  15
ATOM     15  C   UNL A   1      29.534  29.513  23.033  1.00  0.00     0.199 C 
ATOM     16  C   UNL A   1      28.471  30.529  23.410  1.00  0.00     0.110 C 
ATOM     17  C   UNL A   1      29.847  29.873  21.591  1.00  0.00     0.239 C 
ATOM     18  C   UNL A   1      27.971  31.090  22.086  1.00  0.00     0.167 C 
ATOM     19  O   UNL A   1      28.625  30.374  21.038  1.00  0.00    -0.374 OA
BRANCH  15  20
ATOM     20  N   UNL A   1      30.727  29.807  23.906  1.00  0.00    -0.343 N 
ATOM     21  H   UNL A   1      30.417  29.962  24.865  1.00  0.00     0.345 HD
ATOM     22  H   UNL A   1      31.202  30.643  23.563  1.00  0.00     0.345 HD
ATOM     23  H   UNL A   1      31.370  29.016  23.880  1.00  0.00     0.345 HD
ENDBRANCH  15  20
ENDBRANCH  13  15
ENDBRANCH  10  13
ENDBRANCH   5   7
ENDBRANCH   4   5
ENDBRANCH   3   4
ENDBRANCH   2   3
ENDBRANCH   1   2
BRANCH   1  24
ATOM     24  C   UNL A   1      31.781  31.101  26.558  1.00  0.00     0.202 C 
BRANCH  24  25
ATOM     25  C   UNL A   1      31.852  32.462  27.252  1.00  0.00     0.261 C 
BRANCH  25  26
ATOM     26  O   UNL A   1      33.098  33.138  26.984  1.00  0.00    -0.460 OA
BRANCH  26  27
ATOM     27  C   UNL A   1      33.739  33.562  28.100  1.00  0.00     0.338 C 
ATOM     28  O   UNL A   1      33.310  34.359  28.925  1.00  0.00    -0.246 OA
BRANCH  27  29
ATOM     29  C   UNL A   1      34.970  32.785  28.337  1.00  0.00     0.060 A 
ATOM     30  C   UNL A   1      34.838  31.525  28.938  1.00  0.00     0.016 A 
ATOM     31  C   UNL A   1      36.235  33.337  28.132  1.00  0.00     0.016 A 
ATOM     32  C   UNL A   1      35.970  30.838  29.383  1.00  0.00     0.010 A 
ATOM     33  C   UNL A   1      37.369  32.646  28.585  1.00  0.00     0.010 A 
ATOM     34  C   UNL A   1      37.242  31.411  29.250  1.00  0.00    -0.014 A 
BRANCH  34  35
ATOM     35  C   UNL A   1      38.407  30.767  29.917  1.00  0.00     0.031 A 
ATOM     36  C   UNL A   1      38.751  31.137  31.338  1.00  0.00     0.074 A 
ATOM     37  C   UNL A   1      39.141  29.837  29.278  1.00  0.00     0.049 A 
ATOM     38  N   UNL A   1      39.688  30.656  32.115  1.00  0.00    -0.248 NA
ATOM     39  C   UNL A   1      37.929  32.183  31.967  1.00  0.00     0.031 C 
ATOM     40  C   UNL A   1      38.925  29.390  27.904  1.00  0.00     0.029 A 
ATOM     41  N   UNL A   1      40.229  29.112  29.701  1.00  0.00    -0.354 N 
ATOM     42  C   UNL A   1      39.581  31.347  33.316  1.00  0.00     0.074 A 
ATOM     43  C   UNL A   1      38.497  32.293  33.161  1.00  0.00     0.031 C 
ATOM     44  C   UNL A   1      39.863  28.482  27.588  1.00  0.00     0.029 A 
ATOM     45  C   UNL A   1      40.753  28.288  28.733  1.00  0.00     0.049 A 
ATOM     46  H   UNL A   1      40.598  29.176  30.611  1.00  0.00     0.167 HD
ATOM     47  C   UNL A   1      40.300  31.195  34.454  1.00  0.00     0.034 A 
ATOM     48  C   UNL A   1      41.831  27.476  28.761  1.00  0.00     0.034 A 
ATOM     49  C   UNL A   1      41.364  30.242  34.625  1.00  0.00     0.049 A 
ATOM     50  C   UNL A   1      42.624  27.335  30.034  1.00  0.00     0.074 A 
ATOM     51  C   UNL A   1      42.114  29.983  35.761  1.00  0.00     0.029 A 
ATOM     52  N   UNL A   1      41.840  29.399  33.634  1.00  0.00    -0.354 N 
ATOM     53  N   UNL A   1      42.415  27.891  31.203  1.00  0.00    -0.248 NA
ATOM     54  C   UNL A   1      43.781  26.427  30.003  1.00  0.00     0.031 C 
ATOM     55  C   UNL A   1      43.053  28.994  35.450  1.00  0.00     0.029 A 
ATOM     56  C   UNL A   1      42.879  28.628  34.126  1.00  0.00     0.049 A 
ATOM     57  H   UNL A   1      41.489  29.355  32.715  1.00  0.00     0.167 HD
ATOM     58  C   UNL A   1      43.390  27.377  32.052  1.00  0.00     0.074 A 
ATOM     59  C   UNL A   1      44.178  26.448  31.269  1.00  0.00     0.031 C 
ATOM     60  C   UNL A   1      43.622  27.662  33.357  1.00  0.00     0.034 A 
BRANCH  47  61
ATOM     61  C   UNL A   1      39.928  32.054  35.634  1.00  0.00     0.023 A 
ATOM     62  C   UNL A   1      40.563  33.301  35.806  1.00  0.00     0.012 A 
ATOM     63  C   UNL A   1      38.911  31.666  36.528  1.00  0.00     0.148 A 
ATOM     64  C   UNL A   1      40.211  34.136  36.865  1.00  0.00     0.002 A 
ATOM     65  C   UNL A   1      38.542  32.519  37.562  1.00  0.00     0.091 A 
ATOM     66  F   UNL A   1      38.335  30.467  36.361  1.00  0.00    -0.205 F 
ATOM     67  C   UNL A   1      39.196  33.750  37.736  1.00  0.00     0.022 A 
BRANCH  65  68
ATOM     68  S   UNL A   1      37.199  32.138  38.693  1.00  0.00     0.127 S 
ATOM     69  O   UNL A   1      37.724  32.650  39.958  1.00  0.00    -0.237 OA
ATOM     70  O   UNL A   1      36.092  32.915  38.135  1.00  0.00    -0.237 OA
ATOM     71  O   UNL A   1      37.019  30.695  38.625  1.00  0.00    -0.744 OA
ENDBRANCH  65  68
ENDBRANCH  47  61
BRANCH  48  72
ATOM     72  C   UNL A   1      42.193  26.684  27.550  1.00  0.00     0.023 A 
ATOM     73  C   UNL A   1      42.870  27.310  26.487  1.00  0.00     0.012 A 
ATOM     74  C   UNL A   1      41.889  25.311  27.457  1.00  0.00     0.148 A 
ATOM     75  C   UNL A   1      43.218  26.591  25.343  1.00  0.00     0.002 A 
ATOM     76  C   UNL A   1      42.287  24.589  26.339  1.00  0.00     0.091 A 
ATOM     77  F   UNL A   1      41.220  24.738  28.467  1.00  0.00    -0.205 F 
ATOM     78  C   UNL A   1      42.938  25.229  25.274  1.00  0.00     0.022 A 
BRANCH  76  79
ATOM     79  S   UNL A   1      42.081  22.807  26.232  1.00  0.00     0.127 S 
ATOM     80  O   UNL A   1      42.680  22.512  24.934  1.00  0.00    -0.237 OA
ATOM     81  O   UNL A   1      42.851  22.340  27.387  1.00  0.00    -0.237 OA
ATOM     82  O   UNL A   1      40.646  22.576  26.342  1.00  0.00    -0.744 OA
ENDBRANCH  76  79
ENDBRANCH  48  72
BRANCH  60  83
ATOM     83  C   UNL A   1      44.762  26.952  34.042  1.00  0.00     0.023 A 
ATOM     84  C   UNL A   1      46.066  27.475  33.943  1.00  0.00     0.012 A 
ATOM     85  C   UNL A   1      44.531  25.818  34.847  1.00  0.00     0.148 A 
ATOM     86  C   UNL A   1      47.128  26.868  34.613  1.00  0.00     0.002 A 
ATOM     87  C   UNL A   1      45.588  25.243  35.546  1.00  0.00     0.091 A 
ATOM     88  F   UNL A   1      43.288  25.320  34.914  1.00  0.00    -0.205 F 
ATOM     89  C   UNL A   1      46.887  25.761  35.423  1.00  0.00     0.022 A 
BRANCH  87  90
ATOM     90  S   UNL A   1      45.350  23.869  36.680  1.00  0.00     0.127 S 
ATOM     91  O   UNL A   1      44.728  22.870  35.812  1.00  0.00    -0.237 OA
ATOM     92  O   UNL A   1      46.721  23.555  37.085  1.00  0.00    -0.237 OA
ATOM     93  O   UNL A   1      44.510  24.382  37.753  1.00  0.00    -0.744 OA
ENDBRANCH  87  90
ENDBRANCH  60  83
ENDBRANCH  34  35
ENDBRANCH  27  29
ENDBRANCH  26  27
ENDBRANCH  25  26
ENDBRANCH  24  25
ENDBRANCH   1  24
TORSDOF 20
ENDMDL
