MODEL 1
REMARK VINA RESULT:     -10.4      0.000      0.000
REMARK SMILES C[C@@H](C(=O)OCCOCCOC(=O)c1ccc(-c2c3nc(c(-c4cccc(S(=O)(=O)[O-])c4F)c4ccc([nH]4)c(-c4cccc(S(=O)(=O)[O-])c4F)c4nc(c(-c5cccc(S(=O)(=O)[O-])c5F)c5ccc2[nH]5)C=C4)C=C3)cc1)c1cccn(C(F)F)c1=O
REMARK SMILES IDX 9 1 8 2 7 3 6 4 5 5 3 6 4 7 2 8 1 9 77 10 78 11 85 12 79 13
REMARK SMILES IDX 81 14 86 15 80 16 82 17 83 18 84 19 10 20 11 21 12 22 13 23
REMARK SMILES IDX 14 24 15 25 76 26 16 27 75 28 17 29 18 30 19 31 69 32 20 33
REMARK SMILES IDX 74 34 68 35 70 36 21 37 73 38 67 39 66 40 22 42 54 43 34 44
REMARK SMILES IDX 53 45 35 46 38 47 52 48 71 49 36 50 37 51 51 53 72 54 39 55
REMARK SMILES IDX 23 56 24 57 32 58 25 59 27 60 33 61 26 62 28 63 29 64 30 65
REMARK SMILES IDX 31 66 55 67 56 68 64 69 57 70 59 71 65 72 58 73 60 74 61 75
REMARK SMILES IDX 62 76 63 77 40 78 41 79 49 80 42 81 44 82 50 83 43 84 45 85
REMARK SMILES IDX 46 86 47 87 48 88
REMARK H PARENT 70 41 38 52
REMARK Flexibility Score: inf
ROOT
ATOM      1  C   UNL A   1      31.256  30.498  25.408  1.00  0.00     0.202 C 
ENDROOT
BRANCH   1   2
ATOM      2  O   UNL A   1      32.120  29.379  25.629  1.00  0.00    -0.374 OA
BRANCH   2   3
ATOM      3  C   UNL A   1      33.371  29.366  24.940  1.00  0.00     0.202 C 
BRANCH   3   4
ATOM      4  C   UNL A   1      33.432  28.546  23.649  1.00  0.00     0.261 C 
BRANCH   4   5
ATOM      5  O   UNL A   1      33.803  27.187  23.922  1.00  0.00    -0.463 OA
BRANCH   5   6
ATOM      6  C   UNL A   1      32.893  26.241  23.570  1.00  0.00     0.313 C 
ATOM      7  O   UNL A   1      31.748  26.191  24.010  1.00  0.00    -0.252 OA
BRANCH   6   8
ATOM      8  C   UNL A   1      33.419  25.272  22.494  1.00  0.00     0.132 C 
ATOM      9  C   UNL A   1      32.729  25.497  21.143  1.00  0.00     0.025 C 
BRANCH   8  10
ATOM     10  C   UNL A   1      33.485  23.845  23.051  1.00  0.00     0.032 A 
ATOM     11  C   UNL A   1      32.526  22.935  22.772  1.00  0.00     0.012 A 
ATOM     12  C   UNL A   1      34.575  23.402  24.002  1.00  0.00     0.259 A 
ATOM     13  C   UNL A   1      32.532  21.598  23.301  1.00  0.00     0.019 A 
ATOM     14  N   UNL A   1      34.454  22.132  24.550  1.00  0.00    -0.258 N 
ATOM     15  O   UNL A   1      35.517  24.138  24.282  1.00  0.00    -0.269 OA
ATOM     16  C   UNL A   1      33.467  21.243  24.183  1.00  0.00     0.095 A 
BRANCH  14  17
ATOM     17  C   UNL A   1      35.415  21.731  25.549  1.00  0.00     0.451 C 
ATOM     18  F   UNL A   1      35.004  22.174  26.771  1.00  0.00    -0.185 F 
ATOM     19  F   UNL A   1      35.444  20.373  25.638  1.00  0.00    -0.185 F 
ENDBRANCH  14  17
ENDBRANCH   8  10
ENDBRANCH   6   8
ENDBRANCH   5   6
ENDBRANCH   4   5
ENDBRANCH   3   4
ENDBRANCH   2   3
ENDBRANCH   1   2
BRANCH   1  20
ATOM     20  C   UNL A   1      31.467  31.738  26.288  1.00  0.00     0.261 C 
BRANCH  20  21
ATOM     21  O   UNL A   1      32.415  31.517  27.348  1.00  0.00    -0.460 OA
BRANCH  21  22
ATOM     22  C   UNL A   1      33.291  32.531  27.548  1.00  0.00     0.338 C 
ATOM     23  O   UNL A   1      33.036  33.729  27.579  1.00  0.00    -0.246 OA
BRANCH  22  24
ATOM     24  C   UNL A   1      34.615  32.005  27.925  1.00  0.00     0.060 A 
ATOM     25  C   UNL A   1      34.731  30.620  28.110  1.00  0.00     0.016 A 
ATOM     26  C   UNL A   1      35.699  32.846  28.182  1.00  0.00     0.016 A 
ATOM     27  C   UNL A   1      35.914  30.076  28.603  1.00  0.00     0.010 A 
ATOM     28  C   UNL A   1      36.885  32.298  28.686  1.00  0.00     0.010 A 
ATOM     29  C   UNL A   1      36.984  30.917  28.935  1.00  0.00    -0.014 A 
BRANCH  29  30
ATOM     30  C   UNL A   1      38.146  30.361  29.672  1.00  0.00     0.031 A 
ATOM     31  C   UNL A   1      38.395  30.803  31.089  1.00  0.00     0.074 A 
ATOM     32  C   UNL A   1      38.962  29.461  29.094  1.00  0.00     0.049 A 
ATOM     33  N   UNL A   1      39.348  30.450  31.912  1.00  0.00    -0.248 NA
ATOM     34  C   UNL A   1      37.443  31.774  31.654  1.00  0.00     0.031 C 
ATOM     35  C   UNL A   1      38.826  28.953  27.730  1.00  0.00     0.029 A 
ATOM     36  N   UNL A   1      40.081  28.833  29.579  1.00  0.00    -0.354 N 
ATOM     37  C   UNL A   1      39.127  31.167  33.081  1.00  0.00     0.074 A 
ATOM     38  C   UNL A   1      37.958  31.990  32.856  1.00  0.00     0.031 C 
ATOM     39  C   UNL A   1      39.842  28.112  27.476  1.00  0.00     0.029 A 
ATOM     40  C   UNL A   1      40.710  28.038  28.650  1.00  0.00     0.049 A 
ATOM     41  H   UNL A   1      40.404  28.941  30.503  1.00  0.00     0.167 HD
ATOM     42  C   UNL A   1      39.821  31.131  34.243  1.00  0.00     0.034 A 
ATOM     43  C   UNL A   1      41.864  27.345  28.732  1.00  0.00     0.034 A 
ATOM     44  C   UNL A   1      40.971  30.301  34.473  1.00  0.00     0.049 A 
ATOM     45  C   UNL A   1      42.629  27.336  30.029  1.00  0.00     0.074 A 
ATOM     46  C   UNL A   1      41.716  30.163  35.632  1.00  0.00     0.029 A 
ATOM     47  N   UNL A   1      41.552  29.474  33.524  1.00  0.00    -0.354 N 
ATOM     48  N   UNL A   1      42.337  27.924  31.165  1.00  0.00    -0.248 NA
ATOM     49  C   UNL A   1      43.866  26.540  30.069  1.00  0.00     0.031 C 
ATOM     50  C   UNL A   1      42.760  29.268  35.376  1.00  0.00     0.029 A 
ATOM     51  C   UNL A   1      42.652  28.830  34.066  1.00  0.00     0.049 A 
ATOM     52  H   UNL A   1      41.230  29.360  32.601  1.00  0.00     0.167 HD
ATOM     53  C   UNL A   1      43.332  27.544  32.061  1.00  0.00     0.074 A 
ATOM     54  C   UNL A   1      44.223  26.658  31.341  1.00  0.00     0.031 C 
ATOM     55  C   UNL A   1      43.500  27.907  33.355  1.00  0.00     0.034 A 
BRANCH  42  56
ATOM     56  C   UNL A   1      39.330  31.998  35.374  1.00  0.00     0.023 A 
ATOM     57  C   UNL A   1      38.393  31.478  36.290  1.00  0.00     0.012 A 
ATOM     58  C   UNL A   1      39.831  33.300  35.561  1.00  0.00     0.148 A 
ATOM     59  C   UNL A   1      37.940  32.252  37.357  1.00  0.00     0.002 A 
ATOM     60  C   UNL A   1      39.405  34.051  36.651  1.00  0.00     0.091 A 
ATOM     61  F   UNL A   1      40.703  33.786  34.665  1.00  0.00    -0.205 F 
ATOM     62  C   UNL A   1      38.453  33.533  37.544  1.00  0.00     0.022 A 
BRANCH  60  63
ATOM     63  S   UNL A   1      40.062  35.683  37.016  1.00  0.00     0.127 S 
ATOM     64  O   UNL A   1      41.491  35.401  37.152  1.00  0.00    -0.237 OA
ATOM     65  O   UNL A   1      39.703  36.437  35.815  1.00  0.00    -0.237 OA
ATOM     66  O   UNL A   1      39.392  36.122  38.231  1.00  0.00    -0.744 OA
ENDBRANCH  60  63
ENDBRANCH  42  56
BRANCH  43  67
ATOM     67  C   UNL A   1      42.348  26.571  27.554  1.00  0.00     0.023 A 
ATOM     68  C   UNL A   1      43.124  27.211  26.569  1.00  0.00     0.012 A 
ATOM     69  C   UNL A   1      42.063  25.197  27.419  1.00  0.00     0.148 A 
ATOM     70  C   UNL A   1      43.586  26.505  25.457  1.00  0.00     0.002 A 
ATOM     71  C   UNL A   1      42.572  24.488  26.338  1.00  0.00     0.091 A 
ATOM     72  F   UNL A   1      41.305  24.611  28.357  1.00  0.00    -0.205 F 
ATOM     73  C   UNL A   1      43.319  25.142  25.348  1.00  0.00     0.022 A 
BRANCH  71  74
ATOM     74  S   UNL A   1      42.390  22.707  26.188  1.00  0.00     0.127 S 
ATOM     75  O   UNL A   1      43.104  22.232  27.369  1.00  0.00    -0.237 OA
ATOM     76  O   UNL A   1      40.936  22.546  26.238  1.00  0.00    -0.237 OA
ATOM     77  O   UNL A   1      42.985  22.359  24.904  1.00  0.00    -0.744 OA
ENDBRANCH  71  74
ENDBRANCH  43  67
BRANCH  55  78
ATOM     78  C   UNL A   1      44.674  27.328  34.101  1.00  0.00     0.023 A 
ATOM     79  C   UNL A   1      45.905  28.014  34.109  1.00  0.00     0.012 A 
ATOM     80  C   UNL A   1      44.537  26.147  34.859  1.00  0.00     0.148 A 
ATOM     81  C   UNL A   1      46.988  27.518  34.834  1.00  0.00     0.002 A 
ATOM     82  C   UNL A   1      45.606  25.684  35.617  1.00  0.00     0.091 A 
ATOM     83  F   UNL A   1      43.363  25.498  34.825  1.00  0.00    -0.205 F 
ATOM     84  C   UNL A   1      46.836  26.362  35.597  1.00  0.00     0.022 A 
BRANCH  82  85
ATOM     85  S   UNL A   1      45.472  24.258  36.700  1.00  0.00     0.127 S 
ATOM     86  O   UNL A   1      45.026  23.219  35.774  1.00  0.00    -0.237 OA
ATOM     87  O   UNL A   1      46.846  24.099  37.179  1.00  0.00    -0.237 OA
ATOM     88  O   UNL A   1      44.515  24.630  37.734  1.00  0.00    -0.744 OA
ENDBRANCH  82  85
ENDBRANCH  55  78
ENDBRANCH  29  30
ENDBRANCH  22  24
ENDBRANCH  21  22
ENDBRANCH  20  21
ENDBRANCH   1  20
TORSDOF 19
ENDMDL
MODEL 2
REMARK VINA RESULT:     -10.3      5.105      8.152
REMARK SMILES C[C@@H](C(=O)OCCOCCOC(=O)c1ccc(-c2c3nc(c(-c4cccc(S(=O)(=O)[O-])c4F)c4ccc([nH]4)c(-c4cccc(S(=O)(=O)[O-])c4F)c4nc(c(-c5cccc(S(=O)(=O)[O-])c5F)c5ccc2[nH]5)C=C4)C=C3)cc1)c1cccn(C(F)F)c1=O
REMARK SMILES IDX 9 1 8 2 7 3 6 4 5 5 3 6 4 7 2 8 1 9 77 10 78 11 85 12 79 13
REMARK SMILES IDX 81 14 86 15 80 16 82 17 83 18 84 19 10 20 11 21 12 22 13 23
REMARK SMILES IDX 14 24 15 25 76 26 16 27 75 28 17 29 18 30 19 31 69 32 20 33
REMARK SMILES IDX 74 34 68 35 70 36 21 37 73 38 67 39 66 40 22 42 54 43 34 44
REMARK SMILES IDX 53 45 35 46 38 47 52 48 71 49 36 50 37 51 51 53 72 54 39 55
REMARK SMILES IDX 23 56 24 57 32 58 25 59 27 60 33 61 26 62 28 63 29 64 30 65
REMARK SMILES IDX 31 66 55 67 56 68 64 69 57 70 59 71 65 72 58 73 60 74 61 75
REMARK SMILES IDX 62 76 63 77 40 78 41 79 49 80 42 81 44 82 50 83 43 84 45 85
REMARK SMILES IDX 46 86 47 87 48 88
REMARK H PARENT 70 41 38 52
REMARK Flexibility Score: inf
ROOT
ATOM      1  C   UNL A   1      35.630  21.048  25.326  1.00  0.00     0.202 C 
ENDROOT
BRANCH   1   2
ATOM      2  O   UNL A   1      34.455  20.615  24.636  1.00  0.00    -0.374 OA
BRANCH   2   3
ATOM      3  C   UNL A   1      33.466  21.600  24.334  1.00  0.00     0.202 C 
BRANCH   3   4
ATOM      4  C   UNL A   1      33.981  22.969  23.884  1.00  0.00     0.261 C 
BRANCH   4   5
ATOM      5  O   UNL A   1      33.179  24.025  24.434  1.00  0.00    -0.463 OA
BRANCH   5   6
ATOM      6  C   UNL A   1      33.165  24.115  25.790  1.00  0.00     0.313 C 
ATOM      7  O   UNL A   1      34.162  23.999  26.497  1.00  0.00    -0.252 OA
BRANCH   6   8
ATOM      8  C   UNL A   1      31.773  24.460  26.355  1.00  0.00     0.132 C 
ATOM      9  C   UNL A   1      30.913  23.205  26.549  1.00  0.00     0.025 C 
BRANCH   8  10
ATOM     10  C   UNL A   1      31.171  25.647  25.593  1.00  0.00     0.032 A 
ATOM     11  C   UNL A   1      30.234  25.468  24.637  1.00  0.00     0.012 A 
ATOM     12  C   UNL A   1      31.646  27.068  25.812  1.00  0.00     0.259 A 
ATOM     13  C   UNL A   1      29.670  26.549  23.876  1.00  0.00     0.019 A 
ATOM     14  N   UNL A   1      31.127  28.040  24.968  1.00  0.00    -0.258 N 
ATOM     15  O   UNL A   1      32.459  27.342  26.690  1.00  0.00    -0.269 OA
ATOM     16  C   UNL A   1      30.141  27.786  24.040  1.00  0.00     0.095 A 
BRANCH  14  17
ATOM     17  C   UNL A   1      31.651  29.381  25.077  1.00  0.00     0.451 C 
ATOM     18  F   UNL A   1      32.719  29.515  24.241  1.00  0.00    -0.185 F 
ATOM     19  F   UNL A   1      30.722  30.273  24.637  1.00  0.00    -0.185 F 
ENDBRANCH  14  17
ENDBRANCH   8  10
ENDBRANCH   6   8
ENDBRANCH   5   6
ENDBRANCH   4   5
ENDBRANCH   3   4
ENDBRANCH   2   3
ENDBRANCH   1   2
BRANCH   1  20
ATOM     20  C   UNL A   1      36.925  20.259  25.081  1.00  0.00     0.261 C 
BRANCH  20  21
ATOM     21  O   UNL A   1      38.085  21.105  24.988  1.00  0.00    -0.460 OA
BRANCH  21  22
ATOM     22  C   UNL A   1      39.065  20.826  25.882  1.00  0.00     0.338 C 
ATOM     23  O   UNL A   1      39.596  19.739  26.077  1.00  0.00    -0.246 OA
BRANCH  22  24
ATOM     24  C   UNL A   1      39.575  22.066  26.493  1.00  0.00     0.060 A 
ATOM     25  C   UNL A   1      39.008  23.276  26.070  1.00  0.00     0.016 A 
ATOM     26  C   UNL A   1      40.644  22.062  27.392  1.00  0.00     0.016 A 
ATOM     27  C   UNL A   1      39.542  24.488  26.502  1.00  0.00     0.010 A 
ATOM     28  C   UNL A   1      41.184  23.281  27.818  1.00  0.00     0.010 A 
ATOM     29  C   UNL A   1      40.661  24.498  27.345  1.00  0.00    -0.014 A 
BRANCH  29  30
ATOM     30  C   UNL A   1      41.361  25.779  27.611  1.00  0.00     0.031 A 
ATOM     31  C   UNL A   1      40.632  26.876  28.338  1.00  0.00     0.074 A 
ATOM     32  C   UNL A   1      42.638  25.959  27.225  1.00  0.00     0.049 A 
ATOM     33  N   UNL A   1      41.050  28.070  28.669  1.00  0.00    -0.248 NA
ATOM     34  C   UNL A   1      39.246  26.590  28.744  1.00  0.00     0.031 C 
ATOM     35  C   UNL A   1      43.452  24.973  26.516  1.00  0.00     0.029 A 
ATOM     36  N   UNL A   1      43.464  27.047  27.358  1.00  0.00    -0.354 N 
ATOM     37  C   UNL A   1      39.977  28.687  29.302  1.00  0.00     0.074 A 
ATOM     38  C   UNL A   1      38.882  27.739  29.294  1.00  0.00     0.031 C 
ATOM     39  C   UNL A   1      44.652  25.513  26.248  1.00  0.00     0.029 A 
ATOM     40  C   UNL A   1      44.685  26.886  26.749  1.00  0.00     0.049 A 
ATOM     41  H   UNL A   1      43.206  27.865  27.841  1.00  0.00     0.167 HD
ATOM     42  C   UNL A   1      39.913  29.920  29.857  1.00  0.00     0.034 A 
ATOM     43  C   UNL A   1      45.706  27.754  26.596  1.00  0.00     0.034 A 
ATOM     44  C   UNL A   1      41.005  30.853  29.881  1.00  0.00     0.049 A 
ATOM     45  C   UNL A   1      45.604  29.128  27.205  1.00  0.00     0.074 A 
ATOM     46  C   UNL A   1      41.051  32.111  30.459  1.00  0.00     0.029 A 
ATOM     47  N   UNL A   1      42.243  30.638  29.295  1.00  0.00    -0.354 N 
ATOM     48  N   UNL A   1      44.627  29.650  27.908  1.00  0.00    -0.248 NA
ATOM     49  C   UNL A   1      46.759  30.022  27.031  1.00  0.00     0.031 C 
ATOM     50  C   UNL A   1      42.310  32.664  30.202  1.00  0.00     0.029 A 
ATOM     51  C   UNL A   1      43.057  31.742  29.487  1.00  0.00     0.049 A 
ATOM     52  H   UNL A   1      42.506  29.820  28.814  1.00  0.00     0.167 HD
ATOM     53  C   UNL A   1      45.061  30.916  28.286  1.00  0.00     0.074 A 
ATOM     54  C   UNL A   1      46.398  31.075  27.753  1.00  0.00     0.031 C 
ATOM     55  C   UNL A   1      44.407  31.866  28.998  1.00  0.00     0.034 A 
BRANCH  42  56
ATOM     56  C   UNL A   1      38.619  30.319  30.517  1.00  0.00     0.023 A 
ATOM     57  C   UNL A   1      38.383  29.956  31.858  1.00  0.00     0.012 A 
ATOM     58  C   UNL A   1      37.664  31.096  29.833  1.00  0.00     0.148 A 
ATOM     59  C   UNL A   1      37.204  30.332  32.499  1.00  0.00     0.002 A 
ATOM     60  C   UNL A   1      36.509  31.502  30.491  1.00  0.00     0.091 A 
ATOM     61  F   UNL A   1      37.896  31.412  28.550  1.00  0.00    -0.205 F 
ATOM     62  C   UNL A   1      36.272  31.114  31.820  1.00  0.00     0.022 A 
BRANCH  60  63
ATOM     63  S   UNL A   1      35.285  32.570  29.724  1.00  0.00     0.127 S 
ATOM     64  O   UNL A   1      36.065  33.782  29.476  1.00  0.00    -0.237 OA
ATOM     65  O   UNL A   1      34.930  31.819  28.519  1.00  0.00    -0.237 OA
ATOM     66  O   UNL A   1      34.208  32.706  30.693  1.00  0.00    -0.744 OA
ENDBRANCH  60  63
ENDBRANCH  42  56
BRANCH  43  67
ATOM     67  C   UNL A   1      46.932  27.334  25.860  1.00  0.00     0.023 A 
ATOM     68  C   UNL A   1      47.041  27.595  24.481  1.00  0.00     0.012 A 
ATOM     69  C   UNL A   1      47.999  26.699  26.526  1.00  0.00     0.148 A 
ATOM     70  C   UNL A   1      48.181  27.208  23.772  1.00  0.00     0.002 A 
ATOM     71  C   UNL A   1      49.152  26.365  25.827  1.00  0.00     0.091 A 
ATOM     72  F   UNL A   1      47.866  26.440  27.835  1.00  0.00    -0.205 F 
ATOM     73  C   UNL A   1      49.239  26.604  24.447  1.00  0.00     0.022 A 
BRANCH  71  74
ATOM     74  S   UNL A   1      50.612  25.707  26.640  1.00  0.00     0.127 S 
ATOM     75  O   UNL A   1      51.545  25.578  25.524  1.00  0.00    -0.237 OA
ATOM     76  O   UNL A   1      50.933  26.770  27.593  1.00  0.00    -0.237 OA
ATOM     77  O   UNL A   1      50.187  24.458  27.259  1.00  0.00    -0.744 OA
ENDBRANCH  71  74
ENDBRANCH  43  67
BRANCH  55  78
ATOM     78  C   UNL A   1      45.130  33.159  29.275  1.00  0.00     0.023 A 
ATOM     79  C   UNL A   1      45.942  33.274  30.421  1.00  0.00     0.012 A 
ATOM     80  C   UNL A   1      45.069  34.230  28.361  1.00  0.00     0.148 A 
ATOM     81  C   UNL A   1      46.658  34.445  30.668  1.00  0.00     0.002 A 
ATOM     82  C   UNL A   1      45.822  35.376  28.590  1.00  0.00     0.091 A 
ATOM     83  F   UNL A   1      44.276  34.110  27.286  1.00  0.00    -0.205 F 
ATOM     84  C   UNL A   1      46.608  35.490  29.748  1.00  0.00     0.022 A 
BRANCH  82  85
ATOM     85  S   UNL A   1      45.891  36.732  27.414  1.00  0.00     0.127 S 
ATOM     86  O   UNL A   1      46.989  37.536  27.948  1.00  0.00    -0.237 OA
ATOM     87  O   UNL A   1      46.195  36.043  26.160  1.00  0.00    -0.237 OA
ATOM     88  O   UNL A   1      44.578  37.362  27.451  1.00  0.00    -0.744 OA
ENDBRANCH  82  85
ENDBRANCH  55  78
ENDBRANCH  29  30
ENDBRANCH  22  24
ENDBRANCH  21  22
ENDBRANCH  20  21
ENDBRANCH   1  20
TORSDOF 19
ENDMDL
MODEL 3
REMARK VINA RESULT:     -10.2      5.224     10.477
REMARK SMILES C[C@@H](C(=O)OCCOCCOC(=O)c1ccc(-c2c3nc(c(-c4cccc(S(=O)(=O)[O-])c4F)c4ccc([nH]4)c(-c4cccc(S(=O)(=O)[O-])c4F)c4nc(c(-c5cccc(S(=O)(=O)[O-])c5F)c5ccc2[nH]5)C=C4)C=C3)cc1)c1cccn(C(F)F)c1=O
REMARK SMILES IDX 9 1 8 2 7 3 6 4 5 5 3 6 4 7 2 8 1 9 77 10 78 11 85 12 79 13
REMARK SMILES IDX 81 14 86 15 80 16 82 17 83 18 84 19 10 20 11 21 12 22 13 23
REMARK SMILES IDX 14 24 15 25 76 26 16 27 75 28 17 29 18 30 19 31 69 32 20 33
REMARK SMILES IDX 74 34 68 35 70 36 21 37 73 38 67 39 66 40 22 42 54 43 34 44
REMARK SMILES IDX 53 45 35 46 38 47 52 48 71 49 36 50 37 51 51 53 72 54 39 55
REMARK SMILES IDX 23 56 24 57 32 58 25 59 27 60 33 61 26 62 28 63 29 64 30 65
REMARK SMILES IDX 31 66 55 67 56 68 64 69 57 70 59 71 65 72 58 73 60 74 61 75
REMARK SMILES IDX 62 76 63 77 40 78 41 79 49 80 42 81 44 82 50 83 43 84 45 85
REMARK SMILES IDX 46 86 47 87 48 88
REMARK H PARENT 70 41 38 52
REMARK Flexibility Score: inf
ROOT
ATOM      1  C   UNL A   1      35.949  20.490  25.024  1.00  0.00     0.202 C 
ENDROOT
BRANCH   1   2
ATOM      2  O   UNL A   1      34.952  19.532  24.657  1.00  0.00    -0.374 OA
BRANCH   2   3
ATOM      3  C   UNL A   1      33.617  19.763  25.108  1.00  0.00     0.202 C 
BRANCH   3   4
ATOM      4  C   UNL A   1      33.378  21.046  25.906  1.00  0.00     0.261 C 
BRANCH   4   5
ATOM      5  O   UNL A   1      33.158  22.162  25.030  1.00  0.00    -0.463 OA
BRANCH   5   6
ATOM      6  C   UNL A   1      33.333  23.392  25.580  1.00  0.00     0.313 C 
ATOM      7  O   UNL A   1      34.401  23.800  26.025  1.00  0.00    -0.252 OA
BRANCH   6   8
ATOM      8  C   UNL A   1      32.063  24.264  25.519  1.00  0.00     0.132 C 
ATOM      9  C   UNL A   1      31.005  23.658  24.588  1.00  0.00     0.025 C 
BRANCH   8  10
ATOM     10  C   UNL A   1      32.441  25.739  25.332  1.00  0.00     0.032 A 
ATOM     11  C   UNL A   1      32.295  26.634  26.333  1.00  0.00     0.012 A 
ATOM     12  C   UNL A   1      32.921  26.284  24.005  1.00  0.00     0.259 A 
ATOM     13  C   UNL A   1      32.605  28.031  26.189  1.00  0.00     0.019 A 
ATOM     14  N   UNL A   1      33.100  27.658  23.918  1.00  0.00    -0.258 N 
ATOM     15  O   UNL A   1      33.131  25.545  23.048  1.00  0.00    -0.269 OA
ATOM     16  C   UNL A   1      32.970  28.505  24.998  1.00  0.00     0.095 A 
BRANCH  14  17
ATOM     17  C   UNL A   1      33.441  28.217  22.632  1.00  0.00     0.451 C 
ATOM     18  F   UNL A   1      32.657  29.306  22.393  1.00  0.00    -0.185 F 
ATOM     19  F   UNL A   1      34.720  28.681  22.658  1.00  0.00    -0.185 F 
ENDBRANCH  14  17
ENDBRANCH   8  10
ENDBRANCH   6   8
ENDBRANCH   5   6
ENDBRANCH   4   5
ENDBRANCH   3   4
ENDBRANCH   2   3
ENDBRANCH   1   2
BRANCH   1  20
ATOM     20  C   UNL A   1      37.409  20.015  25.053  1.00  0.00     0.261 C 
BRANCH  20  21
ATOM     21  O   UNL A   1      38.348  21.100  25.159  1.00  0.00    -0.460 OA
BRANCH  21  22
ATOM     22  C   UNL A   1      39.356  20.897  26.041  1.00  0.00     0.338 C 
ATOM     23  O   UNL A   1      39.981  19.858  26.217  1.00  0.00    -0.246 OA
BRANCH  22  24
ATOM     24  C   UNL A   1      39.761  22.168  26.667  1.00  0.00     0.060 A 
ATOM     25  C   UNL A   1      39.138  23.339  26.213  1.00  0.00     0.016 A 
ATOM     26  C   UNL A   1      40.787  22.233  27.611  1.00  0.00     0.016 A 
ATOM     27  C   UNL A   1      39.577  24.583  26.660  1.00  0.00     0.010 A 
ATOM     28  C   UNL A   1      41.231  23.485  28.053  1.00  0.00     0.010 A 
ATOM     29  C   UNL A   1      40.655  24.665  27.551  1.00  0.00    -0.014 A 
BRANCH  29  30
ATOM     30  C   UNL A   1      41.262  25.988  27.840  1.00  0.00     0.031 A 
ATOM     31  C   UNL A   1      42.656  26.277  27.354  1.00  0.00     0.074 A 
ATOM     32  C   UNL A   1      40.574  26.929  28.513  1.00  0.00     0.049 A 
ATOM     33  N   UNL A   1      43.376  27.359  27.498  1.00  0.00    -0.248 NA
ATOM     34  C   UNL A   1      43.330  25.201  26.607  1.00  0.00     0.031 C 
ATOM     35  C   UNL A   1      39.217  26.772  29.034  1.00  0.00     0.029 A 
ATOM     36  N   UNL A   1      40.937  28.197  28.892  1.00  0.00    -0.354 N 
ATOM     37  C   UNL A   1      44.593  27.091  26.882  1.00  0.00     0.074 A 
ATOM     38  C   UNL A   1      44.520  25.737  26.376  1.00  0.00     0.031 C 
ATOM     39  C   UNL A   1      38.872  27.891  29.692  1.00  0.00     0.029 A 
ATOM     40  C   UNL A   1      39.989  28.834  29.656  1.00  0.00     0.049 A 
ATOM     41  H   UNL A   1      41.794  28.611  28.642  1.00  0.00     0.167 HD
ATOM     42  C   UNL A   1      45.666  27.904  26.733  1.00  0.00     0.034 A 
ATOM     43  C   UNL A   1      40.024  30.033  30.272  1.00  0.00     0.034 A 
ATOM     44  C   UNL A   1      45.731  29.255  27.219  1.00  0.00     0.049 A 
ATOM     45  C   UNL A   1      41.237  30.911  30.108  1.00  0.00     0.074 A 
ATOM     46  C   UNL A   1      46.759  30.172  27.078  1.00  0.00     0.029 A 
ATOM     47  N   UNL A   1      44.733  29.882  27.948  1.00  0.00    -0.354 N 
ATOM     48  N   UNL A   1      42.330  30.690  29.417  1.00  0.00    -0.248 NA
ATOM     49  C   UNL A   1      41.209  32.220  30.779  1.00  0.00     0.031 C 
ATOM     50  C   UNL A   1      46.390  31.346  27.742  1.00  0.00     0.029 A 
ATOM     51  C   UNL A   1      45.123  31.171  28.274  1.00  0.00     0.049 A 
ATOM     52  H   UNL A   1      43.873  29.472  28.197  1.00  0.00     0.167 HD
ATOM     53  C   UNL A   1      43.103  31.840  29.543  1.00  0.00     0.074 A 
ATOM     54  C   UNL A   1      42.343  32.765  30.358  1.00  0.00     0.031 C 
ATOM     55  C   UNL A   1      44.334  32.101  29.041  1.00  0.00     0.034 A 
BRANCH  42  56
ATOM     56  C   UNL A   1      46.851  27.359  25.980  1.00  0.00     0.023 A 
ATOM     57  C   UNL A   1      47.706  26.432  26.610  1.00  0.00     0.012 A 
ATOM     58  C   UNL A   1      47.088  27.719  24.639  1.00  0.00     0.148 A 
ATOM     59  C   UNL A   1      48.797  25.895  25.928  1.00  0.00     0.002 A 
ATOM     60  C   UNL A   1      48.154  27.149  23.952  1.00  0.00     0.091 A 
ATOM     61  F   UNL A   1      46.278  28.620  24.065  1.00  0.00    -0.205 F 
ATOM     62  C   UNL A   1      49.015  26.245  24.597  1.00  0.00     0.022 A 
BRANCH  60  63
ATOM     63  S   UNL A   1      48.473  27.480  22.216  1.00  0.00     0.127 S 
ATOM     64  O   UNL A   1      48.669  26.131  21.689  1.00  0.00    -0.237 OA
ATOM     65  O   UNL A   1      47.230  28.125  21.791  1.00  0.00    -0.237 OA
ATOM     66  O   UNL A   1      49.645  28.343  22.182  1.00  0.00    -0.744 OA
ENDBRANCH  60  63
ENDBRANCH  42  56
BRANCH  43  67
ATOM     67  C   UNL A   1      38.854  30.488  31.075  1.00  0.00     0.023 A 
ATOM     68  C   UNL A   1      38.826  30.251  32.463  1.00  0.00     0.012 A 
ATOM     69  C   UNL A   1      37.782  31.176  30.473  1.00  0.00     0.148 A 
ATOM     70  C   UNL A   1      37.739  30.668  33.233  1.00  0.00     0.002 A 
ATOM     71  C   UNL A   1      36.729  31.636  31.254  1.00  0.00     0.091 A 
ATOM     72  F   UNL A   1      37.818  31.374  29.148  1.00  0.00    -0.205 F 
ATOM     73  C   UNL A   1      36.697  31.369  32.631  1.00  0.00     0.022 A 
BRANCH  71  74
ATOM     74  S   UNL A   1      35.414  32.661  30.586  1.00  0.00     0.127 S 
ATOM     75  O   UNL A   1      36.067  33.964  30.494  1.00  0.00    -0.237 OA
ATOM     76  O   UNL A   1      35.147  32.012  29.302  1.00  0.00    -0.237 OA
ATOM     77  O   UNL A   1      34.318  32.567  31.542  1.00  0.00    -0.744 OA
ENDBRANCH  71  74
ENDBRANCH  43  67
BRANCH  55  78
ATOM     78  C   UNL A   1      44.938  33.452  29.327  1.00  0.00     0.023 A 
ATOM     79  C   UNL A   1      45.730  33.634  30.478  1.00  0.00     0.012 A 
ATOM     80  C   UNL A   1      44.787  34.517  28.417  1.00  0.00     0.148 A 
ATOM     81  C   UNL A   1      46.338  34.863  30.733  1.00  0.00     0.002 A 
ATOM     82  C   UNL A   1      45.433  35.725  28.654  1.00  0.00     0.091 A 
ATOM     83  F   UNL A   1      44.014  34.331  27.336  1.00  0.00    -0.205 F 
ATOM     84  C   UNL A   1      46.200  35.904  29.817  1.00  0.00     0.022 A 
BRANCH  82  85
ATOM     85  S   UNL A   1      45.388  37.087  27.483  1.00  0.00     0.127 S 
ATOM     86  O   UNL A   1      46.083  36.515  26.332  1.00  0.00    -0.237 OA
ATOM     87  O   UNL A   1      43.951  37.285  27.291  1.00  0.00    -0.237 OA
ATOM     88  O   UNL A   1      46.067  38.198  28.136  1.00  0.00    -0.744 OA
ENDBRANCH  82  85
ENDBRANCH  55  78
ENDBRANCH  29  30
ENDBRANCH  22  24
ENDBRANCH  21  22
ENDBRANCH  20  21
ENDBRANCH   1  20
TORSDOF 19
ENDMDL
