MODEL 1
REMARK VINA RESULT:     -11.7      0.000      0.000
REMARK SMILES COc1cc(CNc2ccc(N3CCOCC3)c(C(=O)OCCOCCOC(=O)c3ccc(-c4c5nc(c(-c6cccc(S(=O)(=O)[O-])c6F)c6ccc([nH]6)c(-c6cccc(S(=O)(=O)[O-])c6F)c6nc(c(-c7cccc(S(=O)(=O)[O-])c7F)c7ccc4[nH]7)C=C6)C=C5)cc3)c2)cc(Br)c1OC
REMARK SMILES IDX 23 1 22 2 21 3 19 4 20 5 18 6 8 7 9 8 93 9 10 10 11 11 7 12
REMARK SMILES IDX 6 14 5 15 3 16 4 17 97 18 95 19 94 20 96 21 2 22 1 23 98 24
REMARK SMILES IDX 99 25 12 26 13 27 17 28 14 29 16 30 15 31 24 32 25 33 26 34
REMARK SMILES IDX 27 35 28 36 29 37 30 38 31 39 92 40 32 41 91 42 33 43 34 44
REMARK SMILES IDX 35 45 85 46 36 47 90 48 84 49 86 50 37 51 89 52 83 53 82 54
REMARK SMILES IDX 38 56 70 57 50 58 69 59 51 60 54 61 68 62 87 63 52 64 53 65
REMARK SMILES IDX 67 67 88 68 55 69 39 70 40 71 48 72 41 73 43 74 49 75 42 76
REMARK SMILES IDX 44 77 45 78 46 79 47 80 71 81 72 82 80 83 73 84 75 85 81 86
REMARK SMILES IDX 74 87 76 88 77 89 78 90 79 91 56 92 57 93 65 94 58 95 60 96
REMARK SMILES IDX 66 97 59 98 61 99 62 100 63 101 64 102
REMARK H PARENT 7 13 86 55 54 66
REMARK Flexibility Score: inf
ROOT
ATOM      1  C   UNL A   1      37.482  22.338  25.033  1.00  0.00     0.202 C 
ENDROOT
BRANCH   1   2
ATOM      2  C   UNL A   1      35.991  22.420  25.368  1.00  0.00     0.261 C 
BRANCH   2   3
ATOM      3  O   UNL A   1      35.515  21.145  25.823  1.00  0.00    -0.460 OA
BRANCH   3   4
ATOM      4  C   UNL A   1      34.217  21.104  26.209  1.00  0.00     0.340 C 
ATOM      5  O   UNL A   1      33.799  21.113  27.357  1.00  0.00    -0.246 OA
BRANCH   4   6
ATOM      6  C   UNL A   1      33.367  21.103  25.001  1.00  0.00     0.085 A 
ATOM      7  C   UNL A   1      32.172  22.469  23.368  1.00  0.00     0.035 A 
ATOM      8  C   UNL A   1      31.899  21.293  22.662  1.00  0.00     0.028 A 
ATOM      9  C   UNL A   1      32.901  22.351  24.547  1.00  0.00     0.043 A 
ATOM     10  C   UNL A   1      32.334  20.041  23.124  1.00  0.00     0.029 A 
ATOM     11  C   UNL A   1      33.073  19.915  24.305  1.00  0.00     0.052 A 
BRANCH   7  12
ATOM     12  N   UNL A   1      31.780  23.681  22.843  1.00  0.00    -0.381 N 
ATOM     13  H   UNL A   1      32.396  24.130  22.221  1.00  0.00     0.160 HD
BRANCH  12  14
ATOM     14  C   UNL A   1      30.517  24.346  23.144  1.00  0.00     0.149 C 
BRANCH  14  15
ATOM     15  C   UNL A   1      30.814  25.752  23.609  1.00  0.00    -0.024 A 
ATOM     16  C   UNL A   1      30.201  28.097  23.731  1.00  0.00     0.162 A 
ATOM     17  C   UNL A   1      29.958  26.802  23.267  1.00  0.00     0.056 A 
ATOM     18  C   UNL A   1      31.345  28.399  24.508  1.00  0.00     0.174 A 
ATOM     19  C   UNL A   1      32.224  27.347  24.817  1.00  0.00     0.064 A 
ATOM     20  C   UNL A   1      31.954  26.040  24.363  1.00  0.00     0.025 A 
ATOM     21  Br  UNL A   1      33.788  27.462  25.897  1.00  0.00    -0.047 Br
BRANCH  16  22
ATOM     22  O   UNL A   1      29.364  29.137  23.383  1.00  0.00    -0.493 OA
ATOM     23  C   UNL A   1      29.639  29.685  22.098  1.00  0.00     0.278 C 
ENDBRANCH  16  22
BRANCH  18  24
ATOM     24  O   UNL A   1      31.376  29.710  24.905  1.00  0.00    -0.492 OA
ATOM     25  C   UNL A   1      31.780  30.069  26.211  1.00  0.00     0.278 C 
ENDBRANCH  18  24
ENDBRANCH  14  15
ENDBRANCH  12  14
ENDBRANCH   7  12
BRANCH  11  26
ATOM     26  N   UNL A   1      33.438  18.659  24.727  1.00  0.00    -0.366 N 
ATOM     27  C   UNL A   1      34.612  17.967  24.206  1.00  0.00     0.145 C 
ATOM     28  C   UNL A   1      32.664  17.926  25.729  1.00  0.00     0.145 C 
ATOM     29  C   UNL A   1      34.189  16.574  23.713  1.00  0.00     0.181 C 
ATOM     30  C   UNL A   1      32.400  16.483  25.253  1.00  0.00     0.181 C 
ATOM     31  O   UNL A   1      33.599  15.824  24.794  1.00  0.00    -0.378 OA
ENDBRANCH  11  26
ENDBRANCH   4   6
ENDBRANCH   3   4
ENDBRANCH   2   3
ENDBRANCH   1   2
BRANCH   1  32
ATOM     32  O   UNL A   1      38.279  21.405  25.769  1.00  0.00    -0.374 OA
BRANCH  32  33
ATOM     33  C   UNL A   1      38.655  20.199  25.113  1.00  0.00     0.202 C 
BRANCH  33  34
ATOM     34  C   UNL A   1      39.633  19.233  25.792  1.00  0.00     0.261 C 
BRANCH  34  35
ATOM     35  O   UNL A   1      41.006  19.543  25.570  1.00  0.00    -0.460 OA
BRANCH  35  36
ATOM     36  C   UNL A   1      41.715  19.734  26.708  1.00  0.00     0.338 C 
ATOM     37  O   UNL A   1      42.286  18.892  27.384  1.00  0.00    -0.246 OA
BRANCH  36  38
ATOM     38  C   UNL A   1      41.854  21.181  26.920  1.00  0.00     0.060 A 
ATOM     39  C   UNL A   1      41.799  22.014  25.796  1.00  0.00     0.016 A 
ATOM     40  C   UNL A   1      42.019  21.704  28.203  1.00  0.00     0.016 A 
ATOM     41  C   UNL A   1      41.925  23.389  25.951  1.00  0.00     0.010 A 
ATOM     42  C   UNL A   1      42.162  23.081  28.353  1.00  0.00     0.010 A 
ATOM     43  C   UNL A   1      42.136  23.922  27.228  1.00  0.00    -0.014 A 
BRANCH  43  44
ATOM     44  C   UNL A   1      42.456  25.355  27.384  1.00  0.00     0.031 A 
ATOM     45  C   UNL A   1      43.805  25.840  26.947  1.00  0.00     0.074 A 
ATOM     46  C   UNL A   1      41.570  26.188  27.953  1.00  0.00     0.049 A 
ATOM     47  N   UNL A   1      44.340  27.023  27.083  1.00  0.00    -0.248 NA
ATOM     48  C   UNL A   1      44.671  24.856  26.276  1.00  0.00     0.031 C 
ATOM     49  C   UNL A   1      40.233  25.812  28.410  1.00  0.00     0.029 A 
ATOM     50  N   UNL A   1      41.682  27.515  28.282  1.00  0.00    -0.354 N 
ATOM     51  C   UNL A   1      45.620  26.917  26.556  1.00  0.00     0.074 A 
ATOM     52  C   UNL A   1      45.782  25.556  26.096  1.00  0.00     0.031 C 
ATOM     53  C   UNL A   1      39.664  26.874  29.005  1.00  0.00     0.029 A 
ATOM     54  C   UNL A   1      40.612  27.987  29.002  1.00  0.00     0.049 A 
ATOM     55  H   UNL A   1      42.452  28.073  28.028  1.00  0.00     0.167 HD
ATOM     56  C   UNL A   1      46.572  27.874  26.463  1.00  0.00     0.034 A 
ATOM     57  C   UNL A   1      40.441  29.168  29.629  1.00  0.00     0.034 A 
ATOM     58  C   UNL A   1      46.391  29.225  26.916  1.00  0.00     0.049 A 
ATOM     59  C   UNL A   1      41.526  30.206  29.540  1.00  0.00     0.074 A 
ATOM     60  C   UNL A   1      47.261  30.294  26.801  1.00  0.00     0.029 A 
ATOM     61  N   UNL A   1      45.276  29.686  27.600  1.00  0.00    -0.354 N 
ATOM     62  N   UNL A   1      42.677  30.143  28.915  1.00  0.00    -0.248 NA
ATOM     63  C   UNL A   1      41.282  31.486  30.220  1.00  0.00     0.031 C 
ATOM     64  C   UNL A   1      46.692  31.389  27.458  1.00  0.00     0.029 A 
ATOM     65  C   UNL A   1      45.449  31.014  27.945  1.00  0.00     0.049 A 
ATOM     66  H   UNL A   1      44.478  29.148  27.807  1.00  0.00     0.167 HD
ATOM     67  C   UNL A   1      43.287  31.377  29.108  1.00  0.00     0.074 A 
ATOM     68  C   UNL A   1      42.364  32.178  29.887  1.00  0.00     0.031 C 
ATOM     69  C   UNL A   1      44.504  31.806  28.692  1.00  0.00     0.034 A 
BRANCH  56  70
ATOM     70  C   UNL A   1      47.893  27.489  25.856  1.00  0.00     0.023 A 
ATOM     71  C   UNL A   1      48.920  26.969  26.670  1.00  0.00     0.012 A 
ATOM     72  C   UNL A   1      48.103  27.604  24.468  1.00  0.00     0.148 A 
ATOM     73  C   UNL A   1      50.147  26.601  26.116  1.00  0.00     0.002 A 
ATOM     74  C   UNL A   1      49.309  27.193  23.917  1.00  0.00     0.091 A 
ATOM     75  F   UNL A   1      47.123  28.126  23.716  1.00  0.00    -0.205 F 
ATOM     76  C   UNL A   1      50.336  26.703  24.741  1.00  0.00     0.022 A 
BRANCH  74  77
ATOM     77  S   UNL A   1      49.620  27.211  22.149  1.00  0.00     0.127 S 
ATOM     78  O   UNL A   1      49.335  28.606  21.814  1.00  0.00    -0.237 OA
ATOM     79  O   UNL A   1      51.035  26.846  22.084  1.00  0.00    -0.237 OA
ATOM     80  O   UNL A   1      48.711  26.233  21.569  1.00  0.00    -0.744 OA
ENDBRANCH  74  77
ENDBRANCH  56  70
BRANCH  57  81
ATOM     81  C   UNL A   1      39.192  29.416  30.403  1.00  0.00     0.023 A 
ATOM     82  C   UNL A   1      39.009  28.797  31.654  1.00  0.00     0.012 A 
ATOM     83  C   UNL A   1      38.203  30.295  29.917  1.00  0.00     0.148 A 
ATOM     84  C   UNL A   1      37.851  29.033  32.397  1.00  0.00     0.002 A 
ATOM     85  C   UNL A   1      37.082  30.570  30.688  1.00  0.00     0.091 A 
ATOM     86  F   UNL A   1      38.392  30.860  28.717  1.00  0.00    -0.205 F 
ATOM     87  C   UNL A   1      36.895  29.927  31.921  1.00  0.00     0.022 A 
BRANCH  85  88
ATOM     88  S   UNL A   1      35.872  31.811  30.217  1.00  0.00     0.127 S 
ATOM     89  O   UNL A   1      35.235  31.183  29.062  1.00  0.00    -0.237 OA
ATOM     90  O   UNL A   1      35.039  31.887  31.418  1.00  0.00    -0.237 OA
ATOM     91  O   UNL A   1      36.633  33.021  29.937  1.00  0.00    -0.744 OA
ENDBRANCH  85  88
ENDBRANCH  57  81
BRANCH  69  92
ATOM     92  C   UNL A   1      44.914  33.211  29.050  1.00  0.00     0.023 A 
ATOM     93  C   UNL A   1      45.573  33.458  30.271  1.00  0.00     0.012 A 
ATOM     94  C   UNL A   1      44.739  34.265  28.131  1.00  0.00     0.148 A 
ATOM     95  C   UNL A   1      46.030  34.737  30.581  1.00  0.00     0.002 A 
ATOM     96  C   UNL A   1      45.243  35.525  28.426  1.00  0.00     0.091 A 
ATOM     97  F   UNL A   1      44.100  34.009  26.980  1.00  0.00    -0.205 F 
ATOM     98  C   UNL A   1      45.878  35.767  29.655  1.00  0.00     0.022 A 
BRANCH  96  99
ATOM     99  S   UNL A   1      45.185  36.889  27.258  1.00  0.00     0.127 S 
ATOM    100  O   UNL A   1      46.066  36.410  26.195  1.00  0.00    -0.237 OA
ATOM    101  O   UNL A   1      43.766  36.929  26.903  1.00  0.00    -0.237 OA
ATOM    102  O   UNL A   1      45.666  38.060  27.979  1.00  0.00    -0.744 OA
ENDBRANCH  96  99
ENDBRANCH  69  92
ENDBRANCH  43  44
ENDBRANCH  36  38
ENDBRANCH  35  36
ENDBRANCH  34  35
ENDBRANCH  33  34
ENDBRANCH  32  33
ENDBRANCH   1  32
TORSDOF 23
ENDMDL
MODEL 2
REMARK VINA RESULT:     -10.5      1.790      2.182
REMARK SMILES COc1cc(CNc2ccc(N3CCOCC3)c(C(=O)OCCOCCOC(=O)c3ccc(-c4c5nc(c(-c6cccc(S(=O)(=O)[O-])c6F)c6ccc([nH]6)c(-c6cccc(S(=O)(=O)[O-])c6F)c6nc(c(-c7cccc(S(=O)(=O)[O-])c7F)c7ccc4[nH]7)C=C6)C=C5)cc3)c2)cc(Br)c1OC
REMARK SMILES IDX 23 1 22 2 21 3 19 4 20 5 18 6 8 7 9 8 93 9 10 10 11 11 7 12
REMARK SMILES IDX 6 14 5 15 3 16 4 17 97 18 95 19 94 20 96 21 2 22 1 23 98 24
REMARK SMILES IDX 99 25 12 26 13 27 17 28 14 29 16 30 15 31 24 32 25 33 26 34
REMARK SMILES IDX 27 35 28 36 29 37 30 38 31 39 92 40 32 41 91 42 33 43 34 44
REMARK SMILES IDX 35 45 85 46 36 47 90 48 84 49 86 50 37 51 89 52 83 53 82 54
REMARK SMILES IDX 38 56 70 57 50 58 69 59 51 60 54 61 68 62 87 63 52 64 53 65
REMARK SMILES IDX 67 67 88 68 55 69 39 70 40 71 48 72 41 73 43 74 49 75 42 76
REMARK SMILES IDX 44 77 45 78 46 79 47 80 71 81 72 82 80 83 73 84 75 85 81 86
REMARK SMILES IDX 74 87 76 88 77 89 78 90 79 91 56 92 57 93 65 94 58 95 60 96
REMARK SMILES IDX 66 97 59 98 61 99 62 100 63 101 64 102
REMARK H PARENT 7 13 86 55 54 66
REMARK Flexibility Score: inf
ROOT
ATOM      1  C   UNL A   1      36.785  22.710  24.817  1.00  0.00     0.202 C 
ENDROOT
BRANCH   1   2
ATOM      2  C   UNL A   1      35.743  22.810  25.933  1.00  0.00     0.261 C 
BRANCH   2   3
ATOM      3  O   UNL A   1      35.299  21.500  26.315  1.00  0.00    -0.460 OA
BRANCH   3   4
ATOM      4  C   UNL A   1      33.980  21.386  26.602  1.00  0.00     0.340 C 
ATOM      5  O   UNL A   1      33.480  21.342  27.716  1.00  0.00    -0.246 OA
BRANCH   4   6
ATOM      6  C   UNL A   1      33.221  21.378  25.335  1.00  0.00     0.085 A 
ATOM      7  C   UNL A   1      32.034  22.724  23.680  1.00  0.00     0.035 A 
ATOM      8  C   UNL A   1      31.912  21.567  22.903  1.00  0.00     0.028 A 
ATOM      9  C   UNL A   1      32.684  22.606  24.904  1.00  0.00     0.043 A 
ATOM     10  C   UNL A   1      32.417  20.333  23.340  1.00  0.00     0.029 A 
ATOM     11  C   UNL A   1      33.078  20.207  24.566  1.00  0.00     0.052 A 
BRANCH   7  12
ATOM     12  N   UNL A   1      31.579  23.926  23.182  1.00  0.00    -0.381 N 
ATOM     13  H   UNL A   1      32.233  24.514  22.740  1.00  0.00     0.160 HD
BRANCH  12  14
ATOM     14  C   UNL A   1      30.199  24.388  23.264  1.00  0.00     0.149 C 
BRANCH  14  15
ATOM     15  C   UNL A   1      30.205  25.881  23.495  1.00  0.00    -0.024 A 
ATOM     16  C   UNL A   1      31.397  27.911  24.087  1.00  0.00     0.162 A 
ATOM     17  C   UNL A   1      31.372  26.524  23.915  1.00  0.00     0.056 A 
ATOM     18  C   UNL A   1      30.236  28.697  23.899  1.00  0.00     0.174 A 
ATOM     19  C   UNL A   1      29.054  28.042  23.514  1.00  0.00     0.064 A 
ATOM     20  C   UNL A   1      29.049  26.645  23.320  1.00  0.00     0.025 A 
ATOM     21  Br  UNL A   1      27.380  28.863  23.128  1.00  0.00    -0.047 Br
BRANCH  16  22
ATOM     22  O   UNL A   1      32.545  28.545  24.514  1.00  0.00    -0.493 OA
ATOM     23  C   UNL A   1      33.741  27.961  24.007  1.00  0.00     0.278 C 
ENDBRANCH  16  22
BRANCH  18  24
ATOM     24  O   UNL A   1      30.479  30.035  24.067  1.00  0.00    -0.492 OA
ATOM     25  C   UNL A   1      29.484  31.000  23.786  1.00  0.00     0.278 C 
ENDBRANCH  18  24
ENDBRANCH  14  15
ENDBRANCH  12  14
ENDBRANCH   7  12
BRANCH  11  26
ATOM     26  N   UNL A   1      33.517  18.965  24.957  1.00  0.00    -0.366 N 
ATOM     27  C   UNL A   1      34.756  18.377  24.457  1.00  0.00     0.145 C 
ATOM     28  C   UNL A   1      32.763  18.143  25.903  1.00  0.00     0.145 C 
ATOM     29  C   UNL A   1      34.450  16.977  23.900  1.00  0.00     0.181 C 
ATOM     30  C   UNL A   1      32.620  16.703  25.368  1.00  0.00     0.181 C 
ATOM     31  O   UNL A   1      33.878  16.148  24.931  1.00  0.00    -0.378 OA
ENDBRANCH  11  26
ENDBRANCH   4   6
ENDBRANCH   3   4
ENDBRANCH   2   3
ENDBRANCH   1   2
BRANCH   1  32
ATOM     32  O   UNL A   1      37.982  21.974  25.089  1.00  0.00    -0.374 OA
BRANCH  32  33
ATOM     33  C   UNL A   1      37.905  20.553  25.050  1.00  0.00     0.202 C 
BRANCH  33  34
ATOM     34  C   UNL A   1      39.098  19.710  25.518  1.00  0.00     0.261 C 
BRANCH  34  35
ATOM     35  O   UNL A   1      40.292  20.458  25.730  1.00  0.00    -0.460 OA
BRANCH  35  36
ATOM     36  C   UNL A   1      40.657  20.549  27.031  1.00  0.00     0.338 C 
ATOM     37  O   UNL A   1      40.880  19.637  27.811  1.00  0.00    -0.246 OA
BRANCH  36  38
ATOM     38  C   UNL A   1      40.932  21.961  27.328  1.00  0.00     0.060 A 
ATOM     39  C   UNL A   1      40.416  22.926  26.454  1.00  0.00     0.016 A 
ATOM     40  C   UNL A   1      41.672  22.325  28.454  1.00  0.00     0.016 A 
ATOM     41  C   UNL A   1      40.651  24.273  26.699  1.00  0.00     0.010 A 
ATOM     42  C   UNL A   1      41.921  23.675  28.686  1.00  0.00     0.010 A 
ATOM     43  C   UNL A   1      41.430  24.648  27.799  1.00  0.00    -0.014 A 
BRANCH  43  44
ATOM     44  C   UNL A   1      41.843  26.056  27.964  1.00  0.00     0.031 A 
ATOM     45  C   UNL A   1      43.238  26.444  27.581  1.00  0.00     0.074 A 
ATOM     46  C   UNL A   1      40.994  26.953  28.495  1.00  0.00     0.049 A 
ATOM     47  N   UNL A   1      43.848  27.588  27.735  1.00  0.00    -0.248 NA
ATOM     48  C   UNL A   1      44.060  25.399  26.948  1.00  0.00     0.031 C 
ATOM     49  C   UNL A   1      39.617  26.673  28.898  1.00  0.00     0.029 A 
ATOM     50  N   UNL A   1      41.185  28.270  28.824  1.00  0.00    -0.354 N 
ATOM     51  C   UNL A   1      45.138  27.391  27.260  1.00  0.00     0.074 A 
ATOM     52  C   UNL A   1      45.223  26.018  26.811  1.00  0.00     0.031 C 
ATOM     53  C   UNL A   1      39.100  27.775  29.467  1.00  0.00     0.029 A 
ATOM     54  C   UNL A   1      40.122  28.819  29.499  1.00  0.00     0.049 A 
ATOM     55  H   UNL A   1      42.001  28.771  28.599  1.00  0.00     0.167 HD
ATOM     56  C   UNL A   1      46.157  28.278  27.203  1.00  0.00     0.034 A 
ATOM     57  C   UNL A   1      40.008  30.012  30.115  1.00  0.00     0.034 A 
ATOM     58  C   UNL A   1      46.052  29.641  27.645  1.00  0.00     0.049 A 
ATOM     59  C   UNL A   1      41.166  30.972  30.066  1.00  0.00     0.074 A 
ATOM     60  C   UNL A   1      46.998  30.647  27.561  1.00  0.00     0.029 A 
ATOM     61  N   UNL A   1      44.945  30.183  28.281  1.00  0.00    -0.354 N 
ATOM     62  N   UNL A   1      42.334  30.826  29.489  1.00  0.00    -0.248 NA
ATOM     63  C   UNL A   1      40.985  32.270  30.732  1.00  0.00     0.031 C 
ATOM     64  C   UNL A   1      46.481  31.782  28.192  1.00  0.00     0.029 A 
ATOM     65  C   UNL A   1      45.196  31.498  28.629  1.00  0.00     0.049 A 
ATOM     66  H   UNL A   1      44.105  29.703  28.457  1.00  0.00     0.167 HD
ATOM     67  C   UNL A   1      43.020  32.017  29.703  1.00  0.00     0.074 A 
ATOM     68  C   UNL A   1      42.125  32.884  30.441  1.00  0.00     0.031 C 
ATOM     69  C   UNL A   1      44.280  32.358  29.335  1.00  0.00     0.034 A 
BRANCH  56  70
ATOM     70  C   UNL A   1      47.472  27.799  26.651  1.00  0.00     0.023 A 
ATOM     71  C   UNL A   1      47.735  27.893  25.270  1.00  0.00     0.012 A 
ATOM     72  C   UNL A   1      48.465  27.294  27.512  1.00  0.00     0.148 A 
ATOM     73  C   UNL A   1      48.955  27.459  24.749  1.00  0.00     0.002 A 
ATOM     74  C   UNL A   1      49.694  26.908  26.994  1.00  0.00     0.091 A 
ATOM     75  F   UNL A   1      48.185  27.189  28.819  1.00  0.00    -0.205 F 
ATOM     76  C   UNL A   1      49.936  26.978  25.612  1.00  0.00     0.022 A 
BRANCH  74  77
ATOM     77  S   UNL A   1      51.049  26.349  28.031  1.00  0.00     0.127 S 
ATOM     78  O   UNL A   1      50.425  25.246  28.761  1.00  0.00    -0.237 OA
ATOM     79  O   UNL A   1      52.043  25.938  27.040  1.00  0.00    -0.237 OA
ATOM     80  O   UNL A   1      51.434  27.495  28.843  1.00  0.00    -0.744 OA
ENDBRANCH  74  77
ENDBRANCH  56  70
BRANCH  57  81
ATOM     81  C   UNL A   1      38.750  30.351  30.836  1.00  0.00     0.023 A 
ATOM     82  C   UNL A   1      38.597  29.984  32.187  1.00  0.00     0.012 A 
ATOM     83  C   UNL A   1      37.720  31.070  30.197  1.00  0.00     0.148 A 
ATOM     84  C   UNL A   1      37.429  30.309  32.880  1.00  0.00     0.002 A 
ATOM     85  C   UNL A   1      36.589  31.441  30.909  1.00  0.00     0.091 A 
ATOM     86  F   UNL A   1      37.882  31.396  28.906  1.00  0.00    -0.205 F 
ATOM     87  C   UNL A   1      36.432  31.047  32.247  1.00  0.00     0.022 A 
BRANCH  85  88
ATOM     88  S   UNL A   1      35.321  32.508  30.215  1.00  0.00     0.127 S 
ATOM     89  O   UNL A   1      34.321  32.516  31.280  1.00  0.00    -0.237 OA
ATOM     90  O   UNL A   1      36.050  33.764  30.041  1.00  0.00    -0.237 OA
ATOM     91  O   UNL A   1      34.910  31.875  28.969  1.00  0.00    -0.744 OA
ENDBRANCH  85  88
ENDBRANCH  57  81
BRANCH  69  92
ATOM     92  C   UNL A   1      44.772  33.733  29.705  1.00  0.00     0.023 A 
ATOM     93  C   UNL A   1      45.361  33.949  30.966  1.00  0.00     0.012 A 
ATOM     94  C   UNL A   1      44.743  34.782  28.764  1.00  0.00     0.148 A 
ATOM     95  C   UNL A   1      45.894  35.194  31.294  1.00  0.00     0.002 A 
ATOM     96  C   UNL A   1      45.322  36.004  29.079  1.00  0.00     0.091 A 
ATOM     97  F   UNL A   1      44.167  34.556  27.574  1.00  0.00    -0.205 F 
ATOM     98  C   UNL A   1      45.887  36.217  30.347  1.00  0.00     0.022 A 
BRANCH  96  99
ATOM     99  S   UNL A   1      45.450  37.349  27.895  1.00  0.00     0.127 S 
ATOM    100  O   UNL A   1      46.253  38.321  28.634  1.00  0.00    -0.237 OA
ATOM    101  O   UNL A   1      46.142  36.709  26.777  1.00  0.00    -0.237 OA
ATOM    102  O   UNL A   1      44.084  37.767  27.608  1.00  0.00    -0.744 OA
ENDBRANCH  96  99
ENDBRANCH  69  92
ENDBRANCH  43  44
ENDBRANCH  36  38
ENDBRANCH  35  36
ENDBRANCH  34  35
ENDBRANCH  33  34
ENDBRANCH  32  33
ENDBRANCH   1  32
TORSDOF 23
ENDMDL
MODEL 3
REMARK VINA RESULT:     -10.4      1.223      7.248
REMARK SMILES COc1cc(CNc2ccc(N3CCOCC3)c(C(=O)OCCOCCOC(=O)c3ccc(-c4c5nc(c(-c6cccc(S(=O)(=O)[O-])c6F)c6ccc([nH]6)c(-c6cccc(S(=O)(=O)[O-])c6F)c6nc(c(-c7cccc(S(=O)(=O)[O-])c7F)c7ccc4[nH]7)C=C6)C=C5)cc3)c2)cc(Br)c1OC
REMARK SMILES IDX 23 1 22 2 21 3 19 4 20 5 18 6 8 7 9 8 93 9 10 10 11 11 7 12
REMARK SMILES IDX 6 14 5 15 3 16 4 17 97 18 95 19 94 20 96 21 2 22 1 23 98 24
REMARK SMILES IDX 99 25 12 26 13 27 17 28 14 29 16 30 15 31 24 32 25 33 26 34
REMARK SMILES IDX 27 35 28 36 29 37 30 38 31 39 92 40 32 41 91 42 33 43 34 44
REMARK SMILES IDX 35 45 85 46 36 47 90 48 84 49 86 50 37 51 89 52 83 53 82 54
REMARK SMILES IDX 38 56 70 57 50 58 69 59 51 60 54 61 68 62 87 63 52 64 53 65
REMARK SMILES IDX 67 67 88 68 55 69 39 70 40 71 48 72 41 73 43 74 49 75 42 76
REMARK SMILES IDX 44 77 45 78 46 79 47 80 71 81 72 82 80 83 73 84 75 85 81 86
REMARK SMILES IDX 74 87 76 88 77 89 78 90 79 91 56 92 57 93 65 94 58 95 60 96
REMARK SMILES IDX 66 97 59 98 61 99 62 100 63 101 64 102
REMARK H PARENT 7 13 86 55 54 66
REMARK Flexibility Score: inf
ROOT
ATOM      1  C   UNL A   1      36.771  22.367  24.842  1.00  0.00     0.202 C 
ENDROOT
BRANCH   1   2
ATOM      2  C   UNL A   1      35.899  22.605  26.077  1.00  0.00     0.261 C 
BRANCH   2   3
ATOM      3  O   UNL A   1      35.267  21.382  26.481  1.00  0.00    -0.460 OA
BRANCH   3   4
ATOM      4  C   UNL A   1      33.945  21.468  26.767  1.00  0.00     0.340 C 
ATOM      5  O   UNL A   1      33.445  21.536  27.879  1.00  0.00    -0.246 OA
BRANCH   4   6
ATOM      6  C   UNL A   1      33.192  21.523  25.497  1.00  0.00     0.085 A 
ATOM      7  C   UNL A   1      32.037  22.954  23.891  1.00  0.00     0.035 A 
ATOM      8  C   UNL A   1      31.898  21.831  23.070  1.00  0.00     0.028 A 
ATOM      9  C   UNL A   1      32.680  22.777  25.113  1.00  0.00     0.043 A 
ATOM     10  C   UNL A   1      32.378  20.572  23.460  1.00  0.00     0.029 A 
ATOM     11  C   UNL A   1      33.031  20.386  24.683  1.00  0.00     0.052 A 
BRANCH   7  12
ATOM     12  N   UNL A   1      31.607  24.183  23.439  1.00  0.00    -0.381 N 
ATOM     13  H   UNL A   1      32.292  24.851  23.210  1.00  0.00     0.160 HD
BRANCH  12  14
ATOM     14  C   UNL A   1      30.208  24.563  23.277  1.00  0.00     0.149 C 
BRANCH  14  15
ATOM     15  C   UNL A   1      30.102  26.064  23.401  1.00  0.00    -0.024 A 
ATOM     16  C   UNL A   1      31.164  28.235  23.635  1.00  0.00     0.162 A 
ATOM     17  C   UNL A   1      31.251  26.842  23.565  1.00  0.00     0.056 A 
ATOM     18  C   UNL A   1      29.913  28.897  23.603  1.00  0.00     0.174 A 
ATOM     19  C   UNL A   1      28.756  28.109  23.478  1.00  0.00     0.064 A 
ATOM     20  C   UNL A   1      28.861  26.706  23.382  1.00  0.00     0.025 A 
ATOM     21  Br  UNL A   1      26.967  28.743  23.339  1.00  0.00    -0.047 Br
BRANCH  16  22
ATOM     22  O   UNL A   1      32.297  29.002  23.809  1.00  0.00    -0.493 OA
ATOM     23  C   UNL A   1      33.408  28.269  24.316  1.00  0.00     0.278 C 
ENDBRANCH  16  22
BRANCH  18  24
ATOM     24  O   UNL A   1      30.044  30.261  23.634  1.00  0.00    -0.492 OA
ATOM     25  C   UNL A   1      29.236  31.091  22.824  1.00  0.00     0.278 C 
ENDBRANCH  18  24
ENDBRANCH  14  15
ENDBRANCH  12  14
ENDBRANCH   7  12
BRANCH  11  26
ATOM     26  N   UNL A   1      33.446  19.121  25.027  1.00  0.00    -0.366 N 
ATOM     27  C   UNL A   1      34.677  18.532  24.510  1.00  0.00     0.145 C 
ATOM     28  C   UNL A   1      32.671  18.276  25.935  1.00  0.00     0.145 C 
ATOM     29  C   UNL A   1      34.350  17.161  23.897  1.00  0.00     0.181 C 
ATOM     30  C   UNL A   1      32.506  16.862  25.342  1.00  0.00     0.181 C 
ATOM     31  O   UNL A   1      33.757  16.302  24.891  1.00  0.00    -0.378 OA
ENDBRANCH  11  26
ENDBRANCH   4   6
ENDBRANCH   3   4
ENDBRANCH   2   3
ENDBRANCH   1   2
BRANCH   1  32
ATOM     32  O   UNL A   1      37.995  21.649  25.021  1.00  0.00    -0.374 OA
BRANCH  32  33
ATOM     33  C   UNL A   1      37.941  20.228  24.955  1.00  0.00     0.202 C 
BRANCH  33  34
ATOM     34  C   UNL A   1      39.141  19.394  25.422  1.00  0.00     0.261 C 
BRANCH  34  35
ATOM     35  O   UNL A   1      40.399  20.040  25.253  1.00  0.00    -0.460 OA
BRANCH  35  36
ATOM     36  C   UNL A   1      41.245  19.875  26.299  1.00  0.00     0.338 C 
ATOM     37  O   UNL A   1      41.594  18.828  26.820  1.00  0.00    -0.246 OA
BRANCH  36  38
ATOM     38  C   UNL A   1      41.843  21.180  26.609  1.00  0.00     0.060 A 
ATOM     39  C   UNL A   1      42.348  21.377  27.900  1.00  0.00     0.016 A 
ATOM     40  C   UNL A   1      41.916  22.182  25.641  1.00  0.00     0.016 A 
ATOM     41  C   UNL A   1      42.924  22.597  28.236  1.00  0.00     0.010 A 
ATOM     42  C   UNL A   1      42.478  23.409  25.986  1.00  0.00     0.010 A 
ATOM     43  C   UNL A   1      42.963  23.625  27.287  1.00  0.00    -0.014 A 
BRANCH  43  44
ATOM     44  C   UNL A   1      43.398  24.978  27.685  1.00  0.00     0.031 A 
ATOM     45  C   UNL A   1      42.386  25.914  28.272  1.00  0.00     0.074 A 
ATOM     46  C   UNL A   1      44.666  25.370  27.475  1.00  0.00     0.049 A 
ATOM     47  N   UNL A   1      42.515  27.172  28.593  1.00  0.00    -0.248 NA
ATOM     48  C   UNL A   1      41.045  25.359  28.519  1.00  0.00     0.031 C 
ATOM     49  C   UNL A   1      45.724  24.533  26.911  1.00  0.00     0.029 A 
ATOM     50  N   UNL A   1      45.264  26.588  27.674  1.00  0.00    -0.354 N 
ATOM     51  C   UNL A   1      41.263  27.575  29.040  1.00  0.00     0.074 A 
ATOM     52  C   UNL A   1      40.388  26.427  28.950  1.00  0.00     0.031 C 
ATOM     53  C   UNL A   1      46.833  25.278  26.764  1.00  0.00     0.029 A 
ATOM     54  C   UNL A   1      46.547  26.647  27.187  1.00  0.00     0.049 A 
ATOM     55  H   UNL A   1      44.819  27.343  28.120  1.00  0.00     0.167 HD
ATOM     56  C   UNL A   1      40.882  28.793  29.488  1.00  0.00     0.034 A 
ATOM     57  C   UNL A   1      47.377  27.701  27.055  1.00  0.00     0.034 A 
ATOM     58  C   UNL A   1      41.768  29.921  29.580  1.00  0.00     0.049 A 
ATOM     59  C   UNL A   1      46.921  29.054  27.530  1.00  0.00     0.074 A 
ATOM     60  C   UNL A   1      41.506  31.179  30.091  1.00  0.00     0.029 A 
ATOM     61  N   UNL A   1      43.077  29.936  29.124  1.00  0.00    -0.354 N 
ATOM     62  N   UNL A   1      45.781  29.392  28.082  1.00  0.00    -0.248 NA
ATOM     63  C   UNL A   1      47.871  30.166  27.386  1.00  0.00     0.031 C 
ATOM     64  C   UNL A   1      42.643  31.970  29.899  1.00  0.00     0.029 A 
ATOM     65  C   UNL A   1      43.627  31.192  29.307  1.00  0.00     0.049 A 
ATOM     66  H   UNL A   1      43.547  29.167  28.729  1.00  0.00     0.167 HD
ATOM     67  C   UNL A   1      45.882  30.748  28.371  1.00  0.00     0.074 A 
ATOM     68  C   UNL A   1      47.206  31.164  27.955  1.00  0.00     0.031 C 
ATOM     69  C   UNL A   1      44.960  31.579  28.918  1.00  0.00     0.034 A 
BRANCH  56  70
ATOM     70  C   UNL A   1      39.447  28.969  29.902  1.00  0.00     0.023 A 
ATOM     71  C   UNL A   1      39.038  28.611  31.202  1.00  0.00     0.012 A 
ATOM     72  C   UNL A   1      38.511  29.530  29.012  1.00  0.00     0.148 A 
ATOM     73  C   UNL A   1      37.710  28.778  31.598  1.00  0.00     0.002 A 
ATOM     74  C   UNL A   1      37.203  29.737  29.428  1.00  0.00     0.091 A 
ATOM     75  F   UNL A   1      38.915  29.839  27.771  1.00  0.00    -0.205 F 
ATOM     76  C   UNL A   1      36.798  29.350  30.717  1.00  0.00     0.022 A 
BRANCH  74  77
ATOM     77  S   UNL A   1      35.974  30.539  28.394  1.00  0.00     0.127 S 
ATOM     78  O   UNL A   1      35.471  29.412  27.608  1.00  0.00    -0.237 OA
ATOM     79  O   UNL A   1      35.032  31.059  29.385  1.00  0.00    -0.237 OA
ATOM     80  O   UNL A   1      36.687  31.558  27.637  1.00  0.00    -0.744 OA
ENDBRANCH  74  77
ENDBRANCH  56  70
BRANCH  57  81
ATOM     81  C   UNL A   1      48.718  27.508  26.434  1.00  0.00     0.023 A 
ATOM     82  C   UNL A   1      49.811  27.125  27.234  1.00  0.00     0.012 A 
ATOM     83  C   UNL A   1      48.902  27.666  25.046  1.00  0.00     0.148 A 
ATOM     84  C   UNL A   1      51.069  26.925  26.664  1.00  0.00     0.002 A 
ATOM     85  C   UNL A   1      50.142  27.408  24.478  1.00  0.00     0.091 A 
ATOM     86  F   UNL A   1      47.850  28.046  24.306  1.00  0.00    -0.205 F 
ATOM     87  C   UNL A   1      51.232  27.054  25.287  1.00  0.00     0.022 A 
BRANCH  85  88
ATOM     88  S   UNL A   1      50.406  27.414  22.701  1.00  0.00     0.127 S 
ATOM     89  O   UNL A   1      51.771  26.904  22.600  1.00  0.00    -0.237 OA
ATOM     90  O   UNL A   1      49.366  26.494  22.241  1.00  0.00    -0.237 OA
ATOM     91  O   UNL A   1      50.216  28.795  22.277  1.00  0.00    -0.744 OA
ENDBRANCH  85  88
ENDBRANCH  57  81
BRANCH  69  92
ATOM     92  C   UNL A   1      45.345  33.021  29.118  1.00  0.00     0.023 A 
ATOM     93  C   UNL A   1      46.040  33.405  30.282  1.00  0.00     0.012 A 
ATOM     94  C   UNL A   1      45.108  33.974  28.106  1.00  0.00     0.148 A 
ATOM     95  C   UNL A   1      46.474  34.719  30.446  1.00  0.00     0.002 A 
ATOM     96  C   UNL A   1      45.588  35.268  28.255  1.00  0.00     0.091 A 
ATOM     97  F   UNL A   1      44.434  33.589  27.013  1.00  0.00    -0.205 F 
ATOM     98  C   UNL A   1      46.261  35.647  29.428  1.00  0.00     0.022 A 
BRANCH  96  99
ATOM     99  S   UNL A   1      45.450  36.507  26.960  1.00  0.00     0.127 S 
ATOM    100  O   UNL A   1      46.187  37.627  27.540  1.00  0.00    -0.237 OA
ATOM    101  O   UNL A   1      46.119  35.853  25.836  1.00  0.00    -0.237 OA
ATOM    102  O   UNL A   1      44.024  36.736  26.770  1.00  0.00    -0.744 OA
ENDBRANCH  96  99
ENDBRANCH  69  92
ENDBRANCH  43  44
ENDBRANCH  36  38
ENDBRANCH  35  36
ENDBRANCH  34  35
ENDBRANCH  33  34
ENDBRANCH  32  33
ENDBRANCH   1  32
TORSDOF 23
ENDMDL
