MODEL 1
REMARK VINA RESULT:     -10.9      0.000      0.000
REMARK SMILES CCN1C(=O)/C(=C/c2ccccc2O[C@H](C)C(=O)OCCOCCOC(=O)c2ccc(-c3c4nc(c(-c5cccc(S(=O)(=O)[O-])c5F)c5ccc([nH]5)c(-c5cccc(S(=O)(=O)[O-])c5F)c5nc(c(-c6cccc(S(=O)(=O)[O-])c6F)c6ccc3[nH]6)C=C5)C=C4)cc2)S/C1=[NH+]\c1ccc(C)cc1O
REMARK SMILES IDX 21 1 20 2 19 3 17 4 18 5 15 6 16 7 14 8 13 9 8 10 9 11 10 12
REMARK SMILES IDX 12 13 11 14 7 15 3 16 4 17 92 18 5 19 6 20 91 21 93 22 2 24
REMARK SMILES IDX 1 25 94 26 95 27 100 28 96 29 99 30 97 31 98 32 101 33 22 35
REMARK SMILES IDX 23 36 24 37 25 38 26 39 27 40 28 41 29 42 90 43 30 44 89 45
REMARK SMILES IDX 31 46 32 47 33 48 83 49 34 50 88 51 82 52 84 53 35 54 87 55
REMARK SMILES IDX 81 56 80 57 36 59 68 60 48 61 67 62 49 63 52 64 66 65 85 66
REMARK SMILES IDX 50 67 51 68 65 70 86 71 53 72 37 73 38 74 46 75 39 76 41 77
REMARK SMILES IDX 47 78 40 79 42 80 43 81 44 82 45 83 69 84 70 85 78 86 71 87
REMARK SMILES IDX 73 88 79 89 72 90 74 91 75 92 76 93 77 94 54 95 55 96 63 97
REMARK SMILES IDX 56 98 58 99 64 100 57 101 59 102 60 103 61 104 62 105
REMARK H PARENT 93 23 101 34 84 58 52 69
REMARK Flexibility Score: inf
ROOT
ATOM      1  C   UNL A   1      34.921  32.883  28.003  1.00  0.00     0.202 C 
ENDROOT
BRANCH   1   2
ATOM      2  C   UNL A   1      34.432  31.491  28.405  1.00  0.00     0.261 C 
BRANCH   2   3
ATOM      3  O   UNL A   1      33.696  30.877  27.334  1.00  0.00    -0.461 OA
BRANCH   3   4
ATOM      4  C   UNL A   1      34.096  29.628  26.981  1.00  0.00     0.347 C 
ATOM      5  O   UNL A   1      35.260  29.241  26.956  1.00  0.00    -0.248 OA
BRANCH   4   6
ATOM      6  C   UNL A   1      32.918  28.721  26.646  1.00  0.00     0.279 C 
ATOM      7  C   UNL A   1      31.916  28.440  27.760  1.00  0.00     0.066 C 
BRANCH   6   8
ATOM      8  O   UNL A   1      32.362  28.979  25.378  1.00  0.00    -0.478 OA
BRANCH   8   9
ATOM      9  C   UNL A   1      32.712  28.397  24.199  1.00  0.00     0.127 A 
ATOM     10  C   UNL A   1      32.106  27.136  23.987  1.00  0.00     0.018 A 
ATOM     11  C   UNL A   1      32.368  26.418  22.817  1.00  0.00     0.012 A 
ATOM     12  C   UNL A   1      33.209  26.958  21.844  1.00  0.00     0.001 A 
ATOM     13  C   UNL A   1      33.557  28.921  23.226  1.00  0.00     0.047 A 
ATOM     14  C   UNL A   1      33.798  28.205  22.048  1.00  0.00     0.004 A 
BRANCH  10  15
ATOM     15  C   UNL A   1      31.250  26.546  25.036  1.00  0.00     0.036 C 
ATOM     16  N   UNL A   1      30.793  23.418  26.800  1.00  0.00    -0.186 N 
ATOM     17  C   UNL A   1      30.368  24.671  26.397  1.00  0.00     0.348 C 
ATOM     18  C   UNL A   1      32.014  23.004  26.310  1.00  0.00     0.324 C 
ATOM     19  O   UNL A   1      29.292  25.197  26.649  1.00  0.00    -0.240 OA
ATOM     20  C   UNL A   1      31.401  25.314  25.543  1.00  0.00     0.110 C 
ATOM     21  S   UNL A   1      32.696  24.220  25.268  1.00  0.00     0.007 SA
ATOM     22  N   UNL A   1      32.549  21.873  26.640  1.00  0.00    -0.231 N 
ATOM     23  H   UNL A   1      32.072  21.293  27.276  1.00  0.00     0.313 HD
BRANCH  16  24
ATOM     24  C   UNL A   1      29.950  22.502  27.566  1.00  0.00     0.244 C 
ATOM     25  C   UNL A   1      28.507  22.360  27.109  1.00  0.00     0.055 C 
ENDBRANCH  16  24
BRANCH  22  26
ATOM     26  C   UNL A   1      33.788  21.440  26.124  1.00  0.00     0.167 A 
ATOM     27  C   UNL A   1      33.791  20.367  25.225  1.00  0.00     0.056 A 
ATOM     28  C   UNL A   1      35.032  21.944  26.539  1.00  0.00     0.162 A 
ATOM     29  C   UNL A   1      34.991  19.846  24.722  1.00  0.00     0.008 A 
ATOM     30  C   UNL A   1      36.229  21.449  26.025  1.00  0.00     0.054 A 
ATOM     31  C   UNL A   1      36.220  20.399  25.103  1.00  0.00    -0.047 A 
ATOM     32  C   UNL A   1      37.508  19.832  24.584  1.00  0.00     0.044 C 
BRANCH  28  33
ATOM     33  O   UNL A   1      35.146  22.935  27.476  1.00  0.00    -0.504 OA
ATOM     34  H   UNL A   1      34.880  23.809  27.268  1.00  0.00     0.293 HD
ENDBRANCH  28  33
ENDBRANCH  22  26
ENDBRANCH  10  15
ENDBRANCH   8   9
ENDBRANCH   6   8
ENDBRANCH   4   6
ENDBRANCH   3   4
ENDBRANCH   2   3
ENDBRANCH   1   2
BRANCH   1  35
ATOM     35  O   UNL A   1      34.743  33.921  28.967  1.00  0.00    -0.374 OA
BRANCH  35  36
ATOM     36  C   UNL A   1      34.259  35.179  28.504  1.00  0.00     0.202 C 
BRANCH  36  37
ATOM     37  C   UNL A   1      33.045  35.768  29.232  1.00  0.00     0.261 C 
BRANCH  37  38
ATOM     38  O   UNL A   1      32.646  34.981  30.368  1.00  0.00    -0.460 OA
BRANCH  38  39
ATOM     39  C   UNL A   1      32.818  35.594  31.561  1.00  0.00     0.338 C 
ATOM     40  O   UNL A   1      32.099  36.458  32.055  1.00  0.00    -0.246 OA
BRANCH  39  41
ATOM     41  C   UNL A   1      33.915  34.968  32.318  1.00  0.00     0.060 A 
ATOM     42  C   UNL A   1      35.179  35.565  32.230  1.00  0.00     0.016 A 
ATOM     43  C   UNL A   1      33.741  33.770  33.015  1.00  0.00     0.016 A 
ATOM     44  C   UNL A   1      36.289  34.933  32.783  1.00  0.00     0.010 A 
ATOM     45  C   UNL A   1      34.860  33.133  33.564  1.00  0.00     0.010 A 
ATOM     46  C   UNL A   1      36.144  33.691  33.411  1.00  0.00    -0.014 A 
BRANCH  46  47
ATOM     47  C   UNL A   1      37.355  32.914  33.770  1.00  0.00     0.031 A 
ATOM     48  C   UNL A   1      38.137  33.302  34.995  1.00  0.00     0.074 A 
ATOM     49  C   UNL A   1      37.740  31.861  33.027  1.00  0.00     0.049 A 
ATOM     50  N   UNL A   1      39.218  32.759  35.493  1.00  0.00    -0.248 NA
ATOM     51  C   UNL A   1      37.635  34.453  35.763  1.00  0.00     0.031 C 
ATOM     52  C   UNL A   1      37.062  31.386  31.823  1.00  0.00     0.029 A 
ATOM     53  N   UNL A   1      38.811  31.015  33.169  1.00  0.00    -0.354 N 
ATOM     54  C   UNL A   1      39.540  33.516  36.614  1.00  0.00     0.074 A 
ATOM     55  C   UNL A   1      38.547  34.563  36.717  1.00  0.00     0.031 C 
ATOM     56  C   UNL A   1      37.750  30.346  31.318  1.00  0.00     0.029 A 
ATOM     57  C   UNL A   1      38.924  30.098  32.152  1.00  0.00     0.049 A 
ATOM     58  H   UNL A   1      39.439  31.062  33.926  1.00  0.00     0.167 HD
ATOM     59  C   UNL A   1      40.559  33.343  37.490  1.00  0.00     0.034 A 
ATOM     60  C   UNL A   1      39.877  29.174  31.914  1.00  0.00     0.034 A 
ATOM     61  C   UNL A   1      41.530  32.286  37.401  1.00  0.00     0.049 A 
ATOM     62  C   UNL A   1      41.010  29.014  32.894  1.00  0.00     0.074 A 
ATOM     63  C   UNL A   1      42.568  31.998  38.269  1.00  0.00     0.029 A 
ATOM     64  N   UNL A   1      41.588  31.350  36.381  1.00  0.00    -0.354 N 
ATOM     65  N   UNL A   1      41.229  29.655  34.016  1.00  0.00    -0.248 NA
ATOM     66  C   UNL A   1      42.010  27.978  32.593  1.00  0.00     0.031 C 
ATOM     67  C   UNL A   1      43.269  30.899  37.761  1.00  0.00     0.029 A 
ATOM     68  C   UNL A   1      42.653  30.490  36.588  1.00  0.00     0.049 A 
ATOM     69  H   UNL A   1      40.965  31.303  35.621  1.00  0.00     0.167 HD
ATOM     70  C   UNL A   1      42.368  29.081  34.570  1.00  0.00     0.074 A 
ATOM     71  C   UNL A   1      42.782  28.025  33.670  1.00  0.00     0.031 C 
ATOM     72  C   UNL A   1      43.022  29.407  35.713  1.00  0.00     0.034 A 
BRANCH  59  73
ATOM     73  C   UNL A   1      40.657  34.304  38.644  1.00  0.00     0.023 A 
ATOM     74  C   UNL A   1      41.580  35.368  38.585  1.00  0.00     0.012 A 
ATOM     75  C   UNL A   1      39.801  34.192  39.755  1.00  0.00     0.148 A 
ATOM     76  C   UNL A   1      41.668  36.289  39.627  1.00  0.00     0.002 A 
ATOM     77  C   UNL A   1      39.867  35.137  40.773  1.00  0.00     0.091 A 
ATOM     78  F   UNL A   1      38.947  33.158  39.804  1.00  0.00    -0.205 F 
ATOM     79  C   UNL A   1      40.806  36.181  40.715  1.00  0.00     0.022 A 
BRANCH  77  80
ATOM     80  S   UNL A   1      38.750  35.122  42.179  1.00  0.00     0.127 S 
ATOM     81  O   UNL A   1      39.062  36.399  42.818  1.00  0.00    -0.237 OA
ATOM     82  O   UNL A   1      37.438  35.068  41.533  1.00  0.00    -0.237 OA
ATOM     83  O   UNL A   1      39.094  33.935  42.950  1.00  0.00    -0.744 OA
ENDBRANCH  77  80
ENDBRANCH  59  73
BRANCH  60  84
ATOM     84  C   UNL A   1      39.777  28.302  30.710  1.00  0.00     0.023 A 
ATOM     85  C   UNL A   1      38.964  27.153  30.747  1.00  0.00     0.012 A 
ATOM     86  C   UNL A   1      40.462  28.621  29.522  1.00  0.00     0.148 A 
ATOM     87  C   UNL A   1      38.856  26.323  29.630  1.00  0.00     0.002 A 
ATOM     88  C   UNL A   1      40.305  27.823  28.395  1.00  0.00     0.091 A 
ATOM     89  F   UNL A   1      41.249  29.706  29.513  1.00  0.00    -0.205 F 
ATOM     90  C   UNL A   1      39.516  26.664  28.451  1.00  0.00     0.022 A 
BRANCH  88  91
ATOM     91  S   UNL A   1      41.007  28.270  26.803  1.00  0.00     0.127 S 
ATOM     92  O   UNL A   1      40.927  27.008  26.075  1.00  0.00    -0.237 OA
ATOM     93  O   UNL A   1      40.085  29.308  26.343  1.00  0.00    -0.237 OA
ATOM     94  O   UNL A   1      42.351  28.756  27.094  1.00  0.00    -0.744 OA
ENDBRANCH  88  91
ENDBRANCH  60  84
BRANCH  72  95
ATOM     95  C   UNL A   1      44.239  28.599  36.082  1.00  0.00     0.023 A 
ATOM     96  C   UNL A   1      45.518  29.051  35.700  1.00  0.00     0.012 A 
ATOM     97  C   UNL A   1      44.123  27.440  36.873  1.00  0.00     0.148 A 
ATOM     98  C   UNL A   1      46.661  28.346  36.077  1.00  0.00     0.002 A 
ATOM     99  C   UNL A   1      45.269  26.768  37.284  1.00  0.00     0.091 A 
ATOM    100  F   UNL A   1      42.897  27.015  37.212  1.00  0.00    -0.205 F 
ATOM    101  C   UNL A   1      46.537  27.214  36.878  1.00  0.00     0.022 A 
BRANCH  99 102
ATOM    102  S   UNL A   1      45.210  25.356  38.394  1.00  0.00     0.127 S 
ATOM    103  O   UNL A   1      44.303  24.456  37.684  1.00  0.00    -0.237 OA
ATOM    104  O   UNL A   1      46.606  24.920  38.420  1.00  0.00    -0.237 OA
ATOM    105  O   UNL A   1      44.716  25.869  39.666  1.00  0.00    -0.744 OA
ENDBRANCH  99 102
ENDBRANCH  72  95
ENDBRANCH  46  47
ENDBRANCH  39  41
ENDBRANCH  38  39
ENDBRANCH  37  38
ENDBRANCH  36  37
ENDBRANCH  35  36
ENDBRANCH   1  35
TORSDOF 23
ENDMDL
MODEL 2
REMARK VINA RESULT:     -10.8      3.128      8.888
REMARK SMILES CCN1C(=O)/C(=C/c2ccccc2O[C@H](C)C(=O)OCCOCCOC(=O)c2ccc(-c3c4nc(c(-c5cccc(S(=O)(=O)[O-])c5F)c5ccc([nH]5)c(-c5cccc(S(=O)(=O)[O-])c5F)c5nc(c(-c6cccc(S(=O)(=O)[O-])c6F)c6ccc3[nH]6)C=C5)C=C4)cc2)S/C1=[NH+]\c1ccc(C)cc1O
REMARK SMILES IDX 21 1 20 2 19 3 17 4 18 5 15 6 16 7 14 8 13 9 8 10 9 11 10 12
REMARK SMILES IDX 12 13 11 14 7 15 3 16 4 17 92 18 5 19 6 20 91 21 93 22 2 24
REMARK SMILES IDX 1 25 94 26 95 27 100 28 96 29 99 30 97 31 98 32 101 33 22 35
REMARK SMILES IDX 23 36 24 37 25 38 26 39 27 40 28 41 29 42 90 43 30 44 89 45
REMARK SMILES IDX 31 46 32 47 33 48 83 49 34 50 88 51 82 52 84 53 35 54 87 55
REMARK SMILES IDX 81 56 80 57 36 59 68 60 48 61 67 62 49 63 52 64 66 65 85 66
REMARK SMILES IDX 50 67 51 68 65 70 86 71 53 72 37 73 38 74 46 75 39 76 41 77
REMARK SMILES IDX 47 78 40 79 42 80 43 81 44 82 45 83 69 84 70 85 78 86 71 87
REMARK SMILES IDX 73 88 79 89 72 90 74 91 75 92 76 93 77 94 54 95 55 96 63 97
REMARK SMILES IDX 56 98 58 99 64 100 57 101 59 102 60 103 61 104 62 105
REMARK H PARENT 93 23 101 34 84 58 52 69
REMARK Flexibility Score: inf
ROOT
ATOM      1  C   UNL A   1      31.437  26.132  26.637  1.00  0.00     0.202 C 
ENDROOT
BRANCH   1   2
ATOM      2  C   UNL A   1      31.461  25.678  25.176  1.00  0.00     0.261 C 
BRANCH   2   3
ATOM      3  O   UNL A   1      31.554  24.248  25.085  1.00  0.00    -0.461 OA
BRANCH   3   4
ATOM      4  C   UNL A   1      32.447  23.769  24.181  1.00  0.00     0.347 C 
ATOM      5  O   UNL A   1      33.283  24.445  23.590  1.00  0.00    -0.248 OA
BRANCH   4   6
ATOM      6  C   UNL A   1      32.328  22.261  23.998  1.00  0.00     0.279 C 
ATOM      7  C   UNL A   1      32.472  21.717  22.582  1.00  0.00     0.066 C 
BRANCH   6   8
ATOM      8  O   UNL A   1      32.987  21.525  25.003  1.00  0.00    -0.478 OA
BRANCH   8   9
ATOM      9  C   UNL A   1      33.773  20.429  24.829  1.00  0.00     0.127 A 
ATOM     10  C   UNL A   1      35.159  20.705  24.923  1.00  0.00     0.018 A 
ATOM     11  C   UNL A   1      36.091  19.676  24.770  1.00  0.00     0.012 A 
ATOM     12  C   UNL A   1      35.656  18.369  24.550  1.00  0.00     0.001 A 
ATOM     13  C   UNL A   1      33.350  19.124  24.599  1.00  0.00     0.047 A 
ATOM     14  C   UNL A   1      34.291  18.096  24.467  1.00  0.00     0.004 A 
BRANCH  10  15
ATOM     15  C   UNL A   1      35.620  22.094  25.114  1.00  0.00     0.036 C 
ATOM     16  N   UNL A   1      38.509  23.908  26.326  1.00  0.00    -0.186 N 
ATOM     17  C   UNL A   1      37.177  23.827  25.964  1.00  0.00     0.348 C 
ATOM     18  C   UNL A   1      39.226  22.731  26.275  1.00  0.00     0.324 C 
ATOM     19  O   UNL A   1      36.348  24.726  26.009  1.00  0.00    -0.240 OA
ATOM     20  C   UNL A   1      36.844  22.442  25.537  1.00  0.00     0.110 C 
ATOM     21  S   UNL A   1      38.205  21.418  25.763  1.00  0.00     0.007 SA
ATOM     22  N   UNL A   1      40.489  22.673  26.547  1.00  0.00    -0.231 N 
ATOM     23  H   UNL A   1      40.960  23.504  26.785  1.00  0.00     0.313 HD
BRANCH  16  24
ATOM     24  C   UNL A   1      39.107  25.118  26.885  1.00  0.00     0.244 C 
ATOM     25  C   UNL A   1      39.140  25.225  28.402  1.00  0.00     0.055 C 
ENDBRANCH  16  24
BRANCH  22  26
ATOM     26  C   UNL A   1      41.219  21.466  26.515  1.00  0.00     0.167 A 
ATOM     27  C   UNL A   1      40.868  20.458  27.421  1.00  0.00     0.056 A 
ATOM     28  C   UNL A   1      42.347  21.251  25.707  1.00  0.00     0.162 A 
ATOM     29  C   UNL A   1      41.591  19.259  27.485  1.00  0.00     0.008 A 
ATOM     30  C   UNL A   1      43.057  20.051  25.747  1.00  0.00     0.054 A 
ATOM     31  C   UNL A   1      42.679  19.038  26.632  1.00  0.00    -0.047 A 
ATOM     32  C   UNL A   1      43.468  17.765  26.711  1.00  0.00     0.044 C 
BRANCH  28  33
ATOM     33  O   UNL A   1      42.826  22.202  24.847  1.00  0.00    -0.504 OA
ATOM     34  H   UNL A   1      43.231  22.977  25.185  1.00  0.00     0.293 HD
ENDBRANCH  28  33
ENDBRANCH  22  26
ENDBRANCH  10  15
ENDBRANCH   8   9
ENDBRANCH   6   8
ENDBRANCH   4   6
ENDBRANCH   3   4
ENDBRANCH   2   3
ENDBRANCH   1   2
BRANCH   1  35
ATOM     35  O   UNL A   1      31.148  27.511  26.868  1.00  0.00    -0.374 OA
BRANCH  35  36
ATOM     36  C   UNL A   1      31.933  28.477  26.173  1.00  0.00     0.202 C 
BRANCH  36  37
ATOM     37  C   UNL A   1      32.304  29.752  26.938  1.00  0.00     0.261 C 
BRANCH  37  38
ATOM     38  O   UNL A   1      33.638  30.203  26.646  1.00  0.00    -0.460 OA
BRANCH  38  39
ATOM     39  C   UNL A   1      34.050  31.253  27.393  1.00  0.00     0.338 C 
ATOM     40  O   UNL A   1      33.387  32.237  27.708  1.00  0.00    -0.246 OA
BRANCH  39  41
ATOM     41  C   UNL A   1      35.388  31.002  27.955  1.00  0.00     0.060 A 
ATOM     42  C   UNL A   1      35.678  29.695  28.364  1.00  0.00     0.016 A 
ATOM     43  C   UNL A   1      36.302  32.035  28.175  1.00  0.00     0.016 A 
ATOM     44  C   UNL A   1      36.856  29.424  29.053  1.00  0.00     0.010 A 
ATOM     45  C   UNL A   1      37.483  31.762  28.875  1.00  0.00     0.010 A 
ATOM     46  C   UNL A   1      37.743  30.464  29.355  1.00  0.00    -0.014 A 
BRANCH  46  47
ATOM     47  C   UNL A   1      38.858  30.215  30.300  1.00  0.00     0.031 A 
ATOM     48  C   UNL A   1      39.970  29.287  29.890  1.00  0.00     0.074 A 
ATOM     49  C   UNL A   1      38.894  30.826  31.497  1.00  0.00     0.049 A 
ATOM     50  N   UNL A   1      41.039  28.933  30.555  1.00  0.00    -0.248 NA
ATOM     51  C   UNL A   1      39.863  28.676  28.555  1.00  0.00     0.031 C 
ATOM     52  C   UNL A   1      37.881  31.750  32.002  1.00  0.00     0.029 A 
ATOM     53  N   UNL A   1      39.813  30.742  32.512  1.00  0.00    -0.354 N 
ATOM     54  C   UNL A   1      41.719  28.041  29.733  1.00  0.00     0.074 A 
ATOM     55  C   UNL A   1      40.934  27.898  28.526  1.00  0.00     0.031 C 
ATOM     56  C   UNL A   1      38.220  32.129  33.247  1.00  0.00     0.029 A 
ATOM     57  C   UNL A   1      39.461  31.459  33.631  1.00  0.00     0.049 A 
ATOM     58  H   UNL A   1      40.644  30.218  32.446  1.00  0.00     0.167 HD
ATOM     59  C   UNL A   1      42.898  27.413  29.955  1.00  0.00     0.034 A 
ATOM     60  C   UNL A   1      40.065  31.551  34.833  1.00  0.00     0.034 A 
ATOM     61  C   UNL A   1      43.689  27.577  31.145  1.00  0.00     0.049 A 
ATOM     62  C   UNL A   1      41.367  30.827  35.061  1.00  0.00     0.074 A 
ATOM     63  C   UNL A   1      44.922  27.023  31.440  1.00  0.00     0.029 A 
ATOM     64  N   UNL A   1      43.322  28.344  32.239  1.00  0.00    -0.354 N 
ATOM     65  N   UNL A   1      42.059  30.089  34.228  1.00  0.00    -0.248 NA
ATOM     66  C   UNL A   1      41.990  30.978  36.385  1.00  0.00     0.031 C 
ATOM     67  C   UNL A   1      45.290  27.437  32.724  1.00  0.00     0.029 A 
ATOM     68  C   UNL A   1      44.296  28.267  33.219  1.00  0.00     0.049 A 
ATOM     69  H   UNL A   1      42.490  28.864  32.310  1.00  0.00     0.167 HD
ATOM     70  C   UNL A   1      43.211  29.715  34.911  1.00  0.00     0.074 A 
ATOM     71  C   UNL A   1      43.134  30.326  36.222  1.00  0.00     0.031 C 
ATOM     72  C   UNL A   1      44.234  28.926  34.499  1.00  0.00     0.034 A 
BRANCH  59  73
ATOM     73  C   UNL A   1      43.422  26.511  28.870  1.00  0.00     0.023 A 
ATOM     74  C   UNL A   1      42.991  25.170  28.813  1.00  0.00     0.012 A 
ATOM     75  C   UNL A   1      44.292  27.001  27.878  1.00  0.00     0.148 A 
ATOM     76  C   UNL A   1      43.439  24.324  27.800  1.00  0.00     0.002 A 
ATOM     77  C   UNL A   1      44.703  26.163  26.848  1.00  0.00     0.091 A 
ATOM     78  F   UNL A   1      44.711  28.273  27.965  1.00  0.00    -0.205 F 
ATOM     79  C   UNL A   1      44.285  24.822  26.813  1.00  0.00     0.022 A 
BRANCH  77  80
ATOM     80  S   UNL A   1      45.736  26.731  25.493  1.00  0.00     0.127 S 
ATOM     81  O   UNL A   1      45.820  25.531  24.662  1.00  0.00    -0.237 OA
ATOM     82  O   UNL A   1      44.931  27.813  24.923  1.00  0.00    -0.237 OA
ATOM     83  O   UNL A   1      46.988  27.163  26.099  1.00  0.00    -0.744 OA
ENDBRANCH  77  80
ENDBRANCH  59  73
BRANCH  60  84
ATOM     84  C   UNL A   1      39.459  32.392  35.903  1.00  0.00     0.023 A 
ATOM     85  C   UNL A   1      38.462  31.850  36.735  1.00  0.00     0.012 A 
ATOM     86  C   UNL A   1      39.886  33.718  36.114  1.00  0.00     0.148 A 
ATOM     87  C   UNL A   1      37.882  32.621  37.744  1.00  0.00     0.002 A 
ATOM     88  C   UNL A   1      39.345  34.462  37.157  1.00  0.00     0.091 A 
ATOM     89  F   UNL A   1      40.819  34.225  35.296  1.00  0.00    -0.205 F 
ATOM     90  C   UNL A   1      38.331  33.922  37.962  1.00  0.00     0.022 A 
BRANCH  88  91
ATOM     91  S   UNL A   1      39.968  36.090  37.590  1.00  0.00     0.127 S 
ATOM     92  O   UNL A   1      41.335  35.789  38.003  1.00  0.00    -0.237 OA
ATOM     93  O   UNL A   1      39.851  36.809  36.321  1.00  0.00    -0.237 OA
ATOM     94  O   UNL A   1      39.078  36.581  38.635  1.00  0.00    -0.744 OA
ENDBRANCH  88  91
ENDBRANCH  60  84
BRANCH  72  95
ATOM     95  C   UNL A   1      45.374  28.694  35.456  1.00  0.00     0.023 A 
ATOM     96  C   UNL A   1      46.488  29.558  35.437  1.00  0.00     0.012 A 
ATOM     97  C   UNL A   1      45.306  27.676  36.426  1.00  0.00     0.148 A 
ATOM     98  C   UNL A   1      47.529  29.393  36.350  1.00  0.00     0.002 A 
ATOM     99  C   UNL A   1      46.325  27.546  37.362  1.00  0.00     0.091 A 
ATOM    100  F   UNL A   1      44.247  26.852  36.417  1.00  0.00    -0.205 F 
ATOM    101  C   UNL A   1      47.442  28.397  37.319  1.00  0.00     0.022 A 
BRANCH  99 102
ATOM    102  S   UNL A   1      46.253  26.352  38.703  1.00  0.00     0.127 S 
ATOM    103  O   UNL A   1      44.886  26.530  39.189  1.00  0.00    -0.237 OA
ATOM    104  O   UNL A   1      46.494  25.086  38.009  1.00  0.00    -0.237 OA
ATOM    105  O   UNL A   1      47.305  26.736  39.636  1.00  0.00    -0.744 OA
ENDBRANCH  99 102
ENDBRANCH  72  95
ENDBRANCH  46  47
ENDBRANCH  39  41
ENDBRANCH  38  39
ENDBRANCH  37  38
ENDBRANCH  36  37
ENDBRANCH  35  36
ENDBRANCH   1  35
TORSDOF 23
ENDMDL
MODEL 3
REMARK VINA RESULT:     -10.8      3.205      5.739
REMARK SMILES CCN1C(=O)/C(=C/c2ccccc2O[C@H](C)C(=O)OCCOCCOC(=O)c2ccc(-c3c4nc(c(-c5cccc(S(=O)(=O)[O-])c5F)c5ccc([nH]5)c(-c5cccc(S(=O)(=O)[O-])c5F)c5nc(c(-c6cccc(S(=O)(=O)[O-])c6F)c6ccc3[nH]6)C=C5)C=C4)cc2)S/C1=[NH+]\c1ccc(C)cc1O
REMARK SMILES IDX 21 1 20 2 19 3 17 4 18 5 15 6 16 7 14 8 13 9 8 10 9 11 10 12
REMARK SMILES IDX 12 13 11 14 7 15 3 16 4 17 92 18 5 19 6 20 91 21 93 22 2 24
REMARK SMILES IDX 1 25 94 26 95 27 100 28 96 29 99 30 97 31 98 32 101 33 22 35
REMARK SMILES IDX 23 36 24 37 25 38 26 39 27 40 28 41 29 42 90 43 30 44 89 45
REMARK SMILES IDX 31 46 32 47 33 48 83 49 34 50 88 51 82 52 84 53 35 54 87 55
REMARK SMILES IDX 81 56 80 57 36 59 68 60 48 61 67 62 49 63 52 64 66 65 85 66
REMARK SMILES IDX 50 67 51 68 65 70 86 71 53 72 37 73 38 74 46 75 39 76 41 77
REMARK SMILES IDX 47 78 40 79 42 80 43 81 44 82 45 83 69 84 70 85 78 86 71 87
REMARK SMILES IDX 73 88 79 89 72 90 74 91 75 92 76 93 77 94 54 95 55 96 63 97
REMARK SMILES IDX 56 98 58 99 64 100 57 101 59 102 60 103 61 104 62 105
REMARK H PARENT 93 23 101 34 84 58 52 69
REMARK Flexibility Score: inf
ROOT
ATOM      1  C   UNL A   1      32.375  26.606  25.308  1.00  0.00     0.202 C 
ENDROOT
BRANCH   1   2
ATOM      2  C   UNL A   1      33.084  25.697  24.303  1.00  0.00     0.261 C 
BRANCH   2   3
ATOM      3  O   UNL A   1      32.631  24.340  24.431  1.00  0.00    -0.461 OA
BRANCH   3   4
ATOM      4  C   UNL A   1      33.009  23.493  23.439  1.00  0.00     0.347 C 
ATOM      5  O   UNL A   1      33.763  23.782  22.515  1.00  0.00    -0.248 OA
BRANCH   4   6
ATOM      6  C   UNL A   1      32.416  22.100  23.615  1.00  0.00     0.279 C 
ATOM      7  C   UNL A   1      32.164  21.286  22.351  1.00  0.00     0.066 C 
BRANCH   6   8
ATOM      8  O   UNL A   1      32.976  21.390  24.695  1.00  0.00    -0.478 OA
BRANCH   8   9
ATOM      9  C   UNL A   1      33.780  20.295  24.623  1.00  0.00     0.127 A 
ATOM     10  C   UNL A   1      35.148  20.581  24.848  1.00  0.00     0.018 A 
ATOM     11  C   UNL A   1      36.096  19.555  24.810  1.00  0.00     0.012 A 
ATOM     12  C   UNL A   1      35.689  18.242  24.575  1.00  0.00     0.001 A 
ATOM     13  C   UNL A   1      33.387  18.983  24.380  1.00  0.00     0.047 A 
ATOM     14  C   UNL A   1      34.340  17.958  24.363  1.00  0.00     0.004 A 
BRANCH  10  15
ATOM     15  C   UNL A   1      35.584  21.977  25.055  1.00  0.00     0.036 C 
ATOM     16  N   UNL A   1      38.431  23.831  26.302  1.00  0.00    -0.186 N 
ATOM     17  C   UNL A   1      37.103  23.729  25.930  1.00  0.00     0.348 C 
ATOM     18  C   UNL A   1      39.169  22.668  26.246  1.00  0.00     0.324 C 
ATOM     19  O   UNL A   1      36.257  24.613  25.978  1.00  0.00    -0.240 OA
ATOM     20  C   UNL A   1      36.798  22.343  25.489  1.00  0.00     0.110 C 
ATOM     21  S   UNL A   1      38.175  21.341  25.715  1.00  0.00     0.007 SA
ATOM     22  N   UNL A   1      40.432  22.630  26.525  1.00  0.00    -0.231 N 
ATOM     23  H   UNL A   1      40.886  23.467  26.774  1.00  0.00     0.313 HD
BRANCH  16  24
ATOM     24  C   UNL A   1      39.004  25.047  26.876  1.00  0.00     0.244 C 
ATOM     25  C   UNL A   1      39.002  25.151  28.394  1.00  0.00     0.055 C 
ENDBRANCH  16  24
BRANCH  22  26
ATOM     26  C   UNL A   1      41.183  21.437  26.488  1.00  0.00     0.167 A 
ATOM     27  C   UNL A   1      40.834  20.408  27.370  1.00  0.00     0.056 A 
ATOM     28  C   UNL A   1      42.330  21.255  25.698  1.00  0.00     0.162 A 
ATOM     29  C   UNL A   1      41.577  19.221  27.428  1.00  0.00     0.008 A 
ATOM     30  C   UNL A   1      43.060  20.068  25.731  1.00  0.00     0.054 A 
ATOM     31  C   UNL A   1      42.684  19.034  26.592  1.00  0.00    -0.047 A 
ATOM     32  C   UNL A   1      43.494  17.773  26.666  1.00  0.00     0.044 C 
BRANCH  28  33
ATOM     33  O   UNL A   1      42.808  22.229  24.862  1.00  0.00    -0.504 OA
ATOM     34  H   UNL A   1      43.688  22.537  24.958  1.00  0.00     0.293 HD
ENDBRANCH  28  33
ENDBRANCH  22  26
ENDBRANCH  10  15
ENDBRANCH   8   9
ENDBRANCH   6   8
ENDBRANCH   4   6
ENDBRANCH   3   4
ENDBRANCH   2   3
ENDBRANCH   1   2
BRANCH   1  35
ATOM     35  O   UNL A   1      32.371  28.002  25.009  1.00  0.00    -0.374 OA
BRANCH  35  36
ATOM     36  C   UNL A   1      33.297  28.831  25.706  1.00  0.00     0.202 C 
BRANCH  36  37
ATOM     37  C   UNL A   1      32.779  30.181  26.213  1.00  0.00     0.261 C 
BRANCH  37  38
ATOM     38  O   UNL A   1      33.214  30.472  27.553  1.00  0.00    -0.460 OA
BRANCH  38  39
ATOM     39  C   UNL A   1      34.002  31.566  27.660  1.00  0.00     0.338 C 
ATOM     40  O   UNL A   1      33.655  32.738  27.536  1.00  0.00    -0.246 OA
BRANCH  39  41
ATOM     41  C   UNL A   1      35.348  31.198  28.128  1.00  0.00     0.060 A 
ATOM     42  C   UNL A   1      35.578  29.849  28.426  1.00  0.00     0.016 A 
ATOM     43  C   UNL A   1      36.334  32.157  28.370  1.00  0.00     0.016 A 
ATOM     44  C   UNL A   1      36.772  29.461  29.028  1.00  0.00     0.010 A 
ATOM     45  C   UNL A   1      37.530  31.766  28.982  1.00  0.00     0.010 A 
ATOM     46  C   UNL A   1      37.734  30.423  29.354  1.00  0.00    -0.014 A 
BRANCH  46  47
ATOM     47  C   UNL A   1      38.879  30.041  30.215  1.00  0.00     0.031 A 
ATOM     48  C   UNL A   1      38.992  30.640  31.590  1.00  0.00     0.074 A 
ATOM     49  C   UNL A   1      39.794  29.153  29.787  1.00  0.00     0.049 A 
ATOM     50  N   UNL A   1      39.905  30.442  32.506  1.00  0.00    -0.248 NA
ATOM     51  C   UNL A   1      37.938  31.587  31.988  1.00  0.00     0.031 C 
ATOM     52  C   UNL A   1      39.788  28.501  28.479  1.00  0.00     0.029 A 
ATOM     53  N   UNL A   1      40.917  28.664  30.405  1.00  0.00    -0.354 N 
ATOM     54  C   UNL A   1      39.551  31.257  33.576  1.00  0.00     0.074 A 
ATOM     55  C   UNL A   1      38.347  31.961  33.191  1.00  0.00     0.031 C 
ATOM     56  C   UNL A   1      40.875  27.715  28.380  1.00  0.00     0.029 A 
ATOM     57  C   UNL A   1      41.660  27.825  29.609  1.00  0.00     0.049 A 
ATOM     58  H   UNL A   1      41.168  28.893  31.328  1.00  0.00     0.167 HD
ATOM     59  C   UNL A   1      40.161  31.392  34.778  1.00  0.00     0.034 A 
ATOM     60  C   UNL A   1      42.846  27.226  29.840  1.00  0.00     0.034 A 
ATOM     61  C   UNL A   1      41.343  30.673  35.169  1.00  0.00     0.049 A 
ATOM     62  C   UNL A   1      43.514  27.409  31.178  1.00  0.00     0.074 A 
ATOM     63  C   UNL A   1      42.005  30.704  36.383  1.00  0.00     0.029 A 
ATOM     64  N   UNL A   1      42.043  29.799  34.352  1.00  0.00    -0.354 N 
ATOM     65  N   UNL A   1      43.101  28.082  32.224  1.00  0.00    -0.248 NA
ATOM     66  C   UNL A   1      44.797  26.718  31.382  1.00  0.00     0.031 C 
ATOM     67  C   UNL A   1      43.122  29.865  36.292  1.00  0.00     0.029 A 
ATOM     68  C   UNL A   1      43.140  29.295  35.029  1.00  0.00     0.049 A 
ATOM     69  H   UNL A   1      41.798  29.572  33.426  1.00  0.00     0.167 HD
ATOM     70  C   UNL A   1      44.050  27.871  33.217  1.00  0.00     0.074 A 
ATOM     71  C   UNL A   1      45.052  26.989  32.655  1.00  0.00     0.031 C 
ATOM     72  C   UNL A   1      44.100  28.373  34.476  1.00  0.00     0.034 A 
BRANCH  59  73
ATOM     73  C   UNL A   1      39.541  32.336  35.773  1.00  0.00     0.023 A 
ATOM     74  C   UNL A   1      38.515  31.875  36.622  1.00  0.00     0.012 A 
ATOM     75  C   UNL A   1      40.010  33.656  35.908  1.00  0.00     0.148 A 
ATOM     76  C   UNL A   1      37.946  32.721  37.572  1.00  0.00     0.002 A 
ATOM     77  C   UNL A   1      39.467  34.483  36.885  1.00  0.00     0.091 A 
ATOM     78  F   UNL A   1      40.969  34.084  35.074  1.00  0.00    -0.205 F 
ATOM     79  C   UNL A   1      38.428  34.020  37.711  1.00  0.00     0.022 A 
BRANCH  77  80
ATOM     80  S   UNL A   1      40.069  36.147  37.188  1.00  0.00     0.127 S 
ATOM     81  O   UNL A   1      39.758  36.809  35.922  1.00  0.00    -0.237 OA
ATOM     82  O   UNL A   1      39.245  36.575  38.319  1.00  0.00    -0.237 OA
ATOM     83  O   UNL A   1      41.487  36.009  37.490  1.00  0.00    -0.744 OA
ENDBRANCH  77  80
ENDBRANCH  59  73
BRANCH  60  84
ATOM     84  C   UNL A   1      43.459  26.368  28.788  1.00  0.00     0.023 A 
ATOM     85  C   UNL A   1      43.079  25.017  28.682  1.00  0.00     0.012 A 
ATOM     86  C   UNL A   1      44.397  26.893  27.877  1.00  0.00     0.148 A 
ATOM     87  C   UNL A   1      43.641  24.196  27.703  1.00  0.00     0.002 A 
ATOM     88  C   UNL A   1      44.909  26.085  26.869  1.00  0.00     0.091 A 
ATOM     89  F   UNL A   1      44.763  28.175  28.009  1.00  0.00    -0.205 F 
ATOM     90  C   UNL A   1      44.547  24.732  26.790  1.00  0.00     0.022 A 
BRANCH  88  91
ATOM     91  S   UNL A   1      45.969  26.735  25.572  1.00  0.00     0.127 S 
ATOM     92  O   UNL A   1      45.724  25.794  24.484  1.00  0.00    -0.237 OA
ATOM     93  O   UNL A   1      45.416  28.074  25.367  1.00  0.00    -0.237 OA
ATOM     94  O   UNL A   1      47.315  26.728  26.132  1.00  0.00    -0.744 OA
ENDBRANCH  88  91
ENDBRANCH  60  84
BRANCH  72  95
ATOM     95  C   UNL A   1      45.255  27.963  35.352  1.00  0.00     0.023 A 
ATOM     96  C   UNL A   1      46.391  28.793  35.442  1.00  0.00     0.012 A 
ATOM     97  C   UNL A   1      45.181  26.803  36.147  1.00  0.00     0.148 A 
ATOM     98  C   UNL A   1      47.448  28.457  36.288  1.00  0.00     0.002 A 
ATOM     99  C   UNL A   1      46.217  26.500  37.022  1.00  0.00     0.091 A 
ATOM    100  F   UNL A   1      44.100  26.017  36.035  1.00  0.00    -0.205 F 
ATOM    101  C   UNL A   1      47.356  27.320  37.086  1.00  0.00     0.022 A 
BRANCH  99 102
ATOM    102  S   UNL A   1      46.143  25.107  38.155  1.00  0.00     0.127 S 
ATOM    103  O   UNL A   1      46.024  23.979  37.234  1.00  0.00    -0.237 OA
ATOM    104  O   UNL A   1      47.429  25.198  38.847  1.00  0.00    -0.237 OA
ATOM    105  O   UNL A   1      44.984  25.346  39.006  1.00  0.00    -0.744 OA
ENDBRANCH  99 102
ENDBRANCH  72  95
ENDBRANCH  46  47
ENDBRANCH  39  41
ENDBRANCH  38  39
ENDBRANCH  37  38
ENDBRANCH  36  37
ENDBRANCH  35  36
ENDBRANCH   1  35
TORSDOF 23
ENDMDL
