MODEL 1
REMARK VINA RESULT:      -9.9      0.000      0.000
REMARK SMILES O=C(OCCOCCOC(=O)c1cn2ccccc2n1)c1ccc(-c2c3nc(c(-c4cccc(S(=O)(=O)[O-])c4F)c4ccc([nH]4)c(-c4cccc(S(=O)(=O)[O-])c4F)c4nc(c(-c5cccc(S(=O)(=O)[O-])c5F)c5ccc2[nH]5)C=C4)C=C3)cc1
REMARK SMILES IDX 4 1 3 2 2 3 1 4 21 5 22 6 83 7 23 8 82 9 24 10 25 11 26 12
REMARK SMILES IDX 76 13 27 14 81 15 75 16 77 17 28 18 80 19 74 20 73 21 29 23
REMARK SMILES IDX 61 24 41 25 60 26 42 27 45 28 59 29 78 30 43 31 44 32 58 34
REMARK SMILES IDX 79 35 46 36 30 37 31 38 39 39 32 40 34 41 40 42 33 43 35 44
REMARK SMILES IDX 36 45 37 46 38 47 62 48 63 49 71 50 64 51 66 52 72 53 65 54
REMARK SMILES IDX 67 55 68 56 69 57 70 58 47 59 48 60 56 61 49 62 51 63 57 64
REMARK SMILES IDX 50 65 52 66 53 67 54 68 55 69 5 70 6 71 7 72 8 73 9 74 10 75
REMARK SMILES IDX 11 76 12 77 13 78 20 79 14 80 19 81 15 82 18 83 16 84 17 85
REMARK H PARENT 77 22 45 33
REMARK Flexibility Score: inf
ROOT
ATOM      1  C   UNL A   1      33.545  32.896  27.833  1.00  0.00     0.261 C 
ENDROOT
BRANCH   1   2
ATOM      2  O   UNL A   1      34.056  31.733  28.509  1.00  0.00    -0.460 OA
BRANCH   2   3
ATOM      3  C   UNL A   1      34.785  30.704  28.016  1.00  0.00     0.338 C 
ATOM      4  O   UNL A   1      34.344  30.116  27.029  1.00  0.00    -0.246 OA
BRANCH   3   5
ATOM      5  C   UNL A   1      36.091  30.234  28.584  1.00  0.00     0.060 A 
ATOM      6  C   UNL A   1      36.250  29.464  29.739  1.00  0.00     0.016 A 
ATOM      7  C   UNL A   1      37.244  30.517  27.827  1.00  0.00     0.016 A 
ATOM      8  C   UNL A   1      37.511  29.045  30.165  1.00  0.00     0.010 A 
ATOM      9  C   UNL A   1      38.506  30.058  28.222  1.00  0.00     0.010 A 
ATOM     10  C   UNL A   1      38.647  29.333  29.408  1.00  0.00    -0.014 A 
BRANCH  10  11
ATOM     11  C   UNL A   1      39.968  28.866  29.883  1.00  0.00     0.031 A 
ATOM     12  C   UNL A   1      40.629  27.700  29.211  1.00  0.00     0.074 A 
ATOM     13  C   UNL A   1      40.587  29.535  30.875  1.00  0.00     0.049 A 
ATOM     14  N   UNL A   1      41.811  27.189  29.429  1.00  0.00    -0.248 NA
ATOM     15  C   UNL A   1      39.867  27.027  28.147  1.00  0.00     0.031 C 
ATOM     16  C   UNL A   1      40.031  30.688  31.585  1.00  0.00     0.029 A 
ATOM     17  N   UNL A   1      41.818  29.350  31.448  1.00  0.00    -0.354 N 
ATOM     18  C   UNL A   1      41.932  26.128  28.543  1.00  0.00     0.074 A 
ATOM     19  C   UNL A   1      40.699  26.060  27.789  1.00  0.00     0.031 C 
ATOM     20  C   UNL A   1      40.927  31.119  32.488  1.00  0.00     0.029 A 
ATOM     21  C   UNL A   1      42.108  30.262  32.436  1.00  0.00     0.049 A 
ATOM     22  H   UNL A   1      42.437  28.633  31.177  1.00  0.00     0.167 HD
ATOM     23  C   UNL A   1      42.984  25.298  28.360  1.00  0.00     0.034 A 
ATOM     24  C   UNL A   1      43.205  30.392  33.206  1.00  0.00     0.034 A 
ATOM     25  C   UNL A   1      44.210  25.380  29.102  1.00  0.00     0.049 A 
ATOM     26  C   UNL A   1      44.356  29.445  32.988  1.00  0.00     0.074 A 
ATOM     27  C   UNL A   1      45.331  24.575  29.008  1.00  0.00     0.029 A 
ATOM     28  N   UNL A   1      44.475  26.323  30.083  1.00  0.00    -0.354 N 
ATOM     29  N   UNL A   1      44.487  28.502  32.085  1.00  0.00    -0.248 NA
ATOM     30  C   UNL A   1      45.515  29.591  33.878  1.00  0.00     0.031 C 
ATOM     31  C   UNL A   1      46.275  25.034  29.934  1.00  0.00     0.029 A 
ATOM     32  C   UNL A   1      45.741  26.123  30.605  1.00  0.00     0.049 A 
ATOM     33  H   UNL A   1      43.854  27.034  30.365  1.00  0.00     0.167 HD
ATOM     34  C   UNL A   1      45.745  27.950  32.290  1.00  0.00     0.074 A 
ATOM     35  C   UNL A   1      46.350  28.688  33.381  1.00  0.00     0.031 C 
ATOM     36  C   UNL A   1      46.336  26.906  31.658  1.00  0.00     0.034 A 
BRANCH  23  37
ATOM     37  C   UNL A   1      42.856  24.260  27.281  1.00  0.00     0.023 A 
ATOM     38  C   UNL A   1      43.360  24.543  25.996  1.00  0.00     0.012 A 
ATOM     39  C   UNL A   1      42.249  23.016  27.532  1.00  0.00     0.148 A 
ATOM     40  C   UNL A   1      43.245  23.608  24.969  1.00  0.00     0.002 A 
ATOM     41  C   UNL A   1      42.157  22.080  26.507  1.00  0.00     0.091 A 
ATOM     42  F   UNL A   1      41.747  22.783  28.753  1.00  0.00    -0.205 F 
ATOM     43  C   UNL A   1      42.650  22.376  25.225  1.00  0.00     0.022 A 
BRANCH  41  44
ATOM     44  S   UNL A   1      41.432  20.454  26.749  1.00  0.00     0.127 S 
ATOM     45  O   UNL A   1      42.246  19.928  27.843  1.00  0.00    -0.237 OA
ATOM     46  O   UNL A   1      40.054  20.780  27.116  1.00  0.00    -0.237 OA
ATOM     47  O   UNL A   1      41.569  19.763  25.474  1.00  0.00    -0.744 OA
ENDBRANCH  41  44
ENDBRANCH  23  37
BRANCH  24  48
ATOM     48  C   UNL A   1      43.291  31.495  34.204  1.00  0.00     0.023 A 
ATOM     49  C   UNL A   1      43.940  32.695  33.855  1.00  0.00     0.012 A 
ATOM     50  C   UNL A   1      42.701  31.385  35.478  1.00  0.00     0.148 A 
ATOM     51  C   UNL A   1      44.016  33.755  34.761  1.00  0.00     0.002 A 
ATOM     52  C   UNL A   1      42.734  32.465  36.357  1.00  0.00     0.091 A 
ATOM     53  F   UNL A   1      42.109  30.229  35.815  1.00  0.00    -0.205 F 
ATOM     54  C   UNL A   1      43.402  33.646  36.006  1.00  0.00     0.022 A 
BRANCH  52  55
ATOM     55  S   UNL A   1      41.835  32.413  37.913  1.00  0.00     0.127 S 
ATOM     56  O   UNL A   1      40.496  32.027  37.479  1.00  0.00    -0.237 OA
ATOM     57  O   UNL A   1      42.556  31.387  38.668  1.00  0.00    -0.237 OA
ATOM     58  O   UNL A   1      41.979  33.758  38.460  1.00  0.00    -0.744 OA
ENDBRANCH  52  55
ENDBRANCH  24  48
BRANCH  36  59
ATOM     59  C   UNL A   1      47.697  26.489  32.140  1.00  0.00     0.023 A 
ATOM     60  C   UNL A   1      47.792  25.590  33.220  1.00  0.00     0.012 A 
ATOM     61  C   UNL A   1      48.867  26.910  31.482  1.00  0.00     0.148 A 
ATOM     62  C   UNL A   1      49.035  25.129  33.650  1.00  0.00     0.002 A 
ATOM     63  C   UNL A   1      50.101  26.419  31.894  1.00  0.00     0.091 A 
ATOM     64  F   UNL A   1      48.759  27.787  30.472  1.00  0.00    -0.205 F 
ATOM     65  C   UNL A   1      50.188  25.534  32.980  1.00  0.00     0.022 A 
BRANCH  63  66
ATOM     66  S   UNL A   1      51.616  26.833  31.020  1.00  0.00     0.127 S 
ATOM     67  O   UNL A   1      52.584  25.945  31.661  1.00  0.00    -0.237 OA
ATOM     68  O   UNL A   1      51.294  26.484  29.635  1.00  0.00    -0.237 OA
ATOM     69  O   UNL A   1      51.811  28.259  31.244  1.00  0.00    -0.744 OA
ENDBRANCH  63  66
ENDBRANCH  36  59
ENDBRANCH  10  11
ENDBRANCH   3   5
ENDBRANCH   2   3
ENDBRANCH   1   2
BRANCH   1  70
ATOM     70  C   UNL A   1      33.971  34.163  28.578  1.00  0.00     0.202 C 
BRANCH  70  71
ATOM     71  O   UNL A   1      32.885  35.054  28.837  1.00  0.00    -0.374 OA
BRANCH  71  72
ATOM     72  C   UNL A   1      33.192  36.449  28.752  1.00  0.00     0.202 C 
BRANCH  72  73
ATOM     73  C   UNL A   1      33.287  37.031  30.167  1.00  0.00     0.261 C 
BRANCH  73  74
ATOM     74  O   UNL A   1      32.242  36.452  30.969  1.00  0.00    -0.458 OA
BRANCH  74  75
ATOM     75  C   UNL A   1      32.543  36.375  32.304  1.00  0.00     0.358 C 
ATOM     76  O   UNL A   1      31.948  36.974  33.192  1.00  0.00    -0.244 OA
BRANCH  75  77
ATOM     77  C   UNL A   1      33.587  35.383  32.548  1.00  0.00     0.167 A 
ATOM     78  C   UNL A   1      34.808  35.591  33.169  1.00  0.00     0.128 A 
ATOM     79  N   UNL A   1      33.518  34.084  32.066  1.00  0.00    -0.222 NA
ATOM     80  N   UNL A   1      35.495  34.412  33.052  1.00  0.00    -0.306 N 
ATOM     81  C   UNL A   1      34.679  33.537  32.345  1.00  0.00     0.137 A 
ATOM     82  C   UNL A   1      36.771  34.080  33.499  1.00  0.00     0.093 A 
ATOM     83  C   UNL A   1      35.213  32.257  32.031  1.00  0.00     0.048 A 
ATOM     84  C   UNL A   1      37.265  32.860  33.219  1.00  0.00     0.018 A 
ATOM     85  C   UNL A   1      36.453  31.931  32.445  1.00  0.00     0.005 A 
ENDBRANCH  75  77
ENDBRANCH  74  75
ENDBRANCH  73  74
ENDBRANCH  72  73
ENDBRANCH  71  72
ENDBRANCH  70  71
ENDBRANCH   1  70
TORSDOF 17
ENDMDL
MODEL 2
REMARK VINA RESULT:      -9.8      4.296     11.555
REMARK SMILES O=C(OCCOCCOC(=O)c1cn2ccccc2n1)c1ccc(-c2c3nc(c(-c4cccc(S(=O)(=O)[O-])c4F)c4ccc([nH]4)c(-c4cccc(S(=O)(=O)[O-])c4F)c4nc(c(-c5cccc(S(=O)(=O)[O-])c5F)c5ccc2[nH]5)C=C4)C=C3)cc1
REMARK SMILES IDX 4 1 3 2 2 3 1 4 21 5 22 6 83 7 23 8 82 9 24 10 25 11 26 12
REMARK SMILES IDX 76 13 27 14 81 15 75 16 77 17 28 18 80 19 74 20 73 21 29 23
REMARK SMILES IDX 61 24 41 25 60 26 42 27 45 28 59 29 78 30 43 31 44 32 58 34
REMARK SMILES IDX 79 35 46 36 30 37 31 38 39 39 32 40 34 41 40 42 33 43 35 44
REMARK SMILES IDX 36 45 37 46 38 47 62 48 63 49 71 50 64 51 66 52 72 53 65 54
REMARK SMILES IDX 67 55 68 56 69 57 70 58 47 59 48 60 56 61 49 62 51 63 57 64
REMARK SMILES IDX 50 65 52 66 53 67 54 68 55 69 5 70 6 71 7 72 8 73 9 74 10 75
REMARK SMILES IDX 11 76 12 77 13 78 20 79 14 80 19 81 15 82 18 83 16 84 17 85
REMARK H PARENT 77 22 45 33
REMARK Flexibility Score: inf
ROOT
ATOM      1  C   UNL A   1      41.033  21.394  26.585  1.00  0.00     0.261 C 
ENDROOT
BRANCH   1   2
ATOM      2  O   UNL A   1      39.634  21.605  26.324  1.00  0.00    -0.460 OA
BRANCH   2   3
ATOM      3  C   UNL A   1      38.948  22.766  26.203  1.00  0.00     0.338 C 
ATOM      4  O   UNL A   1      37.928  22.756  25.515  1.00  0.00    -0.246 OA
BRANCH   3   5
ATOM      5  C   UNL A   1      39.343  24.061  26.851  1.00  0.00     0.060 A 
ATOM      6  C   UNL A   1      39.247  24.356  28.213  1.00  0.00     0.016 A 
ATOM      7  C   UNL A   1      39.950  25.020  26.018  1.00  0.00     0.016 A 
ATOM      8  C   UNL A   1      39.678  25.582  28.723  1.00  0.00     0.010 A 
ATOM      9  C   UNL A   1      40.428  26.232  26.531  1.00  0.00     0.010 A 
ATOM     10  C   UNL A   1      40.276  26.526  27.888  1.00  0.00    -0.014 A 
BRANCH  10  11
ATOM     11  C   UNL A   1      40.729  27.812  28.462  1.00  0.00     0.031 A 
ATOM     12  C   UNL A   1      42.188  28.158  28.449  1.00  0.00     0.074 A 
ATOM     13  C   UNL A   1      39.816  28.682  28.935  1.00  0.00     0.049 A 
ATOM     14  N   UNL A   1      42.773  29.261  28.833  1.00  0.00    -0.248 NA
ATOM     15  C   UNL A   1      43.108  27.136  27.924  1.00  0.00     0.031 C 
ATOM     16  C   UNL A   1      38.373  28.442  28.982  1.00  0.00     0.029 A 
ATOM     17  N   UNL A   1      39.964  29.943  29.452  1.00  0.00    -0.354 N 
ATOM     18  C   UNL A   1      44.129  29.064  28.611  1.00  0.00     0.074 A 
ATOM     19  C   UNL A   1      44.283  27.732  28.068  1.00  0.00     0.031 C 
ATOM     20  C   UNL A   1      37.766  29.529  29.485  1.00  0.00     0.029 A 
ATOM     21  C   UNL A   1      38.775  30.531  29.815  1.00  0.00     0.049 A 
ATOM     22  H   UNL A   1      40.838  30.385  29.554  1.00  0.00     0.167 HD
ATOM     23  C   UNL A   1      45.152  29.924  28.822  1.00  0.00     0.034 A 
ATOM     24  C   UNL A   1      38.530  31.744  30.348  1.00  0.00     0.034 A 
ATOM     25  C   UNL A   1      44.990  31.250  29.349  1.00  0.00     0.049 A 
ATOM     26  C   UNL A   1      39.691  32.675  30.584  1.00  0.00     0.074 A 
ATOM     27  C   UNL A   1      45.963  32.195  29.619  1.00  0.00     0.029 A 
ATOM     28  N   UNL A   1      43.773  31.818  29.690  1.00  0.00    -0.354 N 
ATOM     29  N   UNL A   1      40.957  32.505  30.287  1.00  0.00    -0.248 NA
ATOM     30  C   UNL A   1      39.388  33.970  31.208  1.00  0.00     0.031 C 
ATOM     31  C   UNL A   1      45.331  33.337  30.125  1.00  0.00     0.029 A 
ATOM     32  C   UNL A   1      43.966  33.101  30.171  1.00  0.00     0.049 A 
ATOM     33  H   UNL A   1      42.898  31.375  29.602  1.00  0.00     0.167 HD
ATOM     34  C   UNL A   1      41.601  33.672  30.677  1.00  0.00     0.074 A 
ATOM     35  C   UNL A   1      40.578  34.556  31.199  1.00  0.00     0.031 C 
ATOM     36  C   UNL A   1      42.921  33.976  30.638  1.00  0.00     0.034 A 
BRANCH  23  37
ATOM     37  C   UNL A   1      46.527  29.457  28.438  1.00  0.00     0.023 A 
ATOM     38  C   UNL A   1      46.941  29.582  27.097  1.00  0.00     0.012 A 
ATOM     39  C   UNL A   1      47.404  28.906  29.389  1.00  0.00     0.148 A 
ATOM     40  C   UNL A   1      48.206  29.146  26.703  1.00  0.00     0.002 A 
ATOM     41  C   UNL A   1      48.673  28.494  28.993  1.00  0.00     0.091 A 
ATOM     42  F   UNL A   1      46.976  28.768  30.652  1.00  0.00    -0.205 F 
ATOM     43  C   UNL A   1      49.073  28.608  27.651  1.00  0.00     0.022 A 
BRANCH  41  44
ATOM     44  S   UNL A   1      49.870  27.814  30.147  1.00  0.00     0.127 S 
ATOM     45  O   UNL A   1      50.256  29.003  30.906  1.00  0.00    -0.237 OA
ATOM     46  O   UNL A   1      49.067  26.848  30.896  1.00  0.00    -0.237 OA
ATOM     47  O   UNL A   1      50.920  27.222  29.330  1.00  0.00    -0.744 OA
ENDBRANCH  41  44
ENDBRANCH  23  37
BRANCH  24  48
ATOM     48  C   UNL A   1      37.130  32.167  30.633  1.00  0.00     0.023 A 
ATOM     49  C   UNL A   1      36.632  32.072  31.946  1.00  0.00     0.012 A 
ATOM     50  C   UNL A   1      36.302  32.701  29.626  1.00  0.00     0.148 A 
ATOM     51  C   UNL A   1      35.331  32.483  32.247  1.00  0.00     0.002 A 
ATOM     52  C   UNL A   1      35.026  33.159  29.944  1.00  0.00     0.091 A 
ATOM     53  F   UNL A   1      36.774  32.763  28.372  1.00  0.00    -0.205 F 
ATOM     54  C   UNL A   1      34.533  33.038  31.250  1.00  0.00     0.022 A 
BRANCH  52  55
ATOM     55  S   UNL A   1      34.021  34.008  28.719  1.00  0.00     0.127 S 
ATOM     56  O   UNL A   1      32.895  34.477  29.520  1.00  0.00    -0.237 OA
ATOM     57  O   UNL A   1      34.917  35.062  28.242  1.00  0.00    -0.237 OA
ATOM     58  O   UNL A   1      33.728  32.987  27.719  1.00  0.00    -0.744 OA
ENDBRANCH  52  55
ENDBRANCH  24  48
BRANCH  36  59
ATOM     59  C   UNL A   1      43.338  35.311  31.190  1.00  0.00     0.023 A 
ATOM     60  C   UNL A   1      43.658  35.413  32.558  1.00  0.00     0.012 A 
ATOM     61  C   UNL A   1      43.496  36.432  30.354  1.00  0.00     0.148 A 
ATOM     62  C   UNL A   1      44.112  36.619  33.090  1.00  0.00     0.002 A 
ATOM     63  C   UNL A   1      43.983  37.621  30.885  1.00  0.00     0.091 A 
ATOM     64  F   UNL A   1      43.162  36.322  29.060  1.00  0.00    -0.205 F 
ATOM     65  C   UNL A   1      44.287  37.718  32.253  1.00  0.00     0.022 A 
BRANCH  63  66
ATOM     66  S   UNL A   1      44.313  39.049  29.845  1.00  0.00     0.127 S 
ATOM     67  O   UNL A   1      44.846  40.007  30.810  1.00  0.00    -0.237 OA
ATOM     68  O   UNL A   1      45.298  38.532  28.893  1.00  0.00    -0.237 OA
ATOM     69  O   UNL A   1      43.030  39.392  29.246  1.00  0.00    -0.744 OA
ENDBRANCH  63  66
ENDBRANCH  36  59
ENDBRANCH  10  11
ENDBRANCH   3   5
ENDBRANCH   2   3
ENDBRANCH   1   2
BRANCH   1  70
ATOM     70  C   UNL A   1      41.398  19.930  26.329  1.00  0.00     0.202 C 
BRANCH  70  71
ATOM     71  O   UNL A   1      42.149  19.344  27.393  1.00  0.00    -0.374 OA
BRANCH  71  72
ATOM     72  C   UNL A   1      43.037  18.287  27.017  1.00  0.00     0.202 C 
BRANCH  72  73
ATOM     73  C   UNL A   1      43.438  18.463  25.548  1.00  0.00     0.261 C 
BRANCH  73  74
ATOM     74  O   UNL A   1      44.861  18.675  25.486  1.00  0.00    -0.458 OA
BRANCH  74  75
ATOM     75  C   UNL A   1      45.282  19.284  24.332  1.00  0.00     0.358 C 
ATOM     76  O   UNL A   1      45.585  18.696  23.301  1.00  0.00    -0.244 OA
BRANCH  75  77
ATOM     77  C   UNL A   1      45.199  20.738  24.448  1.00  0.00     0.167 A 
ATOM     78  C   UNL A   1      46.223  21.608  24.783  1.00  0.00     0.128 A 
ATOM     79  N   UNL A   1      44.005  21.435  24.339  1.00  0.00    -0.222 NA
ATOM     80  N   UNL A   1      45.645  22.845  24.892  1.00  0.00    -0.306 N 
ATOM     81  C   UNL A   1      44.288  22.681  24.643  1.00  0.00     0.137 A 
ATOM     82  C   UNL A   1      46.224  24.071  25.213  1.00  0.00     0.093 A 
ATOM     83  C   UNL A   1      43.457  23.827  24.773  1.00  0.00     0.048 A 
ATOM     84  C   UNL A   1      45.438  25.158  25.314  1.00  0.00     0.018 A 
ATOM     85  C   UNL A   1      44.005  25.015  25.098  1.00  0.00     0.005 A 
ENDBRANCH  75  77
ENDBRANCH  74  75
ENDBRANCH  73  74
ENDBRANCH  72  73
ENDBRANCH  71  72
ENDBRANCH  70  71
ENDBRANCH   1  70
TORSDOF 17
ENDMDL
MODEL 3
REMARK VINA RESULT:      -9.8      4.081      9.799
REMARK SMILES O=C(OCCOCCOC(=O)c1cn2ccccc2n1)c1ccc(-c2c3nc(c(-c4cccc(S(=O)(=O)[O-])c4F)c4ccc([nH]4)c(-c4cccc(S(=O)(=O)[O-])c4F)c4nc(c(-c5cccc(S(=O)(=O)[O-])c5F)c5ccc2[nH]5)C=C4)C=C3)cc1
REMARK SMILES IDX 4 1 3 2 2 3 1 4 21 5 22 6 83 7 23 8 82 9 24 10 25 11 26 12
REMARK SMILES IDX 76 13 27 14 81 15 75 16 77 17 28 18 80 19 74 20 73 21 29 23
REMARK SMILES IDX 61 24 41 25 60 26 42 27 45 28 59 29 78 30 43 31 44 32 58 34
REMARK SMILES IDX 79 35 46 36 30 37 31 38 39 39 32 40 34 41 40 42 33 43 35 44
REMARK SMILES IDX 36 45 37 46 38 47 62 48 63 49 71 50 64 51 66 52 72 53 65 54
REMARK SMILES IDX 67 55 68 56 69 57 70 58 47 59 48 60 56 61 49 62 51 63 57 64
REMARK SMILES IDX 50 65 52 66 53 67 54 68 55 69 5 70 6 71 7 72 8 73 9 74 10 75
REMARK SMILES IDX 11 76 12 77 13 78 20 79 14 80 19 81 15 82 18 83 16 84 17 85
REMARK H PARENT 77 22 45 33
REMARK Flexibility Score: inf
ROOT
ATOM      1  C   UNL A   1      31.639  30.024  26.430  1.00  0.00     0.261 C 
ENDROOT
BRANCH   1   2
ATOM      2  O   UNL A   1      32.913  30.684  26.312  1.00  0.00    -0.460 OA
BRANCH   2   3
ATOM      3  C   UNL A   1      33.566  31.457  27.211  1.00  0.00     0.338 C 
ATOM      4  O   UNL A   1      33.032  32.514  27.546  1.00  0.00    -0.246 OA
BRANCH   3   5
ATOM      5  C   UNL A   1      34.890  31.115  27.828  1.00  0.00     0.060 A 
ATOM      6  C   UNL A   1      35.938  32.009  28.060  1.00  0.00     0.016 A 
ATOM      7  C   UNL A   1      35.042  29.797  28.298  1.00  0.00     0.016 A 
ATOM      8  C   UNL A   1      37.121  31.597  28.677  1.00  0.00     0.010 A 
ATOM      9  C   UNL A   1      36.206  29.390  28.961  1.00  0.00     0.010 A 
ATOM     10  C   UNL A   1      37.261  30.288  29.137  1.00  0.00    -0.014 A 
BRANCH  10  11
ATOM     11  C   UNL A   1      38.524  29.886  29.794  1.00  0.00     0.031 A 
ATOM     12  C   UNL A   1      38.850  30.413  31.160  1.00  0.00     0.074 A 
ATOM     13  C   UNL A   1      39.336  29.005  29.181  1.00  0.00     0.049 A 
ATOM     14  N   UNL A   1      39.865  30.124  31.930  1.00  0.00    -0.248 NA
ATOM     15  C   UNL A   1      37.907  31.382  31.741  1.00  0.00     0.031 C 
ATOM     16  C   UNL A   1      39.102  28.427  27.857  1.00  0.00     0.029 A 
ATOM     17  N   UNL A   1      40.512  28.432  29.594  1.00  0.00    -0.354 N 
ATOM     18  C   UNL A   1      39.692  30.883  33.080  1.00  0.00     0.074 A 
ATOM     19  C   UNL A   1      38.481  31.655  32.904  1.00  0.00     0.031 C 
ATOM     20  C   UNL A   1      40.094  27.568  27.573  1.00  0.00     0.029 A 
ATOM     21  C   UNL A   1      41.044  27.551  28.681  1.00  0.00     0.049 A 
ATOM     22  H   UNL A   1      40.935  28.632  30.460  1.00  0.00     0.167 HD
ATOM     23  C   UNL A   1      40.464  30.917  34.191  1.00  0.00     0.034 A 
ATOM     24  C   UNL A   1      42.168  26.811  28.740  1.00  0.00     0.034 A 
ATOM     25  C   UNL A   1      41.658  30.139  34.364  1.00  0.00     0.049 A 
ATOM     26  C   UNL A   1      43.014  26.880  29.984  1.00  0.00     0.074 A 
ATOM     27  C   UNL A   1      42.522  30.115  35.444  1.00  0.00     0.029 A 
ATOM     28  N   UNL A   1      42.158  29.246  33.429  1.00  0.00    -0.354 N 
ATOM     29  N   UNL A   1      42.789  27.537  31.098  1.00  0.00    -0.248 NA
ATOM     30  C   UNL A   1      44.254  26.093  29.990  1.00  0.00     0.031 C 
ATOM     31  C   UNL A   1      43.548  29.205  35.158  1.00  0.00     0.029 A 
ATOM     32  C   UNL A   1      43.321  28.666  33.902  1.00  0.00     0.049 A 
ATOM     33  H   UNL A   1      41.745  29.053  32.556  1.00  0.00     0.167 HD
ATOM     34  C   UNL A   1      43.852  27.236  31.939  1.00  0.00     0.074 A 
ATOM     35  C   UNL A   1      44.702  26.308  31.220  1.00  0.00     0.031 C 
ATOM     36  C   UNL A   1      44.120  27.707  33.182  1.00  0.00     0.034 A 
BRANCH  23  37
ATOM     37  C   UNL A   1      40.003  31.802  35.314  1.00  0.00     0.023 A 
ATOM     38  C   UNL A   1      40.544  33.098  35.429  1.00  0.00     0.012 A 
ATOM     39  C   UNL A   1      39.044  31.363  36.245  1.00  0.00     0.148 A 
ATOM     40  C   UNL A   1      40.150  33.940  36.468  1.00  0.00     0.002 A 
ATOM     41  C   UNL A   1      38.640  32.218  37.266  1.00  0.00     0.091 A 
ATOM     42  F   UNL A   1      38.568  30.115  36.134  1.00  0.00    -0.205 F 
ATOM     43  C   UNL A   1      39.195  33.503  37.382  1.00  0.00     0.022 A 
BRANCH  41  44
ATOM     44  S   UNL A   1      37.394  31.754  38.474  1.00  0.00     0.127 S 
ATOM     45  O   UNL A   1      36.327  32.707  38.178  1.00  0.00    -0.237 OA
ATOM     46  O   UNL A   1      37.097  30.371  38.100  1.00  0.00    -0.237 OA
ATOM     47  O   UNL A   1      38.027  31.903  39.777  1.00  0.00    -0.744 OA
ENDBRANCH  41  44
ENDBRANCH  23  37
BRANCH  24  48
ATOM     48  C   UNL A   1      42.520  25.897  27.616  1.00  0.00     0.023 A 
ATOM     49  C   UNL A   1      43.404  26.341  26.614  1.00  0.00     0.012 A 
ATOM     50  C   UNL A   1      42.025  24.580  27.553  1.00  0.00     0.148 A 
ATOM     51  C   UNL A   1      43.770  25.500  25.562  1.00  0.00     0.002 A 
ATOM     52  C   UNL A   1      42.437  23.729  26.531  1.00  0.00     0.091 A 
ATOM     53  F   UNL A   1      41.162  24.172  28.496  1.00  0.00    -0.205 F 
ATOM     54  C   UNL A   1      43.298  24.190  25.527  1.00  0.00     0.022 A 
BRANCH  52  55
ATOM     55  S   UNL A   1      41.962  21.996  26.529  1.00  0.00     0.127 S 
ATOM     56  O   UNL A   1      42.426  21.551  27.840  1.00  0.00    -0.237 OA
ATOM     57  O   UNL A   1      40.507  22.059  26.382  1.00  0.00    -0.237 OA
ATOM     58  O   UNL A   1      42.647  21.432  25.371  1.00  0.00    -0.744 OA
ENDBRANCH  52  55
ENDBRANCH  24  48
BRANCH  36  59
ATOM     59  C   UNL A   1      45.392  27.241  33.836  1.00  0.00     0.023 A 
ATOM     60  C   UNL A   1      46.557  28.019  33.690  1.00  0.00     0.012 A 
ATOM     61  C   UNL A   1      45.417  26.099  34.657  1.00  0.00     0.148 A 
ATOM     62  C   UNL A   1      47.736  27.654  34.337  1.00  0.00     0.002 A 
ATOM     63  C   UNL A   1      46.587  25.761  35.327  1.00  0.00     0.091 A 
ATOM     64  F   UNL A   1      44.304  25.357  34.763  1.00  0.00    -0.205 F 
ATOM     65  C   UNL A   1      47.749  26.533  35.165  1.00  0.00     0.022 A 
BRANCH  63  66
ATOM     66  S   UNL A   1      46.646  24.380  36.475  1.00  0.00     0.127 S 
ATOM     67  O   UNL A   1      48.020  24.457  36.967  1.00  0.00    -0.237 OA
ATOM     68  O   UNL A   1      45.625  24.738  37.462  1.00  0.00    -0.237 OA
ATOM     69  O   UNL A   1      46.317  23.205  35.680  1.00  0.00    -0.744 OA
ENDBRANCH  63  66
ENDBRANCH  36  59
ENDBRANCH  10  11
ENDBRANCH   3   5
ENDBRANCH   2   3
ENDBRANCH   1   2
BRANCH   1  70
ATOM     70  C   UNL A   1      31.845  28.527  26.667  1.00  0.00     0.202 C 
BRANCH  70  71
ATOM     71  O   UNL A   1      33.075  28.037  26.131  1.00  0.00    -0.374 OA
BRANCH  71  72
ATOM     72  C   UNL A   1      33.207  26.613  26.079  1.00  0.00     0.202 C 
BRANCH  72  73
ATOM     73  C   UNL A   1      33.689  26.203  24.682  1.00  0.00     0.261 C 
BRANCH  73  74
ATOM     74  O   UNL A   1      33.747  27.379  23.856  1.00  0.00    -0.458 OA
BRANCH  74  75
ATOM     75  C   UNL A   1      33.003  27.290  22.708  1.00  0.00     0.358 C 
ATOM     76  O   UNL A   1      33.369  26.735  21.679  1.00  0.00    -0.244 OA
BRANCH  75  77
ATOM     77  C   UNL A   1      31.660  27.828  22.911  1.00  0.00     0.167 A 
ATOM     78  C   UNL A   1      30.476  27.114  22.980  1.00  0.00     0.128 A 
ATOM     79  N   UNL A   1      31.393  29.189  22.950  1.00  0.00    -0.222 NA
ATOM     80  N   UNL A   1      29.477  28.048  23.047  1.00  0.00    -0.306 N 
ATOM     81  C   UNL A   1      30.085  29.296  22.994  1.00  0.00     0.137 A 
ATOM     82  C   UNL A   1      28.098  27.869  23.127  1.00  0.00     0.093 A 
ATOM     83  C   UNL A   1      29.236  30.436  22.973  1.00  0.00     0.048 A 
ATOM     84  C   UNL A   1      27.297  28.950  23.129  1.00  0.00     0.018 A 
ATOM     85  C   UNL A   1      27.899  30.274  23.035  1.00  0.00     0.005 A 
ENDBRANCH  75  77
ENDBRANCH  74  75
ENDBRANCH  73  74
ENDBRANCH  72  73
ENDBRANCH  71  72
ENDBRANCH  70  71
ENDBRANCH   1  70
TORSDOF 17
ENDMDL
