MODEL 1
REMARK VINA RESULT:     -10.8      0.000      0.000
REMARK SMILES CS(=O)(=O)c1ccc(C2=NN(c3ccc(C(=O)OCCOCCOC(=O)c4ccc(-c5c6nc(c(-c7cccc(S(=O)(=O)[O-])c7F)c7ccc([nH]7)c(-c7cccc(S(=O)(=O)[O-])c7F)c7nc(c(-c8cccc(S(=O)(=O)[O-])c8F)c8ccc5[nH]8)C=C7)C=C6)cc4)cc3)[C@H](c3ccc(Cl)cc3)C2)cc1
REMARK SMILES IDX 21 1 20 2 19 3 18 4 16 5 17 6 15 7 12 8 13 9 91 10 14 11
REMARK SMILES IDX 90 12 11 13 9 14 10 15 100 16 92 17 8 18 5 19 6 20 102 21
REMARK SMILES IDX 7 22 101 23 2 24 1 25 3 26 4 27 93 28 94 29 99 30 95 31
REMARK SMILES IDX 98 32 96 33 97 34 22 35 23 36 24 37 25 38 26 39 27 40 28 41
REMARK SMILES IDX 89 42 29 43 88 44 30 45 31 46 32 47 82 48 33 49 87 50 81 51
REMARK SMILES IDX 83 52 34 53 86 54 80 55 79 56 35 58 67 59 47 60 66 61 48 62
REMARK SMILES IDX 51 63 65 64 84 65 49 66 50 67 64 69 85 70 52 71 36 72 37 73
REMARK SMILES IDX 45 74 38 75 40 76 46 77 39 78 41 79 42 80 43 81 44 82 68 83
REMARK SMILES IDX 69 84 77 85 70 86 72 87 78 88 71 89 73 90 74 91 75 92 76 93
REMARK SMILES IDX 53 94 54 95 62 96 55 97 57 98 63 99 56 100 58 101 59 102
REMARK SMILES IDX 60 103 61 104
REMARK H PARENT 83 57 51 68
REMARK Flexibility Score: inf
ROOT
ATOM      1  O   UNL A   1      40.997  24.987  28.356  1.00  0.00    -0.374 OA
ENDROOT
BRANCH   1   2
ATOM      2  C   UNL A   1      41.664  23.818  27.874  1.00  0.00     0.202 C 
BRANCH   2   3
ATOM      3  C   UNL A   1      40.794  22.575  27.673  1.00  0.00     0.261 C 
BRANCH   3   4
ATOM      4  O   UNL A   1      39.542  22.920  27.062  1.00  0.00    -0.460 OA
BRANCH   4   5
ATOM      5  C   UNL A   1      39.088  22.054  26.129  1.00  0.00     0.338 C 
ATOM      6  O   UNL A   1      39.566  20.959  25.854  1.00  0.00    -0.246 OA
BRANCH   5   7
ATOM      7  C   UNL A   1      37.828  22.550  25.525  1.00  0.00     0.060 A 
ATOM      8  C   UNL A   1      35.323  23.419  24.607  1.00  0.00     0.060 A 
ATOM      9  C   UNL A   1      35.897  24.002  25.741  1.00  0.00     0.029 A 
ATOM     10  C   UNL A   1      36.070  22.490  23.871  1.00  0.00     0.029 A 
ATOM     11  C   UNL A   1      37.139  23.565  26.202  1.00  0.00     0.018 A 
ATOM     12  C   UNL A   1      37.314  22.045  24.326  1.00  0.00     0.018 A 
BRANCH   8  13
ATOM     13  N   UNL A   1      33.969  23.608  24.306  1.00  0.00    -0.257 N 
ATOM     14  C   UNL A   1      32.296  24.927  24.258  1.00  0.00     0.071 C 
ATOM     15  N   UNL A   1      33.530  24.820  23.877  1.00  0.00    -0.176 NA
ATOM     16  C   UNL A   1      31.791  23.834  25.158  1.00  0.00     0.091 C 
ATOM     17  C   UNL A   1      32.985  22.872  25.119  1.00  0.00     0.144 C 
BRANCH  14  18
ATOM     18  C   UNL A   1      31.430  26.045  23.839  1.00  0.00    -0.002 A 
ATOM     19  C   UNL A   1      29.863  28.189  22.985  1.00  0.00     0.067 A 
ATOM     20  C   UNL A   1      31.189  28.079  22.552  1.00  0.00     0.021 A 
ATOM     21  C   UNL A   1      29.315  27.229  23.842  1.00  0.00     0.021 A 
ATOM     22  C   UNL A   1      31.975  27.014  22.990  1.00  0.00     0.011 A 
ATOM     23  C   UNL A   1      30.101  26.146  24.261  1.00  0.00     0.011 A 
BRANCH  19  24
ATOM     24  S   UNL A   1      28.930  29.583  22.394  1.00  0.00     0.175 S 
ATOM     25  C   UNL A   1      29.071  30.866  23.602  1.00  0.00     0.163 C 
ATOM     26  O   UNL A   1      27.538  29.172  22.381  1.00  0.00    -0.224 OA
ATOM     27  O   UNL A   1      29.591  30.042  21.189  1.00  0.00    -0.224 OA
ENDBRANCH  19  24
ENDBRANCH  14  18
BRANCH  17  28
ATOM     28  C   UNL A   1      32.764  21.479  24.547  1.00  0.00    -0.023 A 
ATOM     29  C   UNL A   1      32.289  21.241  23.250  1.00  0.00     0.007 A 
ATOM     30  C   UNL A   1      33.150  20.366  25.324  1.00  0.00     0.007 A 
ATOM     31  C   UNL A   1      32.205  19.936  22.750  1.00  0.00     0.021 A 
ATOM     32  C   UNL A   1      33.105  19.067  24.811  1.00  0.00     0.021 A 
ATOM     33  C   UNL A   1      32.627  18.858  23.525  1.00  0.00     0.041 A 
ATOM     34  Cl  UNL A   1      32.572  17.269  22.875  1.00  0.00    -0.084 Cl
ENDBRANCH  17  28
ENDBRANCH   8  13
ENDBRANCH   5   7
ENDBRANCH   4   5
ENDBRANCH   3   4
ENDBRANCH   2   3
ENDBRANCH   1   2
BRANCH   1  35
ATOM     35  C   UNL A   1      41.141  26.182  27.588  1.00  0.00     0.202 C 
BRANCH  35  36
ATOM     36  C   UNL A   1      40.817  26.086  26.092  1.00  0.00     0.261 C 
BRANCH  36  37
ATOM     37  O   UNL A   1      42.000  26.005  25.279  1.00  0.00    -0.460 OA
BRANCH  37  38
ATOM     38  C   UNL A   1      42.690  27.163  25.164  1.00  0.00     0.338 C 
ATOM     39  O   UNL A   1      42.314  28.197  24.624  1.00  0.00    -0.246 OA
BRANCH  38  40
ATOM     40  C   UNL A   1      43.935  27.091  25.950  1.00  0.00     0.060 A 
ATOM     41  C   UNL A   1      44.569  25.845  26.046  1.00  0.00     0.016 A 
ATOM     42  C   UNL A   1      44.447  28.202  26.626  1.00  0.00     0.016 A 
ATOM     43  C   UNL A   1      45.691  25.694  26.857  1.00  0.00     0.010 A 
ATOM     44  C   UNL A   1      45.570  28.044  27.445  1.00  0.00     0.010 A 
ATOM     45  C   UNL A   1      46.177  26.784  27.589  1.00  0.00    -0.014 A 
BRANCH  45  46
ATOM     46  C   UNL A   1      47.257  26.578  28.585  1.00  0.00     0.031 A 
ATOM     47  C   UNL A   1      46.900  26.185  29.992  1.00  0.00     0.074 A 
ATOM     48  C   UNL A   1      48.546  26.746  28.238  1.00  0.00     0.049 A 
ATOM     49  N   UNL A   1      47.685  25.974  31.016  1.00  0.00    -0.248 NA
ATOM     50  C   UNL A   1      45.468  26.009  30.285  1.00  0.00     0.031 C 
ATOM     51  C   UNL A   1      49.017  27.132  26.908  1.00  0.00     0.029 A 
ATOM     52  N   UNL A   1      49.692  26.638  28.985  1.00  0.00    -0.354 N 
ATOM     53  C   UNL A   1      46.845  25.670  32.081  1.00  0.00     0.074 A 
ATOM     54  C   UNL A   1      45.488  25.733  31.581  1.00  0.00     0.031 C 
ATOM     55  C   UNL A   1      50.354  27.261  26.942  1.00  0.00     0.029 A 
ATOM     56  C   UNL A   1      50.829  26.989  28.297  1.00  0.00     0.049 A 
ATOM     57  H   UNL A   1      49.700  26.340  29.922  1.00  0.00     0.167 HD
ATOM     58  C   UNL A   1      47.174  25.353  33.356  1.00  0.00     0.034 A 
ATOM     59  C   UNL A   1      52.105  27.099  28.717  1.00  0.00     0.034 A 
ATOM     60  C   UNL A   1      48.524  25.269  33.846  1.00  0.00     0.049 A 
ATOM     61  C   UNL A   1      52.443  26.756  30.145  1.00  0.00     0.074 A 
ATOM     62  C   UNL A   1      48.961  24.891  35.103  1.00  0.00     0.029 A 
ATOM     63  N   UNL A   1      49.654  25.586  33.109  1.00  0.00    -0.354 N 
ATOM     64  N   UNL A   1      51.653  26.334  31.102  1.00  0.00    -0.248 NA
ATOM     65  C   UNL A   1      53.854  26.874  30.541  1.00  0.00     0.031 C 
ATOM     66  C   UNL A   1      50.355  25.007  35.135  1.00  0.00     0.029 A 
ATOM     67  C   UNL A   1      50.788  25.431  33.889  1.00  0.00     0.049 A 
ATOM     68  H   UNL A   1      49.652  25.878  32.169  1.00  0.00     0.167 HD
ATOM     69  C   UNL A   1      52.473  26.107  32.203  1.00  0.00     0.074 A 
ATOM     70  C   UNL A   1      53.824  26.416  31.786  1.00  0.00     0.031 C 
ATOM     71  C   UNL A   1      52.135  25.695  33.450  1.00  0.00     0.034 A 
BRANCH  58  72
ATOM     72  C   UNL A   1      46.052  25.043  34.312  1.00  0.00     0.023 A 
ATOM     73  C   UNL A   1      45.668  23.704  34.526  1.00  0.00     0.012 A 
ATOM     74  C   UNL A   1      45.420  26.068  35.042  1.00  0.00     0.148 A 
ATOM     75  C   UNL A   1      44.652  23.392  35.429  1.00  0.00     0.002 A 
ATOM     76  C   UNL A   1      44.438  25.746  35.972  1.00  0.00     0.091 A 
ATOM     77  F   UNL A   1      45.784  27.337  34.808  1.00  0.00    -0.205 F 
ATOM     78  C   UNL A   1      44.047  24.411  36.158  1.00  0.00     0.022 A 
BRANCH  76  79
ATOM     79  S   UNL A   1      43.653  26.980  37.014  1.00  0.00     0.127 S 
ATOM     80  O   UNL A   1      42.749  27.633  36.068  1.00  0.00    -0.237 OA
ATOM     81  O   UNL A   1      42.986  26.154  38.022  1.00  0.00    -0.237 OA
ATOM     82  O   UNL A   1      44.729  27.814  37.531  1.00  0.00    -0.744 OA
ENDBRANCH  76  79
ENDBRANCH  58  72
BRANCH  59  83
ATOM     83  C   UNL A   1      53.166  27.528  27.763  1.00  0.00     0.023 A 
ATOM     84  C   UNL A   1      53.391  28.899  27.541  1.00  0.00     0.012 A 
ATOM     85  C   UNL A   1      53.968  26.582  27.095  1.00  0.00     0.148 A 
ATOM     86  C   UNL A   1      54.379  29.322  26.650  1.00  0.00     0.002 A 
ATOM     87  C   UNL A   1      54.988  27.011  26.252  1.00  0.00     0.091 A 
ATOM     88  F   UNL A   1      53.726  25.280  27.304  1.00  0.00    -0.205 F 
ATOM     89  C   UNL A   1      55.184  28.380  26.015  1.00  0.00     0.022 A 
BRANCH  87  90
ATOM     90  S   UNL A   1      56.157  25.873  25.500  1.00  0.00     0.127 S 
ATOM     91  O   UNL A   1      55.280  25.044  24.677  1.00  0.00    -0.237 OA
ATOM     92  O   UNL A   1      57.026  26.784  24.754  1.00  0.00    -0.237 OA
ATOM     93  O   UNL A   1      56.813  25.196  26.610  1.00  0.00    -0.744 OA
ENDBRANCH  87  90
ENDBRANCH  59  83
BRANCH  71  94
ATOM     94  C   UNL A   1      53.244  25.527  34.458  1.00  0.00     0.023 A 
ATOM     95  C   UNL A   1      53.393  26.466  35.497  1.00  0.00     0.012 A 
ATOM     96  C   UNL A   1      54.090  24.400  34.419  1.00  0.00     0.148 A 
ATOM     97  C   UNL A   1      54.386  26.305  36.462  1.00  0.00     0.002 A 
ATOM     98  C   UNL A   1      55.045  24.220  35.411  1.00  0.00     0.091 A 
ATOM     99  F   UNL A   1      53.943  23.525  33.413  1.00  0.00    -0.205 F 
ATOM    100  C   UNL A   1      55.204  25.176  36.427  1.00  0.00     0.022 A 
BRANCH  98 101
ATOM    101  S   UNL A   1      56.078  22.752  35.500  1.00  0.00     0.127 S 
ATOM    102  O   UNL A   1      56.859  22.862  34.269  1.00  0.00    -0.237 OA
ATOM    103  O   UNL A   1      56.842  22.982  36.728  1.00  0.00    -0.237 OA
ATOM    104  O   UNL A   1      55.163  21.621  35.562  1.00  0.00    -0.744 OA
ENDBRANCH  98 101
ENDBRANCH  71  94
ENDBRANCH  45  46
ENDBRANCH  38  40
ENDBRANCH  37  38
ENDBRANCH  36  37
ENDBRANCH  35  36
ENDBRANCH   1  35
TORSDOF 21
ENDMDL
MODEL 2
REMARK VINA RESULT:     -10.7      5.268      8.646
REMARK SMILES CS(=O)(=O)c1ccc(C2=NN(c3ccc(C(=O)OCCOCCOC(=O)c4ccc(-c5c6nc(c(-c7cccc(S(=O)(=O)[O-])c7F)c7ccc([nH]7)c(-c7cccc(S(=O)(=O)[O-])c7F)c7nc(c(-c8cccc(S(=O)(=O)[O-])c8F)c8ccc5[nH]8)C=C7)C=C6)cc4)cc3)[C@H](c3ccc(Cl)cc3)C2)cc1
REMARK SMILES IDX 21 1 20 2 19 3 18 4 16 5 17 6 15 7 12 8 13 9 91 10 14 11
REMARK SMILES IDX 90 12 11 13 9 14 10 15 100 16 92 17 8 18 5 19 6 20 102 21
REMARK SMILES IDX 7 22 101 23 2 24 1 25 3 26 4 27 93 28 94 29 99 30 95 31
REMARK SMILES IDX 98 32 96 33 97 34 22 35 23 36 24 37 25 38 26 39 27 40 28 41
REMARK SMILES IDX 89 42 29 43 88 44 30 45 31 46 32 47 82 48 33 49 87 50 81 51
REMARK SMILES IDX 83 52 34 53 86 54 80 55 79 56 35 58 67 59 47 60 66 61 48 62
REMARK SMILES IDX 51 63 65 64 84 65 49 66 50 67 64 69 85 70 52 71 36 72 37 73
REMARK SMILES IDX 45 74 38 75 40 76 46 77 39 78 41 79 42 80 43 81 44 82 68 83
REMARK SMILES IDX 69 84 77 85 70 86 72 87 78 88 71 89 73 90 74 91 75 92 76 93
REMARK SMILES IDX 53 94 54 95 62 96 55 97 57 98 63 99 56 100 58 101 59 102
REMARK SMILES IDX 60 103 61 104
REMARK H PARENT 83 57 51 68
REMARK Flexibility Score: inf
ROOT
ATOM      1  O   UNL A   1      35.708  33.874  30.130  1.00  0.00    -0.374 OA
ENDROOT
BRANCH   1   2
ATOM      2  C   UNL A   1      36.490  32.936  29.387  1.00  0.00     0.202 C 
BRANCH   2   3
ATOM      3  C   UNL A   1      35.996  32.611  27.974  1.00  0.00     0.261 C 
BRANCH   3   4
ATOM      4  O   UNL A   1      35.354  31.328  27.939  1.00  0.00    -0.460 OA
BRANCH   4   5
ATOM      5  C   UNL A   1      34.018  31.348  27.735  1.00  0.00     0.338 C 
ATOM      6  O   UNL A   1      33.281  32.323  27.816  1.00  0.00    -0.246 OA
BRANCH   5   7
ATOM      7  C   UNL A   1      33.541  30.021  27.275  1.00  0.00     0.060 A 
ATOM      8  C   UNL A   1      32.755  27.563  26.173  1.00  0.00     0.060 A 
ATOM      9  C   UNL A   1      34.112  27.872  26.307  1.00  0.00     0.029 A 
ATOM     10  C   UNL A   1      31.804  28.442  26.711  1.00  0.00     0.029 A 
ATOM     11  C   UNL A   1      34.503  29.097  26.847  1.00  0.00     0.018 A 
ATOM     12  C   UNL A   1      32.187  29.671  27.252  1.00  0.00     0.018 A 
BRANCH   8  13
ATOM     13  N   UNL A   1      32.333  26.501  25.365  1.00  0.00    -0.257 N 
ATOM     14  C   UNL A   1      32.693  24.531  24.636  1.00  0.00     0.071 C 
ATOM     15  N   UNL A   1      32.599  25.220  25.730  1.00  0.00    -0.176 NA
ATOM     16  C   UNL A   1      32.661  25.323  23.359  1.00  0.00     0.091 C 
ATOM     17  C   UNL A   1      32.335  26.718  23.907  1.00  0.00     0.144 C 
BRANCH  14  18
ATOM     18  C   UNL A   1      32.819  23.062  24.632  1.00  0.00    -0.002 A 
ATOM     19  C   UNL A   1      33.023  20.282  24.532  1.00  0.00     0.067 A 
ATOM     20  C   UNL A   1      32.404  20.973  23.484  1.00  0.00     0.021 A 
ATOM     21  C   UNL A   1      33.544  20.975  25.629  1.00  0.00     0.021 A 
ATOM     22  C   UNL A   1      32.291  22.361  23.542  1.00  0.00     0.011 A 
ATOM     23  C   UNL A   1      33.450  22.373  25.672  1.00  0.00     0.011 A 
BRANCH  19  24
ATOM     24  S   UNL A   1      33.115  18.511  24.392  1.00  0.00     0.175 S 
ATOM     25  C   UNL A   1      32.533  18.076  22.780  1.00  0.00     0.163 C 
ATOM     26  O   UNL A   1      32.160  17.972  25.342  1.00  0.00    -0.224 OA
ATOM     27  O   UNL A   1      34.521  18.164  24.459  1.00  0.00    -0.224 OA
ENDBRANCH  19  24
ENDBRANCH  14  18
BRANCH  17  28
ATOM     28  C   UNL A   1      31.033  27.373  23.470  1.00  0.00    -0.023 A 
ATOM     29  C   UNL A   1      29.766  26.909  23.849  1.00  0.00     0.007 A 
ATOM     30  C   UNL A   1      31.101  28.569  22.723  1.00  0.00     0.007 A 
ATOM     31  C   UNL A   1      28.611  27.617  23.496  1.00  0.00     0.021 A 
ATOM     32  C   UNL A   1      29.953  29.298  22.406  1.00  0.00     0.021 A 
ATOM     33  C   UNL A   1      28.710  28.814  22.791  1.00  0.00     0.041 A 
ATOM     34  Cl  UNL A   1      27.287  29.700  22.415  1.00  0.00    -0.084 Cl
ENDBRANCH  17  28
ENDBRANCH   8  13
ENDBRANCH   5   7
ENDBRANCH   4   5
ENDBRANCH   3   4
ENDBRANCH   2   3
ENDBRANCH   1   2
BRANCH   1  35
ATOM     35  C   UNL A   1      34.658  33.347  30.942  1.00  0.00     0.202 C 
BRANCH  35  36
ATOM     36  C   UNL A   1      34.999  33.053  32.408  1.00  0.00     0.261 C 
BRANCH  36  37
ATOM     37  O   UNL A   1      36.387  32.724  32.593  1.00  0.00    -0.460 OA
BRANCH  37  38
ATOM     38  C   UNL A   1      36.797  32.696  33.881  1.00  0.00     0.338 C 
ATOM     39  O   UNL A   1      36.169  33.072  34.865  1.00  0.00    -0.246 OA
BRANCH  38  40
ATOM     40  C   UNL A   1      38.075  31.971  33.991  1.00  0.00     0.060 A 
ATOM     41  C   UNL A   1      39.199  32.544  33.383  1.00  0.00     0.016 A 
ATOM     42  C   UNL A   1      38.167  30.729  34.625  1.00  0.00     0.016 A 
ATOM     43  C   UNL A   1      40.410  31.857  33.366  1.00  0.00     0.010 A 
ATOM     44  C   UNL A   1      39.383  30.038  34.600  1.00  0.00     0.010 A 
ATOM     45  C   UNL A   1      40.501  30.584  33.943  1.00  0.00    -0.014 A 
BRANCH  45  46
ATOM     46  C   UNL A   1      41.736  29.783  33.766  1.00  0.00     0.031 A 
ATOM     47  C   UNL A   1      42.782  29.791  34.847  1.00  0.00     0.074 A 
ATOM     48  C   UNL A   1      41.927  29.059  32.648  1.00  0.00     0.049 A 
ATOM     49  N   UNL A   1      43.936  29.178  34.884  1.00  0.00    -0.248 NA
ATOM     50  C   UNL A   1      42.491  30.598  36.043  1.00  0.00     0.031 C 
ATOM     51  C   UNL A   1      40.989  28.978  31.529  1.00  0.00     0.029 A 
ATOM     52  N   UNL A   1      42.985  28.277  32.262  1.00  0.00    -0.354 N 
ATOM     53  C   UNL A   1      44.522  29.547  36.090  1.00  0.00     0.074 A 
ATOM     54  C   UNL A   1      43.600  30.445  36.751  1.00  0.00     0.031 C 
ATOM     55  C   UNL A   1      41.530  28.213  30.565  1.00  0.00     0.029 A 
ATOM     56  C   UNL A   1      42.857  27.772  30.990  1.00  0.00     0.049 A 
ATOM     57  H   UNL A   1      43.762  28.095  32.838  1.00  0.00     0.167 HD
ATOM     58  C   UNL A   1      45.714  29.161  36.606  1.00  0.00     0.034 A 
ATOM     59  C   UNL A   1      43.721  27.054  30.244  1.00  0.00     0.034 A 
ATOM     60  C   UNL A   1      46.620  28.252  35.957  1.00  0.00     0.049 A 
ATOM     61  C   UNL A   1      45.047  26.651  30.836  1.00  0.00     0.074 A 
ATOM     62  C   UNL A   1      47.819  27.749  36.430  1.00  0.00     0.029 A 
ATOM     63  N   UNL A   1      46.438  27.722  34.689  1.00  0.00    -0.354 N 
ATOM     64  N   UNL A   1      45.525  26.892  32.032  1.00  0.00    -0.248 NA
ATOM     65  C   UNL A   1      45.939  25.850  29.984  1.00  0.00     0.031 C 
ATOM     66  C   UNL A   1      48.377  26.938  35.435  1.00  0.00     0.029 A 
ATOM     67  C   UNL A   1      47.510  26.914  34.354  1.00  0.00     0.049 A 
ATOM     68  H   UNL A   1      45.659  27.896  34.112  1.00  0.00     0.167 HD
ATOM     69  C   UNL A   1      46.758  26.249  32.089  1.00  0.00     0.074 A 
ATOM     70  C   UNL A   1      46.941  25.588  30.814  1.00  0.00     0.031 C 
ATOM     71  C   UNL A   1      47.662  26.221  33.100  1.00  0.00     0.034 A 
BRANCH  58  72
ATOM     72  C   UNL A   1      46.099  29.702  37.958  1.00  0.00     0.023 A 
ATOM     73  C   UNL A   1      46.733  30.957  38.053  1.00  0.00     0.012 A 
ATOM     74  C   UNL A   1      45.779  28.998  39.136  1.00  0.00     0.148 A 
ATOM     75  C   UNL A   1      47.071  31.490  39.296  1.00  0.00     0.002 A 
ATOM     76  C   UNL A   1      46.081  29.555  40.373  1.00  0.00     0.091 A 
ATOM     77  F   UNL A   1      45.197  27.796  39.024  1.00  0.00    -0.205 F 
ATOM     78  C   UNL A   1      46.735  30.795  40.454  1.00  0.00     0.022 A 
BRANCH  76  79
ATOM     79  S   UNL A   1      45.621  28.773  41.923  1.00  0.00     0.127 S 
ATOM     80  O   UNL A   1      46.105  29.747  42.900  1.00  0.00    -0.237 OA
ATOM     81  O   UNL A   1      44.164  28.696  41.810  1.00  0.00    -0.237 OA
ATOM     82  O   UNL A   1      46.297  27.483  41.938  1.00  0.00    -0.744 OA
ENDBRANCH  76  79
ENDBRANCH  58  72
BRANCH  59  83
ATOM     83  C   UNL A   1      43.344  26.643  28.863  1.00  0.00     0.023 A 
ATOM     84  C   UNL A   1      43.478  27.558  27.802  1.00  0.00     0.012 A 
ATOM     85  C   UNL A   1      42.877  25.341  28.593  1.00  0.00     0.148 A 
ATOM     86  C   UNL A   1      43.130  27.194  26.501  1.00  0.00     0.002 A 
ATOM     87  C   UNL A   1      42.586  24.967  27.286  1.00  0.00     0.091 A 
ATOM     88  F   UNL A   1      42.737  24.490  29.619  1.00  0.00    -0.205 F 
ATOM     89  C   UNL A   1      42.695  25.897  26.241  1.00  0.00     0.022 A 
BRANCH  87  90
ATOM     90  S   UNL A   1      42.150  23.282  26.842  1.00  0.00     0.127 S 
ATOM     91  O   UNL A   1      40.773  23.194  27.320  1.00  0.00    -0.237 OA
ATOM     92  O   UNL A   1      42.298  23.307  25.386  1.00  0.00    -0.237 OA
ATOM     93  O   UNL A   1      43.116  22.435  27.527  1.00  0.00    -0.744 OA
ENDBRANCH  87  90
ENDBRANCH  59  83
BRANCH  71  94
ATOM     94  C   UNL A   1      48.927  25.430  32.886  1.00  0.00     0.023 A 
ATOM     95  C   UNL A   1      50.008  26.014  32.195  1.00  0.00     0.012 A 
ATOM     96  C   UNL A   1      49.074  24.139  33.433  1.00  0.00     0.148 A 
ATOM     97  C   UNL A   1      51.202  25.314  32.025  1.00  0.00     0.002 A 
ATOM     98  C   UNL A   1      50.282  23.467  33.301  1.00  0.00     0.091 A 
ATOM     99  F   UNL A   1      48.029  23.594  34.073  1.00  0.00    -0.205 F 
ATOM    100  C   UNL A   1      51.344  24.047  32.588  1.00  0.00     0.022 A 
BRANCH  98 101
ATOM    101  S   UNL A   1      50.587  21.873  34.072  1.00  0.00     0.127 S 
ATOM    102  O   UNL A   1      49.762  20.984  33.256  1.00  0.00    -0.237 OA
ATOM    103  O   UNL A   1      52.030  21.707  33.885  1.00  0.00    -0.237 OA
ATOM    104  O   UNL A   1      50.172  22.013  35.461  1.00  0.00    -0.744 OA
ENDBRANCH  98 101
ENDBRANCH  71  94
ENDBRANCH  45  46
ENDBRANCH  38  40
ENDBRANCH  37  38
ENDBRANCH  36  37
ENDBRANCH  35  36
ENDBRANCH   1  35
TORSDOF 21
ENDMDL
MODEL 3
REMARK VINA RESULT:     -10.6      1.262      7.230
REMARK SMILES CS(=O)(=O)c1ccc(C2=NN(c3ccc(C(=O)OCCOCCOC(=O)c4ccc(-c5c6nc(c(-c7cccc(S(=O)(=O)[O-])c7F)c7ccc([nH]7)c(-c7cccc(S(=O)(=O)[O-])c7F)c7nc(c(-c8cccc(S(=O)(=O)[O-])c8F)c8ccc5[nH]8)C=C7)C=C6)cc4)cc3)[C@H](c3ccc(Cl)cc3)C2)cc1
REMARK SMILES IDX 21 1 20 2 19 3 18 4 16 5 17 6 15 7 12 8 13 9 91 10 14 11
REMARK SMILES IDX 90 12 11 13 9 14 10 15 100 16 92 17 8 18 5 19 6 20 102 21
REMARK SMILES IDX 7 22 101 23 2 24 1 25 3 26 4 27 93 28 94 29 99 30 95 31
REMARK SMILES IDX 98 32 96 33 97 34 22 35 23 36 24 37 25 38 26 39 27 40 28 41
REMARK SMILES IDX 89 42 29 43 88 44 30 45 31 46 32 47 82 48 33 49 87 50 81 51
REMARK SMILES IDX 83 52 34 53 86 54 80 55 79 56 35 58 67 59 47 60 66 61 48 62
REMARK SMILES IDX 51 63 65 64 84 65 49 66 50 67 64 69 85 70 52 71 36 72 37 73
REMARK SMILES IDX 45 74 38 75 40 76 46 77 39 78 41 79 42 80 43 81 44 82 68 83
REMARK SMILES IDX 69 84 77 85 70 86 72 87 78 88 71 89 73 90 74 91 75 92 76 93
REMARK SMILES IDX 53 94 54 95 62 96 55 97 57 98 63 99 56 100 58 101 59 102
REMARK SMILES IDX 60 103 61 104
REMARK H PARENT 83 57 51 68
REMARK Flexibility Score: inf
ROOT
ATOM      1  O   UNL A   1      39.698  25.293  28.103  1.00  0.00    -0.374 OA
ENDROOT
BRANCH   1   2
ATOM      2  C   UNL A   1      40.688  24.267  28.006  1.00  0.00     0.202 C 
BRANCH   2   3
ATOM      3  C   UNL A   1      40.298  23.021  27.206  1.00  0.00     0.261 C 
BRANCH   3   4
ATOM      4  O   UNL A   1      39.394  23.358  26.144  1.00  0.00    -0.460 OA
BRANCH   4   5
ATOM      5  C   UNL A   1      38.591  22.358  25.719  1.00  0.00     0.338 C 
ATOM      6  O   UNL A   1      38.791  21.155  25.847  1.00  0.00    -0.246 OA
BRANCH   5   7
ATOM      7  C   UNL A   1      37.332  22.902  25.155  1.00  0.00     0.060 A 
ATOM      8  C   UNL A   1      34.823  23.811  24.285  1.00  0.00     0.060 A 
ATOM      9  C   UNL A   1      35.305  24.175  25.546  1.00  0.00     0.029 A 
ATOM     10  C   UNL A   1      35.663  23.095  23.420  1.00  0.00     0.029 A 
ATOM     11  C   UNL A   1      36.548  23.717  25.982  1.00  0.00     0.018 A 
ATOM     12  C   UNL A   1      36.909  22.631  23.849  1.00  0.00     0.018 A 
BRANCH   8  13
ATOM     13  N   UNL A   1      33.477  23.987  23.947  1.00  0.00    -0.257 N 
ATOM     14  C   UNL A   1      31.774  25.268  23.920  1.00  0.00     0.071 C 
ATOM     15  N   UNL A   1      33.023  25.213  23.578  1.00  0.00    -0.176 NA
ATOM     16  C   UNL A   1      31.265  24.110  24.734  1.00  0.00     0.091 C 
ATOM     17  C   UNL A   1      32.484  23.179  24.678  1.00  0.00     0.144 C 
BRANCH  14  18
ATOM     18  C   UNL A   1      30.895  26.389  23.540  1.00  0.00    -0.002 A 
ATOM     19  C   UNL A   1      29.162  28.472  22.878  1.00  0.00     0.067 A 
ATOM     20  C   UNL A   1      28.699  27.399  23.647  1.00  0.00     0.021 A 
ATOM     21  C   UNL A   1      30.490  28.511  22.440  1.00  0.00     0.021 A 
ATOM     22  C   UNL A   1      29.563  26.352  23.966  1.00  0.00     0.011 A 
ATOM     23  C   UNL A   1      31.362  27.468  22.783  1.00  0.00     0.011 A 
BRANCH  19  24
ATOM     24  S   UNL A   1      27.997  29.762  22.500  1.00  0.00     0.175 S 
ATOM     25  C   UNL A   1      28.439  31.175  23.465  1.00  0.00     0.163 C 
ATOM     26  O   UNL A   1      26.707  29.308  22.988  1.00  0.00    -0.224 OA
ATOM     27  O   UNL A   1      28.196  30.104  21.105  1.00  0.00    -0.224 OA
ENDBRANCH  19  24
ENDBRANCH  14  18
BRANCH  17  28
ATOM     28  C   UNL A   1      32.318  21.820  24.015  1.00  0.00    -0.023 A 
ATOM     29  C   UNL A   1      31.999  21.653  22.660  1.00  0.00     0.007 A 
ATOM     30  C   UNL A   1      32.594  20.664  24.776  1.00  0.00     0.007 A 
ATOM     31  C   UNL A   1      31.960  20.376  22.089  1.00  0.00     0.021 A 
ATOM     32  C   UNL A   1      32.597  19.393  24.197  1.00  0.00     0.021 A 
ATOM     33  C   UNL A   1      32.275  19.255  22.853  1.00  0.00     0.041 A 
ATOM     34  Cl  UNL A   1      32.279  17.700  22.123  1.00  0.00    -0.084 Cl
ENDBRANCH  17  28
ENDBRANCH   8  13
ENDBRANCH   5   7
ENDBRANCH   4   5
ENDBRANCH   3   4
ENDBRANCH   2   3
ENDBRANCH   1   2
BRANCH   1  35
ATOM     35  C   UNL A   1      40.164  26.638  28.216  1.00  0.00     0.202 C 
BRANCH  35  36
ATOM     36  C   UNL A   1      40.302  27.435  26.913  1.00  0.00     0.261 C 
BRANCH  36  37
ATOM     37  O   UNL A   1      41.079  26.737  25.924  1.00  0.00    -0.460 OA
BRANCH  37  38
ATOM     38  C   UNL A   1      42.230  27.352  25.570  1.00  0.00     0.338 C 
ATOM     39  O   UNL A   1      42.395  28.134  24.639  1.00  0.00    -0.246 OA
BRANCH  38  40
ATOM     40  C   UNL A   1      43.273  27.099  26.581  1.00  0.00     0.060 A 
ATOM     41  C   UNL A   1      43.632  28.162  27.419  1.00  0.00     0.016 A 
ATOM     42  C   UNL A   1      43.928  25.868  26.673  1.00  0.00     0.016 A 
ATOM     43  C   UNL A   1      44.681  28.013  28.325  1.00  0.00     0.010 A 
ATOM     44  C   UNL A   1      44.985  25.725  27.578  1.00  0.00     0.010 A 
ATOM     45  C   UNL A   1      45.387  26.805  28.384  1.00  0.00    -0.014 A 
BRANCH  45  46
ATOM     46  C   UNL A   1      46.611  26.709  29.216  1.00  0.00     0.031 A 
ATOM     47  C   UNL A   1      47.939  27.093  28.624  1.00  0.00     0.074 A 
ATOM     48  C   UNL A   1      46.539  26.277  30.488  1.00  0.00     0.049 A 
ATOM     49  N   UNL A   1      49.126  27.066  29.170  1.00  0.00    -0.248 NA
ATOM     50  C   UNL A   1      47.928  27.567  27.230  1.00  0.00     0.031 C 
ATOM     51  C   UNL A   1      45.312  25.870  31.171  1.00  0.00     0.029 A 
ATOM     52  N   UNL A   1      47.526  26.085  31.422  1.00  0.00    -0.354 N 
ATOM     53  C   UNL A   1      50.008  27.491  28.182  1.00  0.00     0.074 A 
ATOM     54  C   UNL A   1      49.219  27.760  26.999  1.00  0.00     0.031 C 
ATOM     55  C   UNL A   1      45.624  25.444  32.407  1.00  0.00     0.029 A 
ATOM     56  C   UNL A   1      47.071  25.528  32.593  1.00  0.00     0.049 A 
ATOM     57  H   UNL A   1      48.469  26.321  31.268  1.00  0.00     0.167 HD
ATOM     58  C   UNL A   1      51.350  27.655  28.258  1.00  0.00     0.034 A 
ATOM     59  C   UNL A   1      47.747  25.112  33.683  1.00  0.00     0.034 A 
ATOM     60  C   UNL A   1      52.130  27.408  29.441  1.00  0.00     0.049 A 
ATOM     61  C   UNL A   1      49.242  25.292  33.736  1.00  0.00     0.074 A 
ATOM     62  C   UNL A   1      53.485  27.609  29.635  1.00  0.00     0.029 A 
ATOM     63  N   UNL A   1      51.630  26.889  30.624  1.00  0.00    -0.354 N 
ATOM     64  N   UNL A   1      50.042  25.826  32.845  1.00  0.00    -0.248 NA
ATOM     65  C   UNL A   1      49.923  24.840  34.958  1.00  0.00     0.031 C 
ATOM     66  C   UNL A   1      53.809  27.183  30.928  1.00  0.00     0.029 A 
ATOM     67  C   UNL A   1      52.651  26.743  31.548  1.00  0.00     0.049 A 
ATOM     68  H   UNL A   1      50.686  26.657  30.785  1.00  0.00     0.167 HD
ATOM     69  C   UNL A   1      51.313  25.802  33.410  1.00  0.00     0.074 A 
ATOM     70  C   UNL A   1      51.172  25.223  34.729  1.00  0.00     0.031 C 
ATOM     71  C   UNL A   1      52.492  26.210  32.877  1.00  0.00     0.034 A 
BRANCH  58  72
ATOM     72  C   UNL A   1      52.064  28.154  27.029  1.00  0.00     0.023 A 
ATOM     73  C   UNL A   1      52.282  29.537  26.862  1.00  0.00     0.012 A 
ATOM     74  C   UNL A   1      52.572  27.254  26.072  1.00  0.00     0.148 A 
ATOM     75  C   UNL A   1      52.967  30.018  25.747  1.00  0.00     0.002 A 
ATOM     76  C   UNL A   1      53.290  27.738  24.985  1.00  0.00     0.091 A 
ATOM     77  F   UNL A   1      52.334  25.945  26.237  1.00  0.00    -0.205 F 
ATOM     78  C   UNL A   1      53.480  29.119  24.817  1.00  0.00     0.022 A 
BRANCH  76  79
ATOM     79  S   UNL A   1      54.055  26.656  23.773  1.00  0.00     0.127 S 
ATOM     80  O   UNL A   1      54.611  25.605  24.625  1.00  0.00    -0.237 OA
ATOM     81  O   UNL A   1      52.909  26.241  22.963  1.00  0.00    -0.237 OA
ATOM     82  O   UNL A   1      55.033  27.472  23.066  1.00  0.00    -0.744 OA
ENDBRANCH  76  79
ENDBRANCH  58  72
BRANCH  59  83
ATOM     83  C   UNL A   1      47.008  24.512  34.829  1.00  0.00     0.023 A 
ATOM     84  C   UNL A   1      46.758  23.127  34.848  1.00  0.00     0.012 A 
ATOM     85  C   UNL A   1      46.575  25.303  35.911  1.00  0.00     0.148 A 
ATOM     86  C   UNL A   1      46.067  22.544  35.911  1.00  0.00     0.002 A 
ATOM     87  C   UNL A   1      45.938  24.708  36.993  1.00  0.00     0.091 A 
ATOM     88  F   UNL A   1      46.806  26.624  35.865  1.00  0.00    -0.205 F 
ATOM     89  C   UNL A   1      45.667  23.331  36.988  1.00  0.00     0.022 A 
BRANCH  87  90
ATOM     90  S   UNL A   1      45.510  25.622  38.480  1.00  0.00     0.127 S 
ATOM     91  O   UNL A   1      44.957  24.570  39.329  1.00  0.00    -0.237 OA
ATOM     92  O   UNL A   1      46.814  26.135  38.903  1.00  0.00    -0.237 OA
ATOM     93  O   UNL A   1      44.573  26.650  38.051  1.00  0.00    -0.744 OA
ENDBRANCH  87  90
ENDBRANCH  59  83
BRANCH  71  94
ATOM     94  C   UNL A   1      53.730  26.070  33.727  1.00  0.00     0.023 A 
ATOM     95  C   UNL A   1      54.070  27.087  34.641  1.00  0.00     0.012 A 
ATOM     96  C   UNL A   1      54.514  24.900  33.674  1.00  0.00     0.148 A 
ATOM     97  C   UNL A   1      55.186  26.957  35.465  1.00  0.00     0.002 A 
ATOM     98  C   UNL A   1      55.597  24.756  34.532  1.00  0.00     0.091 A 
ATOM     99  F   UNL A   1      54.185  23.950  32.786  1.00  0.00    -0.205 F 
ATOM    100  C   UNL A   1      55.943  25.787  35.420  1.00  0.00     0.022 A 
BRANCH  98 101
ATOM    101  S   UNL A   1      56.571  23.247  34.609  1.00  0.00     0.127 S 
ATOM    102  O   UNL A   1      57.027  23.115  33.227  1.00  0.00    -0.237 OA
ATOM    103  O   UNL A   1      57.620  23.602  35.566  1.00  0.00    -0.237 OA
ATOM    104  O   UNL A   1      55.662  22.207  35.071  1.00  0.00    -0.744 OA
ENDBRANCH  98 101
ENDBRANCH  71  94
ENDBRANCH  45  46
ENDBRANCH  38  40
ENDBRANCH  37  38
ENDBRANCH  36  37
ENDBRANCH  35  36
ENDBRANCH   1  35
TORSDOF 21
ENDMDL
