MODEL 1
REMARK VINA RESULT:     -11.4      0.000      0.000
REMARK SMILES C/C(=N/OCc1ccccc1Nc1c(Cl)cccc1Cl)C(=O)OCCOCCOC(=O)c1ccc(-c2c3nc(c(-c4cccc(S(=O)(=O)[O-])c4F)c4ccc([nH]4)c(-c4cccc(S(=O)(=O)[O-])c4F)c4nc(c(-c5cccc(S(=O)(=O)[O-])c5F)c5ccc2[nH]5)C=C4)C=C3)cc1
REMARK SMILES IDX 25 1 24 2 23 3 21 4 22 5 2 6 1 7 3 8 4 9 5 10 6 11 7 12
REMARK SMILES IDX 11 13 8 14 10 15 9 16 12 17 13 19 14 20 19 21 15 22 16 23
REMARK SMILES IDX 18 24 20 25 17 26 26 27 27 28 28 29 29 30 30 31 31 32 32 33
REMARK SMILES IDX 33 34 94 35 34 36 93 37 35 38 36 39 37 40 87 41 38 42 92 43
REMARK SMILES IDX 86 44 88 45 39 46 91 47 85 48 84 49 40 51 72 52 52 53 71 54
REMARK SMILES IDX 53 55 56 56 70 57 89 58 54 59 55 60 69 62 90 63 57 64 41 65
REMARK SMILES IDX 42 66 50 67 43 68 45 69 51 70 44 71 46 72 47 73 48 74 49 75
REMARK SMILES IDX 73 76 74 77 82 78 75 79 77 80 83 81 76 82 78 83 79 84 80 85
REMARK SMILES IDX 81 86 58 87 59 88 67 89 60 90 62 91 68 92 61 93 63 94 64 95
REMARK SMILES IDX 65 96 66 97
REMARK H PARENT 12 18 88 50 56 61
REMARK Flexibility Score: inf
ROOT
ATOM      1  C   UNL A   1      32.443  27.042  23.749  1.00  0.00     0.202 C 
ENDROOT
BRANCH   1   2
ATOM      2  C   UNL A   1      32.941  25.903  24.649  1.00  0.00     0.261 C 
BRANCH   2   3
ATOM      3  O   UNL A   1      31.809  25.128  25.067  1.00  0.00    -0.459 OA
BRANCH   3   4
ATOM      4  C   UNL A   1      31.529  25.133  26.386  1.00  0.00     0.355 C 
ATOM      5  O   UNL A   1      31.262  26.088  27.096  1.00  0.00    -0.245 OA
BRANCH   4   6
ATOM      6  C   UNL A   1      31.209  23.713  26.814  1.00  0.00     0.161 C 
ATOM      7  C   UNL A   1      29.753  23.338  26.745  1.00  0.00     0.079 C 
ATOM      8  N   UNL A   1      32.071  22.821  27.210  1.00  0.00    -0.084 NA
BRANCH   8   9
ATOM      9  O   UNL A   1      33.357  23.374  27.343  1.00  0.00    -0.390 OA
BRANCH   9  10
ATOM     10  C   UNL A   1      34.340  22.326  27.397  1.00  0.00     0.302 C 
BRANCH  10  11
ATOM     11  C   UNL A   1      35.323  22.388  26.241  1.00  0.00     0.016 A 
ATOM     12  C   UNL A   1      36.023  23.594  26.041  1.00  0.00     0.009 A 
ATOM     13  C   UNL A   1      35.535  21.318  25.338  1.00  0.00     0.045 A 
ATOM     14  C   UNL A   1      36.937  23.730  24.997  1.00  0.00     0.001 A 
ATOM     15  C   UNL A   1      36.480  21.466  24.312  1.00  0.00     0.026 A 
ATOM     16  C   UNL A   1      37.175  22.662  24.140  1.00  0.00     0.002 A 
BRANCH  13  17
ATOM     17  N   UNL A   1      34.788  20.131  25.445  1.00  0.00    -0.353 N 
ATOM     18  H   UNL A   1      34.910  19.668  26.304  1.00  0.00     0.167 HD
BRANCH  17  19
ATOM     19  C   UNL A   1      33.899  19.470  24.570  1.00  0.00     0.076 A 
ATOM     20  C   UNL A   1      34.144  18.114  24.254  1.00  0.00     0.066 A 
ATOM     21  C   UNL A   1      32.869  20.118  23.860  1.00  0.00     0.066 A 
ATOM     22  Cl  UNL A   1      35.436  17.239  25.010  1.00  0.00    -0.082 Cl
ATOM     23  C   UNL A   1      33.383  17.430  23.300  1.00  0.00     0.023 A 
ATOM     24  C   UNL A   1      32.107  19.427  22.905  1.00  0.00     0.023 A 
ATOM     25  Cl  UNL A   1      32.544  21.810  24.015  1.00  0.00    -0.082 Cl
ATOM     26  C   UNL A   1      32.361  18.087  22.625  1.00  0.00     0.003 A 
ENDBRANCH  17  19
ENDBRANCH  13  17
ENDBRANCH  10  11
ENDBRANCH   9  10
ENDBRANCH   8   9
ENDBRANCH   4   6
ENDBRANCH   3   4
ENDBRANCH   2   3
ENDBRANCH   1   2
BRANCH   1  27
ATOM     27  O   UNL A   1      31.710  28.081  24.416  1.00  0.00    -0.374 OA
BRANCH  27  28
ATOM     28  C   UNL A   1      32.407  29.292  24.694  1.00  0.00     0.202 C 
BRANCH  28  29
ATOM     29  C   UNL A   1      31.812  30.220  25.758  1.00  0.00     0.261 C 
BRANCH  29  30
ATOM     30  O   UNL A   1      32.549  30.183  26.986  1.00  0.00    -0.460 OA
BRANCH  30  31
ATOM     31  C   UNL A   1      33.236  31.321  27.248  1.00  0.00     0.338 C 
ATOM     32  O   UNL A   1      32.791  32.456  27.292  1.00  0.00    -0.246 OA
BRANCH  31  33
ATOM     33  C   UNL A   1      34.613  30.992  27.652  1.00  0.00     0.060 A 
ATOM     34  C   UNL A   1      34.952  29.635  27.702  1.00  0.00     0.016 A 
ATOM     35  C   UNL A   1      35.526  31.973  28.044  1.00  0.00     0.016 A 
ATOM     36  C   UNL A   1      36.191  29.248  28.203  1.00  0.00     0.010 A 
ATOM     37  C   UNL A   1      36.767  31.581  28.555  1.00  0.00     0.010 A 
ATOM     38  C   UNL A   1      37.086  30.216  28.674  1.00  0.00    -0.014 A 
BRANCH  38  39
ATOM     39  C   UNL A   1      38.284  29.780  29.427  1.00  0.00     0.031 A 
ATOM     40  C   UNL A   1      38.480  30.274  30.834  1.00  0.00     0.074 A 
ATOM     41  C   UNL A   1      39.170  28.935  28.872  1.00  0.00     0.049 A 
ATOM     42  N   UNL A   1      39.434  29.995  31.682  1.00  0.00    -0.248 NA
ATOM     43  C   UNL A   1      37.467  31.208  31.353  1.00  0.00     0.031 C 
ATOM     44  C   UNL A   1      39.089  28.398  27.514  1.00  0.00     0.029 A 
ATOM     45  N   UNL A   1      40.325  28.397  29.380  1.00  0.00    -0.354 N 
ATOM     46  C   UNL A   1      39.154  30.735  32.823  1.00  0.00     0.074 A 
ATOM     47  C   UNL A   1      37.946  31.485  32.558  1.00  0.00     0.031 C 
ATOM     48  C   UNL A   1      40.169  27.629  27.286  1.00  0.00     0.029 A 
ATOM     49  C   UNL A   1      41.018  27.629  28.475  1.00  0.00     0.049 A 
ATOM     50  H   UNL A   1      40.628  28.546  30.305  1.00  0.00     0.167 HD
ATOM     51  C   UNL A   1      39.832  30.773  33.994  1.00  0.00     0.034 A 
ATOM     52  C   UNL A   1      42.209  27.011  28.593  1.00  0.00     0.034 A 
ATOM     53  C   UNL A   1      41.015  30.005  34.266  1.00  0.00     0.049 A 
ATOM     54  C   UNL A   1      42.939  27.063  29.910  1.00  0.00     0.074 A 
ATOM     55  C   UNL A   1      41.739  29.926  35.442  1.00  0.00     0.029 A 
ATOM     56  N   UNL A   1      41.657  29.191  33.346  1.00  0.00    -0.354 N 
ATOM     57  N   UNL A   1      42.584  27.650  31.028  1.00  0.00    -0.248 NA
ATOM     58  C   UNL A   1      44.214  26.336  29.994  1.00  0.00     0.031 C 
ATOM     59  C   UNL A   1      42.830  29.079  35.227  1.00  0.00     0.029 A 
ATOM     60  C   UNL A   1      42.775  28.614  33.923  1.00  0.00     0.049 A 
ATOM     61  H   UNL A   1      41.361  29.043  32.419  1.00  0.00     0.167 HD
ATOM     62  C   UNL A   1      43.571  27.335  31.955  1.00  0.00     0.074 A 
ATOM     63  C   UNL A   1      44.528  26.488  31.274  1.00  0.00     0.031 C 
ATOM     64  C   UNL A   1      43.686  27.725  33.249  1.00  0.00     0.034 A 
BRANCH  51  65
ATOM     65  C   UNL A   1      39.290  31.652  35.088  1.00  0.00     0.023 A 
ATOM     66  C   UNL A   1      38.357  31.127  36.005  1.00  0.00     0.012 A 
ATOM     67  C   UNL A   1      39.751  32.973  35.248  1.00  0.00     0.148 A 
ATOM     68  C   UNL A   1      37.873  31.910  37.052  1.00  0.00     0.002 A 
ATOM     69  C   UNL A   1      39.294  33.735  36.317  1.00  0.00     0.091 A 
ATOM     70  F   UNL A   1      40.618  33.461  34.350  1.00  0.00    -0.205 F 
ATOM     71  C   UNL A   1      38.350  33.209  37.214  1.00  0.00     0.022 A 
BRANCH  69  72
ATOM     72  S   UNL A   1      39.900  35.392  36.652  1.00  0.00     0.127 S 
ATOM     73  O   UNL A   1      41.347  35.182  36.660  1.00  0.00    -0.237 OA
ATOM     74  O   UNL A   1      39.399  36.144  35.501  1.00  0.00    -0.237 OA
ATOM     75  O   UNL A   1      39.319  35.782  37.930  1.00  0.00    -0.744 OA
ENDBRANCH  69  72
ENDBRANCH  51  65
BRANCH  52  76
ATOM     76  C   UNL A   1      42.768  26.253  27.438  1.00  0.00     0.023 A 
ATOM     77  C   UNL A   1      43.664  26.887  26.555  1.00  0.00     0.012 A 
ATOM     78  C   UNL A   1      42.430  24.904  27.222  1.00  0.00     0.148 A 
ATOM     79  C   UNL A   1      44.189  26.199  25.461  1.00  0.00     0.002 A 
ATOM     80  C   UNL A   1      42.999  24.208  26.162  1.00  0.00     0.091 A 
ATOM     81  F   UNL A   1      41.558  24.324  28.060  1.00  0.00    -0.205 F 
ATOM     82  C   UNL A   1      43.865  24.857  25.270  1.00  0.00     0.022 A 
BRANCH  80  83
ATOM     83  S   UNL A   1      42.732  22.448  25.925  1.00  0.00     0.127 S 
ATOM     84  O   UNL A   1      43.429  22.205  24.664  1.00  0.00    -0.237 OA
ATOM     85  O   UNL A   1      43.382  21.879  27.108  1.00  0.00    -0.237 OA
ATOM     86  O   UNL A   1      41.286  22.274  25.898  1.00  0.00    -0.744 OA
ENDBRANCH  80  83
ENDBRANCH  52  76
BRANCH  64  87
ATOM     87  C   UNL A   1      44.870  27.221  34.031  1.00  0.00     0.023 A 
ATOM     88  C   UNL A   1      46.095  27.912  33.965  1.00  0.00     0.012 A 
ATOM     89  C   UNL A   1      44.747  26.111  34.891  1.00  0.00     0.148 A 
ATOM     90  C   UNL A   1      47.190  27.488  34.720  1.00  0.00     0.002 A 
ATOM     91  C   UNL A   1      45.827  25.723  35.674  1.00  0.00     0.091 A 
ATOM     92  F   UNL A   1      43.578  25.453  34.925  1.00  0.00    -0.205 F 
ATOM     93  C   UNL A   1      47.052  26.404  35.582  1.00  0.00     0.022 A 
BRANCH  91  94
ATOM     94  S   UNL A   1      45.706  24.397  36.881  1.00  0.00     0.127 S 
ATOM     95  O   UNL A   1      45.473  23.235  36.025  1.00  0.00    -0.237 OA
ATOM     96  O   UNL A   1      47.023  24.430  37.518  1.00  0.00    -0.237 OA
ATOM     97  O   UNL A   1      44.605  24.762  37.761  1.00  0.00    -0.744 OA
ENDBRANCH  91  94
ENDBRANCH  64  87
ENDBRANCH  38  39
ENDBRANCH  31  33
ENDBRANCH  30  31
ENDBRANCH  29  30
ENDBRANCH  28  29
ENDBRANCH  27  28
ENDBRANCH   1  27
TORSDOF 22
ENDMDL
MODEL 2
REMARK VINA RESULT:     -11.4      0.624      7.559
REMARK SMILES C/C(=N/OCc1ccccc1Nc1c(Cl)cccc1Cl)C(=O)OCCOCCOC(=O)c1ccc(-c2c3nc(c(-c4cccc(S(=O)(=O)[O-])c4F)c4ccc([nH]4)c(-c4cccc(S(=O)(=O)[O-])c4F)c4nc(c(-c5cccc(S(=O)(=O)[O-])c5F)c5ccc2[nH]5)C=C4)C=C3)cc1
REMARK SMILES IDX 25 1 24 2 23 3 21 4 22 5 2 6 1 7 3 8 4 9 5 10 6 11 7 12
REMARK SMILES IDX 11 13 8 14 10 15 9 16 12 17 13 19 14 20 19 21 15 22 16 23
REMARK SMILES IDX 18 24 20 25 17 26 26 27 27 28 28 29 29 30 30 31 31 32 32 33
REMARK SMILES IDX 33 34 94 35 34 36 93 37 35 38 36 39 37 40 87 41 38 42 92 43
REMARK SMILES IDX 86 44 88 45 39 46 91 47 85 48 84 49 40 51 72 52 52 53 71 54
REMARK SMILES IDX 53 55 56 56 70 57 89 58 54 59 55 60 69 62 90 63 57 64 41 65
REMARK SMILES IDX 42 66 50 67 43 68 45 69 51 70 44 71 46 72 47 73 48 74 49 75
REMARK SMILES IDX 73 76 74 77 82 78 75 79 77 80 83 81 76 82 78 83 79 84 80 85
REMARK SMILES IDX 81 86 58 87 59 88 67 89 60 90 62 91 68 92 61 93 63 94 64 95
REMARK SMILES IDX 65 96 66 97
REMARK H PARENT 12 18 88 50 56 61
REMARK Flexibility Score: inf
ROOT
ATOM      1  C   UNL A   1      32.047  26.820  23.605  1.00  0.00     0.202 C 
ENDROOT
BRANCH   1   2
ATOM      2  C   UNL A   1      32.656  25.712  24.477  1.00  0.00     0.261 C 
BRANCH   2   3
ATOM      3  O   UNL A   1      31.586  24.927  25.021  1.00  0.00    -0.459 OA
BRANCH   3   4
ATOM      4  C   UNL A   1      31.376  25.031  26.349  1.00  0.00     0.355 C 
ATOM      5  O   UNL A   1      31.165  26.041  27.000  1.00  0.00    -0.245 OA
BRANCH   4   6
ATOM      6  C   UNL A   1      31.056  23.652  26.895  1.00  0.00     0.161 C 
ATOM      7  C   UNL A   1      29.589  23.324  26.975  1.00  0.00     0.079 C 
ATOM      8  N   UNL A   1      31.923  22.759  27.273  1.00  0.00    -0.084 NA
BRANCH   8   9
ATOM      9  O   UNL A   1      33.232  23.275  27.259  1.00  0.00    -0.390 OA
BRANCH   9  10
ATOM     10  C   UNL A   1      34.182  22.211  27.433  1.00  0.00     0.302 C 
BRANCH  10  11
ATOM     11  C   UNL A   1      35.248  22.198  26.351  1.00  0.00     0.016 A 
ATOM     12  C   UNL A   1      36.031  23.358  26.188  1.00  0.00     0.009 A 
ATOM     13  C   UNL A   1      35.461  21.102  25.478  1.00  0.00     0.045 A 
ATOM     14  C   UNL A   1      37.023  23.423  25.212  1.00  0.00     0.001 A 
ATOM     15  C   UNL A   1      36.484  21.179  24.522  1.00  0.00     0.026 A 
ATOM     16  C   UNL A   1      37.258  22.330  24.387  1.00  0.00     0.002 A 
BRANCH  13  17
ATOM     17  N   UNL A   1      34.640  19.963  25.546  1.00  0.00    -0.353 N 
ATOM     18  H   UNL A   1      34.626  19.541  26.435  1.00  0.00     0.167 HD
BRANCH  17  19
ATOM     19  C   UNL A   1      33.830  19.301  24.596  1.00  0.00     0.076 A 
ATOM     20  C   UNL A   1      34.172  17.982  24.218  1.00  0.00     0.066 A 
ATOM     21  C   UNL A   1      32.793  19.926  23.876  1.00  0.00     0.066 A 
ATOM     22  Cl  UNL A   1      35.483  17.144  24.984  1.00  0.00    -0.082 Cl
ATOM     23  C   UNL A   1      33.496  17.310  23.194  1.00  0.00     0.023 A 
ATOM     24  C   UNL A   1      32.116  19.247  22.851  1.00  0.00     0.023 A 
ATOM     25  Cl  UNL A   1      32.358  21.585  24.108  1.00  0.00    -0.082 Cl
ATOM     26  C   UNL A   1      32.465  17.942  22.510  1.00  0.00     0.003 A 
ENDBRANCH  17  19
ENDBRANCH  13  17
ENDBRANCH  10  11
ENDBRANCH   9  10
ENDBRANCH   8   9
ENDBRANCH   4   6
ENDBRANCH   3   4
ENDBRANCH   2   3
ENDBRANCH   1   2
BRANCH   1  27
ATOM     27  O   UNL A   1      31.537  27.957  24.318  1.00  0.00    -0.374 OA
BRANCH  27  28
ATOM     28  C   UNL A   1      32.490  28.817  24.936  1.00  0.00     0.202 C 
BRANCH  28  29
ATOM     29  C   UNL A   1      31.959  30.074  25.633  1.00  0.00     0.261 C 
BRANCH  29  30
ATOM     30  O   UNL A   1      32.429  30.189  26.981  1.00  0.00    -0.460 OA
BRANCH  30  31
ATOM     31  C   UNL A   1      33.079  31.349  27.237  1.00  0.00     0.338 C 
ATOM     32  O   UNL A   1      32.603  32.473  27.251  1.00  0.00    -0.246 OA
BRANCH  31  33
ATOM     33  C   UNL A   1      34.455  31.066  27.678  1.00  0.00     0.060 A 
ATOM     34  C   UNL A   1      34.766  29.732  27.967  1.00  0.00     0.016 A 
ATOM     35  C   UNL A   1      35.395  32.080  27.879  1.00  0.00     0.016 A 
ATOM     36  C   UNL A   1      36.004  29.411  28.515  1.00  0.00     0.010 A 
ATOM     37  C   UNL A   1      36.635  31.756  28.438  1.00  0.00     0.010 A 
ATOM     38  C   UNL A   1      36.926  30.427  28.795  1.00  0.00    -0.014 A 
BRANCH  38  39
ATOM     39  C   UNL A   1      38.126  30.104  29.600  1.00  0.00     0.031 A 
ATOM     40  C   UNL A   1      39.154  29.165  29.032  1.00  0.00     0.074 A 
ATOM     41  C   UNL A   1      38.307  30.661  30.811  1.00  0.00     0.049 A 
ATOM     42  N   UNL A   1      40.288  28.772  29.548  1.00  0.00    -0.248 NA
ATOM     43  C   UNL A   1      38.865  28.592  27.706  1.00  0.00     0.031 C 
ATOM     44  C   UNL A   1      37.375  31.576  31.467  1.00  0.00     0.029 A 
ATOM     45  N   UNL A   1      39.332  30.518  31.711  1.00  0.00    -0.354 N 
ATOM     46  C   UNL A   1      40.837  27.889  28.627  1.00  0.00     0.074 A 
ATOM     47  C   UNL A   1      39.907  27.793  27.523  1.00  0.00     0.031 C 
ATOM     48  C   UNL A   1      37.858  31.891  32.682  1.00  0.00     0.029 A 
ATOM     49  C   UNL A   1      39.124  31.191  32.891  1.00  0.00     0.049 A 
ATOM     50  H   UNL A   1      40.139  29.985  31.529  1.00  0.00     0.167 HD
ATOM     51  C   UNL A   1      42.017  27.229  28.686  1.00  0.00     0.034 A 
ATOM     52  C   UNL A   1      39.866  31.225  34.015  1.00  0.00     0.034 A 
ATOM     53  C   UNL A   1      42.954  27.348  29.771  1.00  0.00     0.049 A 
ATOM     54  C   UNL A   1      41.179  30.488  34.052  1.00  0.00     0.074 A 
ATOM     55  C   UNL A   1      44.204  26.771  29.895  1.00  0.00     0.029 A 
ATOM     56  N   UNL A   1      42.737  28.086  30.924  1.00  0.00    -0.354 N 
ATOM     57  N   UNL A   1      41.752  29.774  33.112  1.00  0.00    -0.248 NA
ATOM     58  C   UNL A   1      41.968  30.592  35.288  1.00  0.00     0.031 C 
ATOM     59  C   UNL A   1      44.736  27.144  31.133  1.00  0.00     0.029 A 
ATOM     60  C   UNL A   1      43.825  27.970  31.771  1.00  0.00     0.049 A 
ATOM     61  H   UNL A   1      41.929  28.616  31.112  1.00  0.00     0.167 HD
ATOM     62  C   UNL A   1      42.979  29.374  33.630  1.00  0.00     0.074 A 
ATOM     63  C   UNL A   1      43.076  29.943  34.958  1.00  0.00     0.031 C 
ATOM     64  C   UNL A   1      43.933  28.592  33.066  1.00  0.00     0.034 A 
BRANCH  51  65
ATOM     65  C   UNL A   1      42.383  26.343  27.528  1.00  0.00     0.023 A 
ATOM     66  C   UNL A   1      43.187  26.852  26.489  1.00  0.00     0.012 A 
ATOM     67  C   UNL A   1      41.987  24.991  27.499  1.00  0.00     0.148 A 
ATOM     68  C   UNL A   1      43.574  26.036  25.426  1.00  0.00     0.002 A 
ATOM     69  C   UNL A   1      42.408  24.174  26.457  1.00  0.00     0.091 A 
ATOM     70  F   UNL A   1      41.200  24.535  28.484  1.00  0.00    -0.205 F 
ATOM     71  C   UNL A   1      43.194  24.696  25.417  1.00  0.00     0.022 A 
BRANCH  69  72
ATOM     72  S   UNL A   1      42.031  22.420  26.391  1.00  0.00     0.127 S 
ATOM     73  O   UNL A   1      40.573  22.434  26.282  1.00  0.00    -0.237 OA
ATOM     74  O   UNL A   1      42.728  21.999  25.175  1.00  0.00    -0.237 OA
ATOM     75  O   UNL A   1      42.560  21.849  27.623  1.00  0.00    -0.744 OA
ENDBRANCH  69  72
ENDBRANCH  51  65
BRANCH  52  76
ATOM     76  C   UNL A   1      39.401  32.019  35.187  1.00  0.00     0.023 A 
ATOM     77  C   UNL A   1      38.542  31.428  36.134  1.00  0.00     0.012 A 
ATOM     78  C   UNL A   1      39.821  33.349  35.376  1.00  0.00     0.148 A 
ATOM     79  C   UNL A   1      38.085  32.158  37.231  1.00  0.00     0.002 A 
ATOM     80  C   UNL A   1      39.407  34.053  36.501  1.00  0.00     0.091 A 
ATOM     81  F   UNL A   1      40.621  33.901  34.453  1.00  0.00    -0.205 F 
ATOM     82  C   UNL A   1      38.526  33.466  37.421  1.00  0.00     0.022 A 
BRANCH  80  83
ATOM     83  S   UNL A   1      40.031  35.694  36.882  1.00  0.00     0.127 S 
ATOM     84  O   UNL A   1      41.471  35.460  36.950  1.00  0.00    -0.237 OA
ATOM     85  O   UNL A   1      39.586  36.467  35.721  1.00  0.00    -0.237 OA
ATOM     86  O   UNL A   1      39.387  36.073  38.132  1.00  0.00    -0.744 OA
ENDBRANCH  80  83
ENDBRANCH  52  76
BRANCH  64  87
ATOM     87  C   UNL A   1      45.182  28.325  33.863  1.00  0.00     0.023 A 
ATOM     88  C   UNL A   1      46.270  29.215  33.773  1.00  0.00     0.012 A 
ATOM     89  C   UNL A   1      45.249  27.239  34.758  1.00  0.00     0.148 A 
ATOM     90  C   UNL A   1      47.418  29.012  34.540  1.00  0.00     0.002 A 
ATOM     91  C   UNL A   1      46.376  27.069  35.552  1.00  0.00     0.091 A 
ATOM     92  F   UNL A   1      44.212  26.390  34.815  1.00  0.00    -0.205 F 
ATOM     93  C   UNL A   1      47.466  27.948  35.437  1.00  0.00     0.022 A 
BRANCH  91  94
ATOM     94  S   UNL A   1      46.482  25.781  36.801  1.00  0.00     0.127 S 
ATOM     95  O   UNL A   1      46.399  24.569  35.988  1.00  0.00    -0.237 OA
ATOM     96  O   UNL A   1      47.795  26.027  37.397  1.00  0.00    -0.237 OA
ATOM     97  O   UNL A   1      45.361  26.012  37.703  1.00  0.00    -0.744 OA
ENDBRANCH  91  94
ENDBRANCH  64  87
ENDBRANCH  38  39
ENDBRANCH  31  33
ENDBRANCH  30  31
ENDBRANCH  29  30
ENDBRANCH  28  29
ENDBRANCH  27  28
ENDBRANCH   1  27
TORSDOF 22
ENDMDL
MODEL 3
REMARK VINA RESULT:     -11.3      4.579      9.833
REMARK SMILES C/C(=N/OCc1ccccc1Nc1c(Cl)cccc1Cl)C(=O)OCCOCCOC(=O)c1ccc(-c2c3nc(c(-c4cccc(S(=O)(=O)[O-])c4F)c4ccc([nH]4)c(-c4cccc(S(=O)(=O)[O-])c4F)c4nc(c(-c5cccc(S(=O)(=O)[O-])c5F)c5ccc2[nH]5)C=C4)C=C3)cc1
REMARK SMILES IDX 25 1 24 2 23 3 21 4 22 5 2 6 1 7 3 8 4 9 5 10 6 11 7 12
REMARK SMILES IDX 11 13 8 14 10 15 9 16 12 17 13 19 14 20 19 21 15 22 16 23
REMARK SMILES IDX 18 24 20 25 17 26 26 27 27 28 28 29 29 30 30 31 31 32 32 33
REMARK SMILES IDX 33 34 94 35 34 36 93 37 35 38 36 39 37 40 87 41 38 42 92 43
REMARK SMILES IDX 86 44 88 45 39 46 91 47 85 48 84 49 40 51 72 52 52 53 71 54
REMARK SMILES IDX 53 55 56 56 70 57 89 58 54 59 55 60 69 62 90 63 57 64 41 65
REMARK SMILES IDX 42 66 50 67 43 68 45 69 51 70 44 71 46 72 47 73 48 74 49 75
REMARK SMILES IDX 73 76 74 77 82 78 75 79 77 80 83 81 76 82 78 83 79 84 80 85
REMARK SMILES IDX 81 86 58 87 59 88 67 89 60 90 62 91 68 92 61 93 63 94 64 95
REMARK SMILES IDX 65 96 66 97
REMARK H PARENT 12 18 88 50 56 61
REMARK Flexibility Score: inf
ROOT
ATOM      1  C   UNL A   1      34.402  24.113  26.099  1.00  0.00     0.202 C 
ENDROOT
BRANCH   1   2
ATOM      2  C   UNL A   1      34.365  25.524  25.495  1.00  0.00     0.261 C 
BRANCH   2   3
ATOM      3  O   UNL A   1      33.322  26.266  26.142  1.00  0.00    -0.459 OA
BRANCH   3   4
ATOM      4  C   UNL A   1      33.559  27.576  26.357  1.00  0.00     0.355 C 
ATOM      5  O   UNL A   1      34.619  28.173  26.275  1.00  0.00    -0.245 OA
BRANCH   4   6
ATOM      6  C   UNL A   1      32.231  28.311  26.349  1.00  0.00     0.161 C 
ATOM      7  C   UNL A   1      31.547  28.405  27.687  1.00  0.00     0.079 C 
ATOM      8  N   UNL A   1      31.666  28.858  25.312  1.00  0.00    -0.084 NA
BRANCH   8   9
ATOM      9  O   UNL A   1      32.367  28.562  24.129  1.00  0.00    -0.390 OA
BRANCH   9  10
ATOM     10  C   UNL A   1      31.495  28.696  22.994  1.00  0.00     0.302 C 
BRANCH  10  11
ATOM     11  C   UNL A   1      30.114  28.115  23.247  1.00  0.00     0.016 A 
ATOM     12  C   UNL A   1      28.999  28.927  22.962  1.00  0.00     0.009 A 
ATOM     13  C   UNL A   1      29.899  26.825  23.792  1.00  0.00     0.045 A 
ATOM     14  C   UNL A   1      27.701  28.465  23.174  1.00  0.00     0.001 A 
ATOM     15  C   UNL A   1      28.584  26.370  23.971  1.00  0.00     0.026 A 
ATOM     16  C   UNL A   1      27.493  27.183  23.667  1.00  0.00     0.002 A 
BRANCH  13  17
ATOM     17  N   UNL A   1      30.985  26.020  24.178  1.00  0.00    -0.353 N 
ATOM     18  H   UNL A   1      31.589  26.459  24.819  1.00  0.00     0.167 HD
BRANCH  17  19
ATOM     19  C   UNL A   1      31.385  24.710  23.833  1.00  0.00     0.076 A 
ATOM     20  C   UNL A   1      31.156  23.667  24.759  1.00  0.00     0.066 A 
ATOM     21  C   UNL A   1      32.146  24.398  22.689  1.00  0.00     0.066 A 
ATOM     22  Cl  UNL A   1      30.298  23.956  26.237  1.00  0.00    -0.082 Cl
ATOM     23  C   UNL A   1      31.637  22.371  24.543  1.00  0.00     0.023 A 
ATOM     24  C   UNL A   1      32.625  23.096  22.475  1.00  0.00     0.023 A 
ATOM     25  Cl  UNL A   1      32.646  25.591  21.540  1.00  0.00    -0.082 Cl
ATOM     26  C   UNL A   1      32.371  22.084  23.398  1.00  0.00     0.003 A 
ENDBRANCH  17  19
ENDBRANCH  13  17
ENDBRANCH  10  11
ENDBRANCH   9  10
ENDBRANCH   8   9
ENDBRANCH   4   6
ENDBRANCH   3   4
ENDBRANCH   2   3
ENDBRANCH   1   2
BRANCH   1  27
ATOM     27  O   UNL A   1      35.192  23.154  25.380  1.00  0.00    -0.374 OA
BRANCH  27  28
ATOM     28  C   UNL A   1      35.431  21.901  26.016  1.00  0.00     0.202 C 
BRANCH  28  29
ATOM     29  C   UNL A   1      36.526  21.008  25.425  1.00  0.00     0.261 C 
BRANCH  29  30
ATOM     30  O   UNL A   1      37.692  21.751  25.052  1.00  0.00    -0.460 OA
BRANCH  30  31
ATOM     31  C   UNL A   1      38.789  21.458  25.790  1.00  0.00     0.338 C 
ATOM     32  O   UNL A   1      39.417  20.412  25.793  1.00  0.00    -0.246 OA
BRANCH  31  33
ATOM     33  C   UNL A   1      39.251  22.662  26.501  1.00  0.00     0.060 A 
ATOM     34  C   UNL A   1      38.682  23.882  26.117  1.00  0.00     0.016 A 
ATOM     35  C   UNL A   1      40.264  22.615  27.461  1.00  0.00     0.016 A 
ATOM     36  C   UNL A   1      39.167  25.071  26.650  1.00  0.00     0.010 A 
ATOM     37  C   UNL A   1      40.755  23.813  27.989  1.00  0.00     0.010 A 
ATOM     38  C   UNL A   1      40.236  25.045  27.555  1.00  0.00    -0.014 A 
BRANCH  38  39
ATOM     39  C   UNL A   1      40.899  26.318  27.918  1.00  0.00     0.031 A 
ATOM     40  C   UNL A   1      42.303  26.570  27.442  1.00  0.00     0.074 A 
ATOM     41  C   UNL A   1      40.248  27.246  28.642  1.00  0.00     0.049 A 
ATOM     42  N   UNL A   1      43.058  27.623  27.615  1.00  0.00    -0.248 NA
ATOM     43  C   UNL A   1      42.942  25.491  26.669  1.00  0.00     0.031 C 
ATOM     44  C   UNL A   1      38.890  27.108  29.165  1.00  0.00     0.029 A 
ATOM     45  N   UNL A   1      40.655  28.482  29.076  1.00  0.00    -0.354 N 
ATOM     46  C   UNL A   1      44.266  27.327  26.998  1.00  0.00     0.074 A 
ATOM     47  C   UNL A   1      44.151  25.992  26.454  1.00  0.00     0.031 C 
ATOM     48  C   UNL A   1      38.587  28.207  29.879  1.00  0.00     0.029 A 
ATOM     49  C   UNL A   1      39.730  29.117  29.870  1.00  0.00     0.049 A 
ATOM     50  H   UNL A   1      41.526  28.876  28.841  1.00  0.00     0.167 HD
ATOM     51  C   UNL A   1      45.368  28.105  26.879  1.00  0.00     0.034 A 
ATOM     52  C   UNL A   1      39.808  30.292  30.524  1.00  0.00     0.034 A 
ATOM     53  C   UNL A   1      45.470  29.443  27.394  1.00  0.00     0.049 A 
ATOM     54  C   UNL A   1      41.043  31.141  30.369  1.00  0.00     0.074 A 
ATOM     55  C   UNL A   1      46.520  30.335  27.271  1.00  0.00     0.029 A 
ATOM     56  N   UNL A   1      44.491  30.077  28.143  1.00  0.00    -0.354 N 
ATOM     57  N   UNL A   1      42.121  30.908  29.659  1.00  0.00    -0.248 NA
ATOM     58  C   UNL A   1      41.056  32.432  31.072  1.00  0.00     0.031 C 
ATOM     59  C   UNL A   1      46.183  31.503  27.962  1.00  0.00     0.029 A 
ATOM     60  C   UNL A   1      44.916  31.346  28.499  1.00  0.00     0.049 A 
ATOM     61  H   UNL A   1      43.621  29.685  28.385  1.00  0.00     0.167 HD
ATOM     62  C   UNL A   1      42.923  32.035  29.802  1.00  0.00     0.074 A 
ATOM     63  C   UNL A   1      42.198  32.958  30.649  1.00  0.00     0.031 C 
ATOM     64  C   UNL A   1      44.157  32.277  29.293  1.00  0.00     0.034 A 
BRANCH  51  65
ATOM     65  C   UNL A   1      46.545  27.541  26.131  1.00  0.00     0.023 A 
ATOM     66  C   UNL A   1      46.651  27.750  24.742  1.00  0.00     0.012 A 
ATOM     67  C   UNL A   1      47.576  26.865  26.811  1.00  0.00     0.148 A 
ATOM     68  C   UNL A   1      47.754  27.273  24.034  1.00  0.00     0.002 A 
ATOM     69  C   UNL A   1      48.691  26.426  26.107  1.00  0.00     0.091 A 
ATOM     70  F   UNL A   1      47.443  26.655  28.128  1.00  0.00    -0.205 F 
ATOM     71  C   UNL A   1      48.778  26.622  24.719  1.00  0.00     0.022 A 
BRANCH  69  72
ATOM     72  S   UNL A   1      50.094  25.642  26.908  1.00  0.00     0.127 S 
ATOM     73  O   UNL A   1      51.024  25.488  25.791  1.00  0.00    -0.237 OA
ATOM     74  O   UNL A   1      50.489  26.649  27.895  1.00  0.00    -0.237 OA
ATOM     75  O   UNL A   1      49.589  24.400  27.477  1.00  0.00    -0.744 OA
ENDBRANCH  69  72
ENDBRANCH  51  65
BRANCH  52  76
ATOM     76  C   UNL A   1      38.662  30.753  31.357  1.00  0.00     0.023 A 
ATOM     77  C   UNL A   1      38.688  30.554  32.751  1.00  0.00     0.012 A 
ATOM     78  C   UNL A   1      37.557  31.403  30.777  1.00  0.00     0.148 A 
ATOM     79  C   UNL A   1      37.619  30.968  33.548  1.00  0.00     0.002 A 
ATOM     80  C   UNL A   1      36.521  31.862  31.582  1.00  0.00     0.091 A 
ATOM     81  F   UNL A   1      37.540  31.564  29.445  1.00  0.00    -0.205 F 
ATOM     82  C   UNL A   1      36.542  31.631  32.965  1.00  0.00     0.022 A 
BRANCH  80  83
ATOM     83  S   UNL A   1      35.162  32.836  30.924  1.00  0.00     0.127 S 
ATOM     84  O   UNL A   1      34.108  32.580  31.902  1.00  0.00    -0.237 OA
ATOM     85  O   UNL A   1      35.715  34.191  30.955  1.00  0.00    -0.237 OA
ATOM     86  O   UNL A   1      34.928  32.319  29.583  1.00  0.00    -0.744 OA
ENDBRANCH  80  83
ENDBRANCH  52  76
BRANCH  64  87
ATOM     87  C   UNL A   1      44.797  33.603  29.608  1.00  0.00     0.023 A 
ATOM     88  C   UNL A   1      45.672  33.712  30.707  1.00  0.00     0.012 A 
ATOM     89  C   UNL A   1      44.595  34.719  28.772  1.00  0.00     0.148 A 
ATOM     90  C   UNL A   1      46.312  34.920  30.986  1.00  0.00     0.002 A 
ATOM     91  C   UNL A   1      45.272  35.905  29.029  1.00  0.00     0.091 A 
ATOM     92  F   UNL A   1      43.743  34.602  27.742  1.00  0.00    -0.205 F 
ATOM     93  C   UNL A   1      46.123  36.011  30.141  1.00  0.00     0.022 A 
BRANCH  91  94
ATOM     94  S   UNL A   1      45.158  37.328  27.937  1.00  0.00     0.127 S 
ATOM     95  O   UNL A   1      45.671  36.783  26.681  1.00  0.00    -0.237 OA
ATOM     96  O   UNL A   1      43.723  37.611  27.937  1.00  0.00    -0.237 OA
ATOM     97  O   UNL A   1      45.974  38.366  28.553  1.00  0.00    -0.744 OA
ENDBRANCH  91  94
ENDBRANCH  64  87
ENDBRANCH  38  39
ENDBRANCH  31  33
ENDBRANCH  30  31
ENDBRANCH  29  30
ENDBRANCH  28  29
ENDBRANCH  27  28
ENDBRANCH   1  27
TORSDOF 22
ENDMDL
