MODEL 1
REMARK VINA RESULT:      -9.3      0.000      0.000
REMARK SMILES Cn1cc(S(=O)(=O)N2CCC(C(=O)OCCOCCOC(=O)c3ccc(-c4c5nc(c(-c6cccc(S(=O)(=O)[O-])c6F)c6ccc([nH]6)c(-c6cccc(S(=O)(=O)[O-])c6F)c6nc(c(-c7cccc(S(=O)(=O)[O-])c7F)c7ccc4[nH]7)C=C6)C=C5)cc3)CC2)cc1C(=O)N1CCCCC1
REMARK SMILES IDX 17 1 16 2 15 3 14 4 12 5 13 6 11 7 8 8 9 9 87 10 10 11 86 12
REMARK SMILES IDX 5 13 6 14 7 15 4 16 1 17 2 18 3 19 89 20 88 21 90 22 91 23
REMARK SMILES IDX 92 24 93 25 97 26 94 27 96 28 95 29 18 30 19 31 20 32 21 33
REMARK SMILES IDX 22 34 23 35 24 36 85 37 25 38 84 39 26 40 27 41 28 42 78 43
REMARK SMILES IDX 29 44 83 45 77 46 79 47 30 48 82 49 76 50 75 51 31 53 63 54
REMARK SMILES IDX 43 55 62 56 44 57 47 58 61 59 80 60 45 61 46 62 60 64 81 65
REMARK SMILES IDX 48 66 32 67 33 68 41 69 34 70 36 71 42 72 35 73 37 74 38 75
REMARK SMILES IDX 39 76 40 77 64 78 65 79 73 80 66 81 68 82 74 83 67 84 69 85
REMARK SMILES IDX 70 86 71 87 72 88 49 89 50 90 58 91 51 92 53 93 59 94 52 95
REMARK SMILES IDX 54 96 55 97 56 98 57 99
REMARK H PARENT 79 52 47 63
REMARK Flexibility Score: inf
ROOT
ATOM      1  O   UNL A   1      36.641  33.726  32.103  1.00  0.00    -0.374 OA
ENDROOT
BRANCH   1   2
ATOM      2  C   UNL A   1      37.729  33.266  31.296  1.00  0.00     0.202 C 
BRANCH   2   3
ATOM      3  C   UNL A   1      37.446  32.026  30.448  1.00  0.00     0.261 C 
BRANCH   3   4
ATOM      4  O   UNL A   1      38.667  31.440  29.962  1.00  0.00    -0.463 OA
BRANCH   4   5
ATOM      5  C   UNL A   1      38.589  30.142  29.585  1.00  0.00     0.309 C 
ATOM      6  O   UNL A   1      37.686  29.369  29.887  1.00  0.00    -0.252 OA
BRANCH   5   7
ATOM      7  C   UNL A   1      39.759  29.695  28.740  1.00  0.00     0.102 C 
ATOM      8  N   UNL A   1      41.511  28.163  27.053  1.00  0.00    -0.198 NA
ATOM      9  C   UNL A   1      41.930  28.497  28.436  1.00  0.00     0.103 C 
ATOM     10  C   UNL A   1      40.410  28.956  26.460  1.00  0.00     0.103 C 
ATOM     11  C   UNL A   1      40.732  28.696  29.362  1.00  0.00     0.032 C 
ATOM     12  C   UNL A   1      39.251  29.115  27.428  1.00  0.00     0.032 C 
BRANCH   8  13
ATOM     13  S   UNL A   1      42.777  27.791  25.972  1.00  0.00     0.244 S 
ATOM     14  O   UNL A   1      43.958  28.533  26.359  1.00  0.00    -0.207 OA
ATOM     15  O   UNL A   1      42.261  27.820  24.620  1.00  0.00    -0.207 OA
BRANCH  13  16
ATOM     16  C   UNL A   1      43.287  26.138  26.152  1.00  0.00     0.101 A 
ATOM     17  C   UNL A   1      45.659  23.734  27.401  1.00  0.00     0.150 C 
ATOM     18  N   UNL A   1      44.525  24.396  26.795  1.00  0.00    -0.345 N 
ATOM     19  C   UNL A   1      44.242  25.715  27.052  1.00  0.00     0.107 A 
ATOM     20  C   UNL A   1      43.702  23.919  25.788  1.00  0.00     0.108 A 
ATOM     21  C   UNL A   1      42.908  25.001  25.403  1.00  0.00     0.055 A 
BRANCH  20  22
ATOM     22  C   UNL A   1      43.772  22.648  25.076  1.00  0.00     0.270 C 
ATOM     23  O   UNL A   1      44.065  22.625  23.879  1.00  0.00    -0.267 OA
ATOM     24  N   UNL A   1      43.580  21.457  25.768  1.00  0.00    -0.337 N 
ATOM     25  C   UNL A   1      44.320  20.278  25.333  1.00  0.00     0.120 C 
ATOM     26  C   UNL A   1      42.615  21.265  26.850  1.00  0.00     0.120 C 
ATOM     27  C   UNL A   1      43.406  19.100  25.029  1.00  0.00     0.022 C 
ATOM     28  C   UNL A   1      41.684  20.084  26.563  1.00  0.00     0.022 C 
ATOM     29  C   UNL A   1      42.475  18.824  26.206  1.00  0.00     0.004 C 
ENDBRANCH  20  22
ENDBRANCH  13  16
ENDBRANCH   8  13
ENDBRANCH   5   7
ENDBRANCH   4   5
ENDBRANCH   3   4
ENDBRANCH   2   3
ENDBRANCH   1   2
BRANCH   1  30
ATOM     30  C   UNL A   1      36.966  34.579  33.200  1.00  0.00     0.202 C 
BRANCH  30  31
ATOM     31  C   UNL A   1      36.452  34.135  34.576  1.00  0.00     0.261 C 
BRANCH  31  32
ATOM     32  O   UNL A   1      36.516  32.707  34.746  1.00  0.00    -0.460 OA
BRANCH  32  33
ATOM     33  C   UNL A   1      37.474  32.284  35.609  1.00  0.00     0.338 C 
ATOM     34  O   UNL A   1      37.409  32.274  36.828  1.00  0.00    -0.246 OA
BRANCH  33  35
ATOM     35  C   UNL A   1      38.586  31.647  34.875  1.00  0.00     0.060 A 
ATOM     36  C   UNL A   1      39.882  32.091  35.166  1.00  0.00     0.016 A 
ATOM     37  C   UNL A   1      38.371  30.700  33.871  1.00  0.00     0.016 A 
ATOM     38  C   UNL A   1      40.963  31.634  34.415  1.00  0.00     0.010 A 
ATOM     39  C   UNL A   1      39.457  30.250  33.112  1.00  0.00     0.010 A 
ATOM     40  C   UNL A   1      40.752  30.745  33.354  1.00  0.00    -0.014 A 
BRANCH  40  41
ATOM     41  C   UNL A   1      41.865  30.455  32.416  1.00  0.00     0.031 A 
ATOM     42  C   UNL A   1      42.603  29.149  32.540  1.00  0.00     0.074 A 
ATOM     43  C   UNL A   1      42.202  31.332  31.453  1.00  0.00     0.049 A 
ATOM     44  N   UNL A   1      43.587  28.684  31.815  1.00  0.00    -0.248 NA
ATOM     45  C   UNL A   1      42.176  28.247  33.623  1.00  0.00     0.031 C 
ATOM     46  C   UNL A   1      41.566  32.629  31.232  1.00  0.00     0.029 A 
ATOM     47  N   UNL A   1      43.180  31.266  30.492  1.00  0.00    -0.354 N 
ATOM     48  C   UNL A   1      43.909  27.448  32.363  1.00  0.00     0.074 A 
ATOM     49  C   UNL A   1      43.026  27.239  33.490  1.00  0.00     0.031 C 
ATOM     50  C   UNL A   1      42.187  33.250  30.214  1.00  0.00     0.029 A 
ATOM     51  C   UNL A   1      43.271  32.401  29.721  1.00  0.00     0.049 A 
ATOM     52  H   UNL A   1      43.760  30.481  30.366  1.00  0.00     0.167 HD
ATOM     53  C   UNL A   1      44.842  26.556  31.954  1.00  0.00     0.034 A 
ATOM     54  C   UNL A   1      44.137  32.722  28.739  1.00  0.00     0.034 A 
ATOM     55  C   UNL A   1      45.703  26.747  30.818  1.00  0.00     0.049 A 
ATOM     56  C   UNL A   1      45.176  31.715  28.313  1.00  0.00     0.074 A 
ATOM     57  C   UNL A   1      46.644  25.877  30.297  1.00  0.00     0.029 A 
ATOM     58  N   UNL A   1      45.735  27.890  30.035  1.00  0.00    -0.354 N 
ATOM     59  N   UNL A   1      45.374  30.496  28.752  1.00  0.00    -0.248 NA
ATOM     60  C   UNL A   1      46.089  32.117  27.232  1.00  0.00     0.031 C 
ATOM     61  C   UNL A   1      47.256  26.500  29.204  1.00  0.00     0.029 A 
ATOM     62  C   UNL A   1      46.686  27.752  29.039  1.00  0.00     0.049 A 
ATOM     63  H   UNL A   1      45.166  28.681  30.167  1.00  0.00     0.167 HD
ATOM     64  C   UNL A   1      46.407  29.974  27.979  1.00  0.00     0.074 A 
ATOM     65  C   UNL A   1      46.781  31.003  27.031  1.00  0.00     0.031 C 
ATOM     66  C   UNL A   1      47.005  28.760  28.060  1.00  0.00     0.034 A 
BRANCH  53  67
ATOM     67  C   UNL A   1      44.953  25.262  32.714  1.00  0.00     0.023 A 
ATOM     68  C   UNL A   1      44.143  24.172  32.340  1.00  0.00     0.012 A 
ATOM     69  C   UNL A   1      45.897  25.104  33.747  1.00  0.00     0.148 A 
ATOM     70  C   UNL A   1      44.256  22.947  32.997  1.00  0.00     0.002 A 
ATOM     71  C   UNL A   1      46.028  23.870  34.373  1.00  0.00     0.091 A 
ATOM     72  F   UNL A   1      46.638  26.162  34.104  1.00  0.00    -0.205 F 
ATOM     73  C   UNL A   1      45.204  22.794  34.005  1.00  0.00     0.022 A 
BRANCH  71  74
ATOM     74  S   UNL A   1      47.266  23.555  35.636  1.00  0.00     0.127 S 
ATOM     75  O   UNL A   1      46.899  22.211  36.080  1.00  0.00    -0.237 OA
ATOM     76  O   UNL A   1      48.512  23.626  34.873  1.00  0.00    -0.237 OA
ATOM     77  O   UNL A   1      47.104  24.610  36.627  1.00  0.00    -0.744 OA
ENDBRANCH  71  74
ENDBRANCH  53  67
BRANCH  54  78
ATOM     78  C   UNL A   1      44.031  34.040  28.053  1.00  0.00     0.023 A 
ATOM     79  C   UNL A   1      43.280  34.147  26.867  1.00  0.00     0.012 A 
ATOM     80  C   UNL A   1      44.656  35.189  28.575  1.00  0.00     0.148 A 
ATOM     81  C   UNL A   1      43.176  35.366  26.198  1.00  0.00     0.002 A 
ATOM     82  C   UNL A   1      44.505  36.412  27.932  1.00  0.00     0.091 A 
ATOM     83  F   UNL A   1      45.389  35.064  29.690  1.00  0.00    -0.205 F 
ATOM     84  C   UNL A   1      43.778  36.501  26.735  1.00  0.00     0.022 A 
BRANCH  82  85
ATOM     85  S   UNL A   1      45.141  37.940  28.630  1.00  0.00     0.127 S 
ATOM     86  O   UNL A   1      46.579  37.790  28.420  1.00  0.00    -0.237 OA
ATOM     87  O   UNL A   1      44.499  38.952  27.791  1.00  0.00    -0.237 OA
ATOM     88  O   UNL A   1      44.693  37.945  30.016  1.00  0.00    -0.744 OA
ENDBRANCH  82  85
ENDBRANCH  54  78
BRANCH  66  89
ATOM     89  C   UNL A   1      48.108  28.453  27.082  1.00  0.00     0.023 A 
ATOM     90  C   UNL A   1      49.450  28.527  27.504  1.00  0.00     0.012 A 
ATOM     91  C   UNL A   1      47.816  28.008  25.777  1.00  0.00     0.148 A 
ATOM     92  C   UNL A   1      50.486  28.186  26.634  1.00  0.00     0.002 A 
ATOM     93  C   UNL A   1      48.852  27.629  24.931  1.00  0.00     0.091 A 
ATOM     94  F   UNL A   1      46.534  27.963  25.388  1.00  0.00    -0.205 F 
ATOM     95  C   UNL A   1      50.187  27.726  25.354  1.00  0.00     0.022 A 
BRANCH  93  96
ATOM     96  S   UNL A   1      48.549  26.940  23.299  1.00  0.00     0.127 S 
ATOM     97  O   UNL A   1      49.889  26.959  22.714  1.00  0.00    -0.237 OA
ATOM     98  O   UNL A   1      48.039  25.604  23.611  1.00  0.00    -0.237 OA
ATOM     99  O   UNL A   1      47.575  27.822  22.671  1.00  0.00    -0.744 OA
ENDBRANCH  93  96
ENDBRANCH  66  89
ENDBRANCH  40  41
ENDBRANCH  33  35
ENDBRANCH  32  33
ENDBRANCH  31  32
ENDBRANCH  30  31
ENDBRANCH   1  30
TORSDOF 20
ENDMDL
MODEL 2
REMARK VINA RESULT:      -8.5      5.354      9.626
REMARK SMILES Cn1cc(S(=O)(=O)N2CCC(C(=O)OCCOCCOC(=O)c3ccc(-c4c5nc(c(-c6cccc(S(=O)(=O)[O-])c6F)c6ccc([nH]6)c(-c6cccc(S(=O)(=O)[O-])c6F)c6nc(c(-c7cccc(S(=O)(=O)[O-])c7F)c7ccc4[nH]7)C=C6)C=C5)cc3)CC2)cc1C(=O)N1CCCCC1
REMARK SMILES IDX 17 1 16 2 15 3 14 4 12 5 13 6 11 7 8 8 9 9 87 10 10 11 86 12
REMARK SMILES IDX 5 13 6 14 7 15 4 16 1 17 2 18 3 19 89 20 88 21 90 22 91 23
REMARK SMILES IDX 92 24 93 25 97 26 94 27 96 28 95 29 18 30 19 31 20 32 21 33
REMARK SMILES IDX 22 34 23 35 24 36 85 37 25 38 84 39 26 40 27 41 28 42 78 43
REMARK SMILES IDX 29 44 83 45 77 46 79 47 30 48 82 49 76 50 75 51 31 53 63 54
REMARK SMILES IDX 43 55 62 56 44 57 47 58 61 59 80 60 45 61 46 62 60 64 81 65
REMARK SMILES IDX 48 66 32 67 33 68 41 69 34 70 36 71 42 72 35 73 37 74 38 75
REMARK SMILES IDX 39 76 40 77 64 78 65 79 73 80 66 81 68 82 74 83 67 84 69 85
REMARK SMILES IDX 70 86 71 87 72 88 49 89 50 90 58 91 51 92 53 93 59 94 52 95
REMARK SMILES IDX 54 96 55 97 56 98 57 99
REMARK H PARENT 79 52 47 63
REMARK Flexibility Score: inf
ROOT
ATOM      1  O   UNL A   1      35.731  33.522  29.585  1.00  0.00    -0.374 OA
ENDROOT
BRANCH   1   2
ATOM      2  C   UNL A   1      35.583  32.486  28.611  1.00  0.00     0.202 C 
BRANCH   2   3
ATOM      3  C   UNL A   1      34.185  32.337  28.009  1.00  0.00     0.261 C 
BRANCH   3   4
ATOM      4  O   UNL A   1      34.009  31.035  27.423  1.00  0.00    -0.463 OA
BRANCH   4   5
ATOM      5  C   UNL A   1      32.858  30.851  26.732  1.00  0.00     0.309 C 
ATOM      6  O   UNL A   1      31.849  31.539  26.840  1.00  0.00    -0.252 OA
BRANCH   5   7
ATOM      7  C   UNL A   1      32.911  29.671  25.790  1.00  0.00     0.102 C 
ATOM      8  N   UNL A   1      32.389  27.164  24.485  1.00  0.00    -0.198 NA
ATOM      9  C   UNL A   1      33.691  27.382  25.163  1.00  0.00     0.103 C 
ATOM     10  C   UNL A   1      31.580  28.359  24.156  1.00  0.00     0.103 C 
ATOM     11  C   UNL A   1      33.578  28.396  26.300  1.00  0.00     0.032 C 
ATOM     12  C   UNL A   1      31.504  29.324  25.326  1.00  0.00     0.032 C 
BRANCH   8  13
ATOM     13  S   UNL A   1      32.381  25.950  23.287  1.00  0.00     0.244 S 
ATOM     14  O   UNL A   1      33.574  26.081  22.477  1.00  0.00    -0.207 OA
ATOM     15  O   UNL A   1      31.059  25.882  22.700  1.00  0.00    -0.207 OA
BRANCH  13  16
ATOM     16  C   UNL A   1      32.569  24.372  23.994  1.00  0.00     0.101 A 
ATOM     17  C   UNL A   1      32.475  22.229  26.886  1.00  0.00     0.150 C 
ATOM     18  N   UNL A   1      32.583  22.772  25.550  1.00  0.00    -0.345 N 
ATOM     19  C   UNL A   1      32.100  24.021  25.242  1.00  0.00     0.107 A 
ATOM     20  C   UNL A   1      33.296  22.260  24.479  1.00  0.00     0.108 A 
ATOM     21  C   UNL A   1      33.266  23.249  23.495  1.00  0.00     0.055 A 
BRANCH  20  22
ATOM     22  C   UNL A   1      34.126  21.061  24.425  1.00  0.00     0.270 C 
ATOM     23  O   UNL A   1      35.351  21.152  24.530  1.00  0.00    -0.267 OA
ATOM     24  N   UNL A   1      33.526  19.810  24.328  1.00  0.00    -0.337 N 
ATOM     25  C   UNL A   1      34.179  18.679  24.979  1.00  0.00     0.120 C 
ATOM     26  C   UNL A   1      32.332  19.514  23.538  1.00  0.00     0.120 C 
ATOM     27  C   UNL A   1      34.447  17.532  24.016  1.00  0.00     0.022 C 
ATOM     28  C   UNL A   1      32.581  18.362  22.562  1.00  0.00     0.022 C 
ATOM     29  C   UNL A   1      33.171  17.144  23.273  1.00  0.00     0.004 C 
ENDBRANCH  20  22
ENDBRANCH  13  16
ENDBRANCH   8  13
ENDBRANCH   5   7
ENDBRANCH   4   5
ENDBRANCH   3   4
ENDBRANCH   2   3
ENDBRANCH   1   2
BRANCH   1  30
ATOM     30  C   UNL A   1      34.763  33.569  30.632  1.00  0.00     0.202 C 
BRANCH  30  31
ATOM     31  C   UNL A   1      34.948  32.553  31.767  1.00  0.00     0.261 C 
BRANCH  31  32
ATOM     32  O   UNL A   1      36.319  32.458  32.195  1.00  0.00    -0.460 OA
BRANCH  32  33
ATOM     33  C   UNL A   1      36.826  31.200  32.192  1.00  0.00     0.338 C 
ATOM     34  O   UNL A   1      36.238  30.172  32.490  1.00  0.00    -0.246 OA
BRANCH  33  35
ATOM     35  C   UNL A   1      38.178  31.188  31.598  1.00  0.00     0.060 A 
ATOM     36  C   UNL A   1      39.240  31.597  32.416  1.00  0.00     0.016 A 
ATOM     37  C   UNL A   1      38.400  30.868  30.257  1.00  0.00     0.016 A 
ATOM     38  C   UNL A   1      40.518  31.742  31.882  1.00  0.00     0.010 A 
ATOM     39  C   UNL A   1      39.684  31.024  29.720  1.00  0.00     0.010 A 
ATOM     40  C   UNL A   1      40.739  31.500  30.520  1.00  0.00    -0.014 A 
BRANCH  40  41
ATOM     41  C   UNL A   1      42.038  31.889  29.914  1.00  0.00     0.031 A 
ATOM     42  C   UNL A   1      42.288  33.337  29.591  1.00  0.00     0.074 A 
ATOM     43  C   UNL A   1      42.989  30.970  29.674  1.00  0.00     0.049 A 
ATOM     44  N   UNL A   1      43.354  33.898  29.082  1.00  0.00    -0.248 NA
ATOM     45  C   UNL A   1      41.193  34.279  29.879  1.00  0.00     0.031 C 
ATOM     46  C   UNL A   1      42.868  29.538  29.942  1.00  0.00     0.029 A 
ATOM     47  N   UNL A   1      44.243  31.107  29.133  1.00  0.00    -0.354 N 
ATOM     48  C   UNL A   1      43.053  35.251  28.971  1.00  0.00     0.074 A 
ATOM     49  C   UNL A   1      41.701  35.427  29.453  1.00  0.00     0.031 C 
ATOM     50  C   UNL A   1      43.994  28.923  29.539  1.00  0.00     0.029 A 
ATOM     51  C   UNL A   1      44.909  29.914  28.975  1.00  0.00     0.049 A 
ATOM     52  H   UNL A   1      44.630  31.977  28.881  1.00  0.00     0.167 HD
ATOM     53  C   UNL A   1      43.839  36.260  28.528  1.00  0.00     0.034 A 
ATOM     54  C   UNL A   1      46.113  29.652  28.428  1.00  0.00     0.034 A 
ATOM     55  C   UNL A   1      45.193  36.094  28.074  1.00  0.00     0.049 A 
ATOM     56  C   UNL A   1      46.962  30.794  27.928  1.00  0.00     0.074 A 
ATOM     57  C   UNL A   1      46.084  37.066  27.655  1.00  0.00     0.029 A 
ATOM     58  N   UNL A   1      45.848  34.878  27.971  1.00  0.00    -0.354 N 
ATOM     59  N   UNL A   1      46.715  32.082  27.960  1.00  0.00    -0.248 NA
ATOM     60  C   UNL A   1      48.269  30.449  27.348  1.00  0.00     0.031 C 
ATOM     61  C   UNL A   1      47.277  36.434  27.285  1.00  0.00     0.029 A 
ATOM     62  C   UNL A   1      47.130  35.071  27.486  1.00  0.00     0.049 A 
ATOM     63  H   UNL A   1      45.459  34.005  28.208  1.00  0.00     0.167 HD
ATOM     64  C   UNL A   1      47.848  32.701  27.440  1.00  0.00     0.074 A 
ATOM     65  C   UNL A   1      48.789  31.648  27.117  1.00  0.00     0.031 C 
ATOM     66  C   UNL A   1      48.081  34.020  27.230  1.00  0.00     0.034 A 
BRANCH  53  67
ATOM     67  C   UNL A   1      43.269  37.653  28.554  1.00  0.00     0.023 A 
ATOM     68  C   UNL A   1      42.419  38.069  27.511  1.00  0.00     0.012 A 
ATOM     69  C   UNL A   1      43.517  38.520  29.635  1.00  0.00     0.148 A 
ATOM     70  C   UNL A   1      41.840  39.337  27.532  1.00  0.00     0.002 A 
ATOM     71  C   UNL A   1      42.908  39.770  29.666  1.00  0.00     0.091 A 
ATOM     72  F   UNL A   1      44.350  38.114  30.604  1.00  0.00    -0.205 F 
ATOM     73  C   UNL A   1      42.076  40.182  28.613  1.00  0.00     0.022 A 
BRANCH  71  74
ATOM     74  S   UNL A   1      43.098  40.902  31.047  1.00  0.00     0.127 S 
ATOM     75  O   UNL A   1      42.117  41.935  30.720  1.00  0.00    -0.237 OA
ATOM     76  O   UNL A   1      42.739  40.060  32.190  1.00  0.00    -0.237 OA
ATOM     77  O   UNL A   1      44.491  41.329  31.027  1.00  0.00    -0.744 OA
ENDBRANCH  71  74
ENDBRANCH  53  67
BRANCH  54  78
ATOM     78  C   UNL A   1      46.614  28.251  28.366  1.00  0.00     0.023 A 
ATOM     79  C   UNL A   1      47.429  27.758  29.404  1.00  0.00     0.012 A 
ATOM     80  C   UNL A   1      46.278  27.400  27.295  1.00  0.00     0.148 A 
ATOM     81  C   UNL A   1      47.922  26.454  29.363  1.00  0.00     0.002 A 
ATOM     82  C   UNL A   1      46.729  26.085  27.288  1.00  0.00     0.091 A 
ATOM     83  F   UNL A   1      45.523  27.893  26.303  1.00  0.00    -0.205 F 
ATOM     84  C   UNL A   1      47.564  25.614  28.312  1.00  0.00     0.022 A 
BRANCH  82  85
ATOM     85  S   UNL A   1      46.206  24.906  26.037  1.00  0.00     0.127 S 
ATOM     86  O   UNL A   1      47.073  23.765  26.319  1.00  0.00    -0.237 OA
ATOM     87  O   UNL A   1      44.796  24.707  26.373  1.00  0.00    -0.237 OA
ATOM     88  O   UNL A   1      46.425  25.577  24.762  1.00  0.00    -0.744 OA
ENDBRANCH  82  85
ENDBRANCH  54  78
BRANCH  66  89
ATOM     89  C   UNL A   1      49.413  34.416  26.651  1.00  0.00     0.023 A 
ATOM     90  C   UNL A   1      49.511  34.724  25.280  1.00  0.00     0.012 A 
ATOM     91  C   UNL A   1      50.545  34.567  27.477  1.00  0.00     0.148 A 
ATOM     92  C   UNL A   1      50.720  35.154  24.735  1.00  0.00     0.002 A 
ATOM     93  C   UNL A   1      51.736  35.036  26.934  1.00  0.00     0.091 A 
ATOM     94  F   UNL A   1      50.438  34.249  28.775  1.00  0.00    -0.205 F 
ATOM     95  C   UNL A   1      51.828  35.321  25.563  1.00  0.00     0.022 A 
BRANCH  93  96
ATOM     96  S   UNL A   1      53.183  35.367  27.947  1.00  0.00     0.127 S 
ATOM     97  O   UNL A   1      53.377  34.083  28.618  1.00  0.00    -0.237 OA
ATOM     98  O   UNL A   1      54.200  35.691  26.946  1.00  0.00    -0.237 OA
ATOM     99  O   UNL A   1      52.815  36.480  28.812  1.00  0.00    -0.744 OA
ENDBRANCH  93  96
ENDBRANCH  66  89
ENDBRANCH  40  41
ENDBRANCH  33  35
ENDBRANCH  32  33
ENDBRANCH  31  32
ENDBRANCH  30  31
ENDBRANCH   1  30
TORSDOF 20
ENDMDL
MODEL 3
REMARK VINA RESULT:      -8.1      5.699      9.213
REMARK SMILES Cn1cc(S(=O)(=O)N2CCC(C(=O)OCCOCCOC(=O)c3ccc(-c4c5nc(c(-c6cccc(S(=O)(=O)[O-])c6F)c6ccc([nH]6)c(-c6cccc(S(=O)(=O)[O-])c6F)c6nc(c(-c7cccc(S(=O)(=O)[O-])c7F)c7ccc4[nH]7)C=C6)C=C5)cc3)CC2)cc1C(=O)N1CCCCC1
REMARK SMILES IDX 17 1 16 2 15 3 14 4 12 5 13 6 11 7 8 8 9 9 87 10 10 11 86 12
REMARK SMILES IDX 5 13 6 14 7 15 4 16 1 17 2 18 3 19 89 20 88 21 90 22 91 23
REMARK SMILES IDX 92 24 93 25 97 26 94 27 96 28 95 29 18 30 19 31 20 32 21 33
REMARK SMILES IDX 22 34 23 35 24 36 85 37 25 38 84 39 26 40 27 41 28 42 78 43
REMARK SMILES IDX 29 44 83 45 77 46 79 47 30 48 82 49 76 50 75 51 31 53 63 54
REMARK SMILES IDX 43 55 62 56 44 57 47 58 61 59 80 60 45 61 46 62 60 64 81 65
REMARK SMILES IDX 48 66 32 67 33 68 41 69 34 70 36 71 42 72 35 73 37 74 38 75
REMARK SMILES IDX 39 76 40 77 64 78 65 79 73 80 66 81 68 82 74 83 67 84 69 85
REMARK SMILES IDX 70 86 71 87 72 88 49 89 50 90 58 91 51 92 53 93 59 94 52 95
REMARK SMILES IDX 54 96 55 97 56 98 57 99
REMARK H PARENT 79 52 47 63
REMARK Flexibility Score: inf
ROOT
ATOM      1  O   UNL A   1      36.486  32.189  28.624  1.00  0.00    -0.374 OA
ENDROOT
BRANCH   1   2
ATOM      2  C   UNL A   1      35.132  32.061  29.067  1.00  0.00     0.202 C 
BRANCH   2   3
ATOM      3  C   UNL A   1      34.061  32.389  28.026  1.00  0.00     0.261 C 
BRANCH   3   4
ATOM      4  O   UNL A   1      33.560  31.191  27.403  1.00  0.00    -0.463 OA
BRANCH   4   5
ATOM      5  C   UNL A   1      32.381  31.317  26.748  1.00  0.00     0.309 C 
ATOM      6  O   UNL A   1      31.644  32.295  26.797  1.00  0.00    -0.252 OA
BRANCH   5   7
ATOM      7  C   UNL A   1      32.022  30.099  25.929  1.00  0.00     0.102 C 
ATOM      8  N   UNL A   1      30.571  27.986  24.628  1.00  0.00    -0.198 NA
ATOM      9  C   UNL A   1      31.544  27.659  25.700  1.00  0.00     0.103 C 
ATOM     10  C   UNL A   1      30.675  29.320  23.994  1.00  0.00     0.103 C 
ATOM     11  C   UNL A   1      31.713  28.811  26.688  1.00  0.00     0.032 C 
ATOM     12  C   UNL A   1      30.839  30.421  25.028  1.00  0.00     0.032 C 
BRANCH   8  13
ATOM     13  S   UNL A   1      30.212  26.715  23.550  1.00  0.00     0.244 S 
ATOM     14  O   UNL A   1      30.869  26.972  22.285  1.00  0.00    -0.207 OA
ATOM     15  O   UNL A   1      28.798  26.418  23.633  1.00  0.00    -0.207 OA
BRANCH  13  16
ATOM     16  C   UNL A   1      30.948  25.228  24.069  1.00  0.00     0.101 A 
ATOM     17  C   UNL A   1      31.640  22.845  26.679  1.00  0.00     0.150 C 
ATOM     18  N   UNL A   1      31.537  23.553  25.422  1.00  0.00    -0.345 N 
ATOM     19  C   UNL A   1      30.645  24.583  25.249  1.00  0.00     0.107 A 
ATOM     20  C   UNL A   1      32.375  23.459  24.323  1.00  0.00     0.108 A 
ATOM     21  C   UNL A   1      31.990  24.489  23.463  1.00  0.00     0.055 A 
BRANCH  20  22
ATOM     22  C   UNL A   1      33.571  22.642  24.154  1.00  0.00     0.270 C 
ATOM     23  O   UNL A   1      33.473  21.464  23.808  1.00  0.00    -0.267 OA
ATOM     24  N   UNL A   1      34.828  23.218  24.314  1.00  0.00    -0.337 N 
ATOM     25  C   UNL A   1      35.925  22.718  23.493  1.00  0.00     0.120 C 
ATOM     26  C   UNL A   1      35.163  24.231  25.314  1.00  0.00     0.120 C 
ATOM     27  C   UNL A   1      37.115  22.268  24.330  1.00  0.00     0.022 C 
ATOM     28  C   UNL A   1      36.358  23.797  26.167  1.00  0.00     0.022 C 
ATOM     29  C   UNL A   1      37.540  23.370  25.296  1.00  0.00     0.004 C 
ENDBRANCH  20  22
ENDBRANCH  13  16
ENDBRANCH   8  13
ENDBRANCH   5   7
ENDBRANCH   4   5
ENDBRANCH   3   4
ENDBRANCH   2   3
ENDBRANCH   1   2
BRANCH   1  30
ATOM     30  C   UNL A   1      37.473  31.451  29.342  1.00  0.00     0.202 C 
BRANCH  30  31
ATOM     31  C   UNL A   1      37.446  29.928  29.154  1.00  0.00     0.261 C 
BRANCH  31  32
ATOM     32  O   UNL A   1      36.767  29.258  30.231  1.00  0.00    -0.460 OA
BRANCH  32  33
ATOM     33  C   UNL A   1      37.009  29.776  31.461  1.00  0.00     0.338 C 
ATOM     34  O   UNL A   1      36.249  30.456  32.133  1.00  0.00    -0.246 OA
BRANCH  33  35
ATOM     35  C   UNL A   1      38.285  29.260  31.997  1.00  0.00     0.060 A 
ATOM     36  C   UNL A   1      39.328  30.180  32.163  1.00  0.00     0.016 A 
ATOM     37  C   UNL A   1      38.490  27.902  32.255  1.00  0.00     0.016 A 
ATOM     38  C   UNL A   1      40.598  29.740  32.531  1.00  0.00     0.010 A 
ATOM     39  C   UNL A   1      39.769  27.461  32.616  1.00  0.00     0.010 A 
ATOM     40  C   UNL A   1      40.837  28.372  32.717  1.00  0.00    -0.014 A 
BRANCH  40  41
ATOM     41  C   UNL A   1      42.234  27.893  32.869  1.00  0.00     0.031 A 
ATOM     42  C   UNL A   1      43.006  27.491  31.641  1.00  0.00     0.074 A 
ATOM     43  C   UNL A   1      42.815  27.836  34.080  1.00  0.00     0.049 A 
ATOM     44  N   UNL A   1      44.239  27.068  31.542  1.00  0.00    -0.248 NA
ATOM     45  C   UNL A   1      42.295  27.578  30.354  1.00  0.00     0.031 C 
ATOM     46  C   UNL A   1      42.174  28.196  35.344  1.00  0.00     0.029 A 
ATOM     47  N   UNL A   1      44.076  27.434  34.444  1.00  0.00    -0.354 N 
ATOM     48  C   UNL A   1      44.446  26.820  30.190  1.00  0.00     0.074 A 
ATOM     49  C   UNL A   1      43.209  27.128  29.507  1.00  0.00     0.031 C 
ATOM     50  C   UNL A   1      43.038  27.974  36.349  1.00  0.00     0.029 A 
ATOM     51  C   UNL A   1      44.288  27.447  35.803  1.00  0.00     0.049 A 
ATOM     52  H   UNL A   1      44.765  27.164  33.795  1.00  0.00     0.167 HD
ATOM     53  C   UNL A   1      45.572  26.396  29.569  1.00  0.00     0.034 A 
ATOM     54  C   UNL A   1      45.362  27.064  36.523  1.00  0.00     0.034 A 
ATOM     55  C   UNL A   1      46.812  26.116  30.241  1.00  0.00     0.049 A 
ATOM     56  C   UNL A   1      46.597  26.581  35.806  1.00  0.00     0.074 A 
ATOM     57  C   UNL A   1      48.021  25.730  29.688  1.00  0.00     0.029 A 
ATOM     58  N   UNL A   1      47.000  26.183  31.611  1.00  0.00    -0.354 N 
ATOM     59  N   UNL A   1      46.820  26.485  34.518  1.00  0.00    -0.248 NA
ATOM     60  C   UNL A   1      47.741  26.184  36.642  1.00  0.00     0.031 C 
ATOM     61  C   UNL A   1      48.938  25.549  30.729  1.00  0.00     0.029 A 
ATOM     62  C   UNL A   1      48.303  25.836  31.927  1.00  0.00     0.049 A 
ATOM     63  H   UNL A   1      46.310  26.439  32.265  1.00  0.00     0.167 HD
ATOM     64  C   UNL A   1      48.137  26.055  34.388  1.00  0.00     0.074 A 
ATOM     65  C   UNL A   1      48.668  25.924  35.730  1.00  0.00     0.031 C 
ATOM     66  C   UNL A   1      48.838  25.773  33.263  1.00  0.00     0.034 A 
BRANCH  53  67
ATOM     67  C   UNL A   1      45.531  26.249  28.072  1.00  0.00     0.023 A 
ATOM     68  C   UNL A   1      45.758  27.380  27.262  1.00  0.00     0.012 A 
ATOM     69  C   UNL A   1      45.336  24.992  27.469  1.00  0.00     0.148 A 
ATOM     70  C   UNL A   1      45.771  27.266  25.873  1.00  0.00     0.002 A 
ATOM     71  C   UNL A   1      45.385  24.880  26.084  1.00  0.00     0.091 A 
ATOM     72  F   UNL A   1      45.095  23.935  28.257  1.00  0.00    -0.205 F 
ATOM     73  C   UNL A   1      45.595  26.015  25.285  1.00  0.00     0.022 A 
BRANCH  71  74
ATOM     74  S   UNL A   1      45.236  23.303  25.238  1.00  0.00     0.127 S 
ATOM     75  O   UNL A   1      43.834  22.968  25.482  1.00  0.00    -0.237 OA
ATOM     76  O   UNL A   1      45.544  23.664  23.853  1.00  0.00    -0.237 OA
ATOM     77  O   UNL A   1      46.211  22.419  25.862  1.00  0.00    -0.744 OA
ENDBRANCH  71  74
ENDBRANCH  53  67
BRANCH  54  78
ATOM     78  C   UNL A   1      45.337  27.168  38.009  1.00  0.00     0.023 A 
ATOM     79  C   UNL A   1      44.847  26.091  38.772  1.00  0.00     0.012 A 
ATOM     80  C   UNL A   1      45.807  28.319  38.669  1.00  0.00     0.148 A 
ATOM     81  C   UNL A   1      44.800  26.168  40.164  1.00  0.00     0.002 A 
ATOM     82  C   UNL A   1      45.806  28.369  40.059  1.00  0.00     0.091 A 
ATOM     83  F   UNL A   1      46.244  29.346  37.927  1.00  0.00    -0.205 F 
ATOM     84  C   UNL A   1      45.290  27.301  40.808  1.00  0.00     0.022 A 
BRANCH  82  85
ATOM     85  S   UNL A   1      46.537  29.739  40.963  1.00  0.00     0.127 S 
ATOM     86  O   UNL A   1      46.357  29.315  42.349  1.00  0.00    -0.237 OA
ATOM     87  O   UNL A   1      47.921  29.718  40.487  1.00  0.00    -0.237 OA
ATOM     88  O   UNL A   1      45.784  30.916  40.550  1.00  0.00    -0.744 OA
ENDBRANCH  82  85
ENDBRANCH  54  78
BRANCH  66  89
ATOM     89  C   UNL A   1      50.267  25.324  33.417  1.00  0.00     0.023 A 
ATOM     90  C   UNL A   1      51.261  26.268  33.740  1.00  0.00     0.012 A 
ATOM     91  C   UNL A   1      50.611  23.960  33.329  1.00  0.00     0.148 A 
ATOM     92  C   UNL A   1      52.579  25.866  33.950  1.00  0.00     0.002 A 
ATOM     93  C   UNL A   1      51.918  23.562  33.582  1.00  0.00     0.091 A 
ATOM     94  F   UNL A   1      49.655  23.078  33.002  1.00  0.00    -0.205 F 
ATOM     95  C   UNL A   1      52.906  24.514  33.883  1.00  0.00     0.022 A 
BRANCH  93  96
ATOM     96  S   UNL A   1      52.403  21.831  33.606  1.00  0.00     0.127 S 
ATOM     97  O   UNL A   1      53.825  21.924  33.934  1.00  0.00    -0.237 OA
ATOM     98  O   UNL A   1      51.566  21.285  34.675  1.00  0.00    -0.237 OA
ATOM     99  O   UNL A   1      52.095  21.315  32.280  1.00  0.00    -0.744 OA
ENDBRANCH  93  96
ENDBRANCH  66  89
ENDBRANCH  40  41
ENDBRANCH  33  35
ENDBRANCH  32  33
ENDBRANCH  31  32
ENDBRANCH  30  31
ENDBRANCH   1  30
TORSDOF 20
ENDMDL
