MODEL 1
REMARK VINA RESULT:     -10.4      0.000      0.000
REMARK SMILES Cc1nc2sc3c(c2c2nc(CCC(=O)OCCOCCOC(=O)c4ccc(-c5c6nc(c(-c7cccc(S(=O)(=O)[O-])c7F)c7ccc([nH]7)c(-c7cccc(S(=O)(=O)[O-])c7F)c7nc(c(-c8cccc(S(=O)(=O)[O-])c8F)c8ccc5[nH]8)C=C7)C=C6)cc4)nn12)[C@@H](C)CCC3
REMARK SMILES IDX 20 1 19 2 18 3 17 4 16 5 14 6 15 7 13 8 12 9 11 10 1 11 2 12
REMARK SMILES IDX 3 13 89 14 4 15 9 16 88 17 5 18 8 19 10 20 6 21 7 22 94 23
REMARK SMILES IDX 90 24 93 25 91 26 92 27 21 28 22 29 23 30 24 31 25 32 26 33
REMARK SMILES IDX 87 34 27 35 86 36 28 37 29 38 30 39 80 40 31 41 85 42 79 43
REMARK SMILES IDX 81 44 32 45 84 46 78 47 77 48 33 50 65 51 45 52 64 53 46 54
REMARK SMILES IDX 49 55 63 56 82 57 47 58 48 59 62 61 83 62 50 63 34 64 35 65
REMARK SMILES IDX 43 66 36 67 38 68 44 69 37 70 39 71 40 72 41 73 42 74 66 75
REMARK SMILES IDX 67 76 75 77 68 78 70 79 76 80 69 81 71 82 72 83 73 84 74 85
REMARK SMILES IDX 51 86 52 87 60 88 53 89 55 90 61 91 54 92 56 93 57 94 58 95
REMARK SMILES IDX 59 96
REMARK H PARENT 81 49 49 60
REMARK Flexibility Score: inf
ROOT
ATOM      1  C   UNL A   1      41.851  19.969  25.801  1.00  0.00     0.202 C 
ENDROOT
BRANCH   1   2
ATOM      2  O   UNL A   1      42.554  18.731  25.777  1.00  0.00    -0.374 OA
BRANCH   2   3
ATOM      3  C   UNL A   1      43.979  18.846  25.736  1.00  0.00     0.202 C 
BRANCH   3   4
ATOM      4  C   UNL A   1      44.460  19.706  24.561  1.00  0.00     0.261 C 
BRANCH   4   5
ATOM      5  O   UNL A   1      44.832  21.027  25.023  1.00  0.00    -0.463 OA
BRANCH   5   6
ATOM      6  C   UNL A   1      44.358  22.092  24.339  1.00  0.00     0.306 C 
ATOM      7  O   UNL A   1      44.578  22.314  23.153  1.00  0.00    -0.252 OA
BRANCH   6   8
ATOM      8  C   UNL A   1      43.530  23.015  25.202  1.00  0.00     0.131 C 
BRANCH   8   9
ATOM      9  C   UNL A   1      43.953  24.482  25.191  1.00  0.00     0.091 C 
BRANCH   9  10
ATOM     10  C   UNL A   1      45.059  24.808  26.134  1.00  0.00     0.152 A 
ATOM     11  C   UNL A   1      49.116  25.785  25.849  1.00  0.00     0.090 C 
ATOM     12  C   UNL A   1      48.262  25.749  27.078  1.00  0.00     0.131 A 
ATOM     13  N   UNL A   1      48.755  25.998  28.265  1.00  0.00    -0.222 NA
ATOM     14  N   UNL A   1      46.921  25.382  26.886  1.00  0.00    -0.199 N 
ATOM     15  C   UNL A   1      47.888  25.879  29.323  1.00  0.00     0.129 A 
ATOM     16  C   UNL A   1      46.038  25.269  27.927  1.00  0.00     0.168 A 
ATOM     17  N   UNL A   1      46.318  25.036  25.722  1.00  0.00    -0.150 NA
ATOM     18  S   UNL A   1      48.380  26.176  30.931  1.00  0.00    -0.120 S 
ATOM     19  C   UNL A   1      46.555  25.499  29.291  1.00  0.00     0.060 A 
ATOM     20  N   UNL A   1      44.846  24.951  27.482  1.00  0.00    -0.211 NA
ATOM     21  C   UNL A   1      46.851  25.742  31.550  1.00  0.00     0.011 A 
ATOM     22  C   UNL A   1      45.961  25.334  30.571  1.00  0.00    -0.018 A 
ATOM     23  C   UNL A   1      46.566  25.758  33.019  1.00  0.00     0.047 C 
ATOM     24  C   UNL A   1      44.590  24.802  30.909  1.00  0.00     0.018 C 
ATOM     25  C   UNL A   1      45.052  25.737  33.261  1.00  0.00     0.006 C 
ATOM     26  C   UNL A   1      44.344  23.436  30.272  1.00  0.00     0.013 C 
ATOM     27  C   UNL A   1      44.382  24.639  32.434  1.00  0.00     0.008 C 
ENDBRANCH   9  10
ENDBRANCH   8   9
ENDBRANCH   6   8
ENDBRANCH   5   6
ENDBRANCH   4   5
ENDBRANCH   3   4
ENDBRANCH   2   3
ENDBRANCH   1   2
BRANCH   1  28
ATOM     28  C   UNL A   1      40.858  20.072  26.941  1.00  0.00     0.261 C 
BRANCH  28  29
ATOM     29  O   UNL A   1      40.838  21.402  27.449  1.00  0.00    -0.460 OA
BRANCH  29  30
ATOM     30  C   UNL A   1      39.918  22.245  26.937  1.00  0.00     0.338 C 
ATOM     31  O   UNL A   1      38.931  21.958  26.276  1.00  0.00    -0.246 OA
BRANCH  30  32
ATOM     32  C   UNL A   1      40.436  23.609  27.134  1.00  0.00     0.060 A 
ATOM     33  C   UNL A   1      41.422  23.800  28.106  1.00  0.00     0.016 A 
ATOM     34  C   UNL A   1      39.792  24.694  26.517  1.00  0.00     0.016 A 
ATOM     35  C   UNL A   1      41.647  25.081  28.571  1.00  0.00     0.010 A 
ATOM     36  C   UNL A   1      39.997  25.964  26.996  1.00  0.00     0.010 A 
ATOM     37  C   UNL A   1      40.874  26.130  28.060  1.00  0.00    -0.014 A 
BRANCH  37  38
ATOM     38  C   UNL A   1      41.043  27.452  28.616  1.00  0.00     0.031 A 
ATOM     39  C   UNL A   1      42.216  28.160  28.065  1.00  0.00     0.074 A 
ATOM     40  C   UNL A   1      40.143  27.985  29.464  1.00  0.00     0.049 A 
ATOM     41  N   UNL A   1      43.362  28.334  28.635  1.00  0.00    -0.248 NA
ATOM     42  C   UNL A   1      42.188  28.546  26.645  1.00  0.00     0.031 C 
ATOM     43  C   UNL A   1      38.796  27.484  29.766  1.00  0.00     0.029 A 
ATOM     44  N   UNL A   1      40.193  29.162  30.143  1.00  0.00    -0.354 N 
ATOM     45  C   UNL A   1      44.094  29.102  27.733  1.00  0.00     0.074 A 
ATOM     46  C   UNL A   1      43.439  28.971  26.463  1.00  0.00     0.031 C 
ATOM     47  C   UNL A   1      38.082  28.465  30.366  1.00  0.00     0.029 A 
ATOM     48  C   UNL A   1      38.962  29.591  30.627  1.00  0.00     0.049 A 
ATOM     49  H   UNL A   1      41.028  29.665  30.279  1.00  0.00     0.167 HD
ATOM     50  C   UNL A   1      44.960  30.051  28.181  1.00  0.00     0.034 A 
ATOM     51  C   UNL A   1      38.699  30.821  31.130  1.00  0.00     0.034 A 
ATOM     52  C   UNL A   1      45.196  29.903  29.593  1.00  0.00     0.049 A 
ATOM     53  C   UNL A   1      39.992  31.390  31.575  1.00  0.00     0.074 A 
ATOM     54  C   UNL A   1      45.893  29.047  30.416  1.00  0.00     0.029 A 
ATOM     55  N   UNL A   1      44.268  30.556  30.364  1.00  0.00    -0.354 N 
ATOM     56  N   UNL A   1      40.702  30.887  32.547  1.00  0.00    -0.248 NA
ATOM     57  C   UNL A   1      40.687  32.342  30.717  1.00  0.00     0.031 C 
ATOM     58  C   UNL A   1      45.220  29.078  31.674  1.00  0.00     0.029 A 
ATOM     59  C   UNL A   1      44.158  29.979  31.598  1.00  0.00     0.049 A 
ATOM     60  H   UNL A   1      43.748  31.337  30.066  1.00  0.00     0.167 HD
ATOM     61  C   UNL A   1      42.009  31.100  32.149  1.00  0.00     0.074 A 
ATOM     62  C   UNL A   1      41.939  32.152  31.143  1.00  0.00     0.031 C 
ATOM     63  C   UNL A   1      42.982  30.185  32.420  1.00  0.00     0.034 A 
BRANCH  50  64
ATOM     64  C   UNL A   1      45.220  31.381  27.500  1.00  0.00     0.023 A 
ATOM     65  C   UNL A   1      44.144  31.965  26.796  1.00  0.00     0.012 A 
ATOM     66  C   UNL A   1      46.500  31.944  27.282  1.00  0.00     0.148 A 
ATOM     67  C   UNL A   1      44.334  33.037  25.915  1.00  0.00     0.002 A 
ATOM     68  C   UNL A   1      46.670  33.065  26.477  1.00  0.00     0.091 A 
ATOM     69  F   UNL A   1      47.593  31.320  27.728  1.00  0.00    -0.205 F 
ATOM     70  C   UNL A   1      45.595  33.598  25.767  1.00  0.00     0.022 A 
BRANCH  68  71
ATOM     71  S   UNL A   1      48.272  33.863  26.292  1.00  0.00     0.127 S 
ATOM     72  O   UNL A   1      48.043  34.717  25.131  1.00  0.00    -0.237 OA
ATOM     73  O   UNL A   1      48.398  34.570  27.567  1.00  0.00    -0.237 OA
ATOM     74  O   UNL A   1      49.232  32.782  26.113  1.00  0.00    -0.744 OA
ENDBRANCH  68  71
ENDBRANCH  50  64
BRANCH  51  75
ATOM     75  C   UNL A   1      37.504  31.684  30.963  1.00  0.00     0.023 A 
ATOM     76  C   UNL A   1      36.646  31.459  29.864  1.00  0.00     0.012 A 
ATOM     77  C   UNL A   1      37.020  32.458  32.039  1.00  0.00     0.148 A 
ATOM     78  C   UNL A   1      35.325  31.920  29.874  1.00  0.00     0.002 A 
ATOM     79  C   UNL A   1      35.703  32.909  32.046  1.00  0.00     0.091 A 
ATOM     80  F   UNL A   1      37.817  32.663  33.096  1.00  0.00    -0.205 F 
ATOM     81  C   UNL A   1      34.847  32.625  30.974  1.00  0.00     0.022 A 
BRANCH  79  82
ATOM     82  S   UNL A   1      34.997  33.778  33.453  1.00  0.00     0.127 S 
ATOM     83  O   UNL A   1      35.563  33.035  34.581  1.00  0.00    -0.237 OA
ATOM     84  O   UNL A   1      35.535  35.122  33.274  1.00  0.00    -0.237 OA
ATOM     85  O   UNL A   1      33.553  33.649  33.316  1.00  0.00    -0.744 OA
ENDBRANCH  79  82
ENDBRANCH  51  75
BRANCH  63  86
ATOM     86  C   UNL A   1      42.736  29.208  33.535  1.00  0.00     0.023 A 
ATOM     87  C   UNL A   1      41.956  28.044  33.379  1.00  0.00     0.012 A 
ATOM     88  C   UNL A   1      43.412  29.421  34.746  1.00  0.00     0.148 A 
ATOM     89  C   UNL A   1      41.847  27.118  34.421  1.00  0.00     0.002 A 
ATOM     90  C   UNL A   1      43.341  28.476  35.760  1.00  0.00     0.091 A 
ATOM     91  F   UNL A   1      44.137  30.541  34.878  1.00  0.00    -0.205 F 
ATOM     92  C   UNL A   1      42.551  27.327  35.606  1.00  0.00     0.022 A 
BRANCH  90  93
ATOM     93  S   UNL A   1      44.324  28.630  37.251  1.00  0.00     0.127 S 
ATOM     94  O   UNL A   1      43.968  27.417  37.981  1.00  0.00    -0.237 OA
ATOM     95  O   UNL A   1      45.690  28.650  36.723  1.00  0.00    -0.237 OA
ATOM     96  O   UNL A   1      43.911  29.882  37.875  1.00  0.00    -0.744 OA
ENDBRANCH  90  93
ENDBRANCH  63  86
ENDBRANCH  37  38
ENDBRANCH  30  32
ENDBRANCH  29  30
ENDBRANCH  28  29
ENDBRANCH   1  28
TORSDOF 19
ENDMDL
MODEL 2
REMARK VINA RESULT:      -9.9      4.977      8.007
REMARK SMILES Cc1nc2sc3c(c2c2nc(CCC(=O)OCCOCCOC(=O)c4ccc(-c5c6nc(c(-c7cccc(S(=O)(=O)[O-])c7F)c7ccc([nH]7)c(-c7cccc(S(=O)(=O)[O-])c7F)c7nc(c(-c8cccc(S(=O)(=O)[O-])c8F)c8ccc5[nH]8)C=C7)C=C6)cc4)nn12)[C@@H](C)CCC3
REMARK SMILES IDX 20 1 19 2 18 3 17 4 16 5 14 6 15 7 13 8 12 9 11 10 1 11 2 12
REMARK SMILES IDX 3 13 89 14 4 15 9 16 88 17 5 18 8 19 10 20 6 21 7 22 94 23
REMARK SMILES IDX 90 24 93 25 91 26 92 27 21 28 22 29 23 30 24 31 25 32 26 33
REMARK SMILES IDX 87 34 27 35 86 36 28 37 29 38 30 39 80 40 31 41 85 42 79 43
REMARK SMILES IDX 81 44 32 45 84 46 78 47 77 48 33 50 65 51 45 52 64 53 46 54
REMARK SMILES IDX 49 55 63 56 82 57 47 58 48 59 62 61 83 62 50 63 34 64 35 65
REMARK SMILES IDX 43 66 36 67 38 68 44 69 37 70 39 71 40 72 41 73 42 74 66 75
REMARK SMILES IDX 67 76 75 77 68 78 70 79 76 80 69 81 71 82 72 83 73 84 74 85
REMARK SMILES IDX 51 86 52 87 60 88 53 89 55 90 61 91 54 92 56 93 57 94 58 95
REMARK SMILES IDX 59 96
REMARK H PARENT 81 49 49 60
REMARK Flexibility Score: inf
ROOT
ATOM      1  C   UNL A   1      38.890  21.266  26.067  1.00  0.00     0.202 C 
ENDROOT
BRANCH   1   2
ATOM      2  O   UNL A   1      38.078  22.335  25.594  1.00  0.00    -0.374 OA
BRANCH   2   3
ATOM      3  C   UNL A   1      36.964  21.937  24.789  1.00  0.00     0.202 C 
BRANCH   3   4
ATOM      4  C   UNL A   1      36.097  20.875  25.478  1.00  0.00     0.261 C 
BRANCH   4   5
ATOM      5  O   UNL A   1      36.095  19.650  24.708  1.00  0.00    -0.463 OA
BRANCH   5   6
ATOM      6  C   UNL A   1      34.953  18.928  24.673  1.00  0.00     0.306 C 
ATOM      7  O   UNL A   1      34.873  17.766  24.289  1.00  0.00    -0.252 OA
BRANCH   6   8
ATOM      8  C   UNL A   1      33.752  19.718  25.140  1.00  0.00     0.131 C 
BRANCH   8   9
ATOM      9  C   UNL A   1      33.034  20.523  24.061  1.00  0.00     0.091 C 
BRANCH   9  10
ATOM     10  C   UNL A   1      32.407  21.782  24.551  1.00  0.00     0.152 A 
ATOM     11  C   UNL A   1      29.463  22.838  27.328  1.00  0.00     0.090 C 
ATOM     12  C   UNL A   1      30.337  23.748  26.521  1.00  0.00     0.131 A 
ATOM     13  N   UNL A   1      30.219  25.050  26.589  1.00  0.00    -0.222 NA
ATOM     14  N   UNL A   1      31.246  23.122  25.656  1.00  0.00    -0.199 N 
ATOM     15  C   UNL A   1      31.036  25.779  25.761  1.00  0.00     0.129 A 
ATOM     16  C   UNL A   1      32.078  23.832  24.830  1.00  0.00     0.168 A 
ATOM     17  N   UNL A   1      31.409  21.791  25.450  1.00  0.00    -0.150 NA
ATOM     18  S   UNL A   1      31.005  27.487  25.738  1.00  0.00    -0.120 S 
ATOM     19  C   UNL A   1      31.955  25.303  24.839  1.00  0.00     0.060 A 
ATOM     20  N   UNL A   1      32.851  23.018  24.154  1.00  0.00    -0.211 NA
ATOM     21  C   UNL A   1      32.153  27.557  24.477  1.00  0.00     0.011 A 
ATOM     22  C   UNL A   1      32.550  26.308  24.030  1.00  0.00    -0.018 A 
ATOM     23  C   UNL A   1      32.609  28.862  23.903  1.00  0.00     0.047 C 
ATOM     24  C   UNL A   1      33.474  26.140  22.849  1.00  0.00     0.018 C 
ATOM     25  C   UNL A   1      33.906  28.663  23.110  1.00  0.00     0.006 C 
ATOM     26  C   UNL A   1      32.879  25.206  21.798  1.00  0.00     0.013 C 
ATOM     27  C   UNL A   1      33.780  27.484  22.144  1.00  0.00     0.008 C 
ENDBRANCH   9  10
ENDBRANCH   8   9
ENDBRANCH   6   8
ENDBRANCH   5   6
ENDBRANCH   4   5
ENDBRANCH   3   4
ENDBRANCH   2   3
ENDBRANCH   1   2
BRANCH   1  28
ATOM     28  C   UNL A   1      40.301  21.696  26.417  1.00  0.00     0.261 C 
BRANCH  28  29
ATOM     29  O   UNL A   1      40.287  22.493  27.596  1.00  0.00    -0.460 OA
BRANCH  29  30
ATOM     30  C   UNL A   1      41.477  22.804  28.147  1.00  0.00     0.338 C 
ATOM     31  O   UNL A   1      42.267  22.046  28.690  1.00  0.00    -0.246 OA
BRANCH  30  32
ATOM     32  C   UNL A   1      41.564  24.273  28.171  1.00  0.00     0.060 A 
ATOM     33  C   UNL A   1      42.610  24.855  28.894  1.00  0.00     0.016 A 
ATOM     34  C   UNL A   1      40.501  25.043  27.670  1.00  0.00     0.016 A 
ATOM     35  C   UNL A   1      42.504  26.186  29.248  1.00  0.00     0.010 A 
ATOM     36  C   UNL A   1      40.384  26.359  28.041  1.00  0.00     0.010 A 
ATOM     37  C   UNL A   1      41.354  26.892  28.879  1.00  0.00    -0.014 A 
BRANCH  37  38
ATOM     38  C   UNL A   1      41.202  28.255  29.332  1.00  0.00     0.031 A 
ATOM     39  C   UNL A   1      42.164  29.181  28.701  1.00  0.00     0.074 A 
ATOM     40  C   UNL A   1      40.206  28.619  30.161  1.00  0.00     0.049 A 
ATOM     41  N   UNL A   1      43.238  29.669  29.227  1.00  0.00    -0.248 NA
ATOM     42  C   UNL A   1      42.033  29.438  27.258  1.00  0.00     0.031 C 
ATOM     43  C   UNL A   1      39.022  27.833  30.534  1.00  0.00     0.029 A 
ATOM     44  N   UNL A   1      39.974  29.822  30.751  1.00  0.00    -0.354 N 
ATOM     45  C   UNL A   1      43.755  30.519  28.253  1.00  0.00     0.074 A 
ATOM     46  C   UNL A   1      43.142  30.136  27.013  1.00  0.00     0.031 C 
ATOM     47  C   UNL A   1      38.096  28.657  31.078  1.00  0.00     0.029 A 
ATOM     48  C   UNL A   1      38.679  29.978  31.234  1.00  0.00     0.049 A 
ATOM     49  H   UNL A   1      40.662  30.521  30.829  1.00  0.00     0.167 HD
ATOM     50  C   UNL A   1      44.368  31.680  28.607  1.00  0.00     0.034 A 
ATOM     51  C   UNL A   1      38.129  31.144  31.652  1.00  0.00     0.034 A 
ATOM     52  C   UNL A   1      44.644  31.704  30.021  1.00  0.00     0.049 A 
ATOM     53  C   UNL A   1      39.248  32.040  32.021  1.00  0.00     0.074 A 
ATOM     54  C   UNL A   1      45.533  31.106  30.885  1.00  0.00     0.029 A 
ATOM     55  N   UNL A   1      43.591  32.170  30.765  1.00  0.00    -0.354 N 
ATOM     56  N   UNL A   1      40.066  31.800  33.009  1.00  0.00    -0.248 NA
ATOM     57  C   UNL A   1      39.686  33.062  31.079  1.00  0.00     0.031 C 
ATOM     58  C   UNL A   1      44.882  31.072  32.155  1.00  0.00     0.029 A 
ATOM     59  C   UNL A   1      43.633  31.681  32.041  1.00  0.00     0.049 A 
ATOM     60  H   UNL A   1      42.895  32.778  30.424  1.00  0.00     0.167 HD
ATOM     61  C   UNL A   1      41.280  32.291  32.563  1.00  0.00     0.074 A 
ATOM     62  C   UNL A   1      40.950  33.213  31.485  1.00  0.00     0.031 C 
ATOM     63  C   UNL A   1      42.448  31.661  32.875  1.00  0.00     0.034 A 
BRANCH  50  64
ATOM     64  C   UNL A   1      44.293  32.978  27.825  1.00  0.00     0.023 A 
ATOM     65  C   UNL A   1      45.379  33.279  26.974  1.00  0.00     0.012 A 
ATOM     66  C   UNL A   1      43.376  34.025  28.077  1.00  0.00     0.148 A 
ATOM     67  C   UNL A   1      45.549  34.553  26.418  1.00  0.00     0.002 A 
ATOM     68  C   UNL A   1      43.499  35.261  27.452  1.00  0.00     0.091 A 
ATOM     69  F   UNL A   1      42.455  33.895  29.036  1.00  0.00    -0.205 F 
ATOM     70  C   UNL A   1      44.600  35.541  26.644  1.00  0.00     0.022 A 
BRANCH  68  71
ATOM     71  S   UNL A   1      42.270  36.557  27.668  1.00  0.00     0.127 S 
ATOM     72  O   UNL A   1      42.734  37.203  28.892  1.00  0.00    -0.237 OA
ATOM     73  O   UNL A   1      42.450  37.341  26.446  1.00  0.00    -0.237 OA
ATOM     74  O   UNL A   1      40.986  35.873  27.753  1.00  0.00    -0.744 OA
ENDBRANCH  68  71
ENDBRANCH  50  64
BRANCH  51  75
ATOM     75  C   UNL A   1      36.759  31.678  31.453  1.00  0.00     0.023 A 
ATOM     76  C   UNL A   1      36.142  32.385  32.508  1.00  0.00     0.012 A 
ATOM     77  C   UNL A   1      36.221  31.811  30.156  1.00  0.00     0.148 A 
ATOM     78  C   UNL A   1      35.075  33.258  32.265  1.00  0.00     0.002 A 
ATOM     79  C   UNL A   1      35.164  32.685  29.918  1.00  0.00     0.091 A 
ATOM     80  F   UNL A   1      36.809  31.161  29.143  1.00  0.00    -0.205 F 
ATOM     81  C   UNL A   1      34.602  33.424  30.967  1.00  0.00     0.022 A 
BRANCH  79  82
ATOM     82  S   UNL A   1      34.533  32.996  28.263  1.00  0.00     0.127 S 
ATOM     83  O   UNL A   1      35.753  33.353  27.538  1.00  0.00    -0.237 OA
ATOM     84  O   UNL A   1      33.969  31.697  27.910  1.00  0.00    -0.237 OA
ATOM     85  O   UNL A   1      33.578  34.087  28.401  1.00  0.00    -0.744 OA
ENDBRANCH  79  82
ENDBRANCH  51  75
BRANCH  63  86
ATOM     86  C   UNL A   1      42.453  30.742  34.064  1.00  0.00     0.023 A 
ATOM     87  C   UNL A   1      42.594  31.201  35.390  1.00  0.00     0.012 A 
ATOM     88  C   UNL A   1      42.191  29.382  33.835  1.00  0.00     0.148 A 
ATOM     89  C   UNL A   1      42.488  30.312  36.464  1.00  0.00     0.002 A 
ATOM     90  C   UNL A   1      42.037  28.512  34.906  1.00  0.00     0.091 A 
ATOM     91  F   UNL A   1      42.074  28.965  32.566  1.00  0.00    -0.205 F 
ATOM     92  C   UNL A   1      42.194  28.970  36.222  1.00  0.00     0.022 A 
BRANCH  90  93
ATOM     93  S   UNL A   1      41.535  26.809  34.659  1.00  0.00     0.127 S 
ATOM     94  O   UNL A   1      40.345  26.957  33.826  1.00  0.00    -0.237 OA
ATOM     95  O   UNL A   1      42.697  26.237  33.975  1.00  0.00    -0.237 OA
ATOM     96  O   UNL A   1      41.304  26.263  35.992  1.00  0.00    -0.744 OA
ENDBRANCH  90  93
ENDBRANCH  63  86
ENDBRANCH  37  38
ENDBRANCH  30  32
ENDBRANCH  29  30
ENDBRANCH  28  29
ENDBRANCH   1  28
TORSDOF 19
ENDMDL
MODEL 3
REMARK VINA RESULT:      -9.8      4.148      6.763
REMARK SMILES Cc1nc2sc3c(c2c2nc(CCC(=O)OCCOCCOC(=O)c4ccc(-c5c6nc(c(-c7cccc(S(=O)(=O)[O-])c7F)c7ccc([nH]7)c(-c7cccc(S(=O)(=O)[O-])c7F)c7nc(c(-c8cccc(S(=O)(=O)[O-])c8F)c8ccc5[nH]8)C=C7)C=C6)cc4)nn12)[C@@H](C)CCC3
REMARK SMILES IDX 20 1 19 2 18 3 17 4 16 5 14 6 15 7 13 8 12 9 11 10 1 11 2 12
REMARK SMILES IDX 3 13 89 14 4 15 9 16 88 17 5 18 8 19 10 20 6 21 7 22 94 23
REMARK SMILES IDX 90 24 93 25 91 26 92 27 21 28 22 29 23 30 24 31 25 32 26 33
REMARK SMILES IDX 87 34 27 35 86 36 28 37 29 38 30 39 80 40 31 41 85 42 79 43
REMARK SMILES IDX 81 44 32 45 84 46 78 47 77 48 33 50 65 51 45 52 64 53 46 54
REMARK SMILES IDX 49 55 63 56 82 57 47 58 48 59 62 61 83 62 50 63 34 64 35 65
REMARK SMILES IDX 43 66 36 67 38 68 44 69 37 70 39 71 40 72 41 73 42 74 66 75
REMARK SMILES IDX 67 76 75 77 68 78 70 79 76 80 69 81 71 82 72 83 73 84 74 85
REMARK SMILES IDX 51 86 52 87 60 88 53 89 55 90 61 91 54 92 56 93 57 94 58 95
REMARK SMILES IDX 59 96
REMARK H PARENT 81 49 49 60
REMARK Flexibility Score: inf
ROOT
ATOM      1  C   UNL A   1      42.826  22.795  25.397  1.00  0.00     0.202 C 
ENDROOT
BRANCH   1   2
ATOM      2  O   UNL A   1      43.173  21.533  24.838  1.00  0.00    -0.374 OA
BRANCH   2   3
ATOM      3  C   UNL A   1      43.583  20.544  25.787  1.00  0.00     0.202 C 
BRANCH   3   4
ATOM      4  C   UNL A   1      42.686  19.301  25.758  1.00  0.00     0.261 C 
BRANCH   4   5
ATOM      5  O   UNL A   1      41.342  19.659  25.358  1.00  0.00    -0.463 OA
BRANCH   5   6
ATOM      6  C   UNL A   1      40.470  20.022  26.325  1.00  0.00     0.306 C 
ATOM      7  O   UNL A   1      40.694  19.954  27.528  1.00  0.00    -0.252 OA
BRANCH   6   8
ATOM      8  C   UNL A   1      39.154  20.510  25.766  1.00  0.00     0.131 C 
BRANCH   8   9
ATOM      9  C   UNL A   1      38.364  19.488  24.953  1.00  0.00     0.091 C 
BRANCH   9  10
ATOM     10  C   UNL A   1      36.894  19.725  24.931  1.00  0.00     0.152 A 
ATOM     11  C   UNL A   1      33.444  17.420  24.405  1.00  0.00     0.090 C 
ATOM     12  C   UNL A   1      33.536  18.874  24.750  1.00  0.00     0.131 A 
ATOM     13  N   UNL A   1      32.466  19.616  24.886  1.00  0.00    -0.222 NA
ATOM     14  N   UNL A   1      34.832  19.399  24.864  1.00  0.00    -0.199 N 
ATOM     15  C   UNL A   1      32.677  20.948  25.146  1.00  0.00     0.129 A 
ATOM     16  C   UNL A   1      35.063  20.722  25.134  1.00  0.00     0.168 A 
ATOM     17  N   UNL A   1      36.007  18.749  24.677  1.00  0.00    -0.150 NA
ATOM     18  S   UNL A   1      31.383  22.042  25.355  1.00  0.00    -0.120 S 
ATOM     19  C   UNL A   1      33.890  21.610  25.256  1.00  0.00     0.060 A 
ATOM     20  N   UNL A   1      36.351  20.950  25.226  1.00  0.00    -0.211 NA
ATOM     21  C   UNL A   1      32.445  23.368  25.524  1.00  0.00     0.011 A 
ATOM     22  C   UNL A   1      33.778  23.020  25.392  1.00  0.00    -0.018 A 
ATOM     23  C   UNL A   1      31.934  24.759  25.734  1.00  0.00     0.047 C 
ATOM     24  C   UNL A   1      34.877  24.054  25.397  1.00  0.00     0.018 C 
ATOM     25  C   UNL A   1      33.060  25.658  26.260  1.00  0.00     0.006 C 
ATOM     26  C   UNL A   1      35.772  23.929  24.166  1.00  0.00     0.013 C 
ATOM     27  C   UNL A   1      34.325  25.500  25.416  1.00  0.00     0.008 C 
ENDBRANCH   9  10
ENDBRANCH   8   9
ENDBRANCH   6   8
ENDBRANCH   5   6
ENDBRANCH   4   5
ENDBRANCH   3   4
ENDBRANCH   2   3
ENDBRANCH   1   2
BRANCH   1  28
ATOM     28  C   UNL A   1      43.509  23.070  26.722  1.00  0.00     0.261 C 
BRANCH  28  29
ATOM     29  O   UNL A   1      42.568  22.966  27.785  1.00  0.00    -0.460 OA
BRANCH  29  30
ATOM     30  C   UNL A   1      41.436  23.691  27.682  1.00  0.00     0.338 C 
ATOM     31  O   UNL A   1      40.325  23.297  27.359  1.00  0.00    -0.246 OA
BRANCH  30  32
ATOM     32  C   UNL A   1      41.823  25.105  27.820  1.00  0.00     0.060 A 
ATOM     33  C   UNL A   1      42.479  25.492  28.992  1.00  0.00     0.016 A 
ATOM     34  C   UNL A   1      41.344  26.052  26.899  1.00  0.00     0.016 A 
ATOM     35  C   UNL A   1      42.512  26.835  29.315  1.00  0.00     0.010 A 
ATOM     36  C   UNL A   1      41.355  27.384  27.230  1.00  0.00     0.010 A 
ATOM     37  C   UNL A   1      41.880  27.748  28.463  1.00  0.00    -0.014 A 
BRANCH  37  38
ATOM     38  C   UNL A   1      41.832  29.139  28.850  1.00  0.00     0.031 A 
ATOM     39  C   UNL A   1      43.001  29.907  28.377  1.00  0.00     0.074 A 
ATOM     40  C   UNL A   1      40.764  29.662  29.482  1.00  0.00     0.049 A 
ATOM     41  N   UNL A   1      44.023  30.282  29.073  1.00  0.00    -0.248 NA
ATOM     42  C   UNL A   1      43.155  30.112  26.928  1.00  0.00     0.031 C 
ATOM     43  C   UNL A   1      39.442  29.048  29.658  1.00  0.00     0.029 A 
ATOM     44  N   UNL A   1      40.594  30.911  29.993  1.00  0.00    -0.354 N 
ATOM     45  C   UNL A   1      44.807  31.014  28.186  1.00  0.00     0.074 A 
ATOM     46  C   UNL A   1      44.371  30.654  26.866  1.00  0.00     0.031 C 
ATOM     47  C   UNL A   1      38.552  30.005  30.011  1.00  0.00     0.029 A 
ATOM     48  C   UNL A   1      39.267  31.248  30.236  1.00  0.00     0.049 A 
ATOM     49  H   UNL A   1      41.344  31.521  30.175  1.00  0.00     0.167 HD
ATOM     50  C   UNL A   1      45.496  32.105  28.616  1.00  0.00     0.034 A 
ATOM     51  C   UNL A   1      38.811  32.492  30.523  1.00  0.00     0.034 A 
ATOM     52  C   UNL A   1      45.525  32.159  30.054  1.00  0.00     0.049 A 
ATOM     53  C   UNL A   1      39.957  33.257  31.063  1.00  0.00     0.074 A 
ATOM     54  C   UNL A   1      46.167  31.496  31.076  1.00  0.00     0.029 A 
ATOM     55  N   UNL A   1      44.430  32.787  30.590  1.00  0.00    -0.354 N 
ATOM     56  N   UNL A   1      40.554  32.962  32.185  1.00  0.00    -0.248 NA
ATOM     57  C   UNL A   1      40.681  34.173  30.189  1.00  0.00     0.031 C 
ATOM     58  C   UNL A   1      45.308  31.601  32.211  1.00  0.00     0.029 A 
ATOM     59  C   UNL A   1      44.188  32.356  31.864  1.00  0.00     0.049 A 
ATOM     60  H   UNL A   1      43.889  33.461  30.117  1.00  0.00     0.167 HD
ATOM     61  C   UNL A   1      41.880  33.277  31.949  1.00  0.00     0.074 A 
ATOM     62  C   UNL A   1      41.865  34.183  30.808  1.00  0.00     0.031 C 
ATOM     63  C   UNL A   1      42.885  32.521  32.477  1.00  0.00     0.034 A 
BRANCH  50  64
ATOM     64  C   UNL A   1      45.728  33.364  27.802  1.00  0.00     0.023 A 
ATOM     65  C   UNL A   1      44.597  33.957  27.199  1.00  0.00     0.012 A 
ATOM     66  C   UNL A   1      46.993  33.834  27.375  1.00  0.00     0.148 A 
ATOM     67  C   UNL A   1      44.719  34.948  26.217  1.00  0.00     0.002 A 
ATOM     68  C   UNL A   1      47.108  34.880  26.467  1.00  0.00     0.091 A 
ATOM     69  F   UNL A   1      48.104  33.180  27.725  1.00  0.00    -0.205 F 
ATOM     70  C   UNL A   1      45.975  35.422  25.862  1.00  0.00     0.022 A 
BRANCH  68  71
ATOM     71  S   UNL A   1      48.707  35.567  26.013  1.00  0.00     0.127 S 
ATOM     72  O   UNL A   1      49.405  35.562  27.294  1.00  0.00    -0.237 OA
ATOM     73  O   UNL A   1      49.186  34.583  25.042  1.00  0.00    -0.237 OA
ATOM     74  O   UNL A   1      48.425  36.878  25.442  1.00  0.00    -0.744 OA
ENDBRANCH  68  71
ENDBRANCH  50  64
BRANCH  51  75
ATOM     75  C   UNL A   1      37.577  33.183  30.073  1.00  0.00     0.023 A 
ATOM     76  C   UNL A   1      37.110  32.961  28.759  1.00  0.00     0.012 A 
ATOM     77  C   UNL A   1      36.687  33.748  31.010  1.00  0.00     0.148 A 
ATOM     78  C   UNL A   1      35.779  33.217  28.413  1.00  0.00     0.002 A 
ATOM     79  C   UNL A   1      35.362  33.995  30.663  1.00  0.00     0.091 A 
ATOM     80  F   UNL A   1      37.111  33.945  32.266  1.00  0.00    -0.205 F 
ATOM     81  C   UNL A   1      34.900  33.714  29.371  1.00  0.00     0.022 A 
BRANCH  79  82
ATOM     82  S   UNL A   1      34.154  34.584  31.858  1.00  0.00     0.127 S 
ATOM     83  O   UNL A   1      33.049  34.996  30.992  1.00  0.00    -0.237 OA
ATOM     84  O   UNL A   1      33.901  33.380  32.644  1.00  0.00    -0.237 OA
ATOM     85  O   UNL A   1      34.799  35.681  32.568  1.00  0.00    -0.744 OA
ENDBRANCH  79  82
ENDBRANCH  51  75
BRANCH  63  86
ATOM     86  C   UNL A   1      42.565  31.665  33.669  1.00  0.00     0.023 A 
ATOM     87  C   UNL A   1      42.382  32.189  34.965  1.00  0.00     0.012 A 
ATOM     88  C   UNL A   1      42.330  30.299  33.444  1.00  0.00     0.148 A 
ATOM     89  C   UNL A   1      41.984  31.358  36.017  1.00  0.00     0.002 A 
ATOM     90  C   UNL A   1      41.887  29.488  34.479  1.00  0.00     0.091 A 
ATOM     91  F   UNL A   1      42.524  29.820  32.207  1.00  0.00    -0.205 F 
ATOM     92  C   UNL A   1      41.722  30.010  35.771  1.00  0.00     0.022 A 
BRANCH  90  93
ATOM     93  S   UNL A   1      41.415  27.783  34.192  1.00  0.00     0.127 S 
ATOM     94  O   UNL A   1      42.587  27.252  33.500  1.00  0.00    -0.237 OA
ATOM     95  O   UNL A   1      41.225  27.278  35.553  1.00  0.00    -0.237 OA
ATOM     96  O   UNL A   1      40.190  27.835  33.402  1.00  0.00    -0.744 OA
ENDBRANCH  90  93
ENDBRANCH  63  86
ENDBRANCH  37  38
ENDBRANCH  30  32
ENDBRANCH  29  30
ENDBRANCH  28  29
ENDBRANCH   1  28
TORSDOF 19
ENDMDL
