MODEL 1
REMARK VINA RESULT:     -11.9      0.000      0.000
REMARK SMILES O=C(C[NH+]1CCC(C(=O)OCCOCCOC(=O)c2ccc(-c3c4nc(c(-c5cccc(S(=O)(=O)[O-])c5F)c5ccc([nH]5)c(-c5cccc(S(=O)(=O)[O-])c5F)c5nc(c(-c6cccc(S(=O)(=O)[O-])c6F)c6ccc3[nH]6)C=C5)C=C4)cc2)CC1)Nc1ccccc1Oc1ccccc1
REMARK SMILES IDX 12 1 11 2 10 3 8 4 9 5 7 6 4 7 5 8 83 9 6 11 82 12 3 13 2 14
REMARK SMILES IDX 1 15 84 16 85 18 86 19 90 20 87 21 89 22 88 23 91 24 92 25
REMARK SMILES IDX 93 26 97 27 94 28 96 29 95 30 13 31 14 32 15 33 16 34 17 35
REMARK SMILES IDX 18 36 19 37 20 38 81 39 21 40 80 41 22 42 23 43 24 44 74 45
REMARK SMILES IDX 25 46 79 47 73 48 75 49 26 50 78 51 72 52 71 53 27 55 59 56
REMARK SMILES IDX 39 57 58 58 40 59 43 60 57 61 76 62 41 63 42 64 56 66 77 67
REMARK SMILES IDX 44 68 28 69 29 70 37 71 30 72 32 73 38 74 31 75 33 76 34 77
REMARK SMILES IDX 35 78 36 79 60 80 61 81 69 82 62 83 64 84 70 85 63 86 65 87
REMARK SMILES IDX 66 88 67 89 68 90 45 91 46 92 54 93 47 94 49 95 55 96 48 97
REMARK SMILES IDX 50 98 51 99 52 100 53 101
REMARK H PARENT 4 10 84 17 75 54 43 65
REMARK Flexibility Score: inf
ROOT
ATOM      1  C   UNL A   1      31.916  29.231  23.138  1.00  0.00     0.202 C 
ENDROOT
BRANCH   1   2
ATOM      2  C   UNL A   1      31.836  27.748  22.760  1.00  0.00     0.261 C 
BRANCH   2   3
ATOM      3  O   UNL A   1      30.533  27.442  22.232  1.00  0.00    -0.463 OA
BRANCH   3   4
ATOM      4  C   UNL A   1      29.505  27.359  23.114  1.00  0.00     0.309 C 
ATOM      5  O   UNL A   1      28.522  28.089  23.133  1.00  0.00    -0.252 OA
BRANCH   4   6
ATOM      6  C   UNL A   1      29.704  26.221  24.095  1.00  0.00     0.110 C 
ATOM      7  N   UNL A   1      31.472  24.504  25.681  1.00  0.00    -0.327 N 
ATOM      8  C   UNL A   1      30.764  23.957  24.526  1.00  0.00     0.263 C 
ATOM      9  C   UNL A   1      30.692  25.590  26.307  1.00  0.00     0.263 C 
ATOM     10  H   UNL A   1      32.361  24.853  25.322  1.00  0.00     0.348 HD
ATOM     11  C   UNL A   1      30.438  25.022  23.491  1.00  0.00     0.077 C 
ATOM     12  C   UNL A   1      30.423  26.731  25.335  1.00  0.00     0.077 C 
BRANCH   7  13
ATOM     13  C   UNL A   1      31.734  23.484  26.723  1.00  0.00     0.363 C 
BRANCH  13  14
ATOM     14  C   UNL A   1      33.169  22.953  26.784  1.00  0.00     0.279 C 
ATOM     15  O   UNL A   1      33.629  22.402  27.781  1.00  0.00    -0.268 OA
ATOM     16  N   UNL A   1      33.851  23.091  25.584  1.00  0.00    -0.318 N 
ATOM     17  H   UNL A   1      33.493  23.717  24.913  1.00  0.00     0.170 HD
BRANCH  16  18
ATOM     18  C   UNL A   1      35.025  22.385  25.276  1.00  0.00     0.084 A 
ATOM     19  C   UNL A   1      36.137  23.171  24.935  1.00  0.00     0.030 A 
ATOM     20  C   UNL A   1      35.132  20.984  25.272  1.00  0.00     0.150 A 
ATOM     21  C   UNL A   1      37.376  22.580  24.685  1.00  0.00     0.002 A 
ATOM     22  C   UNL A   1      36.385  20.407  25.006  1.00  0.00     0.049 A 
ATOM     23  C   UNL A   1      37.501  21.197  24.726  1.00  0.00     0.004 A 
BRANCH  20  24
ATOM     24  O   UNL A   1      34.157  20.037  25.510  1.00  0.00    -0.455 OA
BRANCH  24  25
ATOM     25  C   UNL A   1      33.777  19.127  24.558  1.00  0.00     0.127 A 
ATOM     26  C   UNL A   1      34.545  17.960  24.496  1.00  0.00     0.047 A 
ATOM     27  C   UNL A   1      32.740  19.328  23.646  1.00  0.00     0.047 A 
ATOM     28  C   UNL A   1      34.231  16.958  23.580  1.00  0.00     0.004 A 
ATOM     29  C   UNL A   1      32.426  18.321  22.725  1.00  0.00     0.004 A 
ATOM     30  C   UNL A   1      33.164  17.133  22.699  1.00  0.00     0.000 A 
ENDBRANCH  24  25
ENDBRANCH  20  24
ENDBRANCH  16  18
ENDBRANCH  13  14
ENDBRANCH   7  13
ENDBRANCH   4   6
ENDBRANCH   3   4
ENDBRANCH   2   3
ENDBRANCH   1   2
BRANCH   1  31
ATOM     31  O   UNL A   1      30.851  29.718  23.962  1.00  0.00    -0.374 OA
BRANCH  31  32
ATOM     32  C   UNL A   1      31.230  30.538  25.065  1.00  0.00     0.202 C 
BRANCH  32  33
ATOM     33  C   UNL A   1      32.486  30.107  25.834  1.00  0.00     0.261 C 
BRANCH  33  34
ATOM     34  O   UNL A   1      32.496  30.602  27.184  1.00  0.00    -0.460 OA
BRANCH  34  35
ATOM     35  C   UNL A   1      33.304  31.669  27.380  1.00  0.00     0.338 C 
ATOM     36  O   UNL A   1      32.971  32.850  27.399  1.00  0.00    -0.246 OA
BRANCH  35  37
ATOM     37  C   UNL A   1      34.659  31.230  27.754  1.00  0.00     0.060 A 
ATOM     38  C   UNL A   1      34.843  29.859  27.987  1.00  0.00     0.016 A 
ATOM     39  C   UNL A   1      35.708  32.131  27.953  1.00  0.00     0.016 A 
ATOM     40  C   UNL A   1      36.060  29.393  28.477  1.00  0.00     0.010 A 
ATOM     41  C   UNL A   1      36.927  31.658  28.452  1.00  0.00     0.010 A 
ATOM     42  C   UNL A   1      37.094  30.296  28.756  1.00  0.00    -0.014 A 
BRANCH  42  43
ATOM     43  C   UNL A   1      38.282  29.822  29.507  1.00  0.00     0.031 A 
ATOM     44  C   UNL A   1      38.497  30.309  30.915  1.00  0.00     0.074 A 
ATOM     45  C   UNL A   1      39.141  28.945  28.958  1.00  0.00     0.049 A 
ATOM     46  N   UNL A   1      39.448  30.008  31.760  1.00  0.00    -0.248 NA
ATOM     47  C   UNL A   1      37.505  31.263  31.442  1.00  0.00     0.031 C 
ATOM     48  C   UNL A   1      39.035  28.393  27.609  1.00  0.00     0.029 A 
ATOM     49  N   UNL A   1      40.280  28.375  29.468  1.00  0.00    -0.354 N 
ATOM     50  C   UNL A   1      39.186  30.749  32.907  1.00  0.00     0.074 A 
ATOM     51  C   UNL A   1      37.995  31.527  32.644  1.00  0.00     0.031 C 
ATOM     52  C   UNL A   1      40.081  27.578  27.388  1.00  0.00     0.029 A 
ATOM     53  C   UNL A   1      40.939  27.565  28.573  1.00  0.00     0.049 A 
ATOM     54  H   UNL A   1      40.597  28.532  30.387  1.00  0.00     0.167 HD
ATOM     55  C   UNL A   1      39.863  30.766  34.079  1.00  0.00     0.034 A 
ATOM     56  C   UNL A   1      42.105  26.901  28.693  1.00  0.00     0.034 A 
ATOM     57  C   UNL A   1      41.034  29.978  34.347  1.00  0.00     0.049 A 
ATOM     58  C   UNL A   1      42.856  26.962  29.999  1.00  0.00     0.074 A 
ATOM     59  C   UNL A   1      41.764  29.890  35.519  1.00  0.00     0.029 A 
ATOM     60  N   UNL A   1      41.656  29.149  33.426  1.00  0.00    -0.354 N 
ATOM     61  N   UNL A   1      42.527  27.567  31.115  1.00  0.00    -0.248 NA
ATOM     62  C   UNL A   1      44.124  26.221  30.072  1.00  0.00     0.031 C 
ATOM     63  C   UNL A   1      42.842  29.026  35.300  1.00  0.00     0.029 A 
ATOM     64  C   UNL A   1      42.769  28.556  33.998  1.00  0.00     0.049 A 
ATOM     65  H   UNL A   1      41.351  29.003  32.502  1.00  0.00     0.167 HD
ATOM     66  C   UNL A   1      43.524  27.249  32.032  1.00  0.00     0.074 A 
ATOM     67  C   UNL A   1      44.460  26.383  31.345  1.00  0.00     0.031 C 
ATOM     68  C   UNL A   1      43.660  27.649  33.320  1.00  0.00     0.034 A 
BRANCH  55  69
ATOM     69  C   UNL A   1      39.330  31.650  35.177  1.00  0.00     0.023 A 
ATOM     70  C   UNL A   1      38.423  31.121  36.118  1.00  0.00     0.012 A 
ATOM     71  C   UNL A   1      39.759  32.986  35.307  1.00  0.00     0.148 A 
ATOM     72  C   UNL A   1      37.926  31.915  37.150  1.00  0.00     0.002 A 
ATOM     73  C   UNL A   1      39.291  33.759  36.362  1.00  0.00     0.091 A 
ATOM     74  F   UNL A   1      40.602  33.479  34.388  1.00  0.00    -0.205 F 
ATOM     75  C   UNL A   1      38.367  33.230  37.278  1.00  0.00     0.022 A 
BRANCH  73  76
ATOM     76  S   UNL A   1      39.856  35.439  36.652  1.00  0.00     0.127 S 
ATOM     77  O   UNL A   1      39.131  35.788  37.873  1.00  0.00    -0.237 OA
ATOM     78  O   UNL A   1      41.297  35.255  36.832  1.00  0.00    -0.237 OA
ATOM     79  O   UNL A   1      39.487  36.196  35.464  1.00  0.00    -0.744 OA
ENDBRANCH  73  76
ENDBRANCH  55  69
BRANCH  56  80
ATOM     80  C   UNL A   1      42.616  26.080  27.559  1.00  0.00     0.023 A 
ATOM     81  C   UNL A   1      43.544  26.641  26.659  1.00  0.00     0.012 A 
ATOM     82  C   UNL A   1      42.199  24.748  27.373  1.00  0.00     0.148 A 
ATOM     83  C   UNL A   1      44.028  25.899  25.581  1.00  0.00     0.002 A 
ATOM     84  C   UNL A   1      42.726  23.997  26.327  1.00  0.00     0.091 A 
ATOM     85  F   UNL A   1      41.300  24.238  28.226  1.00  0.00    -0.205 F 
ATOM     86  C   UNL A   1      43.627  24.575  25.422  1.00  0.00     0.022 A 
BRANCH  84  87
ATOM     87  S   UNL A   1      42.363  22.250  26.116  1.00  0.00     0.127 S 
ATOM     88  O   UNL A   1      40.922  22.270  25.877  1.00  0.00    -0.237 OA
ATOM     89  O   UNL A   1      43.178  21.912  24.948  1.00  0.00    -0.237 OA
ATOM     90  O   UNL A   1      42.792  21.609  27.352  1.00  0.00    -0.744 OA
ENDBRANCH  84  87
ENDBRANCH  56  80
BRANCH  68  91
ATOM     91  C   UNL A   1      44.845  27.131  34.094  1.00  0.00     0.023 A 
ATOM     92  C   UNL A   1      46.059  27.846  34.081  1.00  0.00     0.012 A 
ATOM     93  C   UNL A   1      44.732  25.977  34.897  1.00  0.00     0.148 A 
ATOM     94  C   UNL A   1      47.150  27.406  34.830  1.00  0.00     0.002 A 
ATOM     95  C   UNL A   1      45.809  25.571  35.677  1.00  0.00     0.091 A 
ATOM     96  F   UNL A   1      43.576  25.298  34.882  1.00  0.00    -0.205 F 
ATOM     97  C   UNL A   1      47.021  26.277  35.635  1.00  0.00     0.022 A 
BRANCH  95  98
ATOM     98  S   UNL A   1      45.703  24.186  36.817  1.00  0.00     0.127 S 
ATOM     99  O   UNL A   1      47.099  24.024  37.219  1.00  0.00    -0.237 OA
ATOM    100  O   UNL A   1      44.824  24.709  37.863  1.00  0.00    -0.237 OA
ATOM    101  O   UNL A   1      45.139  23.081  36.053  1.00  0.00    -0.744 OA
ENDBRANCH  95  98
ENDBRANCH  68  91
ENDBRANCH  42  43
ENDBRANCH  35  37
ENDBRANCH  34  35
ENDBRANCH  33  34
ENDBRANCH  32  33
ENDBRANCH  31  32
ENDBRANCH   1  31
TORSDOF 22
ENDMDL
MODEL 2
REMARK VINA RESULT:     -10.9      2.604      4.675
REMARK SMILES O=C(C[NH+]1CCC(C(=O)OCCOCCOC(=O)c2ccc(-c3c4nc(c(-c5cccc(S(=O)(=O)[O-])c5F)c5ccc([nH]5)c(-c5cccc(S(=O)(=O)[O-])c5F)c5nc(c(-c6cccc(S(=O)(=O)[O-])c6F)c6ccc3[nH]6)C=C5)C=C4)cc2)CC1)Nc1ccccc1Oc1ccccc1
REMARK SMILES IDX 12 1 11 2 10 3 8 4 9 5 7 6 4 7 5 8 83 9 6 11 82 12 3 13 2 14
REMARK SMILES IDX 1 15 84 16 85 18 86 19 90 20 87 21 89 22 88 23 91 24 92 25
REMARK SMILES IDX 93 26 97 27 94 28 96 29 95 30 13 31 14 32 15 33 16 34 17 35
REMARK SMILES IDX 18 36 19 37 20 38 81 39 21 40 80 41 22 42 23 43 24 44 74 45
REMARK SMILES IDX 25 46 79 47 73 48 75 49 26 50 78 51 72 52 71 53 27 55 59 56
REMARK SMILES IDX 39 57 58 58 40 59 43 60 57 61 76 62 41 63 42 64 56 66 77 67
REMARK SMILES IDX 44 68 28 69 29 70 37 71 30 72 32 73 38 74 31 75 33 76 34 77
REMARK SMILES IDX 35 78 36 79 60 80 61 81 69 82 62 83 64 84 70 85 63 86 65 87
REMARK SMILES IDX 66 88 67 89 68 90 45 91 46 92 54 93 47 94 49 95 55 96 48 97
REMARK SMILES IDX 50 98 51 99 52 100 53 101
REMARK H PARENT 4 10 84 17 75 54 43 65
REMARK Flexibility Score: inf
ROOT
ATOM      1  C   UNL A   1      32.799  27.576  24.029  1.00  0.00     0.202 C 
ENDROOT
BRANCH   1   2
ATOM      2  C   UNL A   1      33.679  26.325  24.128  1.00  0.00     0.261 C 
BRANCH   2   3
ATOM      3  O   UNL A   1      33.189  25.306  23.238  1.00  0.00    -0.463 OA
BRANCH   3   4
ATOM      4  C   UNL A   1      32.771  24.140  23.792  1.00  0.00     0.309 C 
ATOM      5  O   UNL A   1      31.604  23.823  23.987  1.00  0.00    -0.252 OA
BRANCH   4   6
ATOM      6  C   UNL A   1      33.938  23.239  24.142  1.00  0.00     0.110 C 
ATOM      7  N   UNL A   1      36.650  22.875  25.190  1.00  0.00    -0.327 N 
ATOM      8  C   UNL A   1      36.388  22.703  23.763  1.00  0.00     0.263 C 
ATOM      9  C   UNL A   1      35.463  22.509  25.988  1.00  0.00     0.263 C 
ATOM     10  H   UNL A   1      36.884  23.860  25.313  1.00  0.00     0.348 HD
ATOM     11  C   UNL A   1      35.184  23.507  23.297  1.00  0.00     0.077 C 
ATOM     12  C   UNL A   1      34.251  23.357  25.626  1.00  0.00     0.077 C 
BRANCH   7  13
ATOM     13  C   UNL A   1      37.781  22.043  25.664  1.00  0.00     0.363 C 
BRANCH  13  14
ATOM     14  C   UNL A   1      39.043  22.811  26.067  1.00  0.00     0.279 C 
ATOM     15  O   UNL A   1      39.036  24.016  26.307  1.00  0.00    -0.268 OA
ATOM     16  N   UNL A   1      40.156  21.994  26.206  1.00  0.00    -0.318 N 
ATOM     17  H   UNL A   1      40.129  21.096  25.803  1.00  0.00     0.170 HD
BRANCH  16  18
ATOM     18  C   UNL A   1      41.318  22.380  26.891  1.00  0.00     0.084 A 
ATOM     19  C   UNL A   1      41.117  22.992  28.139  1.00  0.00     0.030 A 
ATOM     20  C   UNL A   1      42.624  22.211  26.400  1.00  0.00     0.150 A 
ATOM     21  C   UNL A   1      42.202  23.348  28.940  1.00  0.00     0.002 A 
ATOM     22  C   UNL A   1      43.703  22.586  27.217  1.00  0.00     0.049 A 
ATOM     23  C   UNL A   1      43.497  23.139  28.481  1.00  0.00     0.004 A 
BRANCH  20  24
ATOM     24  O   UNL A   1      43.036  21.699  25.187  1.00  0.00    -0.455 OA
BRANCH  24  25
ATOM     25  C   UNL A   1      44.152  20.911  25.069  1.00  0.00     0.127 A 
ATOM     26  C   UNL A   1      43.943  19.538  25.223  1.00  0.00     0.047 A 
ATOM     27  C   UNL A   1      45.444  21.401  24.869  1.00  0.00     0.047 A 
ATOM     28  C   UNL A   1      45.005  18.644  25.100  1.00  0.00     0.004 A 
ATOM     29  C   UNL A   1      46.511  20.503  24.747  1.00  0.00     0.004 A 
ATOM     30  C   UNL A   1      46.290  19.126  24.851  1.00  0.00     0.000 A 
ENDBRANCH  24  25
ENDBRANCH  20  24
ENDBRANCH  16  18
ENDBRANCH  13  14
ENDBRANCH   7  13
ENDBRANCH   4   6
ENDBRANCH   3   4
ENDBRANCH   2   3
ENDBRANCH   1   2
BRANCH   1  31
ATOM     31  O   UNL A   1      31.668  27.608  24.906  1.00  0.00    -0.374 OA
BRANCH  31  32
ATOM     32  C   UNL A   1      31.572  28.736  25.773  1.00  0.00     0.202 C 
BRANCH  32  33
ATOM     33  C   UNL A   1      32.860  29.542  25.985  1.00  0.00     0.261 C 
BRANCH  33  34
ATOM     34  O   UNL A   1      32.978  30.039  27.330  1.00  0.00    -0.460 OA
BRANCH  34  35
ATOM     35  C   UNL A   1      33.624  31.223  27.432  1.00  0.00     0.338 C 
ATOM     36  O   UNL A   1      33.121  32.342  27.387  1.00  0.00    -0.246 OA
BRANCH  35  37
ATOM     37  C   UNL A   1      35.038  31.013  27.788  1.00  0.00     0.060 A 
ATOM     38  C   UNL A   1      35.456  29.688  27.979  1.00  0.00     0.016 A 
ATOM     39  C   UNL A   1      35.918  32.074  28.011  1.00  0.00     0.016 A 
ATOM     40  C   UNL A   1      36.738  29.423  28.451  1.00  0.00     0.010 A 
ATOM     41  C   UNL A   1      37.204  31.804  28.492  1.00  0.00     0.010 A 
ATOM     42  C   UNL A   1      37.605  30.482  28.754  1.00  0.00    -0.014 A 
BRANCH  42  43
ATOM     43  C   UNL A   1      38.863  30.197  29.487  1.00  0.00     0.031 A 
ATOM     44  C   UNL A   1      38.984  30.633  30.923  1.00  0.00     0.074 A 
ATOM     45  C   UNL A   1      39.870  29.532  28.895  1.00  0.00     0.049 A 
ATOM     46  N   UNL A   1      39.977  30.467  31.757  1.00  0.00    -0.248 NA
ATOM     47  C   UNL A   1      37.832  31.350  31.495  1.00  0.00     0.031 C 
ATOM     48  C   UNL A   1      39.868  29.050  27.515  1.00  0.00     0.029 A 
ATOM     49  N   UNL A   1      41.098  29.158  29.382  1.00  0.00    -0.354 N 
ATOM     50  C   UNL A   1      39.583  31.077  32.942  1.00  0.00     0.074 A 
ATOM     51  C   UNL A   1      38.266  31.630  32.715  1.00  0.00     0.031 C 
ATOM     52  C   UNL A   1      41.048  28.461  27.257  1.00  0.00     0.029 A 
ATOM     53  C   UNL A   1      41.895  28.541  28.447  1.00  0.00     0.049 A 
ATOM     54  H   UNL A   1      41.381  29.317  30.311  1.00  0.00     0.167 HD
ATOM     55  C   UNL A   1      40.247  31.153  34.120  1.00  0.00     0.034 A 
ATOM     56  C   UNL A   1      43.167  28.103  28.538  1.00  0.00     0.034 A 
ATOM     57  C   UNL A   1      41.546  30.585  34.352  1.00  0.00     0.049 A 
ATOM     58  C   UNL A   1      43.895  28.228  29.852  1.00  0.00     0.074 A 
ATOM     59  C   UNL A   1      42.282  30.568  35.524  1.00  0.00     0.029 A 
ATOM     60  N   UNL A   1      42.311  29.944  33.390  1.00  0.00    -0.354 N 
ATOM     61  N   UNL A   1      43.460  28.693  30.999  1.00  0.00    -0.248 NA
ATOM     62  C   UNL A   1      45.281  27.736  29.893  1.00  0.00     0.031 C 
ATOM     63  C   UNL A   1      43.503  29.937  35.264  1.00  0.00     0.029 A 
ATOM     64  C   UNL A   1      43.518  29.539  33.936  1.00  0.00     0.049 A 
ATOM     65  H   UNL A   1      42.038  29.797  32.456  1.00  0.00     0.167 HD
ATOM     66  C   UNL A   1      44.501  28.515  31.904  1.00  0.00     0.074 A 
ATOM     67  C   UNL A   1      45.582  27.883  31.177  1.00  0.00     0.031 C 
ATOM     68  C   UNL A   1      44.562  28.858  33.215  1.00  0.00     0.034 A 
BRANCH  55  69
ATOM     69  C   UNL A   1      39.558  31.854  35.263  1.00  0.00     0.023 A 
ATOM     70  C   UNL A   1      38.579  31.169  36.011  1.00  0.00     0.012 A 
ATOM     71  C   UNL A   1      39.911  33.169  35.625  1.00  0.00     0.148 A 
ATOM     72  C   UNL A   1      37.939  31.793  37.081  1.00  0.00     0.002 A 
ATOM     73  C   UNL A   1      39.298  33.769  36.718  1.00  0.00     0.091 A 
ATOM     74  F   UNL A   1      40.827  33.813  34.887  1.00  0.00    -0.205 F 
ATOM     75  C   UNL A   1      38.304  33.088  37.440  1.00  0.00     0.022 A 
BRANCH  73  76
ATOM     76  S   UNL A   1      39.753  35.405  37.302  1.00  0.00     0.127 S 
ATOM     77  O   UNL A   1      38.920  35.535  38.497  1.00  0.00    -0.237 OA
ATOM     78  O   UNL A   1      41.183  35.251  37.571  1.00  0.00    -0.237 OA
ATOM     79  O   UNL A   1      39.437  36.320  36.214  1.00  0.00    -0.744 OA
ENDBRANCH  73  76
ENDBRANCH  55  69
BRANCH  56  80
ATOM     80  C   UNL A   1      43.820  27.461  27.363  1.00  0.00     0.023 A 
ATOM     81  C   UNL A   1      43.291  26.264  26.843  1.00  0.00     0.012 A 
ATOM     82  C   UNL A   1      44.953  28.034  26.751  1.00  0.00     0.148 A 
ATOM     83  C   UNL A   1      43.891  25.635  25.752  1.00  0.00     0.002 A 
ATOM     84  C   UNL A   1      45.514  27.430  25.632  1.00  0.00     0.091 A 
ATOM     85  F   UNL A   1      45.454  29.162  27.273  1.00  0.00    -0.205 F 
ATOM     86  C   UNL A   1      44.996  26.223  25.141  1.00  0.00     0.022 A 
BRANCH  84  87
ATOM     87  S   UNL A   1      46.860  28.178  24.705  1.00  0.00     0.127 S 
ATOM     88  O   UNL A   1      46.542  29.600  24.811  1.00  0.00    -0.237 OA
ATOM     89  O   UNL A   1      48.030  27.748  25.472  1.00  0.00    -0.237 OA
ATOM     90  O   UNL A   1      46.778  27.608  23.367  1.00  0.00    -0.744 OA
ENDBRANCH  84  87
ENDBRANCH  56  80
BRANCH  68  91
ATOM     91  C   UNL A   1      45.826  28.527  33.968  1.00  0.00     0.023 A 
ATOM     92  C   UNL A   1      46.856  29.484  34.062  1.00  0.00     0.012 A 
ATOM     93  C   UNL A   1      45.959  27.300  34.648  1.00  0.00     0.148 A 
ATOM     94  C   UNL A   1      48.011  29.212  34.795  1.00  0.00     0.002 A 
ATOM     95  C   UNL A   1      47.092  27.055  35.415  1.00  0.00     0.091 A 
ATOM     96  F   UNL A   1      44.976  26.394  34.532  1.00  0.00    -0.205 F 
ATOM     97  C   UNL A   1      48.123  28.005  35.480  1.00  0.00     0.022 A 
BRANCH  95  98
ATOM     98  S   UNL A   1      47.280  25.569  36.408  1.00  0.00     0.127 S 
ATOM     99  O   UNL A   1      47.343  24.531  35.381  1.00  0.00    -0.237 OA
ATOM    100  O   UNL A   1      48.542  25.816  37.105  1.00  0.00    -0.237 OA
ATOM    101  O   UNL A   1      46.111  25.518  37.277  1.00  0.00    -0.744 OA
ENDBRANCH  95  98
ENDBRANCH  68  91
ENDBRANCH  42  43
ENDBRANCH  35  37
ENDBRANCH  34  35
ENDBRANCH  33  34
ENDBRANCH  32  33
ENDBRANCH  31  32
ENDBRANCH   1  31
TORSDOF 22
ENDMDL
MODEL 3
REMARK VINA RESULT:     -10.2      8.506     12.235
REMARK SMILES O=C(C[NH+]1CCC(C(=O)OCCOCCOC(=O)c2ccc(-c3c4nc(c(-c5cccc(S(=O)(=O)[O-])c5F)c5ccc([nH]5)c(-c5cccc(S(=O)(=O)[O-])c5F)c5nc(c(-c6cccc(S(=O)(=O)[O-])c6F)c6ccc3[nH]6)C=C5)C=C4)cc2)CC1)Nc1ccccc1Oc1ccccc1
REMARK SMILES IDX 12 1 11 2 10 3 8 4 9 5 7 6 4 7 5 8 83 9 6 11 82 12 3 13 2 14
REMARK SMILES IDX 1 15 84 16 85 18 86 19 90 20 87 21 89 22 88 23 91 24 92 25
REMARK SMILES IDX 93 26 97 27 94 28 96 29 95 30 13 31 14 32 15 33 16 34 17 35
REMARK SMILES IDX 18 36 19 37 20 38 81 39 21 40 80 41 22 42 23 43 24 44 74 45
REMARK SMILES IDX 25 46 79 47 73 48 75 49 26 50 78 51 72 52 71 53 27 55 59 56
REMARK SMILES IDX 39 57 58 58 40 59 43 60 57 61 76 62 41 63 42 64 56 66 77 67
REMARK SMILES IDX 44 68 28 69 29 70 37 71 30 72 32 73 38 74 31 75 33 76 34 77
REMARK SMILES IDX 35 78 36 79 60 80 61 81 69 82 62 83 64 84 70 85 63 86 65 87
REMARK SMILES IDX 66 88 67 89 68 90 45 91 46 92 54 93 47 94 49 95 55 96 48 97
REMARK SMILES IDX 50 98 51 99 52 100 53 101
REMARK H PARENT 4 10 84 17 75 54 43 65
REMARK Flexibility Score: inf
ROOT
ATOM      1  C   UNL A   1      33.340  35.702  31.384  1.00  0.00     0.202 C 
ENDROOT
BRANCH   1   2
ATOM      2  C   UNL A   1      33.564  34.534  30.418  1.00  0.00     0.261 C 
BRANCH   2   3
ATOM      3  O   UNL A   1      33.232  34.934  29.076  1.00  0.00    -0.463 OA
BRANCH   3   4
ATOM      4  C   UNL A   1      33.950  34.383  28.065  1.00  0.00     0.309 C 
ATOM      5  O   UNL A   1      34.560  35.005  27.204  1.00  0.00    -0.252 OA
BRANCH   4   6
ATOM      6  C   UNL A   1      33.927  32.869  28.125  1.00  0.00     0.110 C 
ATOM      7  N   UNL A   1      34.287  30.262  26.836  1.00  0.00    -0.327 N 
ATOM      8  C   UNL A   1      32.947  30.726  27.186  1.00  0.00     0.263 C 
ATOM      9  C   UNL A   1      35.289  30.797  27.779  1.00  0.00     0.263 C 
ATOM     10  H   UNL A   1      34.459  30.600  25.889  1.00  0.00     0.348 HD
ATOM     11  C   UNL A   1      32.855  32.243  27.231  1.00  0.00     0.077 C 
ATOM     12  C   UNL A   1      35.305  32.320  27.788  1.00  0.00     0.077 C 
BRANCH   7  13
ATOM     13  C   UNL A   1      34.401  28.784  26.855  1.00  0.00     0.363 C 
BRANCH  13  14
ATOM     14  C   UNL A   1      33.093  28.018  26.639  1.00  0.00     0.279 C 
ATOM     15  O   UNL A   1      32.266  27.856  27.533  1.00  0.00    -0.268 OA
ATOM     16  N   UNL A   1      32.915  27.605  25.327  1.00  0.00    -0.318 N 
ATOM     17  H   UNL A   1      33.700  27.591  24.732  1.00  0.00     0.170 HD
BRANCH  16  18
ATOM     18  C   UNL A   1      31.675  27.206  24.803  1.00  0.00     0.084 A 
ATOM     19  C   UNL A   1      31.440  25.823  24.779  1.00  0.00     0.030 A 
ATOM     20  C   UNL A   1      30.704  28.089  24.300  1.00  0.00     0.150 A 
ATOM     21  C   UNL A   1      30.212  25.317  24.351  1.00  0.00     0.002 A 
ATOM     22  C   UNL A   1      29.478  27.560  23.862  1.00  0.00     0.049 A 
ATOM     23  C   UNL A   1      29.228  26.187  23.897  1.00  0.00     0.004 A 
BRANCH  20  24
ATOM     24  O   UNL A   1      30.760  29.461  24.172  1.00  0.00    -0.455 OA
BRANCH  24  25
ATOM     25  C   UNL A   1      29.892  30.154  23.368  1.00  0.00     0.127 A 
ATOM     26  C   UNL A   1      29.136  31.143  24.004  1.00  0.00     0.047 A 
ATOM     27  C   UNL A   1      29.693  29.889  22.012  1.00  0.00     0.047 A 
ATOM     28  C   UNL A   1      28.239  31.923  23.275  1.00  0.00     0.004 A 
ATOM     29  C   UNL A   1      28.792  30.673  21.281  1.00  0.00     0.004 A 
ATOM     30  C   UNL A   1      28.074  31.695  21.910  1.00  0.00     0.000 A 
ENDBRANCH  24  25
ENDBRANCH  20  24
ENDBRANCH  16  18
ENDBRANCH  13  14
ENDBRANCH   7  13
ENDBRANCH   4   6
ENDBRANCH   3   4
ENDBRANCH   2   3
ENDBRANCH   1   2
BRANCH   1  31
ATOM     31  O   UNL A   1      33.814  35.501  32.720  1.00  0.00    -0.374 OA
BRANCH  31  32
ATOM     32  C   UNL A   1      35.225  35.586  32.909  1.00  0.00     0.202 C 
BRANCH  32  33
ATOM     33  C   UNL A   1      36.032  34.320  32.594  1.00  0.00     0.261 C 
BRANCH  33  34
ATOM     34  O   UNL A   1      36.815  34.457  31.395  1.00  0.00    -0.460 OA
BRANCH  34  35
ATOM     35  C   UNL A   1      37.742  33.487  31.221  1.00  0.00     0.338 C 
ATOM     36  O   UNL A   1      37.551  32.275  31.240  1.00  0.00    -0.246 OA
BRANCH  35  37
ATOM     37  C   UNL A   1      39.034  34.071  30.821  1.00  0.00     0.060 A 
ATOM     38  C   UNL A   1      39.170  34.458  29.481  1.00  0.00     0.016 A 
ATOM     39  C   UNL A   1      40.114  34.168  31.702  1.00  0.00     0.016 A 
ATOM     40  C   UNL A   1      40.404  34.888  29.001  1.00  0.00     0.010 A 
ATOM     41  C   UNL A   1      41.355  34.594  31.214  1.00  0.00     0.010 A 
ATOM     42  C   UNL A   1      41.515  34.915  29.854  1.00  0.00    -0.014 A 
BRANCH  42  43
ATOM     43  C   UNL A   1      42.864  35.130  29.276  1.00  0.00     0.031 A 
ATOM     44  C   UNL A   1      43.754  33.939  29.038  1.00  0.00     0.074 A 
ATOM     45  C   UNL A   1      43.280  36.362  28.936  1.00  0.00     0.049 A 
ATOM     46  N   UNL A   1      44.954  33.892  28.522  1.00  0.00    -0.248 NA
ATOM     47  C   UNL A   1      43.218  32.625  29.434  1.00  0.00     0.031 C 
ATOM     48  C   UNL A   1      42.507  37.591  29.107  1.00  0.00     0.029 A 
ATOM     49  N   UNL A   1      44.465  36.782  28.385  1.00  0.00    -0.354 N 
ATOM     50  C   UNL A   1      45.328  32.553  28.552  1.00  0.00     0.074 A 
ATOM     51  C   UNL A   1      44.233  31.822  29.150  1.00  0.00     0.031 C 
ATOM     52  C   UNL A   1      43.247  38.633  28.689  1.00  0.00     0.029 A 
ATOM     53  C   UNL A   1      44.551  38.147  28.239  1.00  0.00     0.049 A 
ATOM     54  H   UNL A   1      45.185  36.166  28.120  1.00  0.00     0.167 HD
ATOM     55  C   UNL A   1      46.470  31.980  28.103  1.00  0.00     0.034 A 
ATOM     56  C   UNL A   1      45.569  38.915  27.804  1.00  0.00     0.034 A 
ATOM     57  C   UNL A   1      47.549  32.704  27.489  1.00  0.00     0.049 A 
ATOM     58  C   UNL A   1      46.842  38.254  27.339  1.00  0.00     0.074 A 
ATOM     59  C   UNL A   1      48.727  32.208  26.960  1.00  0.00     0.029 A 
ATOM     60  N   UNL A   1      47.588  34.081  27.333  1.00  0.00    -0.354 N 
ATOM     61  N   UNL A   1      47.129  36.977  27.255  1.00  0.00    -0.248 NA
ATOM     62  C   UNL A   1      47.921  39.141  26.877  1.00  0.00     0.031 C 
ATOM     63  C   UNL A   1      49.490  33.289  26.505  1.00  0.00     0.029 A 
ATOM     64  C   UNL A   1      48.777  34.456  26.728  1.00  0.00     0.049 A 
ATOM     65  H   UNL A   1      46.877  34.702  27.611  1.00  0.00     0.167 HD
ATOM     66  C   UNL A   1      48.401  36.906  26.697  1.00  0.00     0.074 A 
ATOM     67  C   UNL A   1      48.823  38.268  26.446  1.00  0.00     0.031 C 
ATOM     68  C   UNL A   1      49.158  35.812  26.431  1.00  0.00     0.034 A 
BRANCH  55  69
ATOM     69  C   UNL A   1      46.595  30.484  28.234  1.00  0.00     0.023 A 
ATOM     70  C   UNL A   1      47.167  29.934  29.399  1.00  0.00     0.012 A 
ATOM     71  C   UNL A   1      46.108  29.625  27.230  1.00  0.00     0.148 A 
ATOM     72  C   UNL A   1      47.282  28.553  29.548  1.00  0.00     0.002 A 
ATOM     73  C   UNL A   1      46.188  28.249  27.405  1.00  0.00     0.091 A 
ATOM     74  F   UNL A   1      45.590  30.167  26.119  1.00  0.00    -0.205 F 
ATOM     75  C   UNL A   1      46.784  27.710  28.557  1.00  0.00     0.022 A 
BRANCH  73  76
ATOM     76  S   UNL A   1      45.510  27.084  26.218  1.00  0.00     0.127 S 
ATOM     77  O   UNL A   1      45.920  25.804  26.792  1.00  0.00    -0.237 OA
ATOM     78  O   UNL A   1      44.074  27.356  26.301  1.00  0.00    -0.237 OA
ATOM     79  O   UNL A   1      46.116  27.421  24.936  1.00  0.00    -0.744 OA
ENDBRANCH  73  76
ENDBRANCH  55  69
BRANCH  56  80
ATOM     80  C   UNL A   1      45.413  40.395  27.741  1.00  0.00     0.023 A 
ATOM     81  C   UNL A   1      45.605  41.163  28.906  1.00  0.00     0.012 A 
ATOM     82  C   UNL A   1      45.088  41.047  26.535  1.00  0.00     0.148 A 
ATOM     83  C   UNL A   1      45.451  42.550  28.879  1.00  0.00     0.002 A 
ATOM     84  C   UNL A   1      44.989  42.434  26.503  1.00  0.00     0.091 A 
ATOM     85  F   UNL A   1      44.889  40.298  25.442  1.00  0.00    -0.205 F 
ATOM     86  C   UNL A   1      45.154  43.185  27.675  1.00  0.00     0.022 A 
BRANCH  84  87
ATOM     87  S   UNL A   1      44.732  43.347  24.977  1.00  0.00     0.127 S 
ATOM     88  O   UNL A   1      45.840  42.870  24.153  1.00  0.00    -0.237 OA
ATOM     89  O   UNL A   1      43.408  42.878  24.564  1.00  0.00    -0.237 OA
ATOM     90  O   UNL A   1      44.779  44.754  25.350  1.00  0.00    -0.744 OA
ENDBRANCH  84  87
ENDBRANCH  56  80
BRANCH  68  91
ATOM     91  C   UNL A   1      50.511  36.032  25.802  1.00  0.00     0.023 A 
ATOM     92  C   UNL A   1      50.628  36.106  24.400  1.00  0.00     0.012 A 
ATOM     93  C   UNL A   1      51.651  36.244  26.603  1.00  0.00     0.148 A 
ATOM     94  C   UNL A   1      51.864  36.357  23.804  1.00  0.00     0.002 A 
ATOM     95  C   UNL A   1      52.870  36.540  26.004  1.00  0.00     0.091 A 
ATOM     96  F   UNL A   1      51.524  36.152  27.935  1.00  0.00    -0.205 F 
ATOM     97  C   UNL A   1      52.981  36.585  24.605  1.00  0.00     0.022 A 
BRANCH  95  98
ATOM     98  S   UNL A   1      54.339  36.943  26.957  1.00  0.00     0.127 S 
ATOM     99  O   UNL A   1      53.903  38.133  27.687  1.00  0.00    -0.237 OA
ATOM    100  O   UNL A   1      54.512  35.749  27.785  1.00  0.00    -0.237 OA
ATOM    101  O   UNL A   1      55.401  37.161  25.983  1.00  0.00    -0.744 OA
ENDBRANCH  95  98
ENDBRANCH  68  91
ENDBRANCH  42  43
ENDBRANCH  35  37
ENDBRANCH  34  35
ENDBRANCH  33  34
ENDBRANCH  32  33
ENDBRANCH  31  32
ENDBRANCH   1  31
TORSDOF 22
ENDMDL
