MODEL 1
REMARK VINA RESULT:     -11.3      0.000      0.000
REMARK SMILES C[C@@H](C(=O)OCCOCCOC(=O)c1ccc(-c2c3nc(c(-c4cccc(S(=O)(=O)[O-])c4F)c4ccc([nH]4)c(-c4cccc(S(=O)(=O)[O-])c4F)c4nc(c(-c5cccc(S(=O)(=O)[O-])c5F)c5ccc2[nH]5)C=C4)C=C3)cc1)c1ccccc1-c1ccn(C(F)F)c(=O)c1
REMARK SMILES IDX 8 1 7 2 6 3 5 4 3 5 4 6 2 7 1 8 77 9 78 10 82 11 79 12 81 13
REMARK SMILES IDX 80 14 83 15 84 16 92 17 85 18 90 19 86 20 91 21 87 22 88 23
REMARK SMILES IDX 89 24 9 25 10 26 11 27 12 28 13 29 14 30 15 31 76 32 16 33
REMARK SMILES IDX 75 34 17 35 18 36 19 37 69 38 20 39 74 40 68 41 70 42 21 43
REMARK SMILES IDX 73 44 67 45 66 46 22 48 54 49 34 50 53 51 35 52 38 53 52 54
REMARK SMILES IDX 71 55 36 56 37 57 51 59 72 60 39 61 23 62 24 63 32 64 25 65
REMARK SMILES IDX 27 66 33 67 26 68 28 69 29 70 30 71 31 72 55 73 56 74 64 75
REMARK SMILES IDX 57 76 59 77 65 78 58 79 60 80 61 81 62 82 63 83 40 84 41 85
REMARK SMILES IDX 49 86 42 87 44 88 50 89 43 90 45 91 46 92 47 93 48 94
REMARK H PARENT 70 47 38 58
REMARK Flexibility Score: inf
ROOT
ATOM      1  O   UNL A   1      39.352  21.821  25.624  1.00  0.00    -0.374 OA
ENDROOT
BRANCH   1   2
ATOM      2  C   UNL A   1      38.500  22.608  26.455  1.00  0.00     0.202 C 
BRANCH   2   3
ATOM      3  C   UNL A   1      37.639  23.690  25.791  1.00  0.00     0.261 C 
BRANCH   3   4
ATOM      4  O   UNL A   1      36.246  23.414  25.946  1.00  0.00    -0.463 OA
BRANCH   4   5
ATOM      5  C   UNL A   1      35.800  22.224  25.463  1.00  0.00     0.313 C 
ATOM      6  O   UNL A   1      35.860  21.176  26.093  1.00  0.00    -0.252 OA
BRANCH   5   7
ATOM      7  C   UNL A   1      35.274  22.330  24.029  1.00  0.00     0.127 C 
ATOM      8  C   UNL A   1      36.376  22.986  23.158  1.00  0.00     0.025 C 
BRANCH   7   9
ATOM      9  C   UNL A   1      33.852  22.907  23.780  1.00  0.00    -0.026 A 
ATOM     10  C   UNL A   1      33.742  24.295  23.506  1.00  0.00     0.005 A 
ATOM     11  C   UNL A   1      32.651  22.157  23.660  1.00  0.00    -0.014 A 
ATOM     12  C   UNL A   1      32.533  24.913  23.170  1.00  0.00     0.000 A 
ATOM     13  C   UNL A   1      31.433  22.797  23.325  1.00  0.00     0.009 A 
ATOM     14  C   UNL A   1      31.374  24.164  23.081  1.00  0.00     0.001 A 
BRANCH  11  15
ATOM     15  C   UNL A   1      32.539  20.703  23.858  1.00  0.00    -0.011 A 
ATOM     16  C   UNL A   1      32.658  20.091  25.166  1.00  0.00     0.027 A 
ATOM     17  C   UNL A   1      32.327  19.925  22.782  1.00  0.00     0.080 A 
ATOM     18  C   UNL A   1      32.839  18.769  25.268  1.00  0.00     0.095 A 
ATOM     19  C   UNL A   1      32.422  18.440  22.902  1.00  0.00     0.255 A 
ATOM     20  N   UNL A   1      32.827  17.967  24.142  1.00  0.00    -0.258 N 
ATOM     21  O   UNL A   1      32.172  17.753  21.917  1.00  0.00    -0.269 OA
BRANCH  20  22
ATOM     22  C   UNL A   1      33.245  16.595  24.229  1.00  0.00     0.451 C 
ATOM     23  F   UNL A   1      34.314  16.361  23.430  1.00  0.00    -0.185 F 
ATOM     24  F   UNL A   1      33.583  16.243  25.493  1.00  0.00    -0.185 F 
ENDBRANCH  20  22
ENDBRANCH  11  15
ENDBRANCH   7   9
ENDBRANCH   5   7
ENDBRANCH   4   5
ENDBRANCH   3   4
ENDBRANCH   2   3
ENDBRANCH   1   2
BRANCH   1  25
ATOM     25  C   UNL A   1      39.031  20.436  25.443  1.00  0.00     0.202 C 
BRANCH  25  26
ATOM     26  C   UNL A   1      39.921  19.388  26.121  1.00  0.00     0.261 C 
BRANCH  26  27
ATOM     27  O   UNL A   1      41.148  19.173  25.406  1.00  0.00    -0.460 OA
BRANCH  27  28
ATOM     28  C   UNL A   1      42.273  19.398  26.128  1.00  0.00     0.338 C 
ATOM     29  O   UNL A   1      43.199  18.622  26.311  1.00  0.00    -0.246 OA
BRANCH  28  30
ATOM     30  C   UNL A   1      42.354  20.831  26.472  1.00  0.00     0.060 A 
ATOM     31  C   UNL A   1      42.511  21.735  25.412  1.00  0.00     0.016 A 
ATOM     32  C   UNL A   1      42.299  21.282  27.792  1.00  0.00     0.016 A 
ATOM     33  C   UNL A   1      42.663  23.093  25.671  1.00  0.00     0.010 A 
ATOM     34  C   UNL A   1      42.468  22.645  28.051  1.00  0.00     0.010 A 
ATOM     35  C   UNL A   1      42.692  23.546  26.994  1.00  0.00    -0.014 A 
BRANCH  35  36
ATOM     36  C   UNL A   1      43.168  24.920  27.269  1.00  0.00     0.031 A 
ATOM     37  C   UNL A   1      42.211  25.890  27.902  1.00  0.00     0.074 A 
ATOM     38  C   UNL A   1      44.431  25.286  26.989  1.00  0.00     0.049 A 
ATOM     39  N   UNL A   1      42.394  27.141  28.230  1.00  0.00    -0.248 NA
ATOM     40  C   UNL A   1      40.862  25.380  28.205  1.00  0.00     0.031 C 
ATOM     41  C   UNL A   1      45.448  24.427  26.386  1.00  0.00     0.029 A 
ATOM     42  N   UNL A   1      45.063  26.493  27.156  1.00  0.00    -0.354 N 
ATOM     43  C   UNL A   1      41.183  27.574  28.754  1.00  0.00     0.074 A 
ATOM     44  C   UNL A   1      40.264  26.458  28.686  1.00  0.00     0.031 C 
ATOM     45  C   UNL A   1      46.570  25.144  26.202  1.00  0.00     0.029 A 
ATOM     46  C   UNL A   1      46.343  26.515  26.657  1.00  0.00     0.049 A 
ATOM     47  H   UNL A   1      44.640  27.267  27.593  1.00  0.00     0.167 HD
ATOM     48  C   UNL A   1      40.865  28.786  29.264  1.00  0.00     0.034 A 
ATOM     49  C   UNL A   1      47.219  27.534  26.561  1.00  0.00     0.034 A 
ATOM     50  C   UNL A   1      41.786  29.887  29.342  1.00  0.00     0.049 A 
ATOM     51  C   UNL A   1      46.836  28.884  27.112  1.00  0.00     0.074 A 
ATOM     52  C   UNL A   1      41.578  31.147  29.872  1.00  0.00     0.029 A 
ATOM     53  N   UNL A   1      43.088  29.861  28.865  1.00  0.00    -0.354 N 
ATOM     54  N   UNL A   1      45.725  29.248  27.706  1.00  0.00    -0.248 NA
ATOM     55  C   UNL A   1      47.839  29.954  27.010  1.00  0.00     0.031 C 
ATOM     56  C   UNL A   1      42.748  31.892  29.693  1.00  0.00     0.029 A 
ATOM     57  C   UNL A   1      43.693  31.087  29.078  1.00  0.00     0.049 A 
ATOM     58  H   UNL A   1      43.517  29.086  28.437  1.00  0.00     0.167 HD
ATOM     59  C   UNL A   1      45.907  30.576  28.080  1.00  0.00     0.074 A 
ATOM     60  C   UNL A   1      47.244  30.945  27.661  1.00  0.00     0.031 C 
ATOM     61  C   UNL A   1      45.043  31.418  28.699  1.00  0.00     0.034 A 
BRANCH  48  62
ATOM     62  C   UNL A   1      39.470  28.973  29.796  1.00  0.00     0.023 A 
ATOM     63  C   UNL A   1      39.177  28.611  31.127  1.00  0.00     0.012 A 
ATOM     64  C   UNL A   1      38.460  29.538  28.995  1.00  0.00     0.148 A 
ATOM     65  C   UNL A   1      37.892  28.776  31.642  1.00  0.00     0.002 A 
ATOM     66  C   UNL A   1      37.193  29.740  29.527  1.00  0.00     0.091 A 
ATOM     67  F   UNL A   1      38.751  29.849  27.724  1.00  0.00    -0.205 F 
ATOM     68  C   UNL A   1      36.904  29.350  30.846  1.00  0.00     0.022 A 
BRANCH  66  69
ATOM     69  S   UNL A   1      35.873  30.537  28.607  1.00  0.00     0.127 S 
ATOM     70  O   UNL A   1      36.625  31.419  27.716  1.00  0.00    -0.237 OA
ATOM     71  O   UNL A   1      35.231  29.402  27.944  1.00  0.00    -0.237 OA
ATOM     72  O   UNL A   1      35.043  31.209  29.598  1.00  0.00    -0.744 OA
ENDBRANCH  66  69
ENDBRANCH  48  62
BRANCH  49  73
ATOM     73  C   UNL A   1      48.555  27.310  25.940  1.00  0.00     0.023 A 
ATOM     74  C   UNL A   1      49.631  26.870  26.734  1.00  0.00     0.012 A 
ATOM     75  C   UNL A   1      48.756  27.507  24.560  1.00  0.00     0.148 A 
ATOM     76  C   UNL A   1      50.890  26.658  26.170  1.00  0.00     0.002 A 
ATOM     77  C   UNL A   1      49.998  27.241  23.995  1.00  0.00     0.091 A 
ATOM     78  F   UNL A   1      47.724  27.945  23.825  1.00  0.00    -0.205 F 
ATOM     79  C   UNL A   1      51.070  26.831  24.800  1.00  0.00     0.022 A 
BRANCH  77  80
ATOM     80  S   UNL A   1      50.282  27.317  22.223  1.00  0.00     0.127 S 
ATOM     81  O   UNL A   1      51.614  26.729  22.109  1.00  0.00    -0.237 OA
ATOM     82  O   UNL A   1      49.194  26.487  21.707  1.00  0.00    -0.237 OA
ATOM     83  O   UNL A   1      50.181  28.726  21.869  1.00  0.00    -0.744 OA
ENDBRANCH  77  80
ENDBRANCH  49  73
BRANCH  61  84
ATOM     84  C   UNL A   1      45.521  32.815  28.998  1.00  0.00     0.023 A 
ATOM     85  C   UNL A   1      46.216  33.077  30.196  1.00  0.00     0.012 A 
ATOM     86  C   UNL A   1      45.356  33.848  28.054  1.00  0.00     0.148 A 
ATOM     87  C   UNL A   1      46.711  34.352  30.462  1.00  0.00     0.002 A 
ATOM     88  C   UNL A   1      45.894  35.104  28.304  1.00  0.00     0.091 A 
ATOM     89  F   UNL A   1      44.677  33.582  26.928  1.00  0.00    -0.205 F 
ATOM     90  C   UNL A   1      46.562  35.361  29.513  1.00  0.00     0.022 A 
BRANCH  88  91
ATOM     91  S   UNL A   1      45.837  36.433  27.097  1.00  0.00     0.127 S 
ATOM     92  O   UNL A   1      44.399  36.676  26.991  1.00  0.00    -0.237 OA
ATOM     93  O   UNL A   1      46.587  37.495  27.769  1.00  0.00    -0.237 OA
ATOM     94  O   UNL A   1      46.474  35.912  25.897  1.00  0.00    -0.744 OA
ENDBRANCH  88  91
ENDBRANCH  61  84
ENDBRANCH  35  36
ENDBRANCH  28  30
ENDBRANCH  27  28
ENDBRANCH  26  27
ENDBRANCH  25  26
ENDBRANCH   1  25
TORSDOF 20
ENDMDL
MODEL 2
REMARK VINA RESULT:     -10.8      2.851      3.832
REMARK SMILES C[C@@H](C(=O)OCCOCCOC(=O)c1ccc(-c2c3nc(c(-c4cccc(S(=O)(=O)[O-])c4F)c4ccc([nH]4)c(-c4cccc(S(=O)(=O)[O-])c4F)c4nc(c(-c5cccc(S(=O)(=O)[O-])c5F)c5ccc2[nH]5)C=C4)C=C3)cc1)c1ccccc1-c1ccn(C(F)F)c(=O)c1
REMARK SMILES IDX 8 1 7 2 6 3 5 4 3 5 4 6 2 7 1 8 77 9 78 10 82 11 79 12 81 13
REMARK SMILES IDX 80 14 83 15 84 16 92 17 85 18 90 19 86 20 91 21 87 22 88 23
REMARK SMILES IDX 89 24 9 25 10 26 11 27 12 28 13 29 14 30 15 31 76 32 16 33
REMARK SMILES IDX 75 34 17 35 18 36 19 37 69 38 20 39 74 40 68 41 70 42 21 43
REMARK SMILES IDX 73 44 67 45 66 46 22 48 54 49 34 50 53 51 35 52 38 53 52 54
REMARK SMILES IDX 71 55 36 56 37 57 51 59 72 60 39 61 23 62 24 63 32 64 25 65
REMARK SMILES IDX 27 66 33 67 26 68 28 69 29 70 30 71 31 72 55 73 56 74 64 75
REMARK SMILES IDX 57 76 59 77 65 78 58 79 60 80 61 81 62 82 63 83 40 84 41 85
REMARK SMILES IDX 49 86 42 87 44 88 50 89 43 90 45 91 46 92 47 93 48 94
REMARK H PARENT 70 47 38 58
REMARK Flexibility Score: inf
ROOT
ATOM      1  O   UNL A   1      41.646  20.636  26.304  1.00  0.00    -0.374 OA
ENDROOT
BRANCH   1   2
ATOM      2  C   UNL A   1      40.454  21.078  26.951  1.00  0.00     0.202 C 
BRANCH   2   3
ATOM      3  C   UNL A   1      39.577  22.108  26.229  1.00  0.00     0.261 C 
BRANCH   3   4
ATOM      4  O   UNL A   1      38.388  21.507  25.712  1.00  0.00    -0.463 OA
BRANCH   4   5
ATOM      5  C   UNL A   1      37.345  22.341  25.451  1.00  0.00     0.313 C 
ATOM      6  O   UNL A   1      37.091  23.333  26.121  1.00  0.00    -0.252 OA
BRANCH   5   7
ATOM      7  C   UNL A   1      36.495  21.866  24.269  1.00  0.00     0.127 C 
ATOM      8  C   UNL A   1      36.744  22.825  23.078  1.00  0.00     0.025 C 
BRANCH   7   9
ATOM      9  C   UNL A   1      34.994  21.527  24.499  1.00  0.00    -0.026 A 
ATOM     10  C   UNL A   1      34.667  20.192  24.854  1.00  0.00     0.005 A 
ATOM     11  C   UNL A   1      33.919  22.454  24.528  1.00  0.00    -0.014 A 
ATOM     12  C   UNL A   1      33.370  19.786  25.182  1.00  0.00     0.000 A 
ATOM     13  C   UNL A   1      32.609  22.028  24.855  1.00  0.00     0.009 A 
ATOM     14  C   UNL A   1      32.336  20.705  25.181  1.00  0.00     0.001 A 
BRANCH  11  15
ATOM     15  C   UNL A   1      34.034  23.893  24.237  1.00  0.00    -0.011 A 
ATOM     16  C   UNL A   1      34.360  24.863  25.264  1.00  0.00     0.027 A 
ATOM     17  C   UNL A   1      33.821  24.311  22.978  1.00  0.00     0.080 A 
ATOM     18  C   UNL A   1      34.174  26.167  25.029  1.00  0.00     0.095 A 
ATOM     19  C   UNL A   1      33.715  25.770  22.682  1.00  0.00     0.255 A 
ATOM     20  N   UNL A   1      33.754  26.606  23.787  1.00  0.00    -0.258 N 
ATOM     21  O   UNL A   1      33.573  26.124  21.516  1.00  0.00    -0.269 OA
BRANCH  20  22
ATOM     22  C   UNL A   1      33.338  27.970  23.607  1.00  0.00     0.451 C 
ATOM     23  F   UNL A   1      32.912  28.507  24.776  1.00  0.00    -0.185 F 
ATOM     24  F   UNL A   1      34.338  28.751  23.129  1.00  0.00    -0.185 F 
ENDBRANCH  20  22
ENDBRANCH  11  15
ENDBRANCH   7   9
ENDBRANCH   5   7
ENDBRANCH   4   5
ENDBRANCH   3   4
ENDBRANCH   2   3
ENDBRANCH   1   2
BRANCH   1  25
ATOM     25  C   UNL A   1      41.852  19.225  26.155  1.00  0.00     0.202 C 
BRANCH  25  26
ATOM     26  C   UNL A   1      43.195  18.740  25.596  1.00  0.00     0.261 C 
BRANCH  26  27
ATOM     27  O   UNL A   1      43.615  19.504  24.454  1.00  0.00    -0.460 OA
BRANCH  27  28
ATOM     28  C   UNL A   1      44.876  19.996  24.533  1.00  0.00     0.338 C 
ATOM     29  O   UNL A   1      45.889  19.506  24.058  1.00  0.00    -0.246 OA
BRANCH  28  30
ATOM     30  C   UNL A   1      44.832  21.369  25.071  1.00  0.00     0.060 A 
ATOM     31  C   UNL A   1      44.726  22.417  24.145  1.00  0.00     0.016 A 
ATOM     32  C   UNL A   1      44.910  21.633  26.440  1.00  0.00     0.016 A 
ATOM     33  C   UNL A   1      44.748  23.737  24.581  1.00  0.00     0.010 A 
ATOM     34  C   UNL A   1      44.950  22.961  26.875  1.00  0.00     0.010 A 
ATOM     35  C   UNL A   1      44.911  24.014  25.942  1.00  0.00    -0.014 A 
BRANCH  35  36
ATOM     36  C   UNL A   1      45.252  25.393  26.356  1.00  0.00     0.031 A 
ATOM     37  C   UNL A   1      44.146  26.280  26.854  1.00  0.00     0.074 A 
ATOM     38  C   UNL A   1      46.521  25.835  26.317  1.00  0.00     0.049 A 
ATOM     39  N   UNL A   1      44.197  27.519  27.263  1.00  0.00    -0.248 NA
ATOM     40  C   UNL A   1      42.797  25.688  26.894  1.00  0.00     0.031 C 
ATOM     41  C   UNL A   1      47.674  25.060  25.864  1.00  0.00     0.029 A 
ATOM     42  N   UNL A   1      47.044  27.061  26.645  1.00  0.00    -0.354 N 
ATOM     43  C   UNL A   1      42.891  27.864  27.585  1.00  0.00     0.074 A 
ATOM     44  C   UNL A   1      42.064  26.709  27.309  1.00  0.00     0.031 C 
ATOM     45  C   UNL A   1      48.768  25.841  25.912  1.00  0.00     0.029 A 
ATOM     46  C   UNL A   1      48.387  27.173  26.379  1.00  0.00     0.049 A 
ATOM     47  H   UNL A   1      46.508  27.789  27.034  1.00  0.00     0.167 HD
ATOM     48  C   UNL A   1      42.421  29.030  28.083  1.00  0.00     0.034 A 
ATOM     49  C   UNL A   1      49.207  28.237  26.482  1.00  0.00     0.034 A 
ATOM     50  C   UNL A   1      43.249  30.169  28.369  1.00  0.00     0.049 A 
ATOM     51  C   UNL A   1      48.657  29.536  27.016  1.00  0.00     0.074 A 
ATOM     52  C   UNL A   1      42.880  31.388  28.910  1.00  0.00     0.029 A 
ATOM     53  N   UNL A   1      44.613  30.233  28.127  1.00  0.00    -0.354 N 
ATOM     54  N   UNL A   1      47.441  29.812  27.422  1.00  0.00    -0.248 NA
ATOM     55  C   UNL A   1      49.599  30.658  27.137  1.00  0.00     0.031 C 
ATOM     56  C   UNL A   1      44.018  32.198  28.970  1.00  0.00     0.029 A 
ATOM     57  C   UNL A   1      45.101  31.474  28.496  1.00  0.00     0.049 A 
ATOM     58  H   UNL A   1      45.153  29.504  27.748  1.00  0.00     0.167 HD
ATOM     59  C   UNL A   1      47.479  31.126  27.879  1.00  0.00     0.074 A 
ATOM     60  C   UNL A   1      48.844  31.583  27.716  1.00  0.00     0.031 C 
ATOM     61  C   UNL A   1      46.474  31.891  28.373  1.00  0.00     0.034 A 
BRANCH  48  62
ATOM     62  C   UNL A   1      40.947  29.119  28.371  1.00  0.00     0.023 A 
ATOM     63  C   UNL A   1      40.038  29.294  27.306  1.00  0.00     0.012 A 
ATOM     64  C   UNL A   1      40.456  28.996  29.684  1.00  0.00     0.148 A 
ATOM     65  C   UNL A   1      38.667  29.377  27.549  1.00  0.00     0.002 A 
ATOM     66  C   UNL A   1      39.087  29.036  29.914  1.00  0.00     0.091 A 
ATOM     67  F   UNL A   1      41.338  28.859  30.685  1.00  0.00    -0.205 F 
ATOM     68  C   UNL A   1      38.192  29.239  28.850  1.00  0.00     0.022 A 
BRANCH  66  69
ATOM     69  S   UNL A   1      38.372  28.795  31.544  1.00  0.00     0.127 S 
ATOM     70  O   UNL A   1      38.996  29.879  32.303  1.00  0.00    -0.237 OA
ATOM     71  O   UNL A   1      36.944  28.976  31.284  1.00  0.00    -0.237 OA
ATOM     72  O   UNL A   1      38.749  27.449  31.952  1.00  0.00    -0.744 OA
ENDBRANCH  66  69
ENDBRANCH  48  62
BRANCH  49  73
ATOM     73  C   UNL A   1      50.640  28.112  26.095  1.00  0.00     0.023 A 
ATOM     74  C   UNL A   1      51.625  27.981  27.092  1.00  0.00     0.012 A 
ATOM     75  C   UNL A   1      51.028  28.098  24.741  1.00  0.00     0.148 A 
ATOM     76  C   UNL A   1      52.974  27.865  26.748  1.00  0.00     0.002 A 
ATOM     77  C   UNL A   1      52.366  27.928  24.404  1.00  0.00     0.091 A 
ATOM     78  F   UNL A   1      50.077  28.245  23.808  1.00  0.00    -0.205 F 
ATOM     79  C   UNL A   1      53.341  27.827  25.406  1.00  0.00     0.022 A 
BRANCH  77  80
ATOM     80  S   UNL A   1      52.911  27.742  22.703  1.00  0.00     0.127 S 
ATOM     81  O   UNL A   1      52.389  28.959  22.087  1.00  0.00    -0.237 OA
ATOM     82  O   UNL A   1      54.366  27.702  22.855  1.00  0.00    -0.237 OA
ATOM     83  O   UNL A   1      52.322  26.494  22.236  1.00  0.00    -0.744 OA
ENDBRANCH  77  80
ENDBRANCH  49  73
BRANCH  61  84
ATOM     84  C   UNL A   1      46.812  33.292  28.812  1.00  0.00     0.023 A 
ATOM     85  C   UNL A   1      47.254  33.527  30.129  1.00  0.00     0.012 A 
ATOM     86  C   UNL A   1      46.772  34.361  27.894  1.00  0.00     0.148 A 
ATOM     87  C   UNL A   1      47.622  34.809  30.533  1.00  0.00     0.002 A 
ATOM     88  C   UNL A   1      47.186  35.626  28.291  1.00  0.00     0.091 A 
ATOM     89  F   UNL A   1      46.332  34.120  26.651  1.00  0.00    -0.205 F 
ATOM     90  C   UNL A   1      47.599  35.855  29.614  1.00  0.00     0.022 A 
BRANCH  88  91
ATOM     91  S   UNL A   1      47.284  37.009  27.148  1.00  0.00     0.127 S 
ATOM     92  O   UNL A   1      45.876  37.226  26.822  1.00  0.00    -0.237 OA
ATOM     93  O   UNL A   1      47.887  38.054  27.976  1.00  0.00    -0.237 OA
ATOM     94  O   UNL A   1      48.120  36.557  26.045  1.00  0.00    -0.744 OA
ENDBRANCH  88  91
ENDBRANCH  61  84
ENDBRANCH  35  36
ENDBRANCH  28  30
ENDBRANCH  27  28
ENDBRANCH  26  27
ENDBRANCH  25  26
ENDBRANCH   1  25
TORSDOF 20
ENDMDL
MODEL 3
REMARK VINA RESULT:     -10.7      6.137     11.589
REMARK SMILES C[C@@H](C(=O)OCCOCCOC(=O)c1ccc(-c2c3nc(c(-c4cccc(S(=O)(=O)[O-])c4F)c4ccc([nH]4)c(-c4cccc(S(=O)(=O)[O-])c4F)c4nc(c(-c5cccc(S(=O)(=O)[O-])c5F)c5ccc2[nH]5)C=C4)C=C3)cc1)c1ccccc1-c1ccn(C(F)F)c(=O)c1
REMARK SMILES IDX 8 1 7 2 6 3 5 4 3 5 4 6 2 7 1 8 77 9 78 10 82 11 79 12 81 13
REMARK SMILES IDX 80 14 83 15 84 16 92 17 85 18 90 19 86 20 91 21 87 22 88 23
REMARK SMILES IDX 89 24 9 25 10 26 11 27 12 28 13 29 14 30 15 31 76 32 16 33
REMARK SMILES IDX 75 34 17 35 18 36 19 37 69 38 20 39 74 40 68 41 70 42 21 43
REMARK SMILES IDX 73 44 67 45 66 46 22 48 54 49 34 50 53 51 35 52 38 53 52 54
REMARK SMILES IDX 71 55 36 56 37 57 51 59 72 60 39 61 23 62 24 63 32 64 25 65
REMARK SMILES IDX 27 66 33 67 26 68 28 69 29 70 30 71 31 72 55 73 56 74 64 75
REMARK SMILES IDX 57 76 59 77 65 78 58 79 60 80 61 81 62 82 63 83 40 84 41 85
REMARK SMILES IDX 49 86 42 87 44 88 50 89 43 90 45 91 46 92 47 93 48 94
REMARK H PARENT 70 47 38 58
REMARK Flexibility Score: inf
ROOT
ATOM      1  O   UNL A   1      35.941  33.320  27.639  1.00  0.00    -0.374 OA
ENDROOT
BRANCH   1   2
ATOM      2  C   UNL A   1      37.146  33.168  28.387  1.00  0.00     0.202 C 
BRANCH   2   3
ATOM      3  C   UNL A   1      37.472  34.218  29.457  1.00  0.00     0.261 C 
BRANCH   3   4
ATOM      4  O   UNL A   1      38.320  33.679  30.474  1.00  0.00    -0.463 OA
BRANCH   4   5
ATOM      5  C   UNL A   1      37.722  33.313  31.639  1.00  0.00     0.313 C 
ATOM      6  O   UNL A   1      36.919  32.393  31.724  1.00  0.00    -0.252 OA
BRANCH   5   7
ATOM      7  C   UNL A   1      38.117  34.215  32.811  1.00  0.00     0.127 C 
ATOM      8  C   UNL A   1      39.649  34.442  32.752  1.00  0.00     0.025 C 
BRANCH   7   9
ATOM      9  C   UNL A   1      37.586  33.887  34.236  1.00  0.00    -0.026 A 
ATOM     10  C   UNL A   1      38.528  33.466  35.210  1.00  0.00     0.005 A 
ATOM     11  C   UNL A   1      36.263  34.100  34.709  1.00  0.00    -0.014 A 
ATOM     12  C   UNL A   1      38.192  33.237  36.548  1.00  0.00     0.000 A 
ATOM     13  C   UNL A   1      35.936  33.858  36.065  1.00  0.00     0.009 A 
ATOM     14  C   UNL A   1      36.892  33.431  36.978  1.00  0.00     0.001 A 
BRANCH  11  15
ATOM     15  C   UNL A   1      35.138  34.575  33.887  1.00  0.00    -0.011 A 
ATOM     16  C   UNL A   1      34.430  33.702  32.971  1.00  0.00     0.027 A 
ATOM     17  C   UNL A   1      34.768  35.863  33.990  1.00  0.00     0.080 A 
ATOM     18  C   UNL A   1      33.619  34.227  32.046  1.00  0.00     0.095 A 
ATOM     19  C   UNL A   1      33.783  36.438  33.028  1.00  0.00     0.255 A 
ATOM     20  N   UNL A   1      33.382  35.589  32.007  1.00  0.00    -0.258 N 
ATOM     21  O   UNL A   1      33.423  37.601  33.179  1.00  0.00    -0.269 OA
BRANCH  20  22
ATOM     22  C   UNL A   1      32.701  36.171  30.884  1.00  0.00     0.451 C 
ATOM     23  F   UNL A   1      33.420  37.189  30.353  1.00  0.00    -0.185 F 
ATOM     24  F   UNL A   1      32.469  35.267  29.901  1.00  0.00    -0.185 F 
ENDBRANCH  20  22
ENDBRANCH  11  15
ENDBRANCH   7   9
ENDBRANCH   5   7
ENDBRANCH   4   5
ENDBRANCH   3   4
ENDBRANCH   2   3
ENDBRANCH   1   2
BRANCH   1  25
ATOM     25  C   UNL A   1      34.698  33.326  28.353  1.00  0.00     0.202 C 
BRANCH  25  26
ATOM     26  C   UNL A   1      33.732  32.154  28.142  1.00  0.00     0.261 C 
BRANCH  26  27
ATOM     27  O   UNL A   1      34.208  31.230  27.150  1.00  0.00    -0.460 OA
BRANCH  27  28
ATOM     28  C   UNL A   1      34.326  29.949  27.578  1.00  0.00     0.338 C 
ATOM     29  O   UNL A   1      33.578  29.016  27.325  1.00  0.00    -0.246 OA
BRANCH  28  30
ATOM     30  C   UNL A   1      35.648  29.764  28.205  1.00  0.00     0.060 A 
ATOM     31  C   UNL A   1      36.769  29.822  27.364  1.00  0.00     0.016 A 
ATOM     32  C   UNL A   1      35.795  29.519  29.571  1.00  0.00     0.016 A 
ATOM     33  C   UNL A   1      38.039  29.588  27.878  1.00  0.00     0.010 A 
ATOM     34  C   UNL A   1      37.070  29.267  30.084  1.00  0.00     0.010 A 
ATOM     35  C   UNL A   1      38.189  29.260  29.230  1.00  0.00    -0.014 A 
BRANCH  35  36
ATOM     36  C   UNL A   1      39.480  28.705  29.693  1.00  0.00     0.031 A 
ATOM     37  C   UNL A   1      40.137  29.336  30.888  1.00  0.00     0.074 A 
ATOM     38  C   UNL A   1      40.040  27.647  29.082  1.00  0.00     0.049 A 
ATOM     39  N   UNL A   1      41.266  29.033  31.471  1.00  0.00    -0.248 NA
ATOM     40  C   UNL A   1      39.425  30.467  31.509  1.00  0.00     0.031 C 
ATOM     41  C   UNL A   1      39.487  26.948  27.924  1.00  0.00     0.029 A 
ATOM     42  N   UNL A   1      41.217  26.991  29.344  1.00  0.00    -0.354 N 
ATOM     43  C   UNL A   1      41.411  29.944  32.509  1.00  0.00     0.074 A 
ATOM     44  C   UNL A   1      40.264  30.825  32.468  1.00  0.00     0.031 C 
ATOM     45  C   UNL A   1      40.342  25.979  27.552  1.00  0.00     0.029 A 
ATOM     46  C   UNL A   1      41.508  26.003  28.434  1.00  0.00     0.049 A 
ATOM     47  H   UNL A   1      41.795  27.207  30.110  1.00  0.00     0.167 HD
ATOM     48  C   UNL A   1      42.401  30.032  33.427  1.00  0.00     0.034 A 
ATOM     49  C   UNL A   1      42.602  25.225  28.317  1.00  0.00     0.034 A 
ATOM     50  C   UNL A   1      43.531  29.145  33.472  1.00  0.00     0.049 A 
ATOM     51  C   UNL A   1      43.705  25.356  29.337  1.00  0.00     0.074 A 
ATOM     52  C   UNL A   1      44.573  29.123  34.382  1.00  0.00     0.029 A 
ATOM     53  N   UNL A   1      43.773  28.129  32.559  1.00  0.00    -0.354 N 
ATOM     54  N   UNL A   1      43.776  26.149  30.379  1.00  0.00    -0.248 NA
ATOM     55  C   UNL A   1      44.863  24.463  29.183  1.00  0.00     0.031 C 
ATOM     56  C   UNL A   1      45.457  28.109  34.003  1.00  0.00     0.029 A 
ATOM     57  C   UNL A   1      44.952  27.480  32.877  1.00  0.00     0.049 A 
ATOM     58  H   UNL A   1      43.191  27.903  31.798  1.00  0.00     0.167 HD
ATOM     59  C   UNL A   1      44.966  25.827  31.025  1.00  0.00     0.074 A 
ATOM     60  C   UNL A   1      45.574  24.754  30.265  1.00  0.00     0.031 C 
ATOM     61  C   UNL A   1      45.514  26.379  32.136  1.00  0.00     0.034 A 
BRANCH  48  62
ATOM     62  C   UNL A   1      42.289  31.111  34.469  1.00  0.00     0.023 A 
ATOM     63  C   UNL A   1      41.672  30.826  35.705  1.00  0.00     0.012 A 
ATOM     64  C   UNL A   1      42.823  32.394  34.242  1.00  0.00     0.148 A 
ATOM     65  C   UNL A   1      41.558  31.811  36.686  1.00  0.00     0.002 A 
ATOM     66  C   UNL A   1      42.745  33.357  35.240  1.00  0.00     0.091 A 
ATOM     67  F   UNL A   1      43.380  32.653  33.051  1.00  0.00    -0.205 F 
ATOM     68  C   UNL A   1      42.103  33.072  36.457  1.00  0.00     0.022 A 
BRANCH  66  69
ATOM     69  S   UNL A   1      43.480  34.987  35.071  1.00  0.00     0.127 S 
ATOM     70  O   UNL A   1      44.907  34.666  35.046  1.00  0.00    -0.237 OA
ATOM     71  O   UNL A   1      42.933  35.440  33.792  1.00  0.00    -0.237 OA
ATOM     72  O   UNL A   1      43.031  35.751  36.227  1.00  0.00    -0.744 OA
ENDBRANCH  66  69
ENDBRANCH  48  62
BRANCH  49  73
ATOM     73  C   UNL A   1      42.695  24.235  27.209  1.00  0.00     0.023 A 
ATOM     74  C   UNL A   1      43.438  24.544  26.054  1.00  0.00     0.012 A 
ATOM     75  C   UNL A   1      42.070  22.975  27.307  1.00  0.00     0.148 A 
ATOM     76  C   UNL A   1      43.534  23.628  25.004  1.00  0.00     0.002 A 
ATOM     77  C   UNL A   1      42.215  22.048  26.282  1.00  0.00     0.091 A 
ATOM     78  F   UNL A   1      41.350  22.709  28.406  1.00  0.00    -0.205 F 
ATOM     79  C   UNL A   1      42.933  22.377  25.124  1.00  0.00     0.022 A 
BRANCH  77  80
ATOM     80  S   UNL A   1      41.581  20.372  26.407  1.00  0.00     0.127 S 
ATOM     81  O   UNL A   1      42.063  19.969  27.725  1.00  0.00    -0.237 OA
ATOM     82  O   UNL A   1      40.136  20.588  26.318  1.00  0.00    -0.237 OA
ATOM     83  O   UNL A   1      42.150  19.651  25.277  1.00  0.00    -0.744 OA
ENDBRANCH  77  80
ENDBRANCH  49  73
BRANCH  61  84
ATOM     84  C   UNL A   1      46.821  25.813  32.626  1.00  0.00     0.023 A 
ATOM     85  C   UNL A   1      46.825  24.821  33.626  1.00  0.00     0.012 A 
ATOM     86  C   UNL A   1      48.039  26.204  32.035  1.00  0.00     0.148 A 
ATOM     87  C   UNL A   1      48.023  24.249  34.052  1.00  0.00     0.002 A 
ATOM     88  C   UNL A   1      49.224  25.595  32.430  1.00  0.00     0.091 A 
ATOM     89  F   UNL A   1      48.016  27.162  31.097  1.00  0.00    -0.205 F 
ATOM     90  C   UNL A   1      49.219  24.626  33.447  1.00  0.00     0.022 A 
BRANCH  88  91
ATOM     91  S   UNL A   1      50.797  25.947  31.637  1.00  0.00     0.127 S 
ATOM     92  O   UNL A   1      50.729  27.398  31.471  1.00  0.00    -0.237 OA
ATOM     93  O   UNL A   1      51.759  25.492  32.640  1.00  0.00    -0.237 OA
ATOM     94  O   UNL A   1      50.804  25.175  30.402  1.00  0.00    -0.744 OA
ENDBRANCH  88  91
ENDBRANCH  61  84
ENDBRANCH  35  36
ENDBRANCH  28  30
ENDBRANCH  27  28
ENDBRANCH  26  27
ENDBRANCH  25  26
ENDBRANCH   1  25
TORSDOF 20
ENDMDL
