MODEL 1
REMARK VINA RESULT:     -12.0      0.000      0.000
REMARK SMILES CC(=O)N1CCC(C(=O)Nc2sccc2C(=O)OCCOCCOC(=O)c2ccc(-c3c4nc(c(-c5cccc(S(=O)(=O)[O-])c5F)c5ccc([nH]5)c(-c5cccc(S(=O)(=O)[O-])c5F)c5nc(c(-c6cccc(S(=O)(=O)[O-])c6F)c6ccc3[nH]6)C=C5)C=C4)cc2)CC1
REMARK SMILES IDX 22 1 21 2 20 3 19 4 18 5 16 6 17 7 15 8 11 9 12 10 13 11
REMARK SMILES IDX 14 12 10 13 8 14 9 15 7 17 1 18 2 19 3 20 4 21 5 22 91 23
REMARK SMILES IDX 6 24 90 25 23 26 24 27 25 28 26 29 27 30 28 31 89 32 29 33
REMARK SMILES IDX 88 34 30 35 31 36 32 37 82 38 33 39 87 40 81 41 83 42 34 43
REMARK SMILES IDX 86 44 80 45 79 46 35 48 67 49 47 50 66 51 48 52 51 53 65 54
REMARK SMILES IDX 84 55 49 56 50 57 64 59 85 60 52 61 36 62 37 63 45 64 38 65
REMARK SMILES IDX 40 66 46 67 39 68 41 69 42 70 43 71 44 72 68 73 69 74 77 75
REMARK SMILES IDX 70 76 72 77 78 78 71 79 73 80 74 81 75 82 76 83 53 84 54 85
REMARK SMILES IDX 62 86 55 87 57 88 63 89 56 90 58 91 59 92 60 93 61 94
REMARK H PARENT 10 16 83 47 51 58
REMARK Flexibility Score: inf
ROOT
ATOM      1  C   UNL A   1      32.239  29.702  25.099  1.00  0.00     0.202 C 
ENDROOT
BRANCH   1   2
ATOM      2  O   UNL A   1      31.620  28.439  24.903  1.00  0.00    -0.374 OA
BRANCH   2   3
ATOM      3  C   UNL A   1      32.019  27.341  25.707  1.00  0.00     0.202 C 
BRANCH   3   4
ATOM      4  C   UNL A   1      31.005  26.672  26.634  1.00  0.00     0.261 C 
BRANCH   4   5
ATOM      5  O   UNL A   1      30.223  25.601  26.074  1.00  0.00    -0.460 OA
BRANCH   5   6
ATOM      6  C   UNL A   1      30.760  24.355  26.243  1.00  0.00     0.341 C 
ATOM      7  O   UNL A   1      30.629  23.683  27.265  1.00  0.00    -0.246 OA
BRANCH   6   8
ATOM      8  C   UNL A   1      31.454  23.835  25.078  1.00  0.00     0.094 A 
ATOM      9  C   UNL A   1      32.662  23.163  25.030  1.00  0.00     0.110 A 
ATOM     10  S   UNL A   1      33.280  23.062  23.437  1.00  0.00    -0.126 S 
ATOM     11  C   UNL A   1      31.805  23.596  22.764  1.00  0.00     0.068 A 
ATOM     12  C   UNL A   1      30.926  23.995  23.744  1.00  0.00     0.029 A 
BRANCH   9  13
ATOM     13  N   UNL A   1      33.521  22.608  25.943  1.00  0.00    -0.317 N 
ATOM     14  C   UNL A   1      34.003  21.338  26.066  1.00  0.00     0.228 C 
ATOM     15  O   UNL A   1      34.733  21.124  27.042  1.00  0.00    -0.274 OA
ATOM     16  H   UNL A   1      33.846  23.235  26.629  1.00  0.00     0.170 HD
BRANCH  14  17
ATOM     17  C   UNL A   1      33.783  20.196  25.065  1.00  0.00     0.082 C 
ATOM     18  C   UNL A   1      32.550  15.344  25.596  1.00  0.00     0.114 C 
ATOM     19  C   UNL A   1      33.831  16.066  25.265  1.00  0.00     0.219 C 
ATOM     20  O   UNL A   1      34.903  15.480  25.425  1.00  0.00    -0.275 OA
ATOM     21  N   UNL A   1      33.742  17.339  24.721  1.00  0.00    -0.343 N 
ATOM     22  C   UNL A   1      34.948  18.010  24.264  1.00  0.00     0.120 C 
ATOM     23  C   UNL A   1      32.517  18.092  24.493  1.00  0.00     0.120 C 
ATOM     24  C   UNL A   1      35.075  19.438  24.784  1.00  0.00     0.035 C 
ATOM     25  C   UNL A   1      32.543  19.344  25.354  1.00  0.00     0.035 C 
ENDBRANCH  14  17
ENDBRANCH   9  13
ENDBRANCH   6   8
ENDBRANCH   5   6
ENDBRANCH   4   5
ENDBRANCH   3   4
ENDBRANCH   2   3
ENDBRANCH   1   2
BRANCH   1  26
ATOM     26  C   UNL A   1      31.823  30.581  26.287  1.00  0.00     0.261 C 
BRANCH  26  27
ATOM     27  O   UNL A   1      32.709  30.539  27.416  1.00  0.00    -0.460 OA
BRANCH  27  28
ATOM     28  C   UNL A   1      33.468  31.656  27.553  1.00  0.00     0.338 C 
ATOM     29  O   UNL A   1      33.068  32.801  27.693  1.00  0.00    -0.246 OA
BRANCH  28  30
ATOM     30  C   UNL A   1      34.898  31.320  27.665  1.00  0.00     0.060 A 
ATOM     31  C   UNL A   1      35.244  29.964  27.611  1.00  0.00     0.016 A 
ATOM     32  C   UNL A   1      35.844  32.286  28.009  1.00  0.00     0.016 A 
ATOM     33  C   UNL A   1      36.518  29.558  27.997  1.00  0.00     0.010 A 
ATOM     34  C   UNL A   1      37.121  31.875  28.406  1.00  0.00     0.010 A 
ATOM     35  C   UNL A   1      37.436  30.505  28.464  1.00  0.00    -0.014 A 
BRANCH  35  36
ATOM     36  C   UNL A   1      38.610  30.026  29.234  1.00  0.00     0.031 A 
ATOM     37  C   UNL A   1      38.774  30.496  30.658  1.00  0.00     0.074 A 
ATOM     38  C   UNL A   1      39.468  29.137  28.707  1.00  0.00     0.049 A 
ATOM     39  N   UNL A   1      39.677  30.163  31.541  1.00  0.00    -0.248 NA
ATOM     40  C   UNL A   1      37.780  31.465  31.154  1.00  0.00     0.031 C 
ATOM     41  C   UNL A   1      39.402  28.599  27.349  1.00  0.00     0.029 A 
ATOM     42  N   UNL A   1      40.570  28.532  29.258  1.00  0.00    -0.354 N 
ATOM     43  C   UNL A   1      39.374  30.891  32.687  1.00  0.00     0.074 A 
ATOM     44  C   UNL A   1      38.215  31.699  32.383  1.00  0.00     0.031 C 
ATOM     45  C   UNL A   1      40.431  27.754  27.166  1.00  0.00     0.029 A 
ATOM     46  C   UNL A   1      41.232  27.700  28.388  1.00  0.00     0.049 A 
ATOM     47  H   UNL A   1      40.858  28.682  30.186  1.00  0.00     0.167 HD
ATOM     48  C   UNL A   1      39.986  30.868  33.894  1.00  0.00     0.034 A 
ATOM     49  C   UNL A   1      42.360  26.982  28.562  1.00  0.00     0.034 A 
ATOM     50  C   UNL A   1      41.121  30.043  34.204  1.00  0.00     0.049 A 
ATOM     51  C   UNL A   1      43.035  26.995  29.910  1.00  0.00     0.074 A 
ATOM     52  C   UNL A   1      41.799  29.928  35.404  1.00  0.00     0.029 A 
ATOM     53  N   UNL A   1      41.748  29.194  33.306  1.00  0.00    -0.354 N 
ATOM     54  N   UNL A   1      42.669  27.599  31.015  1.00  0.00    -0.248 NA
ATOM     55  C   UNL A   1      44.264  26.198  30.044  1.00  0.00     0.031 C 
ATOM     56  C   UNL A   1      42.847  29.018  35.227  1.00  0.00     0.029 A 
ATOM     57  C   UNL A   1      42.810  28.556  33.921  1.00  0.00     0.049 A 
ATOM     58  H   UNL A   1      41.478  29.066  32.367  1.00  0.00     0.167 HD
ATOM     59  C   UNL A   1      43.599  27.229  31.980  1.00  0.00     0.074 A 
ATOM     60  C   UNL A   1      44.531  26.327  31.336  1.00  0.00     0.031 C 
ATOM     61  C   UNL A   1      43.691  27.616  33.277  1.00  0.00     0.034 A 
BRANCH  48  62
ATOM     62  C   UNL A   1      39.411  31.732  34.985  1.00  0.00     0.023 A 
ATOM     63  C   UNL A   1      38.433  31.197  35.847  1.00  0.00     0.012 A 
ATOM     64  C   UNL A   1      39.874  33.046  35.192  1.00  0.00     0.148 A 
ATOM     65  C   UNL A   1      37.905  31.965  36.885  1.00  0.00     0.002 A 
ATOM     66  C   UNL A   1      39.371  33.791  36.252  1.00  0.00     0.091 A 
ATOM     67  F   UNL A   1      40.787  33.543  34.346  1.00  0.00    -0.205 F 
ATOM     68  C   UNL A   1      38.381  33.256  37.094  1.00  0.00     0.022 A 
BRANCH  66  69
ATOM     69  S   UNL A   1      39.965  35.441  36.646  1.00  0.00     0.127 S 
ATOM     70  O   UNL A   1      39.364  35.666  37.960  1.00  0.00    -0.237 OA
ATOM     71  O   UNL A   1      41.416  35.250  36.665  1.00  0.00    -0.237 OA
ATOM     72  O   UNL A   1      39.480  36.308  35.581  1.00  0.00    -0.744 OA
ENDBRANCH  66  69
ENDBRANCH  48  62
BRANCH  49  73
ATOM     73  C   UNL A   1      42.899  26.150  27.449  1.00  0.00     0.023 A 
ATOM     74  C   UNL A   1      43.857  26.697  26.574  1.00  0.00     0.012 A 
ATOM     75  C   UNL A   1      42.467  24.825  27.252  1.00  0.00     0.148 A 
ATOM     76  C   UNL A   1      44.349  25.951  25.501  1.00  0.00     0.002 A 
ATOM     77  C   UNL A   1      43.000  24.069  26.212  1.00  0.00     0.091 A 
ATOM     78  F   UNL A   1      41.535  24.328  28.078  1.00  0.00    -0.205 F 
ATOM     79  C   UNL A   1      43.929  24.635  25.327  1.00  0.00     0.022 A 
BRANCH  77  80
ATOM     80  S   UNL A   1      42.601  22.332  25.993  1.00  0.00     0.127 S 
ATOM     81  O   UNL A   1      43.313  22.014  24.757  1.00  0.00    -0.237 OA
ATOM     82  O   UNL A   1      43.168  21.731  27.201  1.00  0.00    -0.237 OA
ATOM     83  O   UNL A   1      41.147  22.274  25.924  1.00  0.00    -0.744 OA
ENDBRANCH  77  80
ENDBRANCH  49  73
BRANCH  61  84
ATOM     84  C   UNL A   1      44.822  27.050  34.096  1.00  0.00     0.023 A 
ATOM     85  C   UNL A   1      46.052  27.733  34.146  1.00  0.00     0.012 A 
ATOM     86  C   UNL A   1      44.644  25.885  34.868  1.00  0.00     0.148 A 
ATOM     87  C   UNL A   1      47.101  27.247  34.925  1.00  0.00     0.002 A 
ATOM     88  C   UNL A   1      45.679  25.432  35.678  1.00  0.00     0.091 A 
ATOM     89  F   UNL A   1      43.472  25.237  34.793  1.00  0.00    -0.205 F 
ATOM     90  C   UNL A   1      46.911  26.105  35.699  1.00  0.00     0.022 A 
BRANCH  88  91
ATOM     91  S   UNL A   1      45.488  24.024  36.777  1.00  0.00     0.127 S 
ATOM     92  O   UNL A   1      44.418  24.478  37.662  1.00  0.00    -0.237 OA
ATOM     93  O   UNL A   1      45.103  22.955  35.855  1.00  0.00    -0.237 OA
ATOM     94  O   UNL A   1      46.787  23.833  37.408  1.00  0.00    -0.744 OA
ENDBRANCH  88  91
ENDBRANCH  61  84
ENDBRANCH  35  36
ENDBRANCH  28  30
ENDBRANCH  27  28
ENDBRANCH  26  27
ENDBRANCH   1  26
TORSDOF 19
ENDMDL
MODEL 2
REMARK VINA RESULT:     -11.9      0.982      7.750
REMARK SMILES CC(=O)N1CCC(C(=O)Nc2sccc2C(=O)OCCOCCOC(=O)c2ccc(-c3c4nc(c(-c5cccc(S(=O)(=O)[O-])c5F)c5ccc([nH]5)c(-c5cccc(S(=O)(=O)[O-])c5F)c5nc(c(-c6cccc(S(=O)(=O)[O-])c6F)c6ccc3[nH]6)C=C5)C=C4)cc2)CC1
REMARK SMILES IDX 22 1 21 2 20 3 19 4 18 5 16 6 17 7 15 8 11 9 12 10 13 11
REMARK SMILES IDX 14 12 10 13 8 14 9 15 7 17 1 18 2 19 3 20 4 21 5 22 91 23
REMARK SMILES IDX 6 24 90 25 23 26 24 27 25 28 26 29 27 30 28 31 89 32 29 33
REMARK SMILES IDX 88 34 30 35 31 36 32 37 82 38 33 39 87 40 81 41 83 42 34 43
REMARK SMILES IDX 86 44 80 45 79 46 35 48 67 49 47 50 66 51 48 52 51 53 65 54
REMARK SMILES IDX 84 55 49 56 50 57 64 59 85 60 52 61 36 62 37 63 45 64 38 65
REMARK SMILES IDX 40 66 46 67 39 68 41 69 42 70 43 71 44 72 68 73 69 74 77 75
REMARK SMILES IDX 70 76 72 77 78 78 71 79 73 80 74 81 75 82 76 83 53 84 54 85
REMARK SMILES IDX 62 86 55 87 57 88 63 89 56 90 58 91 59 92 60 93 61 94
REMARK H PARENT 10 16 83 47 51 58
REMARK Flexibility Score: inf
ROOT
ATOM      1  C   UNL A   1      31.706  30.256  25.188  1.00  0.00     0.202 C 
ENDROOT
BRANCH   1   2
ATOM      2  O   UNL A   1      31.402  28.881  25.376  1.00  0.00    -0.374 OA
BRANCH   2   3
ATOM      3  C   UNL A   1      32.302  28.067  26.110  1.00  0.00     0.202 C 
BRANCH   3   4
ATOM      4  C   UNL A   1      31.772  27.171  27.229  1.00  0.00     0.261 C 
BRANCH   4   5
ATOM      5  O   UNL A   1      30.806  26.170  26.857  1.00  0.00    -0.460 OA
BRANCH   5   6
ATOM      6  C   UNL A   1      31.345  24.971  26.480  1.00  0.00     0.341 C 
ATOM      7  O   UNL A   1      31.541  24.034  27.251  1.00  0.00    -0.246 OA
BRANCH   6   8
ATOM      8  C   UNL A   1      31.610  24.850  25.057  1.00  0.00     0.094 A 
ATOM      9  C   UNL A   1      32.756  24.388  24.436  1.00  0.00     0.110 A 
ATOM     10  S   UNL A   1      32.779  24.761  22.766  1.00  0.00    -0.126 S 
ATOM     11  C   UNL A   1      31.137  25.226  22.784  1.00  0.00     0.068 A 
ATOM     12  C   UNL A   1      30.639  25.249  24.066  1.00  0.00     0.029 A 
BRANCH   9  13
ATOM     13  N   UNL A   1      33.907  23.756  24.830  1.00  0.00    -0.317 N 
ATOM     14  C   UNL A   1      34.151  22.456  25.160  1.00  0.00     0.228 C 
ATOM     15  O   UNL A   1      35.301  22.194  25.534  1.00  0.00    -0.274 OA
ATOM     16  H   UNL A   1      34.695  24.345  24.884  1.00  0.00     0.170 HD
BRANCH  14  17
ATOM     17  C   UNL A   1      33.154  21.298  25.030  1.00  0.00     0.082 C 
ATOM     18  C   UNL A   1      33.706  16.317  24.548  1.00  0.00     0.114 C 
ATOM     19  C   UNL A   1      33.324  17.423  23.597  1.00  0.00     0.219 C 
ATOM     20  O   UNL A   1      33.435  17.229  22.384  1.00  0.00    -0.275 OA
ATOM     21  N   UNL A   1      32.793  18.588  24.129  1.00  0.00    -0.343 N 
ATOM     22  C   UNL A   1      32.288  19.619  23.237  1.00  0.00     0.120 C 
ATOM     23  C   UNL A   1      32.623  18.887  25.544  1.00  0.00     0.120 C 
ATOM     24  C   UNL A   1      32.812  21.012  23.572  1.00  0.00     0.035 C 
ATOM     25  C   UNL A   1      33.491  20.083  25.900  1.00  0.00     0.035 C 
ENDBRANCH  14  17
ENDBRANCH   9  13
ENDBRANCH   6   8
ENDBRANCH   5   6
ENDBRANCH   4   5
ENDBRANCH   3   4
ENDBRANCH   2   3
ENDBRANCH   1   2
BRANCH   1  26
ATOM     26  C   UNL A   1      31.469  31.253  26.331  1.00  0.00     0.261 C 
BRANCH  26  27
ATOM     27  O   UNL A   1      32.369  31.134  27.443  1.00  0.00    -0.460 OA
BRANCH  27  28
ATOM     28  C   UNL A   1      33.252  32.159  27.540  1.00  0.00     0.338 C 
ATOM     29  O   UNL A   1      32.990  33.352  27.558  1.00  0.00    -0.246 OA
BRANCH  28  30
ATOM     30  C   UNL A   1      34.619  31.667  27.779  1.00  0.00     0.060 A 
ATOM     31  C   UNL A   1      34.781  30.289  27.968  1.00  0.00     0.016 A 
ATOM     32  C   UNL A   1      35.677  32.549  28.005  1.00  0.00     0.016 A 
ATOM     33  C   UNL A   1      35.977  29.795  28.480  1.00  0.00     0.010 A 
ATOM     34  C   UNL A   1      36.876  32.052  28.528  1.00  0.00     0.010 A 
ATOM     35  C   UNL A   1      37.001  30.682  28.829  1.00  0.00    -0.014 A 
BRANCH  35  36
ATOM     36  C   UNL A   1      38.077  30.196  29.726  1.00  0.00     0.031 A 
ATOM     37  C   UNL A   1      39.078  29.210  29.176  1.00  0.00     0.074 A 
ATOM     38  C   UNL A   1      38.208  30.675  30.974  1.00  0.00     0.049 A 
ATOM     39  N   UNL A   1      40.135  28.698  29.747  1.00  0.00    -0.248 NA
ATOM     40  C   UNL A   1      38.859  28.746  27.795  1.00  0.00     0.031 C 
ATOM     41  C   UNL A   1      37.314  31.642  31.608  1.00  0.00     0.029 A 
ATOM     42  N   UNL A   1      39.151  30.406  31.934  1.00  0.00    -0.354 N 
ATOM     43  C   UNL A   1      40.697  27.842  28.806  1.00  0.00     0.074 A 
ATOM     44  C   UNL A   1      39.854  27.886  27.633  1.00  0.00     0.031 C 
ATOM     45  C   UNL A   1      37.741  31.874  32.861  1.00  0.00     0.029 A 
ATOM     46  C   UNL A   1      38.931  31.065  33.120  1.00  0.00     0.049 A 
ATOM     47  H   UNL A   1      39.910  29.797  31.788  1.00  0.00     0.167 HD
ATOM     48  C   UNL A   1      41.830  27.106  28.897  1.00  0.00     0.034 A 
ATOM     49  C   UNL A   1      39.615  31.014  34.281  1.00  0.00     0.034 A 
ATOM     50  C   UNL A   1      42.683  27.084  30.052  1.00  0.00     0.049 A 
ATOM     51  C   UNL A   1      40.859  30.166  34.362  1.00  0.00     0.074 A 
ATOM     52  C   UNL A   1      43.867  26.392  30.236  1.00  0.00     0.029 A 
ATOM     53  N   UNL A   1      42.443  27.784  31.224  1.00  0.00    -0.354 N 
ATOM     54  N   UNL A   1      41.438  29.453  33.426  1.00  0.00    -0.248 NA
ATOM     55  C   UNL A   1      41.563  30.142  35.653  1.00  0.00     0.031 C 
ATOM     56  C   UNL A   1      44.336  26.663  31.525  1.00  0.00     0.029 A 
ATOM     57  C   UNL A   1      43.451  27.536  32.138  1.00  0.00     0.049 A 
ATOM     58  H   UNL A   1      41.668  28.371  31.382  1.00  0.00     0.167 HD
ATOM     59  C   UNL A   1      42.589  28.926  34.003  1.00  0.00     0.074 A 
ATOM     60  C   UNL A   1      42.639  29.424  35.362  1.00  0.00     0.031 C 
ATOM     61  C   UNL A   1      43.512  28.088  33.467  1.00  0.00     0.034 A 
BRANCH  48  62
ATOM     62  C   UNL A   1      42.235  26.296  27.694  1.00  0.00     0.023 A 
ATOM     63  C   UNL A   1      43.046  26.887  26.704  1.00  0.00     0.012 A 
ATOM     64  C   UNL A   1      41.863  24.944  27.569  1.00  0.00     0.148 A 
ATOM     65  C   UNL A   1      43.461  26.150  25.595  1.00  0.00     0.002 A 
ATOM     66  C   UNL A   1      42.312  24.206  26.479  1.00  0.00     0.091 A 
ATOM     67  F   UNL A   1      41.071  24.410  28.509  1.00  0.00    -0.205 F 
ATOM     68  C   UNL A   1      43.104  24.810  25.488  1.00  0.00     0.022 A 
BRANCH  66  69
ATOM     69  S   UNL A   1      41.961  22.455  26.282  1.00  0.00     0.127 S 
ATOM     70  O   UNL A   1      42.628  22.161  25.015  1.00  0.00    -0.237 OA
ATOM     71  O   UNL A   1      42.610  21.876  27.460  1.00  0.00    -0.237 OA
ATOM     72  O   UNL A   1      40.510  22.335  26.267  1.00  0.00    -0.744 OA
ENDBRANCH  66  69
ENDBRANCH  48  62
BRANCH  49  73
ATOM     73  C   UNL A   1      39.169  31.824  35.450  1.00  0.00     0.023 A 
ATOM     74  C   UNL A   1      38.228  31.287  36.349  1.00  0.00     0.012 A 
ATOM     75  C   UNL A   1      39.670  33.121  35.673  1.00  0.00     0.148 A 
ATOM     76  C   UNL A   1      37.766  32.041  37.430  1.00  0.00     0.002 A 
ATOM     77  C   UNL A   1      39.246  33.846  36.782  1.00  0.00     0.091 A 
ATOM     78  F   UNL A   1      40.546  33.627  34.793  1.00  0.00    -0.205 F 
ATOM     79  C   UNL A   1      38.283  33.315  37.652  1.00  0.00     0.022 A 
BRANCH  77  80
ATOM     80  S   UNL A   1      39.949  35.444  37.204  1.00  0.00     0.127 S 
ATOM     81  O   UNL A   1      41.368  35.120  37.340  1.00  0.00    -0.237 OA
ATOM     82  O   UNL A   1      39.612  36.248  36.029  1.00  0.00    -0.237 OA
ATOM     83  O   UNL A   1      39.270  35.856  38.424  1.00  0.00    -0.744 OA
ENDBRANCH  77  80
ENDBRANCH  49  73
BRANCH  61  84
ATOM     84  C   UNL A   1      44.667  27.673  34.340  1.00  0.00     0.023 A 
ATOM     85  C   UNL A   1      45.846  28.444  34.346  1.00  0.00     0.012 A 
ATOM     86  C   UNL A   1      44.560  26.566  35.204  1.00  0.00     0.148 A 
ATOM     87  C   UNL A   1      46.914  28.098  35.173  1.00  0.00     0.002 A 
ATOM     88  C   UNL A   1      45.611  26.255  36.060  1.00  0.00     0.091 A 
ATOM     89  F   UNL A   1      43.437  25.833  35.172  1.00  0.00    -0.205 F 
ATOM     90  C   UNL A   1      46.793  27.013  36.037  1.00  0.00     0.022 A 
BRANCH  88  91
ATOM     91  S   UNL A   1      45.501  24.932  37.270  1.00  0.00     0.127 S 
ATOM     92  O   UNL A   1      44.284  25.290  37.995  1.00  0.00    -0.237 OA
ATOM     93  O   UNL A   1      45.380  23.743  36.426  1.00  0.00    -0.237 OA
ATOM     94  O   UNL A   1      46.736  24.996  38.042  1.00  0.00    -0.744 OA
ENDBRANCH  88  91
ENDBRANCH  61  84
ENDBRANCH  35  36
ENDBRANCH  28  30
ENDBRANCH  27  28
ENDBRANCH  26  27
ENDBRANCH   1  26
TORSDOF 19
ENDMDL
MODEL 3
REMARK VINA RESULT:     -11.7      4.906      9.966
REMARK SMILES CC(=O)N1CCC(C(=O)Nc2sccc2C(=O)OCCOCCOC(=O)c2ccc(-c3c4nc(c(-c5cccc(S(=O)(=O)[O-])c5F)c5ccc([nH]5)c(-c5cccc(S(=O)(=O)[O-])c5F)c5nc(c(-c6cccc(S(=O)(=O)[O-])c6F)c6ccc3[nH]6)C=C5)C=C4)cc2)CC1
REMARK SMILES IDX 22 1 21 2 20 3 19 4 18 5 16 6 17 7 15 8 11 9 12 10 13 11
REMARK SMILES IDX 14 12 10 13 8 14 9 15 7 17 1 18 2 19 3 20 4 21 5 22 91 23
REMARK SMILES IDX 6 24 90 25 23 26 24 27 25 28 26 29 27 30 28 31 89 32 29 33
REMARK SMILES IDX 88 34 30 35 31 36 32 37 82 38 33 39 87 40 81 41 83 42 34 43
REMARK SMILES IDX 86 44 80 45 79 46 35 48 67 49 47 50 66 51 48 52 51 53 65 54
REMARK SMILES IDX 84 55 49 56 50 57 64 59 85 60 52 61 36 62 37 63 45 64 38 65
REMARK SMILES IDX 40 66 46 67 39 68 41 69 42 70 43 71 44 72 68 73 69 74 77 75
REMARK SMILES IDX 70 76 72 77 78 78 71 79 73 80 74 81 75 82 76 83 53 84 54 85
REMARK SMILES IDX 62 86 55 87 57 88 63 89 56 90 58 91 59 92 60 93 61 94
REMARK H PARENT 10 16 83 47 51 58
REMARK Flexibility Score: inf
ROOT
ATOM      1  C   UNL A   1      38.697  21.178  25.706  1.00  0.00     0.202 C 
ENDROOT
BRANCH   1   2
ATOM      2  O   UNL A   1      37.710  21.294  24.692  1.00  0.00    -0.374 OA
BRANCH   2   3
ATOM      3  C   UNL A   1      37.012  22.520  24.542  1.00  0.00     0.202 C 
BRANCH   3   4
ATOM      4  C   UNL A   1      36.182  22.770  23.283  1.00  0.00     0.261 C 
BRANCH   4   5
ATOM      5  O   UNL A   1      35.218  23.837  23.343  1.00  0.00    -0.460 OA
BRANCH   5   6
ATOM      6  C   UNL A   1      34.044  23.581  22.691  1.00  0.00     0.341 C 
ATOM      7  O   UNL A   1      33.972  23.268  21.503  1.00  0.00    -0.246 OA
BRANCH   6   8
ATOM      8  C   UNL A   1      32.861  23.636  23.533  1.00  0.00     0.094 A 
ATOM      9  C   UNL A   1      32.688  23.111  24.800  1.00  0.00     0.110 A 
ATOM     10  S   UNL A   1      31.042  23.083  25.266  1.00  0.00    -0.126 S 
ATOM     11  C   UNL A   1      30.588  24.071  23.951  1.00  0.00     0.068 A 
ATOM     12  C   UNL A   1      31.645  24.276  23.093  1.00  0.00     0.029 A 
BRANCH   9  13
ATOM     13  N   UNL A   1      33.495  22.552  25.757  1.00  0.00    -0.317 N 
ATOM     14  C   UNL A   1      33.918  21.269  25.938  1.00  0.00     0.228 C 
ATOM     15  O   UNL A   1      34.610  21.058  26.942  1.00  0.00    -0.274 OA
ATOM     16  H   UNL A   1      33.828  23.189  26.431  1.00  0.00     0.170 HD
BRANCH  14  17
ATOM     17  C   UNL A   1      33.677  20.103  24.970  1.00  0.00     0.082 C 
ATOM     18  C   UNL A   1      32.394  15.281  25.642  1.00  0.00     0.114 C 
ATOM     19  C   UNL A   1      33.681  15.979  25.282  1.00  0.00     0.219 C 
ATOM     20  O   UNL A   1      34.748  15.385  25.450  1.00  0.00    -0.275 OA
ATOM     21  N   UNL A   1      33.602  17.237  24.705  1.00  0.00    -0.343 N 
ATOM     22  C   UNL A   1      34.812  17.882  24.220  1.00  0.00     0.120 C 
ATOM     23  C   UNL A   1      32.384  17.998  24.465  1.00  0.00     0.120 C 
ATOM     24  C   UNL A   1      34.959  19.322  24.700  1.00  0.00     0.035 C 
ATOM     25  C   UNL A   1      32.430  19.273  25.292  1.00  0.00     0.035 C 
ENDBRANCH  14  17
ENDBRANCH   9  13
ENDBRANCH   6   8
ENDBRANCH   5   6
ENDBRANCH   4   5
ENDBRANCH   3   4
ENDBRANCH   2   3
ENDBRANCH   1   2
BRANCH   1  26
ATOM     26  C   UNL A   1      39.626  19.956  25.732  1.00  0.00     0.261 C 
BRANCH  26  27
ATOM     27  O   UNL A   1      40.717  20.037  26.661  1.00  0.00    -0.460 OA
BRANCH  27  28
ATOM     28  C   UNL A   1      41.670  20.934  26.303  1.00  0.00     0.338 C 
ATOM     29  O   UNL A   1      42.538  20.783  25.458  1.00  0.00    -0.246 OA
BRANCH  28  30
ATOM     30  C   UNL A   1      41.457  22.232  26.965  1.00  0.00     0.060 A 
ATOM     31  C   UNL A   1      41.024  23.298  26.165  1.00  0.00     0.016 A 
ATOM     32  C   UNL A   1      41.858  22.447  28.284  1.00  0.00     0.016 A 
ATOM     33  C   UNL A   1      41.082  24.599  26.652  1.00  0.00     0.010 A 
ATOM     34  C   UNL A   1      41.925  23.758  28.769  1.00  0.00     0.010 A 
ATOM     35  C   UNL A   1      41.601  24.839  27.929  1.00  0.00    -0.014 A 
BRANCH  35  36
ATOM     36  C   UNL A   1      42.026  26.219  28.268  1.00  0.00     0.031 A 
ATOM     37  C   UNL A   1      43.418  26.655  27.885  1.00  0.00     0.074 A 
ATOM     38  C   UNL A   1      41.171  27.088  28.833  1.00  0.00     0.049 A 
ATOM     39  N   UNL A   1      43.986  27.824  28.018  1.00  0.00    -0.248 NA
ATOM     40  C   UNL A   1      44.283  25.637  27.263  1.00  0.00     0.031 C 
ATOM     41  C   UNL A   1      39.798  26.787  29.232  1.00  0.00     0.029 A 
ATOM     42  N   UNL A   1      41.341  28.407  29.172  1.00  0.00    -0.354 N 
ATOM     43  C   UNL A   1      45.274  27.680  27.513  1.00  0.00     0.074 A 
ATOM     44  C   UNL A   1      45.414  26.305  27.090  1.00  0.00     0.031 C 
ATOM     45  C   UNL A   1      39.252  27.887  29.779  1.00  0.00     0.029 A 
ATOM     46  C   UNL A   1      40.241  28.965  29.778  1.00  0.00     0.049 A 
ATOM     47  H   UNL A   1      42.172  28.905  29.000  1.00  0.00     0.167 HD
ATOM     48  C   UNL A   1      46.246  28.614  27.386  1.00  0.00     0.034 A 
ATOM     49  C   UNL A   1      40.058  30.204  30.276  1.00  0.00     0.034 A 
ATOM     50  C   UNL A   1      46.097  29.987  27.781  1.00  0.00     0.049 A 
ATOM     51  C   UNL A   1      41.167  31.217  30.143  1.00  0.00     0.074 A 
ATOM     52  C   UNL A   1      47.012  31.018  27.671  1.00  0.00     0.029 A 
ATOM     53  N   UNL A   1      44.960  30.521  28.365  1.00  0.00    -0.354 N 
ATOM     54  N   UNL A   1      42.336  31.095  29.560  1.00  0.00    -0.248 NA
ATOM     55  C   UNL A   1      40.918  32.552  30.708  1.00  0.00     0.031 C 
ATOM     56  C   UNL A   1      46.432  32.175  28.202  1.00  0.00     0.029 A 
ATOM     57  C   UNL A   1      45.150  31.866  28.629  1.00  0.00     0.049 A 
ATOM     58  H   UNL A   1      44.137  30.017  28.564  1.00  0.00     0.167 HD
ATOM     59  C   UNL A   1      42.945  32.341  29.658  1.00  0.00     0.074 A 
ATOM     60  C   UNL A   1      42.005  33.212  30.332  1.00  0.00     0.031 C 
ATOM     61  C   UNL A   1      44.179  32.729  29.248  1.00  0.00     0.034 A 
BRANCH  48  62
ATOM     62  C   UNL A   1      47.544  28.188  26.753  1.00  0.00     0.023 A 
ATOM     63  C   UNL A   1      48.662  27.934  27.573  1.00  0.00     0.012 A 
ATOM     64  C   UNL A   1      47.644  27.987  25.363  1.00  0.00     0.148 A 
ATOM     65  C   UNL A   1      49.868  27.509  27.016  1.00  0.00     0.002 A 
ATOM     66  C   UNL A   1      48.839  27.528  24.820  1.00  0.00     0.091 A 
ATOM     67  F   UNL A   1      46.576  28.259  24.599  1.00  0.00    -0.205 F 
ATOM     68  C   UNL A   1      49.954  27.296  25.644  1.00  0.00     0.022 A 
BRANCH  66  69
ATOM     69  S   UNL A   1      49.032  27.159  23.072  1.00  0.00     0.127 S 
ATOM     70  O   UNL A   1      48.506  28.375  22.453  1.00  0.00    -0.237 OA
ATOM     71  O   UNL A   1      50.481  26.992  22.950  1.00  0.00    -0.237 OA
ATOM     72  O   UNL A   1      48.258  25.950  22.828  1.00  0.00    -0.744 OA
ENDBRANCH  66  69
ENDBRANCH  48  62
BRANCH  49  73
ATOM     73  C   UNL A   1      38.760  30.576  30.905  1.00  0.00     0.023 A 
ATOM     74  C   UNL A   1      38.508  30.219  32.244  1.00  0.00     0.012 A 
ATOM     75  C   UNL A   1      37.774  31.277  30.185  1.00  0.00     0.148 A 
ATOM     76  C   UNL A   1      37.285  30.522  32.844  1.00  0.00     0.002 A 
ATOM     77  C   UNL A   1      36.577  31.624  30.805  1.00  0.00     0.091 A 
ATOM     78  F   UNL A   1      38.019  31.588  28.904  1.00  0.00    -0.205 F 
ATOM     79  C   UNL A   1      36.325  31.233  32.128  1.00  0.00     0.022 A 
BRANCH  77  80
ATOM     80  S   UNL A   1      35.340  32.641  29.992  1.00  0.00     0.127 S 
ATOM     81  O   UNL A   1      36.105  33.844  29.671  1.00  0.00    -0.237 OA
ATOM     82  O   UNL A   1      34.976  31.817  28.839  1.00  0.00    -0.237 OA
ATOM     83  O   UNL A   1      34.272  32.806  30.969  1.00  0.00    -0.744 OA
ENDBRANCH  77  80
ENDBRANCH  49  73
BRANCH  61  84
ATOM     84  C   UNL A   1      44.578  34.161  29.495  1.00  0.00     0.023 A 
ATOM     85  C   UNL A   1      45.153  34.518  30.729  1.00  0.00     0.012 A 
ATOM     86  C   UNL A   1      44.448  35.133  28.483  1.00  0.00     0.148 A 
ATOM     87  C   UNL A   1      45.563  35.830  30.966  1.00  0.00     0.002 A 
ATOM     88  C   UNL A   1      44.901  36.427  28.710  1.00  0.00     0.091 A 
ATOM     89  F   UNL A   1      43.881  34.778  27.321  1.00  0.00    -0.205 F 
ATOM     90  C   UNL A   1      45.448  36.780  29.955  1.00  0.00     0.022 A 
BRANCH  88  91
ATOM     91  S   UNL A   1      44.877  37.688  27.431  1.00  0.00     0.127 S 
ATOM     92  O   UNL A   1      45.337  38.866  28.163  1.00  0.00    -0.237 OA
ATOM     93  O   UNL A   1      45.835  37.165  26.456  1.00  0.00    -0.237 OA
ATOM     94  O   UNL A   1      43.502  37.742  26.952  1.00  0.00    -0.744 OA
ENDBRANCH  88  91
ENDBRANCH  61  84
ENDBRANCH  35  36
ENDBRANCH  28  30
ENDBRANCH  27  28
ENDBRANCH  26  27
ENDBRANCH   1  26
TORSDOF 19
ENDMDL
