MODEL 1
REMARK VINA RESULT:     -10.5      0.000      0.000
REMARK SMILES O=C(OCCOCCOC(=O)[C@H]1CC2(CC[NH+](C(=O)C3CC3)CC2)CN1C(=O)CCn1cccn1)c1ccc(-c2c3nc(c(-c4cccc(S(=O)(=O)[O-])c4F)c4ccc([nH]4)c(-c4cccc(S(=O)(=O)[O-])c4F)c4nc(c(-c5cccc(S(=O)(=O)[O-])c5F)c5ccc2[nH]5)C=C4)C=C3)cc1
REMARK SMILES IDX 7 1 6 2 5 3 4 4 3 5 2 6 1 7 36 8 37 9 98 10 38 11 97 12
REMARK SMILES IDX 39 13 40 14 41 15 91 16 42 17 96 18 90 19 92 20 43 21 95 22
REMARK SMILES IDX 89 23 88 24 44 26 76 27 56 28 75 29 57 30 60 31 74 32 93 33
REMARK SMILES IDX 58 34 59 35 73 37 94 38 61 39 45 40 46 41 54 42 47 43 49 44
REMARK SMILES IDX 55 45 48 46 50 47 51 48 52 49 53 50 77 51 78 52 86 53 79 54
REMARK SMILES IDX 81 55 87 56 80 57 82 58 83 59 84 60 85 61 62 62 63 63 71 64
REMARK SMILES IDX 64 65 66 66 72 67 65 68 67 69 68 70 69 71 70 72 8 73 9 74
REMARK SMILES IDX 10 75 11 76 12 77 13 78 26 79 14 80 25 81 15 82 24 83 16 84
REMARK SMILES IDX 23 85 17 86 27 88 28 89 29 90 30 91 31 92 32 93 35 94 33 95
REMARK SMILES IDX 34 96 18 97 19 98 20 99 21 100 22 101
REMARK H PARENT 92 25 60 36 17 87
REMARK Flexibility Score: inf
ROOT
ATOM      1  C   UNL A   1      34.385  22.944  23.542  1.00  0.00     0.202 C 
ENDROOT
BRANCH   1   2
ATOM      2  O   UNL A   1      35.702  22.934  22.971  1.00  0.00    -0.374 OA
BRANCH   2   3
ATOM      3  C   UNL A   1      36.932  22.782  23.672  1.00  0.00     0.202 C 
BRANCH   3   4
ATOM      4  C   UNL A   1      37.408  21.497  24.415  1.00  0.00     0.261 C 
BRANCH   4   5
ATOM      5  O   UNL A   1      38.121  21.596  25.661  1.00  0.00    -0.460 OA
BRANCH   5   6
ATOM      6  C   UNL A   1      38.837  22.652  26.121  1.00  0.00     0.338 C 
ATOM      7  O   UNL A   1      38.273  23.702  26.415  1.00  0.00    -0.246 OA
BRANCH   6   8
ATOM      8  C   UNL A   1      40.260  22.417  26.476  1.00  0.00     0.060 A 
ATOM      9  C   UNL A   1      40.544  22.266  27.819  1.00  0.00     0.016 A 
ATOM     10  C   UNL A   1      41.096  23.207  25.693  1.00  0.00     0.016 A 
ATOM     11  C   UNL A   1      40.981  23.376  28.468  1.00  0.00     0.010 A 
ATOM     12  C   UNL A   1      41.854  24.157  26.333  1.00  0.00     0.010 A 
ATOM     13  C   UNL A   1      41.670  24.312  27.708  1.00  0.00    -0.014 A 
BRANCH  13  14
ATOM     14  C   UNL A   1      42.465  25.222  28.498  1.00  0.00     0.031 A 
ATOM     15  C   UNL A   1      41.795  26.559  28.625  1.00  0.00     0.074 A 
ATOM     16  C   UNL A   1      43.572  24.796  29.119  1.00  0.00     0.049 A 
ATOM     17  N   UNL A   1      42.263  27.735  28.348  1.00  0.00    -0.248 NA
ATOM     18  C   UNL A   1      40.325  26.539  28.823  1.00  0.00     0.031 C 
ATOM     19  C   UNL A   1      44.083  23.427  29.218  1.00  0.00     0.029 A 
ATOM     20  N   UNL A   1      44.323  25.481  30.009  1.00  0.00    -0.354 N 
ATOM     21  C   UNL A   1      41.189  28.603  28.551  1.00  0.00     0.074 A 
ATOM     22  C   UNL A   1      40.001  27.804  28.575  1.00  0.00     0.031 C 
ATOM     23  C   UNL A   1      44.794  23.328  30.362  1.00  0.00     0.029 A 
ATOM     24  C   UNL A   1      44.863  24.644  30.974  1.00  0.00     0.049 A 
ATOM     25  H   UNL A   1      44.467  26.455  29.977  1.00  0.00     0.167 HD
ATOM     26  C   UNL A   1      41.361  29.879  28.985  1.00  0.00     0.034 A 
ATOM     27  C   UNL A   1      45.132  25.009  32.248  1.00  0.00     0.034 A 
ATOM     28  C   UNL A   1      42.683  30.362  28.704  1.00  0.00     0.049 A 
ATOM     29  C   UNL A   1      45.164  26.497  32.291  1.00  0.00     0.074 A 
ATOM     30  C   UNL A   1      43.413  30.568  27.550  1.00  0.00     0.029 A 
ATOM     31  N   UNL A   1      43.594  30.336  29.732  1.00  0.00    -0.354 N 
ATOM     32  N   UNL A   1      46.028  27.218  31.628  1.00  0.00    -0.248 NA
ATOM     33  C   UNL A   1      43.948  27.197  32.684  1.00  0.00     0.031 C 
ATOM     34  C   UNL A   1      44.740  30.171  27.885  1.00  0.00     0.029 A 
ATOM     35  C   UNL A   1      44.747  29.790  29.230  1.00  0.00     0.049 A 
ATOM     36  H   UNL A   1      43.446  30.649  30.653  1.00  0.00     0.167 HD
ATOM     37  C   UNL A   1      45.304  28.311  31.161  1.00  0.00     0.074 A 
ATOM     38  C   UNL A   1      44.060  28.296  31.930  1.00  0.00     0.031 C 
ATOM     39  C   UNL A   1      45.638  28.946  29.995  1.00  0.00     0.034 A 
BRANCH  26  40
ATOM     40  C   UNL A   1      40.459  30.523  30.013  1.00  0.00     0.023 A 
ATOM     41  C   UNL A   1      40.227  31.909  29.895  1.00  0.00     0.012 A 
ATOM     42  C   UNL A   1      40.063  29.911  31.229  1.00  0.00     0.148 A 
ATOM     43  C   UNL A   1      39.689  32.651  30.953  1.00  0.00     0.002 A 
ATOM     44  C   UNL A   1      39.454  30.637  32.243  1.00  0.00     0.091 A 
ATOM     45  F   UNL A   1      40.397  28.647  31.495  1.00  0.00    -0.205 F 
ATOM     46  C   UNL A   1      39.297  32.015  32.126  1.00  0.00     0.022 A 
BRANCH  44  47
ATOM     47  S   UNL A   1      38.901  29.818  33.746  1.00  0.00     0.127 S 
ATOM     48  O   UNL A   1      38.626  30.971  34.614  1.00  0.00    -0.237 OA
ATOM     49  O   UNL A   1      37.703  29.111  33.275  1.00  0.00    -0.237 OA
ATOM     50  O   UNL A   1      39.984  28.954  34.142  1.00  0.00    -0.744 OA
ENDBRANCH  44  47
ENDBRANCH  26  40
BRANCH  27  51
ATOM     51  C   UNL A   1      44.963  24.159  33.448  1.00  0.00     0.023 A 
ATOM     52  C   UNL A   1      43.976  23.161  33.457  1.00  0.00     0.012 A 
ATOM     53  C   UNL A   1      45.891  24.194  34.518  1.00  0.00     0.148 A 
ATOM     54  C   UNL A   1      43.907  22.232  34.503  1.00  0.00     0.002 A 
ATOM     55  C   UNL A   1      45.799  23.289  35.570  1.00  0.00     0.091 A 
ATOM     56  F   UNL A   1      46.914  25.057  34.466  1.00  0.00    -0.205 F 
ATOM     57  C   UNL A   1      44.812  22.299  35.561  1.00  0.00     0.022 A 
BRANCH  55  58
ATOM     58  S   UNL A   1      46.922  23.339  36.975  1.00  0.00     0.127 S 
ATOM     59  O   UNL A   1      46.215  22.513  37.956  1.00  0.00    -0.237 OA
ATOM     60  O   UNL A   1      48.128  22.732  36.421  1.00  0.00    -0.237 OA
ATOM     61  O   UNL A   1      47.030  24.744  37.348  1.00  0.00    -0.744 OA
ENDBRANCH  55  58
ENDBRANCH  27  51
BRANCH  39  62
ATOM     62  C   UNL A   1      46.906  28.518  29.290  1.00  0.00     0.023 A 
ATOM     63  C   UNL A   1      48.173  28.989  29.699  1.00  0.00     0.012 A 
ATOM     64  C   UNL A   1      46.849  27.473  28.355  1.00  0.00     0.148 A 
ATOM     65  C   UNL A   1      49.352  28.460  29.167  1.00  0.00     0.002 A 
ATOM     66  C   UNL A   1      48.025  26.917  27.861  1.00  0.00     0.091 A 
ATOM     67  F   UNL A   1      45.643  27.011  27.993  1.00  0.00    -0.205 F 
ATOM     68  C   UNL A   1      49.278  27.415  28.256  1.00  0.00     0.022 A 
BRANCH  66  69
ATOM     69  S   UNL A   1      48.009  25.474  26.795  1.00  0.00     0.127 S 
ATOM     70  O   UNL A   1      47.031  25.856  25.779  1.00  0.00    -0.237 OA
ATOM     71  O   UNL A   1      49.394  25.416  26.322  1.00  0.00    -0.237 OA
ATOM     72  O   UNL A   1      47.627  24.354  27.647  1.00  0.00    -0.744 OA
ENDBRANCH  66  69
ENDBRANCH  39  62
ENDBRANCH  13  14
ENDBRANCH   6   8
ENDBRANCH   5   6
ENDBRANCH   4   5
ENDBRANCH   3   4
ENDBRANCH   2   3
ENDBRANCH   1   2
BRANCH   1  73
ATOM     73  C   UNL A   1      33.127  23.485  22.783  1.00  0.00     0.261 C 
BRANCH  73  74
ATOM     74  O   UNL A   1      33.446  24.543  21.804  1.00  0.00    -0.462 OA
BRANCH  74  75
ATOM     75  C   UNL A   1      33.284  25.855  22.162  1.00  0.00     0.328 C 
ATOM     76  O   UNL A   1      33.495  26.783  21.376  1.00  0.00    -0.250 OA
BRANCH  75  77
ATOM     77  C   UNL A   1      32.758  26.150  23.666  1.00  0.00     0.195 C 
ATOM     78  C   UNL A   1      33.627  27.221  24.426  1.00  0.00     0.046 C 
ATOM     79  N   UNL A   1      31.466  26.333  24.372  1.00  0.00    -0.328 N 
ATOM     80  C   UNL A   1      32.821  27.733  25.679  1.00  0.00     0.001 C 
ATOM     81  C   UNL A   1      31.722  26.667  25.771  1.00  0.00     0.128 C 
ATOM     82  C   UNL A   1      32.108  29.124  25.642  1.00  0.00     0.071 C 
ATOM     83  C   UNL A   1      33.747  27.802  26.901  1.00  0.00     0.071 C 
ATOM     84  C   UNL A   1      32.997  30.375  25.728  1.00  0.00     0.270 C 
ATOM     85  C   UNL A   1      34.709  28.995  26.783  1.00  0.00     0.270 C 
ATOM     86  N   UNL A   1      33.983  30.268  26.791  1.00  0.00    -0.272 N 
ATOM     87  H   UNL A   1      33.599  29.638  26.140  1.00  0.00     0.356 HD
BRANCH  79  88
ATOM     88  C   UNL A   1      30.184  26.480  23.921  1.00  0.00     0.225 C 
ATOM     89  O   UNL A   1      29.224  25.925  24.457  1.00  0.00    -0.275 OA
BRANCH  88  90
ATOM     90  C   UNL A   1      29.955  27.403  22.796  1.00  0.00     0.124 C 
BRANCH  90  91
ATOM     91  C   UNL A   1      28.673  28.208  22.987  1.00  0.00     0.154 C 
BRANCH  91  92
ATOM     92  N   UNL A   1      28.521  29.655  23.085  1.00  0.00    -0.272 N 
ATOM     93  C   UNL A   1      29.508  30.567  23.389  1.00  0.00     0.108 A 
ATOM     94  N   UNL A   1      27.321  30.203  23.332  1.00  0.00    -0.182 NA
ATOM     95  C   UNL A   1      28.889  31.746  23.751  1.00  0.00     0.042 A 
ATOM     96  C   UNL A   1      27.527  31.470  23.672  1.00  0.00     0.135 A 
ENDBRANCH  91  92
ENDBRANCH  90  91
ENDBRANCH  88  90
ENDBRANCH  79  88
BRANCH  86  97
ATOM     97  C   UNL A   1      34.427  31.262  27.670  1.00  0.00     0.315 C 
ATOM     98  O   UNL A   1      33.610  31.937  28.299  1.00  0.00    -0.231 OA
BRANCH  97  99
ATOM     99  C   UNL A   1      35.856  31.638  27.923  1.00  0.00     0.119 C 
ATOM    100  C   UNL A   1      36.520  32.291  29.100  1.00  0.00     0.019 C 
ATOM    101  C   UNL A   1      36.749  30.827  28.828  1.00  0.00     0.019 C 
ENDBRANCH  97  99
ENDBRANCH  86  97
ENDBRANCH  75  77
ENDBRANCH  74  75
ENDBRANCH  73  74
ENDBRANCH   1  73
TORSDOF 23
ENDMDL
MODEL 2
REMARK VINA RESULT:     -10.3      3.411      8.080
REMARK SMILES O=C(OCCOCCOC(=O)[C@H]1CC2(CC[NH+](C(=O)C3CC3)CC2)CN1C(=O)CCn1cccn1)c1ccc(-c2c3nc(c(-c4cccc(S(=O)(=O)[O-])c4F)c4ccc([nH]4)c(-c4cccc(S(=O)(=O)[O-])c4F)c4nc(c(-c5cccc(S(=O)(=O)[O-])c5F)c5ccc2[nH]5)C=C4)C=C3)cc1
REMARK SMILES IDX 7 1 6 2 5 3 4 4 3 5 2 6 1 7 36 8 37 9 98 10 38 11 97 12
REMARK SMILES IDX 39 13 40 14 41 15 91 16 42 17 96 18 90 19 92 20 43 21 95 22
REMARK SMILES IDX 89 23 88 24 44 26 76 27 56 28 75 29 57 30 60 31 74 32 93 33
REMARK SMILES IDX 58 34 59 35 73 37 94 38 61 39 45 40 46 41 54 42 47 43 49 44
REMARK SMILES IDX 55 45 48 46 50 47 51 48 52 49 53 50 77 51 78 52 86 53 79 54
REMARK SMILES IDX 81 55 87 56 80 57 82 58 83 59 84 60 85 61 62 62 63 63 71 64
REMARK SMILES IDX 64 65 66 66 72 67 65 68 67 69 68 70 69 71 70 72 8 73 9 74
REMARK SMILES IDX 10 75 11 76 12 77 13 78 26 79 14 80 25 81 15 82 24 83 16 84
REMARK SMILES IDX 23 85 17 86 27 88 28 89 29 90 30 91 31 92 32 93 35 94 33 95
REMARK SMILES IDX 34 96 18 97 19 98 20 99 21 100 22 101
REMARK H PARENT 92 25 60 36 17 87
REMARK Flexibility Score: inf
ROOT
ATOM      1  C   UNL A   1      38.901  23.848  26.810  1.00  0.00     0.202 C 
ENDROOT
BRANCH   1   2
ATOM      2  O   UNL A   1      39.898  23.177  27.592  1.00  0.00    -0.374 OA
BRANCH   2   3
ATOM      3  C   UNL A   1      40.349  21.836  27.429  1.00  0.00     0.202 C 
BRANCH   3   4
ATOM      4  C   UNL A   1      41.147  21.282  26.211  1.00  0.00     0.261 C 
BRANCH   4   5
ATOM      5  O   UNL A   1      42.041  22.136  25.474  1.00  0.00    -0.460 OA
BRANCH   5   6
ATOM      6  C   UNL A   1      43.387  22.017  25.356  1.00  0.00     0.338 C 
ATOM      7  O   UNL A   1      43.897  20.914  25.183  1.00  0.00    -0.246 OA
BRANCH   6   8
ATOM      8  C   UNL A   1      44.179  23.263  25.204  1.00  0.00     0.060 A 
ATOM      9  C   UNL A   1      45.143  23.503  26.163  1.00  0.00     0.016 A 
ATOM     10  C   UNL A   1      43.363  24.312  24.788  1.00  0.00     0.016 A 
ATOM     11  C   UNL A   1      44.785  24.328  27.180  1.00  0.00     0.010 A 
ATOM     12  C   UNL A   1      43.216  25.378  25.642  1.00  0.00     0.010 A 
ATOM     13  C   UNL A   1      43.828  25.293  26.894  1.00  0.00    -0.014 A 
BRANCH  13  14
ATOM     14  C   UNL A   1      43.808  26.382  27.841  1.00  0.00     0.031 A 
ATOM     15  C   UNL A   1      44.986  27.291  27.649  1.00  0.00     0.074 A 
ATOM     16  C   UNL A   1      42.757  26.560  28.652  1.00  0.00     0.049 A 
ATOM     17  N   UNL A   1      45.868  27.677  28.516  1.00  0.00    -0.248 NA
ATOM     18  C   UNL A   1      45.374  27.573  26.245  1.00  0.00     0.031 C 
ATOM     19  C   UNL A   1      41.486  25.834  28.657  1.00  0.00     0.029 A 
ATOM     20  N   UNL A   1      42.527  27.611  29.470  1.00  0.00    -0.354 N 
ATOM     21  C   UNL A   1      46.790  28.423  27.779  1.00  0.00     0.074 A 
ATOM     22  C   UNL A   1      46.583  28.102  26.399  1.00  0.00     0.031 C 
ATOM     23  C   UNL A   1      40.534  26.660  29.141  1.00  0.00     0.029 A 
ATOM     24  C   UNL A   1      41.173  27.893  29.570  1.00  0.00     0.049 A 
ATOM     25  H   UNL A   1      43.233  28.114  29.935  1.00  0.00     0.167 HD
ATOM     26  C   UNL A   1      47.460  29.478  28.312  1.00  0.00     0.034 A 
ATOM     27  C   UNL A   1      40.655  29.125  29.782  1.00  0.00     0.034 A 
ATOM     28  C   UNL A   1      47.521  29.399  29.744  1.00  0.00     0.049 A 
ATOM     29  C   UNL A   1      41.750  29.987  30.305  1.00  0.00     0.074 A 
ATOM     30  C   UNL A   1      48.057  28.497  30.641  1.00  0.00     0.029 A 
ATOM     31  N   UNL A   1      46.619  30.153  30.454  1.00  0.00    -0.354 N 
ATOM     32  N   UNL A   1      42.361  29.766  31.438  1.00  0.00    -0.248 NA
ATOM     33  C   UNL A   1      42.489  30.808  29.355  1.00  0.00     0.031 C 
ATOM     34  C   UNL A   1      47.110  28.436  31.704  1.00  0.00     0.029 A 
ATOM     35  C   UNL A   1      46.079  29.333  31.411  1.00  0.00     0.049 A 
ATOM     36  H   UNL A   1      46.402  31.101  30.304  1.00  0.00     0.167 HD
ATOM     37  C   UNL A   1      43.700  30.053  31.189  1.00  0.00     0.074 A 
ATOM     38  C   UNL A   1      43.699  30.789  29.924  1.00  0.00     0.031 C 
ATOM     39  C   UNL A   1      44.707  29.416  31.862  1.00  0.00     0.034 A 
BRANCH  26  40
ATOM     40  C   UNL A   1      47.698  30.765  27.556  1.00  0.00     0.023 A 
ATOM     41  C   UNL A   1      48.997  31.310  27.596  1.00  0.00     0.012 A 
ATOM     42  C   UNL A   1      46.670  31.601  27.053  1.00  0.00     0.148 A 
ATOM     43  C   UNL A   1      49.244  32.635  27.216  1.00  0.00     0.002 A 
ATOM     44  C   UNL A   1      46.935  32.886  26.600  1.00  0.00     0.091 A 
ATOM     45  F   UNL A   1      45.390  31.233  27.136  1.00  0.00    -0.205 F 
ATOM     46  C   UNL A   1      48.214  33.422  26.712  1.00  0.00     0.022 A 
BRANCH  44  47
ATOM     47  S   UNL A   1      45.621  33.897  25.903  1.00  0.00     0.127 S 
ATOM     48  O   UNL A   1      44.836  34.211  27.103  1.00  0.00    -0.237 OA
ATOM     49  O   UNL A   1      46.378  35.031  25.355  1.00  0.00    -0.237 OA
ATOM     50  O   UNL A   1      44.981  33.074  24.907  1.00  0.00    -0.744 OA
ENDBRANCH  44  47
ENDBRANCH  26  40
BRANCH  27  51
ATOM     51  C   UNL A   1      39.409  29.656  29.185  1.00  0.00     0.023 A 
ATOM     52  C   UNL A   1      39.039  29.266  27.889  1.00  0.00     0.012 A 
ATOM     53  C   UNL A   1      38.478  30.398  29.953  1.00  0.00     0.148 A 
ATOM     54  C   UNL A   1      37.787  29.612  27.367  1.00  0.00     0.002 A 
ATOM     55  C   UNL A   1      37.248  30.766  29.419  1.00  0.00     0.091 A 
ATOM     56  F   UNL A   1      38.760  30.672  31.234  1.00  0.00    -0.205 F 
ATOM     57  C   UNL A   1      36.895  30.366  28.127  1.00  0.00     0.022 A 
BRANCH  55  58
ATOM     58  S   UNL A   1      36.063  31.759  30.342  1.00  0.00     0.127 S 
ATOM     59  O   UNL A   1      36.806  33.004  30.547  1.00  0.00    -0.237 OA
ATOM     60  O   UNL A   1      34.952  31.857  29.400  1.00  0.00    -0.237 OA
ATOM     61  O   UNL A   1      35.794  31.017  31.567  1.00  0.00    -0.744 OA
ENDBRANCH  55  58
ENDBRANCH  27  51
BRANCH  39  62
ATOM     62  C   UNL A   1      44.328  28.483  32.992  1.00  0.00     0.023 A 
ATOM     63  C   UNL A   1      44.139  27.101  32.775  1.00  0.00     0.012 A 
ATOM     64  C   UNL A   1      44.376  28.955  34.312  1.00  0.00     0.148 A 
ATOM     65  C   UNL A   1      43.965  26.215  33.841  1.00  0.00     0.002 A 
ATOM     66  C   UNL A   1      44.249  28.064  35.374  1.00  0.00     0.091 A 
ATOM     67  F   UNL A   1      44.585  30.265  34.511  1.00  0.00    -0.205 F 
ATOM     68  C   UNL A   1      44.032  26.695  35.143  1.00  0.00     0.022 A 
BRANCH  66  69
ATOM     69  S   UNL A   1      44.467  28.589  37.075  1.00  0.00     0.127 S 
ATOM     70  O   UNL A   1      43.996  27.423  37.818  1.00  0.00    -0.237 OA
ATOM     71  O   UNL A   1      45.912  28.821  37.150  1.00  0.00    -0.237 OA
ATOM     72  O   UNL A   1      43.665  29.798  37.225  1.00  0.00    -0.744 OA
ENDBRANCH  66  69
ENDBRANCH  39  62
ENDBRANCH  13  14
ENDBRANCH   6   8
ENDBRANCH   5   6
ENDBRANCH   4   5
ENDBRANCH   3   4
ENDBRANCH   2   3
ENDBRANCH   1   2
BRANCH   1  73
ATOM     73  C   UNL A   1      37.943  23.102  25.821  1.00  0.00     0.261 C 
BRANCH  73  74
ATOM     74  O   UNL A   1      36.578  23.662  25.794  1.00  0.00    -0.462 OA
BRANCH  74  75
ATOM     75  C   UNL A   1      35.554  22.905  25.289  1.00  0.00     0.328 C 
ATOM     76  O   UNL A   1      35.756  21.892  24.615  1.00  0.00    -0.250 OA
BRANCH  75  77
ATOM     77  C   UNL A   1      34.044  23.373  25.646  1.00  0.00     0.195 C 
ATOM     78  C   UNL A   1      33.852  24.935  25.590  1.00  0.00     0.046 C 
ATOM     79  N   UNL A   1      32.654  22.941  25.362  1.00  0.00    -0.328 N 
ATOM     80  C   UNL A   1      32.310  25.256  25.541  1.00  0.00     0.001 C 
ATOM     81  C   UNL A   1      31.720  23.899  25.949  1.00  0.00     0.128 C 
ATOM     82  C   UNL A   1      31.634  25.663  24.191  1.00  0.00     0.071 C 
ATOM     83  C   UNL A   1      31.987  26.407  26.502  1.00  0.00     0.071 C 
ATOM     84  C   UNL A   1      31.923  27.073  23.655  1.00  0.00     0.270 C 
ATOM     85  C   UNL A   1      32.486  27.744  25.931  1.00  0.00     0.270 C 
ATOM     86  N   UNL A   1      31.787  28.086  24.688  1.00  0.00    -0.272 N 
ATOM     87  H   UNL A   1      32.135  27.166  24.666  1.00  0.00     0.356 HD
BRANCH  79  88
ATOM     88  C   UNL A   1      32.136  22.015  24.500  1.00  0.00     0.225 C 
ATOM     89  O   UNL A   1      31.742  22.307  23.370  1.00  0.00    -0.275 OA
BRANCH  88  90
ATOM     90  C   UNL A   1      32.128  20.607  24.931  1.00  0.00     0.124 C 
BRANCH  90  91
ATOM     91  C   UNL A   1      32.369  19.663  23.758  1.00  0.00     0.154 C 
BRANCH  91  92
ATOM     92  N   UNL A   1      33.310  18.553  23.669  1.00  0.00    -0.272 N 
ATOM     93  C   UNL A   1      33.072  17.314  23.114  1.00  0.00     0.108 A 
ATOM     94  N   UNL A   1      34.349  18.466  24.514  1.00  0.00    -0.182 NA
ATOM     95  C   UNL A   1      34.055  16.458  23.567  1.00  0.00     0.042 A 
ATOM     96  C   UNL A   1      34.839  17.235  24.415  1.00  0.00     0.135 A 
ENDBRANCH  91  92
ENDBRANCH  90  91
ENDBRANCH  88  90
ENDBRANCH  79  88
BRANCH  86  97
ATOM     97  C   UNL A   1      31.246  29.372  24.583  1.00  0.00     0.315 C 
ATOM     98  O   UNL A   1      31.504  30.220  25.439  1.00  0.00    -0.231 OA
BRANCH  97  99
ATOM     99  C   UNL A   1      30.316  29.850  23.509  1.00  0.00     0.119 C 
ATOM    100  C   UNL A   1      29.832  29.197  22.248  1.00  0.00     0.019 C 
ATOM    101  C   UNL A   1      28.891  29.367  23.412  1.00  0.00     0.019 C 
ENDBRANCH  97  99
ENDBRANCH  86  97
ENDBRANCH  75  77
ENDBRANCH  74  75
ENDBRANCH  73  74
ENDBRANCH   1  73
TORSDOF 23
ENDMDL
MODEL 3
REMARK VINA RESULT:     -10.1      1.687      2.116
REMARK SMILES O=C(OCCOCCOC(=O)[C@H]1CC2(CC[NH+](C(=O)C3CC3)CC2)CN1C(=O)CCn1cccn1)c1ccc(-c2c3nc(c(-c4cccc(S(=O)(=O)[O-])c4F)c4ccc([nH]4)c(-c4cccc(S(=O)(=O)[O-])c4F)c4nc(c(-c5cccc(S(=O)(=O)[O-])c5F)c5ccc2[nH]5)C=C4)C=C3)cc1
REMARK SMILES IDX 7 1 6 2 5 3 4 4 3 5 2 6 1 7 36 8 37 9 98 10 38 11 97 12
REMARK SMILES IDX 39 13 40 14 41 15 91 16 42 17 96 18 90 19 92 20 43 21 95 22
REMARK SMILES IDX 89 23 88 24 44 26 76 27 56 28 75 29 57 30 60 31 74 32 93 33
REMARK SMILES IDX 58 34 59 35 73 37 94 38 61 39 45 40 46 41 54 42 47 43 49 44
REMARK SMILES IDX 55 45 48 46 50 47 51 48 52 49 53 50 77 51 78 52 86 53 79 54
REMARK SMILES IDX 81 55 87 56 80 57 82 58 83 59 84 60 85 61 62 62 63 63 71 64
REMARK SMILES IDX 64 65 66 66 72 67 65 68 67 69 68 70 69 71 70 72 8 73 9 74
REMARK SMILES IDX 10 75 11 76 12 77 13 78 26 79 14 80 25 81 15 82 24 83 16 84
REMARK SMILES IDX 23 85 17 86 27 88 28 89 29 90 30 91 31 92 32 93 35 94 33 95
REMARK SMILES IDX 34 96 18 97 19 98 20 99 21 100 22 101
REMARK H PARENT 92 25 60 36 17 87
REMARK Flexibility Score: inf
ROOT
ATOM      1  C   UNL A   1      34.390  22.923  24.425  1.00  0.00     0.202 C 
ENDROOT
BRANCH   1   2
ATOM      2  O   UNL A   1      35.621  22.251  24.123  1.00  0.00    -0.374 OA
BRANCH   2   3
ATOM      3  C   UNL A   1      36.918  22.592  24.603  1.00  0.00     0.202 C 
BRANCH   3   4
ATOM      4  C   UNL A   1      37.769  21.757  25.608  1.00  0.00     0.261 C 
BRANCH   4   5
ATOM      5  O   UNL A   1      38.727  22.404  26.465  1.00  0.00    -0.460 OA
BRANCH   5   6
ATOM      6  C   UNL A   1      39.038  23.723  26.510  1.00  0.00     0.338 C 
ATOM      7  O   UNL A   1      38.182  24.551  26.809  1.00  0.00    -0.246 OA
BRANCH   6   8
ATOM      8  C   UNL A   1      40.472  24.096  26.421  1.00  0.00     0.060 A 
ATOM      9  C   UNL A   1      41.302  23.595  27.405  1.00  0.00     0.016 A 
ATOM     10  C   UNL A   1      40.608  25.427  26.035  1.00  0.00     0.016 A 
ATOM     11  C   UNL A   1      41.563  24.423  28.448  1.00  0.00     0.010 A 
ATOM     12  C   UNL A   1      41.193  26.290  26.929  1.00  0.00     0.010 A 
ATOM     13  C   UNL A   1      41.534  25.786  28.186  1.00  0.00    -0.014 A 
BRANCH  13  14
ATOM     14  C   UNL A   1      42.224  26.578  29.176  1.00  0.00     0.031 A 
ATOM     15  C   UNL A   1      41.394  27.752  29.607  1.00  0.00     0.074 A 
ATOM     16  C   UNL A   1      43.387  26.162  29.691  1.00  0.00     0.049 A 
ATOM     17  N   UNL A   1      41.706  29.010  29.620  1.00  0.00    -0.248 NA
ATOM     18  C   UNL A   1      39.943  27.501  29.780  1.00  0.00     0.031 C 
ATOM     19  C   UNL A   1      44.068  24.884  29.471  1.00  0.00     0.029 A 
ATOM     20  N   UNL A   1      44.064  26.709  30.725  1.00  0.00    -0.354 N 
ATOM     21  C   UNL A   1      40.535  29.663  30.010  1.00  0.00     0.074 A 
ATOM     22  C   UNL A   1      39.457  28.737  29.833  1.00  0.00     0.031 C 
ATOM     23  C   UNL A   1      44.808  24.610  30.566  1.00  0.00     0.029 A 
ATOM     24  C   UNL A   1      44.723  25.744  31.472  1.00  0.00     0.049 A 
ATOM     25  H   UNL A   1      44.084  27.672  30.925  1.00  0.00     0.167 HD
ATOM     26  C   UNL A   1      40.554  30.812  30.734  1.00  0.00     0.034 A 
ATOM     27  C   UNL A   1      44.970  25.830  32.799  1.00  0.00     0.034 A 
ATOM     28  C   UNL A   1      41.799  31.511  30.588  1.00  0.00     0.049 A 
ATOM     29  C   UNL A   1      44.815  27.257  33.191  1.00  0.00     0.074 A 
ATOM     30  C   UNL A   1      42.475  32.073  29.524  1.00  0.00     0.029 A 
ATOM     31  N   UNL A   1      42.726  31.360  31.592  1.00  0.00    -0.354 N 
ATOM     32  N   UNL A   1      45.569  28.218  32.726  1.00  0.00    -0.248 NA
ATOM     33  C   UNL A   1      43.529  27.686  33.725  1.00  0.00     0.031 C 
ATOM     34  C   UNL A   1      43.847  31.779  29.770  1.00  0.00     0.029 A 
ATOM     35  C   UNL A   1      43.928  31.098  30.987  1.00  0.00     0.049 A 
ATOM     36  H   UNL A   1      42.558  31.427  32.559  1.00  0.00     0.167 HD
ATOM     37  C   UNL A   1      44.705  29.289  32.522  1.00  0.00     0.074 A 
ATOM     38  C   UNL A   1      43.487  28.936  33.252  1.00  0.00     0.031 C 
ATOM     39  C   UNL A   1      44.933  30.217  31.542  1.00  0.00     0.034 A 
BRANCH  26  40
ATOM     40  C   UNL A   1      39.598  31.078  31.876  1.00  0.00     0.023 A 
ATOM     41  C   UNL A   1      39.575  30.145  32.932  1.00  0.00     0.012 A 
ATOM     42  C   UNL A   1      38.542  32.022  31.834  1.00  0.00     0.148 A 
ATOM     43  C   UNL A   1      38.525  30.116  33.856  1.00  0.00     0.002 A 
ATOM     44  C   UNL A   1      37.546  32.040  32.801  1.00  0.00     0.091 A 
ATOM     45  F   UNL A   1      38.389  32.828  30.782  1.00  0.00    -0.205 F 
ATOM     46  C   UNL A   1      37.512  31.067  33.795  1.00  0.00     0.022 A 
BRANCH  44  47
ATOM     47  S   UNL A   1      36.257  33.294  32.760  1.00  0.00     0.127 S 
ATOM     48  O   UNL A   1      35.533  32.999  34.003  1.00  0.00    -0.237 OA
ATOM     49  O   UNL A   1      37.046  34.533  32.793  1.00  0.00    -0.237 OA
ATOM     50  O   UNL A   1      35.542  33.078  31.528  1.00  0.00    -0.744 OA
ENDBRANCH  44  47
ENDBRANCH  26  40
BRANCH  27  51
ATOM     51  C   UNL A   1      44.932  24.707  33.763  1.00  0.00     0.023 A 
ATOM     52  C   UNL A   1      43.709  24.086  34.058  1.00  0.00     0.012 A 
ATOM     53  C   UNL A   1      46.120  24.114  34.256  1.00  0.00     0.148 A 
ATOM     54  C   UNL A   1      43.665  22.917  34.827  1.00  0.00     0.002 A 
ATOM     55  C   UNL A   1      46.071  22.971  35.046  1.00  0.00     0.091 A 
ATOM     56  F   UNL A   1      47.304  24.618  33.883  1.00  0.00    -0.205 F 
ATOM     57  C   UNL A   1      44.843  22.363  35.326  1.00  0.00     0.022 A 
BRANCH  55  58
ATOM     58  S   UNL A   1      47.553  22.221  35.739  1.00  0.00     0.127 S 
ATOM     59  O   UNL A   1      48.261  21.782  34.535  1.00  0.00    -0.237 OA
ATOM     60  O   UNL A   1      48.167  23.349  36.433  1.00  0.00    -0.237 OA
ATOM     61  O   UNL A   1      47.087  21.131  36.587  1.00  0.00    -0.744 OA
ENDBRANCH  55  58
ENDBRANCH  27  51
BRANCH  39  62
ATOM     62  C   UNL A   1      46.231  30.131  30.769  1.00  0.00     0.023 A 
ATOM     63  C   UNL A   1      47.436  30.650  31.290  1.00  0.00     0.012 A 
ATOM     64  C   UNL A   1      46.288  29.335  29.615  1.00  0.00     0.148 A 
ATOM     65  C   UNL A   1      48.662  30.415  30.661  1.00  0.00     0.002 A 
ATOM     66  C   UNL A   1      47.514  29.064  29.016  1.00  0.00     0.091 A 
ATOM     67  F   UNL A   1      45.142  28.820  29.142  1.00  0.00    -0.205 F 
ATOM     68  C   UNL A   1      48.702  29.611  29.529  1.00  0.00     0.022 A 
BRANCH  66  69
ATOM     69  S   UNL A   1      47.659  27.920  27.642  1.00  0.00     0.127 S 
ATOM     70  O   UNL A   1      47.058  26.707  28.189  1.00  0.00    -0.237 OA
ATOM     71  O   UNL A   1      46.869  28.579  26.599  1.00  0.00    -0.237 OA
ATOM     72  O   UNL A   1      49.084  27.837  27.341  1.00  0.00    -0.744 OA
ENDBRANCH  66  69
ENDBRANCH  39  62
ENDBRANCH  13  14
ENDBRANCH   6   8
ENDBRANCH   5   6
ENDBRANCH   4   5
ENDBRANCH   3   4
ENDBRANCH   2   3
ENDBRANCH   1   2
BRANCH   1  73
ATOM     73  C   UNL A   1      33.283  23.204  23.353  1.00  0.00     0.261 C 
BRANCH  73  74
ATOM     74  O   UNL A   1      33.714  24.145  22.300  1.00  0.00    -0.462 OA
BRANCH  74  75
ATOM     75  C   UNL A   1      33.242  25.430  22.319  1.00  0.00     0.328 C 
ATOM     76  O   UNL A   1      33.323  26.176  21.339  1.00  0.00    -0.250 OA
BRANCH  75  77
ATOM     77  C   UNL A   1      32.524  25.933  23.682  1.00  0.00     0.195 C 
ATOM     78  C   UNL A   1      33.420  26.914  24.526  1.00  0.00     0.046 C 
ATOM     79  N   UNL A   1      31.181  26.377  24.128  1.00  0.00    -0.328 N 
ATOM     80  C   UNL A   1      32.511  27.653  25.581  1.00  0.00     0.001 C 
ATOM     81  C   UNL A   1      31.247  26.786  25.530  1.00  0.00     0.128 C 
ATOM     82  C   UNL A   1      32.064  29.131  25.335  1.00  0.00     0.071 C 
ATOM     83  C   UNL A   1      33.213  27.680  26.945  1.00  0.00     0.071 C 
ATOM     84  C   UNL A   1      33.125  30.228  25.512  1.00  0.00     0.270 C 
ATOM     85  C   UNL A   1      34.370  28.691  26.938  1.00  0.00     0.270 C 
ATOM     86  N   UNL A   1      33.881  30.059  26.742  1.00  0.00    -0.272 N 
ATOM     87  H   UNL A   1      33.512  29.443  26.068  1.00  0.00     0.356 HD
BRANCH  79  88
ATOM     88  C   UNL A   1      30.039  26.686  23.443  1.00  0.00     0.225 C 
ATOM     89  O   UNL A   1      29.029  25.982  23.485  1.00  0.00    -0.275 OA
BRANCH  88  90
ATOM     90  C   UNL A   1      30.013  27.952  22.691  1.00  0.00     0.124 C 
BRANCH  90  91
ATOM     91  C   UNL A   1      28.824  28.817  23.097  1.00  0.00     0.154 C 
BRANCH  91  92
ATOM     92  N   UNL A   1      28.439  30.124  22.579  1.00  0.00    -0.272 N 
ATOM     93  C   UNL A   1      28.550  30.558  21.275  1.00  0.00     0.108 A 
ATOM     94  N   UNL A   1      28.359  31.188  23.393  1.00  0.00    -0.182 NA
ATOM     95  C   UNL A   1      28.444  31.934  21.282  1.00  0.00     0.042 A 
ATOM     96  C   UNL A   1      28.300  32.271  22.626  1.00  0.00     0.135 A 
ENDBRANCH  91  92
ENDBRANCH  90  91
ENDBRANCH  88  90
ENDBRANCH  79  88
BRANCH  86  97
ATOM     97  C   UNL A   1      34.331  31.042  27.630  1.00  0.00     0.315 C 
ATOM     98  O   UNL A   1      33.539  31.867  28.087  1.00  0.00    -0.231 OA
BRANCH  97  99
ATOM     99  C   UNL A   1      35.746  31.234  28.087  1.00  0.00     0.119 C 
ATOM    100  C   UNL A   1      36.548  30.551  29.155  1.00  0.00     0.019 C 
ATOM    101  C   UNL A   1      36.846  30.277  27.704  1.00  0.00     0.019 C 
ENDBRANCH  97  99
ENDBRANCH  86  97
ENDBRANCH  75  77
ENDBRANCH  74  75
ENDBRANCH  73  74
ENDBRANCH   1  73
TORSDOF 23
ENDMDL
