MODEL 1
REMARK VINA RESULT:     -10.9      0.000      0.000
REMARK SMILES CN(C(=O)N[C@@](C)(C(=O)OCCOCCOC(=O)c1ccc(-c2c3nc(c(-c4cccc(S(=O)(=O)[O-])c4F)c4ccc([nH]4)c(-c4cccc(S(=O)(=O)[O-])c4F)c4nc(c(-c5cccc(S(=O)(=O)[O-])c5F)c5ccc2[nH]5)C=C4)C=C3)cc1)C(F)(F)F)c1ccc(F)cc1
REMARK SMILES IDX 13 1 12 2 11 3 10 4 8 5 9 6 6 7 7 8 5 9 3 10 4 11 2 13 1 14
REMARK SMILES IDX 86 15 87 16 92 17 88 18 91 19 89 20 90 21 82 22 83 23 84 24
REMARK SMILES IDX 85 25 14 26 15 27 16 28 17 29 18 30 19 31 20 32 81 33 21 34
REMARK SMILES IDX 80 35 22 36 23 37 24 38 74 39 25 40 79 41 73 42 75 43 26 44
REMARK SMILES IDX 78 45 72 46 71 47 27 49 59 50 39 51 58 52 40 53 43 54 57 55
REMARK SMILES IDX 76 56 41 57 42 58 56 60 77 61 44 62 28 63 29 64 37 65 30 66
REMARK SMILES IDX 32 67 38 68 31 69 33 70 34 71 35 72 36 73 60 74 61 75 69 76
REMARK SMILES IDX 62 77 64 78 70 79 63 80 65 81 66 82 67 83 68 84 45 85 46 86
REMARK SMILES IDX 54 87 47 88 49 89 55 90 48 91 50 92 51 93 52 94 53 95
REMARK H PARENT 5 12 75 48 43 59
REMARK Flexibility Score: inf
ROOT
ATOM      1  O   UNL A   1      35.489  23.233  25.611  1.00  0.00    -0.374 OA
ENDROOT
BRANCH   1   2
ATOM      2  C   UNL A   1      34.322  24.030  25.779  1.00  0.00     0.202 C 
BRANCH   2   3
ATOM      3  C   UNL A   1      34.443  25.561  25.692  1.00  0.00     0.261 C 
BRANCH   3   4
ATOM      4  O   UNL A   1      33.197  26.264  25.569  1.00  0.00    -0.461 OA
BRANCH   4   5
ATOM      5  C   UNL A   1      33.291  27.532  25.063  1.00  0.00     0.341 C 
ATOM      6  O   UNL A   1      34.146  27.871  24.254  1.00  0.00    -0.249 OA
BRANCH   5   7
ATOM      7  C   UNL A   1      32.320  28.495  25.770  1.00  0.00     0.232 C 
ATOM      8  C   UNL A   1      31.416  27.606  26.657  1.00  0.00     0.058 C 
BRANCH   7   9
ATOM      9  N   UNL A   1      31.352  29.145  24.779  1.00  0.00    -0.314 N 
ATOM     10  C   UNL A   1      30.369  29.026  23.876  1.00  0.00     0.322 C 
ATOM     11  O   UNL A   1      30.013  30.131  23.443  1.00  0.00    -0.248 OA
ATOM     12  H   UNL A   1      31.542  30.110  24.828  1.00  0.00     0.166 HD
BRANCH  10  13
ATOM     13  N   UNL A   1      29.758  27.867  23.476  1.00  0.00    -0.298 N 
ATOM     14  C   UNL A   1      28.348  27.715  23.190  1.00  0.00     0.155 C 
BRANCH  13  15
ATOM     15  C   UNL A   1      30.537  26.661  23.287  1.00  0.00     0.045 A 
ATOM     16  C   UNL A   1      30.262  25.491  24.014  1.00  0.00     0.029 A 
ATOM     17  C   UNL A   1      31.533  26.600  22.293  1.00  0.00     0.029 A 
ATOM     18  C   UNL A   1      30.913  24.288  23.708  1.00  0.00     0.041 A 
ATOM     19  C   UNL A   1      32.188  25.403  21.991  1.00  0.00     0.041 A 
ATOM     20  C   UNL A   1      31.859  24.253  22.692  1.00  0.00     0.123 A 
ATOM     21  F   UNL A   1      32.455  23.096  22.376  1.00  0.00    -0.207 F 
ENDBRANCH  13  15
ENDBRANCH  10  13
ENDBRANCH   7   9
BRANCH   7  22
ATOM     22  C   UNL A   1      33.193  29.314  26.723  1.00  0.00     0.422 C 
ATOM     23  F   UNL A   1      34.258  28.625  27.186  1.00  0.00    -0.168 F 
ATOM     24  F   UNL A   1      33.654  30.435  26.112  1.00  0.00    -0.168 F 
ATOM     25  F   UNL A   1      32.518  29.762  27.809  1.00  0.00    -0.168 F 
ENDBRANCH   7  22
ENDBRANCH   5   7
ENDBRANCH   4   5
ENDBRANCH   3   4
ENDBRANCH   2   3
ENDBRANCH   1   2
BRANCH   1  26
ATOM     26  C   UNL A   1      35.336  21.845  25.326  1.00  0.00     0.202 C 
BRANCH  26  27
ATOM     27  C   UNL A   1      36.565  20.931  25.345  1.00  0.00     0.261 C 
BRANCH  27  28
ATOM     28  O   UNL A   1      37.780  21.602  24.966  1.00  0.00    -0.460 OA
BRANCH  28  29
ATOM     29  C   UNL A   1      38.845  21.302  25.751  1.00  0.00     0.338 C 
ATOM     30  O   UNL A   1      39.474  20.256  25.772  1.00  0.00    -0.246 OA
BRANCH  29  31
ATOM     31  C   UNL A   1      39.292  22.491  26.495  1.00  0.00     0.060 A 
ATOM     32  C   UNL A   1      38.679  23.711  26.184  1.00  0.00     0.016 A 
ATOM     33  C   UNL A   1      40.376  22.441  27.372  1.00  0.00     0.016 A 
ATOM     34  C   UNL A   1      39.185  24.896  26.712  1.00  0.00     0.010 A 
ATOM     35  C   UNL A   1      40.886  23.635  27.896  1.00  0.00     0.010 A 
ATOM     36  C   UNL A   1      40.319  24.870  27.536  1.00  0.00    -0.014 A 
BRANCH  36  37
ATOM     37  C   UNL A   1      40.967  26.152  27.905  1.00  0.00     0.031 A 
ATOM     38  C   UNL A   1      42.370  26.433  27.442  1.00  0.00     0.074 A 
ATOM     39  C   UNL A   1      40.289  27.081  28.602  1.00  0.00     0.049 A 
ATOM     40  N   UNL A   1      43.077  27.527  27.564  1.00  0.00    -0.248 NA
ATOM     41  C   UNL A   1      43.068  25.339  26.749  1.00  0.00     0.031 C 
ATOM     42  C   UNL A   1      38.926  26.925  29.107  1.00  0.00     0.029 A 
ATOM     43  N   UNL A   1      40.659  28.338  29.005  1.00  0.00    -0.354 N 
ATOM     44  C   UNL A   1      44.305  27.254  26.972  1.00  0.00     0.074 A 
ATOM     45  C   UNL A   1      44.255  25.880  26.517  1.00  0.00     0.031 C 
ATOM     46  C   UNL A   1      38.572  28.049  29.753  1.00  0.00     0.029 A 
ATOM     47  C   UNL A   1      39.684  28.996  29.717  1.00  0.00     0.049 A 
ATOM     48  H   UNL A   1      41.539  28.732  28.804  1.00  0.00     0.167 HD
ATOM     49  C   UNL A   1      45.368  28.076  26.798  1.00  0.00     0.034 A 
ATOM     50  C   UNL A   1      39.688  30.226  30.267  1.00  0.00     0.034 A 
ATOM     51  C   UNL A   1      45.415  29.443  27.242  1.00  0.00     0.049 A 
ATOM     52  C   UNL A   1      40.892  31.111  30.086  1.00  0.00     0.074 A 
ATOM     53  C   UNL A   1      46.428  30.371  27.078  1.00  0.00     0.029 A 
ATOM     54  N   UNL A   1      44.407  30.078  27.955  1.00  0.00    -0.354 N 
ATOM     55  N   UNL A   1      41.991  30.885  29.407  1.00  0.00    -0.248 NA
ATOM     56  C   UNL A   1      40.839  32.439  30.717  1.00  0.00     0.031 C 
ATOM     57  C   UNL A   1      46.042  31.560  27.709  1.00  0.00     0.029 A 
ATOM     58  C   UNL A   1      44.779  31.379  28.251  1.00  0.00     0.049 A 
ATOM     59  H   UNL A   1      43.553  29.663  28.212  1.00  0.00     0.167 HD
ATOM     60  C   UNL A   1      42.745  32.051  29.501  1.00  0.00     0.074 A 
ATOM     61  C   UNL A   1      41.966  32.988  30.284  1.00  0.00     0.031 C 
ATOM     62  C   UNL A   1      43.977  32.316  28.997  1.00  0.00     0.034 A 
BRANCH  49  63
ATOM     63  C   UNL A   1      46.555  27.515  26.060  1.00  0.00     0.023 A 
ATOM     64  C   UNL A   1      46.604  27.610  24.652  1.00  0.00     0.012 A 
ATOM     65  C   UNL A   1      47.625  26.911  26.746  1.00  0.00     0.148 A 
ATOM     66  C   UNL A   1      47.677  27.077  23.940  1.00  0.00     0.002 A 
ATOM     67  C   UNL A   1      48.712  26.416  26.031  1.00  0.00     0.091 A 
ATOM     68  F   UNL A   1      47.553  26.801  28.080  1.00  0.00    -0.205 F 
ATOM     69  C   UNL A   1      48.734  26.487  24.628  1.00  0.00     0.022 A 
BRANCH  67  70
ATOM     70  S   UNL A   1      50.145  25.704  26.845  1.00  0.00     0.127 S 
ATOM     71  O   UNL A   1      51.085  25.575  25.732  1.00  0.00    -0.237 OA
ATOM     72  O   UNL A   1      50.497  26.734  27.823  1.00  0.00    -0.237 OA
ATOM     73  O   UNL A   1      49.681  24.454  27.432  1.00  0.00    -0.744 OA
ENDBRANCH  67  70
ENDBRANCH  49  63
BRANCH  50  74
ATOM     74  C   UNL A   1      38.473  30.720  30.972  1.00  0.00     0.023 A 
ATOM     75  C   UNL A   1      38.375  30.564  32.368  1.00  0.00     0.012 A 
ATOM     76  C   UNL A   1      37.438  31.377  30.279  1.00  0.00     0.148 A 
ATOM     77  C   UNL A   1      37.259  31.037  33.060  1.00  0.00     0.002 A 
ATOM     78  C   UNL A   1      36.354  31.893  30.980  1.00  0.00     0.091 A 
ATOM     79  F   UNL A   1      37.545  31.501  28.948  1.00  0.00    -0.205 F 
ATOM     80  C   UNL A   1      36.256  31.711  32.368  1.00  0.00     0.022 A 
BRANCH  78  81
ATOM     81  S   UNL A   1      35.079  32.885  30.196  1.00  0.00     0.127 S 
ATOM     82  O   UNL A   1      34.564  31.965  29.185  1.00  0.00    -0.237 OA
ATOM     83  O   UNL A   1      34.171  33.144  31.314  1.00  0.00    -0.237 OA
ATOM     84  O   UNL A   1      35.756  34.069  29.686  1.00  0.00    -0.744 OA
ENDBRANCH  78  81
ENDBRANCH  50  74
BRANCH  62  85
ATOM     85  C   UNL A   1      44.556  33.682  29.267  1.00  0.00     0.023 A 
ATOM     86  C   UNL A   1      45.408  33.871  30.374  1.00  0.00     0.012 A 
ATOM     87  C   UNL A   1      44.298  34.764  28.404  1.00  0.00     0.148 A 
ATOM     88  C   UNL A   1      45.961  35.123  30.639  1.00  0.00     0.002 A 
ATOM     89  C   UNL A   1      44.890  36.000  28.649  1.00  0.00     0.091 A 
ATOM     90  F   UNL A   1      43.468  34.577  27.367  1.00  0.00    -0.205 F 
ATOM     91  C   UNL A   1      45.711  36.184  29.772  1.00  0.00     0.022 A 
BRANCH  89  92
ATOM     92  S   UNL A   1      44.689  37.389  27.528  1.00  0.00     0.127 S 
ATOM     93  O   UNL A   1      45.864  37.255  26.669  1.00  0.00    -0.237 OA
ATOM     94  O   UNL A   1      43.417  37.085  26.869  1.00  0.00    -0.237 OA
ATOM     95  O   UNL A   1      44.655  38.575  28.375  1.00  0.00    -0.744 OA
ENDBRANCH  89  92
ENDBRANCH  62  85
ENDBRANCH  36  37
ENDBRANCH  29  31
ENDBRANCH  28  29
ENDBRANCH  27  28
ENDBRANCH  26  27
ENDBRANCH   1  26
TORSDOF 21
ENDMDL
MODEL 2
REMARK VINA RESULT:     -10.8      4.852     10.120
REMARK SMILES CN(C(=O)N[C@@](C)(C(=O)OCCOCCOC(=O)c1ccc(-c2c3nc(c(-c4cccc(S(=O)(=O)[O-])c4F)c4ccc([nH]4)c(-c4cccc(S(=O)(=O)[O-])c4F)c4nc(c(-c5cccc(S(=O)(=O)[O-])c5F)c5ccc2[nH]5)C=C4)C=C3)cc1)C(F)(F)F)c1ccc(F)cc1
REMARK SMILES IDX 13 1 12 2 11 3 10 4 8 5 9 6 6 7 7 8 5 9 3 10 4 11 2 13 1 14
REMARK SMILES IDX 86 15 87 16 92 17 88 18 91 19 89 20 90 21 82 22 83 23 84 24
REMARK SMILES IDX 85 25 14 26 15 27 16 28 17 29 18 30 19 31 20 32 81 33 21 34
REMARK SMILES IDX 80 35 22 36 23 37 24 38 74 39 25 40 79 41 73 42 75 43 26 44
REMARK SMILES IDX 78 45 72 46 71 47 27 49 59 50 39 51 58 52 40 53 43 54 57 55
REMARK SMILES IDX 76 56 41 57 42 58 56 60 77 61 44 62 28 63 29 64 37 65 30 66
REMARK SMILES IDX 32 67 38 68 31 69 33 70 34 71 35 72 36 73 60 74 61 75 69 76
REMARK SMILES IDX 62 77 64 78 70 79 63 80 65 81 66 82 67 83 68 84 45 85 46 86
REMARK SMILES IDX 54 87 47 88 49 89 55 90 48 91 50 92 51 93 52 94 53 95
REMARK H PARENT 5 12 75 48 43 59
REMARK Flexibility Score: inf
ROOT
ATOM      1  O   UNL A   1      32.960  30.761  26.396  1.00  0.00    -0.374 OA
ENDROOT
BRANCH   1   2
ATOM      2  C   UNL A   1      33.100  29.615  25.566  1.00  0.00     0.202 C 
BRANCH   2   3
ATOM      3  C   UNL A   1      31.841  28.843  25.137  1.00  0.00     0.261 C 
BRANCH   3   4
ATOM      4  O   UNL A   1      31.948  27.413  25.213  1.00  0.00    -0.461 OA
BRANCH   4   5
ATOM      5  C   UNL A   1      31.384  26.730  24.170  1.00  0.00     0.341 C 
ATOM      6  O   UNL A   1      30.492  27.192  23.470  1.00  0.00    -0.249 OA
BRANCH   5   7
ATOM      7  C   UNL A   1      31.880  25.274  24.115  1.00  0.00     0.232 C 
ATOM      8  C   UNL A   1      30.889  24.526  23.191  1.00  0.00     0.058 C 
BRANCH   7   9
ATOM      9  N   UNL A   1      31.731  24.578  25.470  1.00  0.00    -0.314 N 
ATOM     10  C   UNL A   1      31.895  23.490  26.234  1.00  0.00     0.322 C 
ATOM     11  O   UNL A   1      31.521  23.692  27.399  1.00  0.00    -0.248 OA
ATOM     12  H   UNL A   1      31.321  25.250  26.062  1.00  0.00     0.166 HD
BRANCH  10  13
ATOM     13  N   UNL A   1      32.442  22.294  25.854  1.00  0.00    -0.298 N 
ATOM     14  C   UNL A   1      31.701  21.094  25.529  1.00  0.00     0.155 C 
BRANCH  13  15
ATOM     15  C   UNL A   1      33.879  22.157  25.729  1.00  0.00     0.045 A 
ATOM     16  C   UNL A   1      34.455  21.078  25.039  1.00  0.00     0.029 A 
ATOM     17  C   UNL A   1      34.738  23.161  26.218  1.00  0.00     0.029 A 
ATOM     18  C   UNL A   1      35.833  21.043  24.787  1.00  0.00     0.041 A 
ATOM     19  C   UNL A   1      36.114  23.124  25.974  1.00  0.00     0.041 A 
ATOM     20  C   UNL A   1      36.646  22.071  25.244  1.00  0.00     0.123 A 
ATOM     21  F   UNL A   1      37.958  22.055  24.973  1.00  0.00    -0.207 F 
ENDBRANCH  13  15
ENDBRANCH  10  13
ENDBRANCH   7   9
BRANCH   7  22
ATOM     22  C   UNL A   1      33.212  25.335  23.365  1.00  0.00     0.422 C 
ATOM     23  F   UNL A   1      33.496  24.193  22.702  1.00  0.00    -0.168 F 
ATOM     24  F   UNL A   1      33.213  26.352  22.465  1.00  0.00    -0.168 F 
ATOM     25  F   UNL A   1      34.267  25.587  24.176  1.00  0.00    -0.168 F 
ENDBRANCH   7  22
ENDBRANCH   5   7
ENDBRANCH   4   5
ENDBRANCH   3   4
ENDBRANCH   2   3
ENDBRANCH   1   2
BRANCH   1  26
ATOM     26  C   UNL A   1      31.669  31.347  26.545  1.00  0.00     0.202 C 
BRANCH  26  27
ATOM     27  C   UNL A   1      31.549  32.799  27.018  1.00  0.00     0.261 C 
BRANCH  27  28
ATOM     28  O   UNL A   1      32.799  33.510  26.998  1.00  0.00    -0.460 OA
BRANCH  28  29
ATOM     29  C   UNL A   1      33.289  33.802  28.229  1.00  0.00     0.338 C 
ATOM     30  O   UNL A   1      32.742  34.453  29.104  1.00  0.00    -0.246 OA
BRANCH  29  31
ATOM     31  C   UNL A   1      34.543  33.072  28.476  1.00  0.00     0.060 A 
ATOM     32  C   UNL A   1      34.450  31.838  29.134  1.00  0.00     0.016 A 
ATOM     33  C   UNL A   1      35.787  33.639  28.199  1.00  0.00     0.016 A 
ATOM     34  C   UNL A   1      35.606  31.193  29.564  1.00  0.00     0.010 A 
ATOM     35  C   UNL A   1      36.948  32.990  28.637  1.00  0.00     0.010 A 
ATOM     36  C   UNL A   1      36.860  31.785  29.357  1.00  0.00    -0.014 A 
BRANCH  36  37
ATOM     37  C   UNL A   1      38.050  31.192  30.013  1.00  0.00     0.031 A 
ATOM     38  C   UNL A   1      38.385  31.575  31.428  1.00  0.00     0.074 A 
ATOM     39  C   UNL A   1      38.796  30.277  29.368  1.00  0.00     0.049 A 
ATOM     40  N   UNL A   1      39.313  31.097  32.217  1.00  0.00    -0.248 NA
ATOM     41  C   UNL A   1      37.566  32.635  32.036  1.00  0.00     0.031 C 
ATOM     42  C   UNL A   1      38.573  29.825  27.997  1.00  0.00     0.029 A 
ATOM     43  N   UNL A   1      39.892  29.566  29.786  1.00  0.00    -0.354 N 
ATOM     44  C   UNL A   1      39.198  31.800  33.410  1.00  0.00     0.074 A 
ATOM     45  C   UNL A   1      38.127  32.758  33.230  1.00  0.00     0.031 C 
ATOM     46  C   UNL A   1      39.505  28.908  27.685  1.00  0.00     0.029 A 
ATOM     47  C   UNL A   1      40.394  28.718  28.829  1.00  0.00     0.049 A 
ATOM     48  H   UNL A   1      40.281  29.656  30.686  1.00  0.00     0.167 HD
ATOM     49  C   UNL A   1      39.898  31.647  34.560  1.00  0.00     0.034 A 
ATOM     50  C   UNL A   1      41.446  27.878  28.875  1.00  0.00     0.034 A 
ATOM     51  C   UNL A   1      40.956  30.690  34.741  1.00  0.00     0.049 A 
ATOM     52  C   UNL A   1      42.229  27.746  30.155  1.00  0.00     0.074 A 
ATOM     53  C   UNL A   1      41.700  30.429  35.879  1.00  0.00     0.029 A 
ATOM     54  N   UNL A   1      41.435  29.844  33.751  1.00  0.00    -0.354 N 
ATOM     55  N   UNL A   1      42.021  28.320  31.316  1.00  0.00    -0.248 NA
ATOM     56  C   UNL A   1      43.371  26.819  30.140  1.00  0.00     0.031 C 
ATOM     57  C   UNL A   1      42.641  29.439  35.571  1.00  0.00     0.029 A 
ATOM     58  C   UNL A   1      42.472  29.070  34.246  1.00  0.00     0.049 A 
ATOM     59  H   UNL A   1      41.088  29.800  32.831  1.00  0.00     0.167 HD
ATOM     60  C   UNL A   1      42.982  27.801  32.177  1.00  0.00     0.074 A 
ATOM     61  C   UNL A   1      43.759  26.850  31.408  1.00  0.00     0.031 C 
ATOM     62  C   UNL A   1      43.211  28.096  33.481  1.00  0.00     0.034 A 
BRANCH  49  63
ATOM     63  C   UNL A   1      39.508  32.522  35.722  1.00  0.00     0.023 A 
ATOM     64  C   UNL A   1      38.657  32.005  36.723  1.00  0.00     0.012 A 
ATOM     65  C   UNL A   1      39.986  33.840  35.840  1.00  0.00     0.148 A 
ATOM     66  C   UNL A   1      38.257  32.798  37.797  1.00  0.00     0.002 A 
ATOM     67  C   UNL A   1      39.614  34.614  36.936  1.00  0.00     0.091 A 
ATOM     68  F   UNL A   1      40.770  34.329  34.868  1.00  0.00    -0.205 F 
ATOM     69  C   UNL A   1      38.741  34.099  37.908  1.00  0.00     0.022 A 
BRANCH  67  70
ATOM     70  S   UNL A   1      40.248  36.275  37.190  1.00  0.00     0.127 S 
ATOM     71  O   UNL A   1      41.634  36.008  37.574  1.00  0.00    -0.237 OA
ATOM     72  O   UNL A   1      40.088  36.879  35.867  1.00  0.00    -0.237 OA
ATOM     73  O   UNL A   1      39.405  36.862  38.222  1.00  0.00    -0.744 OA
ENDBRANCH  67  70
ENDBRANCH  49  63
BRANCH  50  74
ATOM     74  C   UNL A   1      41.767  27.033  27.691  1.00  0.00     0.023 A 
ATOM     75  C   UNL A   1      42.380  27.624  26.569  1.00  0.00     0.012 A 
ATOM     76  C   UNL A   1      41.507  25.649  27.684  1.00  0.00     0.148 A 
ATOM     77  C   UNL A   1      42.714  26.855  25.454  1.00  0.00     0.002 A 
ATOM     78  C   UNL A   1      41.889  24.879  26.592  1.00  0.00     0.091 A 
ATOM     79  F   UNL A   1      40.908  25.111  28.756  1.00  0.00    -0.205 F 
ATOM     80  C   UNL A   1      42.479  25.482  25.470  1.00  0.00     0.022 A 
BRANCH  78  81
ATOM     81  S   UNL A   1      41.744  23.089  26.573  1.00  0.00     0.127 S 
ATOM     82  O   UNL A   1      40.300  22.907  26.449  1.00  0.00    -0.237 OA
ATOM     83  O   UNL A   1      42.515  22.739  25.380  1.00  0.00    -0.237 OA
ATOM     84  O   UNL A   1      42.333  22.632  27.825  1.00  0.00    -0.744 OA
ENDBRANCH  78  81
ENDBRANCH  50  74
BRANCH  62  85
ATOM     85  C   UNL A   1      44.342  27.372  34.167  1.00  0.00     0.023 A 
ATOM     86  C   UNL A   1      45.648  27.896  34.098  1.00  0.00     0.012 A 
ATOM     87  C   UNL A   1      44.108  26.203  34.917  1.00  0.00     0.148 A 
ATOM     88  C   UNL A   1      46.709  27.248  34.730  1.00  0.00     0.002 A 
ATOM     89  C   UNL A   1      45.163  25.586  35.583  1.00  0.00     0.091 A 
ATOM     90  F   UNL A   1      42.865  25.702  34.956  1.00  0.00    -0.205 F 
ATOM     91  C   UNL A   1      46.465  26.100  35.480  1.00  0.00     0.022 A 
BRANCH  89  92
ATOM     92  S   UNL A   1      44.913  24.157  36.642  1.00  0.00     0.127 S 
ATOM     93  O   UNL A   1      44.065  24.709  37.697  1.00  0.00    -0.237 OA
ATOM     94  O   UNL A   1      44.236  23.214  35.749  1.00  0.00    -0.237 OA
ATOM     95  O   UNL A   1      46.246  23.738  37.056  1.00  0.00    -0.744 OA
ENDBRANCH  89  92
ENDBRANCH  62  85
ENDBRANCH  36  37
ENDBRANCH  29  31
ENDBRANCH  28  29
ENDBRANCH  27  28
ENDBRANCH  26  27
ENDBRANCH   1  26
TORSDOF 21
ENDMDL
MODEL 3
REMARK VINA RESULT:     -10.7      1.814      2.102
REMARK SMILES CN(C(=O)N[C@@](C)(C(=O)OCCOCCOC(=O)c1ccc(-c2c3nc(c(-c4cccc(S(=O)(=O)[O-])c4F)c4ccc([nH]4)c(-c4cccc(S(=O)(=O)[O-])c4F)c4nc(c(-c5cccc(S(=O)(=O)[O-])c5F)c5ccc2[nH]5)C=C4)C=C3)cc1)C(F)(F)F)c1ccc(F)cc1
REMARK SMILES IDX 13 1 12 2 11 3 10 4 8 5 9 6 6 7 7 8 5 9 3 10 4 11 2 13 1 14
REMARK SMILES IDX 86 15 87 16 92 17 88 18 91 19 89 20 90 21 82 22 83 23 84 24
REMARK SMILES IDX 85 25 14 26 15 27 16 28 17 29 18 30 19 31 20 32 81 33 21 34
REMARK SMILES IDX 80 35 22 36 23 37 24 38 74 39 25 40 79 41 73 42 75 43 26 44
REMARK SMILES IDX 78 45 72 46 71 47 27 49 59 50 39 51 58 52 40 53 43 54 57 55
REMARK SMILES IDX 76 56 41 57 42 58 56 60 77 61 44 62 28 63 29 64 37 65 30 66
REMARK SMILES IDX 32 67 38 68 31 69 33 70 34 71 35 72 36 73 60 74 61 75 69 76
REMARK SMILES IDX 62 77 64 78 70 79 63 80 65 81 66 82 67 83 68 84 45 85 46 86
REMARK SMILES IDX 54 87 47 88 49 89 55 90 48 91 50 92 51 93 52 94 53 95
REMARK H PARENT 5 12 75 48 43 59
REMARK Flexibility Score: inf
ROOT
ATOM      1  O   UNL A   1      35.201  22.605  26.253  1.00  0.00    -0.374 OA
ENDROOT
BRANCH   1   2
ATOM      2  C   UNL A   1      34.141  23.518  25.995  1.00  0.00     0.202 C 
BRANCH   2   3
ATOM      3  C   UNL A   1      34.478  24.931  25.487  1.00  0.00     0.261 C 
BRANCH   3   4
ATOM      4  O   UNL A   1      33.721  25.991  26.090  1.00  0.00    -0.461 OA
BRANCH   4   5
ATOM      5  C   UNL A   1      33.519  27.087  25.296  1.00  0.00     0.341 C 
ATOM      6  O   UNL A   1      34.214  27.348  24.322  1.00  0.00    -0.249 OA
BRANCH   5   7
ATOM      7  C   UNL A   1      32.444  28.019  25.884  1.00  0.00     0.232 C 
ATOM      8  C   UNL A   1      31.626  27.151  26.869  1.00  0.00     0.058 C 
BRANCH   7   9
ATOM      9  N   UNL A   1      31.428  28.445  24.822  1.00  0.00    -0.314 N 
ATOM     10  C   UNL A   1      30.447  28.125  23.967  1.00  0.00     0.322 C 
ATOM     11  O   UNL A   1      30.015  29.126  23.376  1.00  0.00    -0.248 OA
ATOM     12  H   UNL A   1      31.553  29.417  24.720  1.00  0.00     0.166 HD
BRANCH  10  13
ATOM     13  N   UNL A   1      29.912  26.883  23.759  1.00  0.00    -0.298 N 
ATOM     14  C   UNL A   1      28.501  26.561  23.772  1.00  0.00     0.155 C 
BRANCH  13  15
ATOM     15  C   UNL A   1      30.776  25.754  23.481  1.00  0.00     0.045 A 
ATOM     16  C   UNL A   1      30.642  24.540  24.173  1.00  0.00     0.029 A 
ATOM     17  C   UNL A   1      31.717  25.815  22.433  1.00  0.00     0.029 A 
ATOM     18  C   UNL A   1      31.372  23.409  23.784  1.00  0.00     0.041 A 
ATOM     19  C   UNL A   1      32.452  24.689  22.049  1.00  0.00     0.041 A 
ATOM     20  C   UNL A   1      32.259  23.491  22.719  1.00  0.00     0.123 A 
ATOM     21  F   UNL A   1      32.931  22.401  22.325  1.00  0.00    -0.207 F 
ENDBRANCH  13  15
ENDBRANCH  10  13
ENDBRANCH   7   9
BRANCH   7  22
ATOM     22  C   UNL A   1      33.217  29.030  26.734  1.00  0.00     0.422 C 
ATOM     23  F   UNL A   1      33.818  29.989  25.998  1.00  0.00    -0.168 F 
ATOM     24  F   UNL A   1      32.393  29.642  27.624  1.00  0.00    -0.168 F 
ATOM     25  F   UNL A   1      34.183  28.458  27.492  1.00  0.00    -0.168 F 
ENDBRANCH   7  22
ENDBRANCH   5   7
ENDBRANCH   4   5
ENDBRANCH   3   4
ENDBRANCH   2   3
ENDBRANCH   1   2
BRANCH   1  26
ATOM     26  C   UNL A   1      35.311  21.436  25.445  1.00  0.00     0.202 C 
BRANCH  26  27
ATOM     27  C   UNL A   1      36.685  20.791  25.233  1.00  0.00     0.261 C 
BRANCH  27  28
ATOM     28  O   UNL A   1      37.750  21.750  25.103  1.00  0.00    -0.460 OA
BRANCH  28  29
ATOM     29  C   UNL A   1      38.854  21.451  25.833  1.00  0.00     0.338 C 
ATOM     30  O   UNL A   1      39.508  20.422  25.792  1.00  0.00    -0.246 OA
BRANCH  29  31
ATOM     31  C   UNL A   1      39.304  22.626  26.598  1.00  0.00     0.060 A 
ATOM     32  C   UNL A   1      38.732  23.862  26.271  1.00  0.00     0.016 A 
ATOM     33  C   UNL A   1      40.355  22.546  27.511  1.00  0.00     0.016 A 
ATOM     34  C   UNL A   1      39.249  25.032  26.821  1.00  0.00     0.010 A 
ATOM     35  C   UNL A   1      40.875  23.725  28.059  1.00  0.00     0.010 A 
ATOM     36  C   UNL A   1      40.351  24.975  27.684  1.00  0.00    -0.014 A 
BRANCH  36  37
ATOM     37  C   UNL A   1      41.018  26.239  28.081  1.00  0.00     0.031 A 
ATOM     38  C   UNL A   1      42.442  26.489  27.666  1.00  0.00     0.074 A 
ATOM     39  C   UNL A   1      40.340  27.181  28.762  1.00  0.00     0.049 A 
ATOM     40  N   UNL A   1      43.170  27.565  27.816  1.00  0.00    -0.248 NA
ATOM     41  C   UNL A   1      43.135  25.383  26.989  1.00  0.00     0.031 C 
ATOM     42  C   UNL A   1      38.958  27.055  29.221  1.00  0.00     0.029 A 
ATOM     43  N   UNL A   1      40.726  28.427  29.183  1.00  0.00    -0.354 N 
ATOM     44  C   UNL A   1      44.410  27.266  27.263  1.00  0.00     0.074 A 
ATOM     45  C   UNL A   1      44.341  25.896  26.799  1.00  0.00     0.031 C 
ATOM     46  C   UNL A   1      38.610  28.184  29.862  1.00  0.00     0.029 A 
ATOM     47  C   UNL A   1      39.745  29.104  29.867  1.00  0.00     0.049 A 
ATOM     48  H   UNL A   1      41.621  28.800  29.013  1.00  0.00     0.167 HD
ATOM     49  C   UNL A   1      45.497  28.063  27.128  1.00  0.00     0.034 A 
ATOM     50  C   UNL A   1      39.760  30.331  30.424  1.00  0.00     0.034 A 
ATOM     51  C   UNL A   1      45.562  29.426  27.582  1.00  0.00     0.049 A 
ATOM     52  C   UNL A   1      40.990  31.188  30.287  1.00  0.00     0.074 A 
ATOM     53  C   UNL A   1      46.602  30.330  27.456  1.00  0.00     0.029 A 
ATOM     54  N   UNL A   1      44.547  30.081  28.265  1.00  0.00    -0.354 N 
ATOM     55  N   UNL A   1      42.105  30.939  29.643  1.00  0.00    -0.248 NA
ATOM     56  C   UNL A   1      40.948  32.513  30.924  1.00  0.00     0.031 C 
ATOM     57  C   UNL A   1      46.223  31.525  28.080  1.00  0.00     0.029 A 
ATOM     58  C   UNL A   1      44.940  31.372  28.580  1.00  0.00     0.049 A 
ATOM     59  H   UNL A   1      43.675  29.686  28.492  1.00  0.00     0.167 HD
ATOM     60  C   UNL A   1      42.883  32.086  29.768  1.00  0.00     0.074 A 
ATOM     61  C   UNL A   1      42.101  33.037  30.531  1.00  0.00     0.031 C 
ATOM     62  C   UNL A   1      44.136  32.324  29.306  1.00  0.00     0.034 A 
BRANCH  49  63
ATOM     63  C   UNL A   1      46.693  27.478  26.425  1.00  0.00     0.023 A 
ATOM     64  C   UNL A   1      47.547  26.598  27.126  1.00  0.00     0.012 A 
ATOM     65  C   UNL A   1      46.971  27.778  25.078  1.00  0.00     0.148 A 
ATOM     66  C   UNL A   1      48.676  26.061  26.511  1.00  0.00     0.002 A 
ATOM     67  C   UNL A   1      48.079  27.207  24.459  1.00  0.00     0.091 A 
ATOM     68  F   UNL A   1      46.170  28.638  24.433  1.00  0.00    -0.205 F 
ATOM     69  C   UNL A   1      48.939  26.359  25.176  1.00  0.00     0.022 A 
BRANCH  67  70
ATOM     70  S   UNL A   1      48.450  27.484  22.724  1.00  0.00     0.127 S 
ATOM     71  O   UNL A   1      47.298  28.276  22.296  1.00  0.00    -0.237 OA
ATOM     72  O   UNL A   1      49.710  28.227  22.786  1.00  0.00    -0.237 OA
ATOM     73  O   UNL A   1      48.566  26.159  22.132  1.00  0.00    -0.744 OA
ENDBRANCH  67  70
ENDBRANCH  49  63
BRANCH  50  74
ATOM     74  C   UNL A   1      38.535  30.851  31.093  1.00  0.00     0.023 A 
ATOM     75  C   UNL A   1      38.416  30.746  32.492  1.00  0.00     0.012 A 
ATOM     76  C   UNL A   1      37.511  31.481  30.361  1.00  0.00     0.148 A 
ATOM     77  C   UNL A   1      37.291  31.244  33.149  1.00  0.00     0.002 A 
ATOM     78  C   UNL A   1      36.417  32.022  31.027  1.00  0.00     0.091 A 
ATOM     79  F   UNL A   1      37.637  31.556  29.028  1.00  0.00    -0.205 F 
ATOM     80  C   UNL A   1      36.298  31.892  32.419  1.00  0.00     0.022 A 
BRANCH  78  81
ATOM     81  S   UNL A   1      35.153  32.984  30.187  1.00  0.00     0.127 S 
ATOM     82  O   UNL A   1      34.608  32.008  29.248  1.00  0.00    -0.237 OA
ATOM     83  O   UNL A   1      34.264  33.341  31.293  1.00  0.00    -0.237 OA
ATOM     84  O   UNL A   1      35.850  34.115  29.589  1.00  0.00    -0.744 OA
ENDBRANCH  78  81
ENDBRANCH  50  74
BRANCH  62  85
ATOM     85  C   UNL A   1      44.738  33.674  29.602  1.00  0.00     0.023 A 
ATOM     86  C   UNL A   1      44.558  34.733  28.689  1.00  0.00     0.012 A 
ATOM     87  C   UNL A   1      45.438  33.912  30.801  1.00  0.00     0.148 A 
ATOM     88  C   UNL A   1      45.099  35.992  28.944  1.00  0.00     0.002 A 
ATOM     89  C   UNL A   1      45.936  35.183  31.070  1.00  0.00     0.091 A 
ATOM     90  F   UNL A   1      45.622  32.891  31.651  1.00  0.00    -0.205 F 
ATOM     91  C   UNL A   1      45.778  36.220  30.138  1.00  0.00     0.022 A 
BRANCH  89  92
ATOM     92  S   UNL A   1      46.743  35.577  32.627  1.00  0.00     0.127 S 
ATOM     93  O   UNL A   1      47.140  36.968  32.415  1.00  0.00    -0.237 OA
ATOM     94  O   UNL A   1      45.663  35.395  33.600  1.00  0.00    -0.237 OA
ATOM     95  O   UNL A   1      47.833  34.619  32.757  1.00  0.00    -0.744 OA
ENDBRANCH  89  92
ENDBRANCH  62  85
ENDBRANCH  36  37
ENDBRANCH  29  31
ENDBRANCH  28  29
ENDBRANCH  27  28
ENDBRANCH  26  27
ENDBRANCH   1  26
TORSDOF 21
ENDMDL
