MODEL 1
REMARK VINA RESULT:     -11.4      0.000      0.000
REMARK SMILES C[C@@H](C(=O)OCCOCCOC(=O)c1ccc(-c2c3nc(c(-c4cccc(S(=O)(=O)[O-])c4F)c4ccc([nH]4)c(-c4cccc(S(=O)(=O)[O-])c4F)c4nc(c(-c5cccc(S(=O)(=O)[O-])c5F)c5ccc2[nH]5)C=C4)C=C3)cc1)c1ccc(-c2ccc3[nH]ccc3c2)cc1
REMARK SMILES IDX 9 1 8 2 7 3 6 4 5 5 3 6 4 7 2 8 1 9 77 10 78 11 91 12 79 13
REMARK SMILES IDX 90 14 80 15 81 16 82 17 89 18 83 19 88 20 84 21 87 22 85 23
REMARK SMILES IDX 86 24 10 26 11 27 12 28 13 29 14 30 15 31 76 32 16 33 75 34
REMARK SMILES IDX 17 35 18 36 19 37 69 38 20 39 74 40 68 41 70 42 21 43 73 44
REMARK SMILES IDX 67 45 66 46 22 48 54 49 34 50 53 51 35 52 38 53 52 54 71 55
REMARK SMILES IDX 36 56 37 57 51 59 72 60 39 61 23 62 24 63 32 64 25 65 27 66
REMARK SMILES IDX 33 67 26 68 28 69 29 70 30 71 31 72 55 73 56 74 64 75 57 76
REMARK SMILES IDX 59 77 65 78 58 79 60 80 61 81 62 82 63 83 40 84 41 85 49 86
REMARK SMILES IDX 42 87 44 88 50 89 43 90 45 91 46 92 47 93 48 94
REMARK H PARENT 85 25 70 47 38 58
REMARK Flexibility Score: inf
ROOT
ATOM      1  C   UNL A   1      31.930  28.125  26.787  1.00  0.00     0.202 C 
ENDROOT
BRANCH   1   2
ATOM      2  O   UNL A   1      31.324  27.574  25.615  1.00  0.00    -0.374 OA
BRANCH   2   3
ATOM      3  C   UNL A   1      31.255  28.411  24.457  1.00  0.00     0.202 C 
BRANCH   3   4
ATOM      4  C   UNL A   1      32.106  27.973  23.261  1.00  0.00     0.261 C 
BRANCH   4   5
ATOM      5  O   UNL A   1      33.044  26.959  23.653  1.00  0.00    -0.463 OA
BRANCH   5   6
ATOM      6  C   UNL A   1      33.397  26.071  22.684  1.00  0.00     0.313 C 
ATOM      7  O   UNL A   1      33.806  26.392  21.572  1.00  0.00    -0.252 OA
BRANCH   6   8
ATOM      8  C   UNL A   1      33.369  24.624  23.183  1.00  0.00     0.126 C 
ATOM      9  C   UNL A   1      32.137  24.293  24.036  1.00  0.00     0.025 C 
BRANCH   8  10
ATOM     10  C   UNL A   1      34.663  24.191  23.879  1.00  0.00    -0.034 A 
ATOM     11  C   UNL A   1      35.651  23.424  23.240  1.00  0.00     0.005 A 
ATOM     12  C   UNL A   1      34.883  24.551  25.219  1.00  0.00     0.005 A 
ATOM     13  C   UNL A   1      36.806  23.021  23.920  1.00  0.00     0.009 A 
ATOM     14  C   UNL A   1      36.040  24.147  25.898  1.00  0.00     0.009 A 
ATOM     15  C   UNL A   1      37.014  23.368  25.260  1.00  0.00    -0.018 A 
BRANCH  15  16
ATOM     16  C   UNL A   1      38.204  22.895  25.974  1.00  0.00    -0.018 A 
ATOM     17  C   UNL A   1      38.907  23.744  26.841  1.00  0.00     0.011 A 
ATOM     18  C   UNL A   1      38.680  21.586  25.765  1.00  0.00     0.019 A 
ATOM     19  C   UNL A   1      40.070  23.328  27.504  1.00  0.00     0.027 A 
ATOM     20  C   UNL A   1      39.854  21.148  26.409  1.00  0.00    -0.000 A 
ATOM     21  C   UNL A   1      40.520  22.026  27.262  1.00  0.00     0.045 A 
ATOM     22  C   UNL A   1      40.596  19.934  26.394  1.00  0.00     0.028 A 
ATOM     23  N   UNL A   1      41.622  21.359  27.750  1.00  0.00    -0.361 N 
ATOM     24  C   UNL A   1      41.681  20.095  27.225  1.00  0.00     0.083 A 
ATOM     25  H   UNL A   1      42.274  21.738  28.383  1.00  0.00     0.166 HD
ENDBRANCH  15  16
ENDBRANCH   8  10
ENDBRANCH   6   8
ENDBRANCH   5   6
ENDBRANCH   4   5
ENDBRANCH   3   4
ENDBRANCH   2   3
ENDBRANCH   1   2
BRANCH   1  26
ATOM     26  C   UNL A   1      32.156  29.641  26.807  1.00  0.00     0.261 C 
BRANCH  26  27
ATOM     27  O   UNL A   1      33.529  30.001  26.563  1.00  0.00    -0.460 OA
BRANCH  27  28
ATOM     28  C   UNL A   1      33.976  31.051  27.292  1.00  0.00     0.338 C 
ATOM     29  O   UNL A   1      33.345  32.052  27.606  1.00  0.00    -0.246 OA
BRANCH  28  30
ATOM     30  C   UNL A   1      35.317  30.771  27.836  1.00  0.00     0.060 A 
ATOM     31  C   UNL A   1      35.655  29.429  28.055  1.00  0.00     0.016 A 
ATOM     32  C   UNL A   1      36.187  31.793  28.219  1.00  0.00     0.016 A 
ATOM     33  C   UNL A   1      36.843  29.105  28.707  1.00  0.00     0.010 A 
ATOM     34  C   UNL A   1      37.377  31.466  28.882  1.00  0.00     0.010 A 
ATOM     35  C   UNL A   1      37.691  30.124  29.162  1.00  0.00    -0.014 A 
BRANCH  35  36
ATOM     36  C   UNL A   1      38.830  29.781  30.050  1.00  0.00     0.031 A 
ATOM     37  C   UNL A   1      38.927  30.430  31.404  1.00  0.00     0.074 A 
ATOM     38  C   UNL A   1      39.761  28.892  29.659  1.00  0.00     0.049 A 
ATOM     39  N   UNL A   1      39.830  30.270  32.336  1.00  0.00    -0.248 NA
ATOM     40  C   UNL A   1      37.864  31.387  31.755  1.00  0.00     0.031 C 
ATOM     41  C   UNL A   1      39.777  28.197  28.373  1.00  0.00     0.029 A 
ATOM     42  N   UNL A   1      40.884  28.437  30.304  1.00  0.00    -0.354 N 
ATOM     43  C   UNL A   1      39.461  31.117  33.373  1.00  0.00     0.074 A 
ATOM     44  C   UNL A   1      38.257  31.801  32.952  1.00  0.00     0.031 C 
ATOM     45  C   UNL A   1      40.874  27.422  28.312  1.00  0.00     0.029 A 
ATOM     46  C   UNL A   1      41.643  27.579  29.545  1.00  0.00     0.049 A 
ATOM     47  H   UNL A   1      41.123  28.700  31.222  1.00  0.00     0.167 HD
ATOM     48  C   UNL A   1      40.057  31.297  34.575  1.00  0.00     0.034 A 
ATOM     49  C   UNL A   1      42.832  26.998  29.810  1.00  0.00     0.034 A 
ATOM     50  C   UNL A   1      41.240  30.600  35.004  1.00  0.00     0.049 A 
ATOM     51  C   UNL A   1      43.482  27.227  31.149  1.00  0.00     0.074 A 
ATOM     52  C   UNL A   1      41.889  30.678  36.224  1.00  0.00     0.029 A 
ATOM     53  N   UNL A   1      41.956  29.705  34.226  1.00  0.00    -0.354 N 
ATOM     54  N   UNL A   1      43.050  27.930  32.168  1.00  0.00    -0.248 NA
ATOM     55  C   UNL A   1      44.769  26.555  31.389  1.00  0.00     0.031 C 
ATOM     56  C   UNL A   1      43.010  29.843  36.175  1.00  0.00     0.029 A 
ATOM     57  C   UNL A   1      43.048  29.232  34.933  1.00  0.00     0.049 A 
ATOM     58  H   UNL A   1      41.723  29.445  33.306  1.00  0.00     0.167 HD
ATOM     59  C   UNL A   1      43.991  27.758  33.178  1.00  0.00     0.074 A 
ATOM     60  C   UNL A   1      45.007  26.869  32.655  1.00  0.00     0.031 C 
ATOM     61  C   UNL A   1      44.021  28.301  34.421  1.00  0.00     0.034 A 
BRANCH  48  62
ATOM     62  C   UNL A   1      39.416  32.264  35.534  1.00  0.00     0.023 A 
ATOM     63  C   UNL A   1      38.321  31.842  36.315  1.00  0.00     0.012 A 
ATOM     64  C   UNL A   1      39.930  33.564  35.707  1.00  0.00     0.148 A 
ATOM     65  C   UNL A   1      37.730  32.707  37.235  1.00  0.00     0.002 A 
ATOM     66  C   UNL A   1      39.358  34.408  36.653  1.00  0.00     0.091 A 
ATOM     67  F   UNL A   1      40.955  33.955  34.936  1.00  0.00    -0.205 F 
ATOM     68  C   UNL A   1      38.255  33.985  37.410  1.00  0.00     0.022 A 
BRANCH  66  69
ATOM     69  S   UNL A   1      40.007  36.047  36.999  1.00  0.00     0.127 S 
ATOM     70  O   UNL A   1      39.720  36.749  35.749  1.00  0.00    -0.237 OA
ATOM     71  O   UNL A   1      39.188  36.471  38.136  1.00  0.00    -0.237 OA
ATOM     72  O   UNL A   1      41.418  35.863  37.307  1.00  0.00    -0.744 OA
ENDBRANCH  66  69
ENDBRANCH  48  62
BRANCH  49  73
ATOM     73  C   UNL A   1      43.462  26.106  28.797  1.00  0.00     0.023 A 
ATOM     74  C   UNL A   1      43.225  24.718  28.850  1.00  0.00     0.012 A 
ATOM     75  C   UNL A   1      44.277  26.625  27.773  1.00  0.00     0.148 A 
ATOM     76  C   UNL A   1      43.808  23.862  27.915  1.00  0.00     0.002 A 
ATOM     77  C   UNL A   1      44.811  25.773  26.813  1.00  0.00     0.091 A 
ATOM     78  F   UNL A   1      44.510  27.945  27.753  1.00  0.00    -0.205 F 
ATOM     79  C   UNL A   1      44.590  24.389  26.891  1.00  0.00     0.022 A 
BRANCH  77  80
ATOM     80  S   UNL A   1      45.722  26.384  25.391  1.00  0.00     0.127 S 
ATOM     81  O   UNL A   1      47.025  26.683  25.976  1.00  0.00    -0.237 OA
ATOM     82  O   UNL A   1      45.698  25.228  24.494  1.00  0.00    -0.237 OA
ATOM     83  O   UNL A   1      44.963  27.530  24.907  1.00  0.00    -0.744 OA
ENDBRANCH  77  80
ENDBRANCH  49  73
BRANCH  61  84
ATOM     84  C   UNL A   1      45.171  27.932  35.321  1.00  0.00     0.023 A 
ATOM     85  C   UNL A   1      46.345  28.710  35.304  1.00  0.00     0.012 A 
ATOM     86  C   UNL A   1      45.058  26.871  36.241  1.00  0.00     0.148 A 
ATOM     87  C   UNL A   1      47.401  28.421  36.170  1.00  0.00     0.002 A 
ATOM     88  C   UNL A   1      46.096  26.616  37.130  1.00  0.00     0.091 A 
ATOM     89  F   UNL A   1      43.940  26.129  36.228  1.00  0.00    -0.205 F 
ATOM     90  C   UNL A   1      47.271  27.382  37.090  1.00  0.00     0.022 A 
BRANCH  88  91
ATOM     91  S   UNL A   1      45.974  25.359  38.409  1.00  0.00     0.127 S 
ATOM     92  O   UNL A   1      45.639  24.170  37.628  1.00  0.00    -0.237 OA
ATOM     93  O   UNL A   1      47.325  25.356  38.974  1.00  0.00    -0.237 OA
ATOM     94  O   UNL A   1      44.940  25.821  39.325  1.00  0.00    -0.744 OA
ENDBRANCH  88  91
ENDBRANCH  61  84
ENDBRANCH  35  36
ENDBRANCH  28  30
ENDBRANCH  27  28
ENDBRANCH  26  27
ENDBRANCH   1  26
TORSDOF 19
ENDMDL
MODEL 2
REMARK VINA RESULT:     -11.3      2.869      3.856
REMARK SMILES C[C@@H](C(=O)OCCOCCOC(=O)c1ccc(-c2c3nc(c(-c4cccc(S(=O)(=O)[O-])c4F)c4ccc([nH]4)c(-c4cccc(S(=O)(=O)[O-])c4F)c4nc(c(-c5cccc(S(=O)(=O)[O-])c5F)c5ccc2[nH]5)C=C4)C=C3)cc1)c1ccc(-c2ccc3[nH]ccc3c2)cc1
REMARK SMILES IDX 9 1 8 2 7 3 6 4 5 5 3 6 4 7 2 8 1 9 77 10 78 11 91 12 79 13
REMARK SMILES IDX 90 14 80 15 81 16 82 17 89 18 83 19 88 20 84 21 87 22 85 23
REMARK SMILES IDX 86 24 10 26 11 27 12 28 13 29 14 30 15 31 76 32 16 33 75 34
REMARK SMILES IDX 17 35 18 36 19 37 69 38 20 39 74 40 68 41 70 42 21 43 73 44
REMARK SMILES IDX 67 45 66 46 22 48 54 49 34 50 53 51 35 52 38 53 52 54 71 55
REMARK SMILES IDX 36 56 37 57 51 59 72 60 39 61 23 62 24 63 32 64 25 65 27 66
REMARK SMILES IDX 33 67 26 68 28 69 29 70 30 71 31 72 55 73 56 74 64 75 57 76
REMARK SMILES IDX 59 77 65 78 58 79 60 80 61 81 62 82 63 83 40 84 41 85 49 86
REMARK SMILES IDX 42 87 44 88 50 89 43 90 45 91 46 92 47 93 48 94
REMARK H PARENT 85 25 70 47 38 58
REMARK Flexibility Score: inf
ROOT
ATOM      1  C   UNL A   1      30.807  31.765  25.541  1.00  0.00     0.202 C 
ENDROOT
BRANCH   1   2
ATOM      2  O   UNL A   1      30.926  30.406  25.112  1.00  0.00    -0.374 OA
BRANCH   2   3
ATOM      3  C   UNL A   1      30.236  30.031  23.917  1.00  0.00     0.202 C 
BRANCH   3   4
ATOM      4  C   UNL A   1      30.698  28.729  23.255  1.00  0.00     0.261 C 
BRANCH   4   5
ATOM      5  O   UNL A   1      31.915  28.940  22.522  1.00  0.00    -0.463 OA
BRANCH   5   6
ATOM      6  C   UNL A   1      32.886  28.005  22.706  1.00  0.00     0.313 C 
ATOM      7  O   UNL A   1      33.786  27.777  21.902  1.00  0.00    -0.252 OA
BRANCH   6   8
ATOM      8  C   UNL A   1      32.823  27.366  24.097  1.00  0.00     0.126 C 
ATOM      9  C   UNL A   1      33.920  27.863  25.049  1.00  0.00     0.025 C 
BRANCH   8  10
ATOM     10  C   UNL A   1      32.762  25.836  24.066  1.00  0.00    -0.034 A 
ATOM     11  C   UNL A   1      33.768  25.023  24.616  1.00  0.00     0.005 A 
ATOM     12  C   UNL A   1      31.671  25.198  23.453  1.00  0.00     0.005 A 
ATOM     13  C   UNL A   1      33.691  23.628  24.541  1.00  0.00     0.009 A 
ATOM     14  C   UNL A   1      31.597  23.800  23.377  1.00  0.00     0.009 A 
ATOM     15  C   UNL A   1      32.611  22.996  23.913  1.00  0.00    -0.018 A 
BRANCH  15  16
ATOM     16  C   UNL A   1      32.570  21.535  23.796  1.00  0.00    -0.018 A 
ATOM     17  C   UNL A   1      32.238  20.921  22.580  1.00  0.00     0.011 A 
ATOM     18  C   UNL A   1      32.828  20.728  24.921  1.00  0.00     0.019 A 
ATOM     19  C   UNL A   1      32.153  19.528  22.453  1.00  0.00     0.027 A 
ATOM     20  C   UNL A   1      32.737  19.326  24.823  1.00  0.00    -0.000 A 
ATOM     21  C   UNL A   1      32.403  18.759  23.595  1.00  0.00     0.045 A 
ATOM     22  C   UNL A   1      32.903  18.257  25.748  1.00  0.00     0.028 A 
ATOM     23  N   UNL A   1      32.377  17.394  23.773  1.00  0.00    -0.361 N 
ATOM     24  C   UNL A   1      32.671  17.080  25.073  1.00  0.00     0.083 A 
ATOM     25  H   UNL A   1      32.175  16.738  23.066  1.00  0.00     0.166 HD
ENDBRANCH  15  16
ENDBRANCH   8  10
ENDBRANCH   6   8
ENDBRANCH   5   6
ENDBRANCH   4   5
ENDBRANCH   3   4
ENDBRANCH   2   3
ENDBRANCH   1   2
BRANCH   1  26
ATOM     26  C   UNL A   1      31.390  32.114  26.915  1.00  0.00     0.261 C 
BRANCH  26  27
ATOM     27  O   UNL A   1      32.773  31.737  27.043  1.00  0.00    -0.460 OA
BRANCH  27  28
ATOM     28  C   UNL A   1      33.558  32.662  27.646  1.00  0.00     0.338 C 
ATOM     29  O   UNL A   1      33.231  33.787  28.002  1.00  0.00    -0.246 OA
BRANCH  28  30
ATOM     30  C   UNL A   1      34.866  32.081  27.999  1.00  0.00     0.060 A 
ATOM     31  C   UNL A   1      34.923  30.696  28.197  1.00  0.00     0.016 A 
ATOM     32  C   UNL A   1      35.989  32.877  28.230  1.00  0.00     0.016 A 
ATOM     33  C   UNL A   1      36.090  30.106  28.679  1.00  0.00     0.010 A 
ATOM     34  C   UNL A   1      37.159  32.284  28.722  1.00  0.00     0.010 A 
ATOM     35  C   UNL A   1      37.202  30.902  28.985  1.00  0.00    -0.014 A 
BRANCH  35  36
ATOM     36  C   UNL A   1      38.351  30.303  29.707  1.00  0.00     0.031 A 
ATOM     37  C   UNL A   1      38.645  30.745  31.115  1.00  0.00     0.074 A 
ATOM     38  C   UNL A   1      39.116  29.365  29.121  1.00  0.00     0.049 A 
ATOM     39  N   UNL A   1      39.591  30.348  31.926  1.00  0.00    -0.248 NA
ATOM     40  C   UNL A   1      37.755  31.771  31.684  1.00  0.00     0.031 C 
ATOM     41  C   UNL A   1      38.932  28.853  27.763  1.00  0.00     0.029 A 
ATOM     42  N   UNL A   1      40.215  28.689  29.591  1.00  0.00    -0.354 N 
ATOM     43  C   UNL A   1      39.426  31.088  33.092  1.00  0.00     0.074 A 
ATOM     44  C   UNL A   1      38.297  31.968  32.878  1.00  0.00     0.031 C 
ATOM     45  C   UNL A   1      39.904  27.962  27.500  1.00  0.00     0.029 A 
ATOM     46  C   UNL A   1      40.785  27.853  28.661  1.00  0.00     0.049 A 
ATOM     47  H   UNL A   1      40.561  28.793  30.506  1.00  0.00     0.167 HD
ATOM     48  C   UNL A   1      40.137  31.027  34.242  1.00  0.00     0.034 A 
ATOM     49  C   UNL A   1      41.900  27.097  28.734  1.00  0.00     0.034 A 
ATOM     50  C   UNL A   1      41.244  30.136  34.464  1.00  0.00     0.049 A 
ATOM     51  C   UNL A   1      42.682  27.060  30.021  1.00  0.00     0.074 A 
ATOM     52  C   UNL A   1      41.994  29.966  35.614  1.00  0.00     0.029 A 
ATOM     53  N   UNL A   1      41.765  29.271  33.514  1.00  0.00    -0.354 N 
ATOM     54  N   UNL A   1      42.435  27.667  31.157  1.00  0.00    -0.248 NA
ATOM     55  C   UNL A   1      43.880  26.205  30.048  1.00  0.00     0.031 C 
ATOM     56  C   UNL A   1      42.982  29.011  35.353  1.00  0.00     0.029 A 
ATOM     57  C   UNL A   1      42.836  28.573  34.047  1.00  0.00     0.049 A 
ATOM     58  H   UNL A   1      41.424  29.170  32.597  1.00  0.00     0.167 HD
ATOM     59  C   UNL A   1      43.422  27.244  32.040  1.00  0.00     0.074 A 
ATOM     60  C   UNL A   1      44.261  26.313  31.314  1.00  0.00     0.031 C 
ATOM     61  C   UNL A   1      43.627  27.606  33.332  1.00  0.00     0.034 A 
BRANCH  48  62
ATOM     62  C   UNL A   1      39.715  31.929  35.371  1.00  0.00     0.023 A 
ATOM     63  C   UNL A   1      40.194  33.254  35.415  1.00  0.00     0.012 A 
ATOM     64  C   UNL A   1      38.803  31.489  36.350  1.00  0.00     0.148 A 
ATOM     65  C   UNL A   1      39.793  34.120  36.431  1.00  0.00     0.002 A 
ATOM     66  C   UNL A   1      38.379  32.370  37.339  1.00  0.00     0.091 A 
ATOM     67  F   UNL A   1      38.380  30.218  36.305  1.00  0.00    -0.205 F 
ATOM     68  C   UNL A   1      38.879  33.681  37.386  1.00  0.00     0.022 A 
BRANCH  66  69
ATOM     69  S   UNL A   1      37.152  31.919  38.571  1.00  0.00     0.127 S 
ATOM     70  O   UNL A   1      37.031  30.478  38.353  1.00  0.00    -0.237 OA
ATOM     71  O   UNL A   1      37.817  32.291  39.821  1.00  0.00    -0.237 OA
ATOM     72  O   UNL A   1      35.965  32.703  38.261  1.00  0.00    -0.744 OA
ENDBRANCH  66  69
ENDBRANCH  48  62
BRANCH  49  73
ATOM     73  C   UNL A   1      42.317  26.278  27.563  1.00  0.00     0.023 A 
ATOM     74  C   UNL A   1      43.114  26.859  26.557  1.00  0.00     0.012 A 
ATOM     75  C   UNL A   1      41.948  24.924  27.449  1.00  0.00     0.148 A 
ATOM     76  C   UNL A   1      43.514  26.113  25.447  1.00  0.00     0.002 A 
ATOM     77  C   UNL A   1      42.394  24.172  26.369  1.00  0.00     0.091 A 
ATOM     78  F   UNL A   1      41.170  24.395  28.405  1.00  0.00    -0.205 F 
ATOM     79  C   UNL A   1      43.165  24.768  25.359  1.00  0.00     0.022 A 
BRANCH  77  80
ATOM     80  S   UNL A   1      42.098  22.405  26.244  1.00  0.00     0.127 S 
ATOM     81  O   UNL A   1      40.644  22.353  26.126  1.00  0.00    -0.237 OA
ATOM     82  O   UNL A   1      42.829  22.057  25.025  1.00  0.00    -0.237 OA
ATOM     83  O   UNL A   1      42.658  21.830  27.461  1.00  0.00    -0.744 OA
ENDBRANCH  77  80
ENDBRANCH  49  73
BRANCH  61  84
ATOM     84  C   UNL A   1      44.784  26.978  34.062  1.00  0.00     0.023 A 
ATOM     85  C   UNL A   1      46.021  27.649  34.115  1.00  0.00     0.012 A 
ATOM     86  C   UNL A   1      44.624  25.767  34.765  1.00  0.00     0.148 A 
ATOM     87  C   UNL A   1      47.090  27.113  34.833  1.00  0.00     0.002 A 
ATOM     88  C   UNL A   1      45.680  25.261  35.515  1.00  0.00     0.091 A 
ATOM     89  F   UNL A   1      43.445  25.132  34.687  1.00  0.00    -0.205 F 
ATOM     90  C   UNL A   1      46.916  25.926  35.542  1.00  0.00     0.022 A 
BRANCH  88  91
ATOM     91  S   UNL A   1      45.513  23.789  36.533  1.00  0.00     0.127 S 
ATOM     92  O   UNL A   1      46.886  23.286  36.557  1.00  0.00    -0.237 OA
ATOM     93  O   UNL A   1      45.044  24.339  37.805  1.00  0.00    -0.237 OA
ATOM     94  O   UNL A   1      44.545  22.940  35.850  1.00  0.00    -0.744 OA
ENDBRANCH  88  91
ENDBRANCH  61  84
ENDBRANCH  35  36
ENDBRANCH  28  30
ENDBRANCH  27  28
ENDBRANCH  26  27
ENDBRANCH   1  26
TORSDOF 19
ENDMDL
MODEL 3
REMARK VINA RESULT:     -10.9      2.595      8.060
REMARK SMILES C[C@@H](C(=O)OCCOCCOC(=O)c1ccc(-c2c3nc(c(-c4cccc(S(=O)(=O)[O-])c4F)c4ccc([nH]4)c(-c4cccc(S(=O)(=O)[O-])c4F)c4nc(c(-c5cccc(S(=O)(=O)[O-])c5F)c5ccc2[nH]5)C=C4)C=C3)cc1)c1ccc(-c2ccc3[nH]ccc3c2)cc1
REMARK SMILES IDX 9 1 8 2 7 3 6 4 5 5 3 6 4 7 2 8 1 9 77 10 78 11 91 12 79 13
REMARK SMILES IDX 90 14 80 15 81 16 82 17 89 18 83 19 88 20 84 21 87 22 85 23
REMARK SMILES IDX 86 24 10 26 11 27 12 28 13 29 14 30 15 31 76 32 16 33 75 34
REMARK SMILES IDX 17 35 18 36 19 37 69 38 20 39 74 40 68 41 70 42 21 43 73 44
REMARK SMILES IDX 67 45 66 46 22 48 54 49 34 50 53 51 35 52 38 53 52 54 71 55
REMARK SMILES IDX 36 56 37 57 51 59 72 60 39 61 23 62 24 63 32 64 25 65 27 66
REMARK SMILES IDX 33 67 26 68 28 69 29 70 30 71 31 72 55 73 56 74 64 75 57 76
REMARK SMILES IDX 59 77 65 78 58 79 60 80 61 81 62 82 63 83 40 84 41 85 49 86
REMARK SMILES IDX 42 87 44 88 50 89 43 90 45 91 46 92 47 93 48 94
REMARK H PARENT 85 25 70 47 38 58
REMARK Flexibility Score: inf
ROOT
ATOM      1  C   UNL A   1      31.229  31.204  26.374  1.00  0.00     0.202 C 
ENDROOT
BRANCH   1   2
ATOM      2  O   UNL A   1      32.402  30.435  26.098  1.00  0.00    -0.374 OA
BRANCH   2   3
ATOM      3  C   UNL A   1      32.727  29.383  27.010  1.00  0.00     0.202 C 
BRANCH   3   4
ATOM      4  C   UNL A   1      31.561  28.489  27.446  1.00  0.00     0.261 C 
BRANCH   4   5
ATOM      5  O   UNL A   1      31.860  27.108  27.187  1.00  0.00    -0.463 OA
BRANCH   5   6
ATOM      6  C   UNL A   1      31.968  26.762  25.875  1.00  0.00     0.313 C 
ATOM      7  O   UNL A   1      31.040  26.800  25.074  1.00  0.00    -0.252 OA
BRANCH   6   8
ATOM      8  C   UNL A   1      33.414  26.460  25.471  1.00  0.00     0.126 C 
ATOM      9  C   UNL A   1      33.871  27.218  24.217  1.00  0.00     0.025 C 
BRANCH   8  10
ATOM     10  C   UNL A   1      33.719  24.962  25.359  1.00  0.00    -0.034 A 
ATOM     11  C   UNL A   1      34.867  24.465  24.721  1.00  0.00     0.005 A 
ATOM     12  C   UNL A   1      32.817  24.030  25.897  1.00  0.00     0.005 A 
ATOM     13  C   UNL A   1      35.095  23.089  24.613  1.00  0.00     0.009 A 
ATOM     14  C   UNL A   1      33.046  22.651  25.786  1.00  0.00     0.009 A 
ATOM     15  C   UNL A   1      34.186  22.162  25.134  1.00  0.00    -0.018 A 
BRANCH  15  16
ATOM     16  C   UNL A   1      34.412  20.723  24.966  1.00  0.00    -0.018 A 
ATOM     17  C   UNL A   1      35.712  20.200  24.924  1.00  0.00     0.011 A 
ATOM     18  C   UNL A   1      33.319  19.850  24.806  1.00  0.00     0.019 A 
ATOM     19  C   UNL A   1      35.954  18.834  24.724  1.00  0.00     0.027 A 
ATOM     20  C   UNL A   1      33.536  18.474  24.590  1.00  0.00    -0.000 A 
ATOM     21  C   UNL A   1      34.845  17.999  24.555  1.00  0.00     0.045 A 
ATOM     22  C   UNL A   1      32.678  17.361  24.369  1.00  0.00     0.028 A 
ATOM     23  N   UNL A   1      34.777  16.643  24.328  1.00  0.00    -0.361 N 
ATOM     24  C   UNL A   1      33.471  16.247  24.208  1.00  0.00     0.083 A 
ATOM     25  H   UNL A   1      35.556  16.044  24.262  1.00  0.00     0.166 HD
ENDBRANCH  15  16
ENDBRANCH   8  10
ENDBRANCH   6   8
ENDBRANCH   5   6
ENDBRANCH   4   5
ENDBRANCH   3   4
ENDBRANCH   2   3
ENDBRANCH   1   2
BRANCH   1  26
ATOM     26  C   UNL A   1      31.424  32.703  26.633  1.00  0.00     0.261 C 
BRANCH  26  27
ATOM     27  O   UNL A   1      32.809  33.095  26.609  1.00  0.00    -0.460 OA
BRANCH  27  28
ATOM     28  C   UNL A   1      33.263  33.637  27.764  1.00  0.00     0.338 C 
ATOM     29  O   UNL A   1      32.685  34.451  28.474  1.00  0.00    -0.246 OA
BRANCH  28  30
ATOM     30  C   UNL A   1      34.516  32.985  28.186  1.00  0.00     0.060 A 
ATOM     31  C   UNL A   1      34.422  31.693  28.720  1.00  0.00     0.016 A 
ATOM     32  C   UNL A   1      35.742  33.652  28.157  1.00  0.00     0.016 A 
ATOM     33  C   UNL A   1      35.544  31.082  29.276  1.00  0.00     0.010 A 
ATOM     34  C   UNL A   1      36.867  33.040  28.724  1.00  0.00     0.010 A 
ATOM     35  C   UNL A   1      36.764  31.770  29.320  1.00  0.00    -0.014 A 
BRANCH  35  36
ATOM     36  C   UNL A   1      37.887  31.210  30.112  1.00  0.00     0.031 A 
ATOM     37  C   UNL A   1      38.777  30.168  29.491  1.00  0.00     0.074 A 
ATOM     38  C   UNL A   1      38.120  31.635  31.367  1.00  0.00     0.049 A 
ATOM     39  N   UNL A   1      39.814  29.555  30.000  1.00  0.00    -0.248 NA
ATOM     40  C   UNL A   1      38.457  29.765  28.111  1.00  0.00     0.031 C 
ATOM     41  C   UNL A   1      37.330  32.638  32.079  1.00  0.00     0.029 A 
ATOM     42  N   UNL A   1      39.081  31.258  32.271  1.00  0.00    -0.354 N 
ATOM     43  C   UNL A   1      40.257  28.679  29.016  1.00  0.00     0.074 A 
ATOM     44  C   UNL A   1      39.370  28.830  27.883  1.00  0.00     0.031 C 
ATOM     45  C   UNL A   1      37.822  32.778  33.322  1.00  0.00     0.029 A 
ATOM     46  C   UNL A   1      38.951  31.864  33.497  1.00  0.00     0.049 A 
ATOM     47  H   UNL A   1      39.797  30.615  32.062  1.00  0.00     0.167 HD
ATOM     48  C   UNL A   1      41.318  27.838  29.045  1.00  0.00     0.034 A 
ATOM     49  C   UNL A   1      39.652  31.691  34.637  1.00  0.00     0.034 A 
ATOM     50  C   UNL A   1      42.215  27.705  30.161  1.00  0.00     0.049 A 
ATOM     51  C   UNL A   1      40.818  30.737  34.646  1.00  0.00     0.074 A 
ATOM     52  C   UNL A   1      43.348  26.917  30.265  1.00  0.00     0.029 A 
ATOM     53  N   UNL A   1      42.077  28.368  31.370  1.00  0.00    -0.354 N 
ATOM     54  N   UNL A   1      41.302  30.014  33.666  1.00  0.00    -0.248 NA
ATOM     55  C   UNL A   1      41.556  30.601  35.912  1.00  0.00     0.031 C 
ATOM     56  C   UNL A   1      43.884  27.090  31.545  1.00  0.00     0.029 A 
ATOM     57  C   UNL A   1      43.096  27.999  32.231  1.00  0.00     0.049 A 
ATOM     58  H   UNL A   1      41.360  29.007  31.584  1.00  0.00     0.167 HD
ATOM     59  C   UNL A   1      42.419  29.366  34.184  1.00  0.00     0.074 A 
ATOM     60  C   UNL A   1      42.550  29.796  35.560  1.00  0.00     0.031 C 
ATOM     61  C   UNL A   1      43.250  28.479  33.580  1.00  0.00     0.034 A 
BRANCH  48  62
ATOM     62  C   UNL A   1      41.592  27.018  27.813  1.00  0.00     0.023 A 
ATOM     63  C   UNL A   1      42.188  27.631  26.691  1.00  0.00     0.012 A 
ATOM     64  C   UNL A   1      41.318  25.638  27.783  1.00  0.00     0.148 A 
ATOM     65  C   UNL A   1      42.483  26.888  25.550  1.00  0.00     0.002 A 
ATOM     66  C   UNL A   1      41.649  24.895  26.654  1.00  0.00     0.091 A 
ATOM     67  F   UNL A   1      40.727  25.079  28.849  1.00  0.00    -0.205 F 
ATOM     68  C   UNL A   1      42.223  25.520  25.535  1.00  0.00     0.022 A 
BRANCH  66  69
ATOM     69  S   UNL A   1      41.416  23.116  26.567  1.00  0.00     0.127 S 
ATOM     70  O   UNL A   1      42.195  22.775  25.378  1.00  0.00    -0.237 OA
ATOM     71  O   UNL A   1      42.003  22.665  27.830  1.00  0.00    -0.237 OA
ATOM     72  O   UNL A   1      39.979  22.906  26.459  1.00  0.00    -0.744 OA
ENDBRANCH  66  69
ENDBRANCH  48  62
BRANCH  49  73
ATOM     73  C   UNL A   1      39.295  32.473  35.853  1.00  0.00     0.023 A 
ATOM     74  C   UNL A   1      38.507  31.877  36.857  1.00  0.00     0.012 A 
ATOM     75  C   UNL A   1      39.746  33.795  36.029  1.00  0.00     0.148 A 
ATOM     76  C   UNL A   1      38.156  32.591  38.003  1.00  0.00     0.002 A 
ATOM     77  C   UNL A   1      39.438  34.483  37.198  1.00  0.00     0.091 A 
ATOM     78  F   UNL A   1      40.475  34.354  35.053  1.00  0.00    -0.205 F 
ATOM     79  C   UNL A   1      38.630  33.888  38.179  1.00  0.00     0.022 A 
BRANCH  77  80
ATOM     80  S   UNL A   1      40.114  36.107  37.560  1.00  0.00     0.127 S 
ATOM     81  O   UNL A   1      39.866  36.820  36.310  1.00  0.00    -0.237 OA
ATOM     82  O   UNL A   1      39.290  36.536  38.690  1.00  0.00    -0.237 OA
ATOM     83  O   UNL A   1      41.514  35.879  37.895  1.00  0.00    -0.744 OA
ENDBRANCH  77  80
ENDBRANCH  49  73
BRANCH  61  84
ATOM     84  C   UNL A   1      44.397  27.932  34.387  1.00  0.00     0.023 A 
ATOM     85  C   UNL A   1      45.604  28.655  34.460  1.00  0.00     0.012 A 
ATOM     86  C   UNL A   1      44.254  26.748  35.139  1.00  0.00     0.148 A 
ATOM     87  C   UNL A   1      46.661  28.194  35.247  1.00  0.00     0.002 A 
ATOM     88  C   UNL A   1      45.294  26.319  35.954  1.00  0.00     0.091 A 
ATOM     89  F   UNL A   1      43.104  26.063  35.040  1.00  0.00    -0.205 F 
ATOM     90  C   UNL A   1      46.501  27.035  36.003  1.00  0.00     0.022 A 
BRANCH  88  91
ATOM     91  S   UNL A   1      45.140  24.889  37.032  1.00  0.00     0.127 S 
ATOM     92  O   UNL A   1      45.166  23.787  36.071  1.00  0.00    -0.237 OA
ATOM     93  O   UNL A   1      46.337  24.996  37.868  1.00  0.00    -0.237 OA
ATOM     94  O   UNL A   1      43.885  25.066  37.751  1.00  0.00    -0.744 OA
ENDBRANCH  88  91
ENDBRANCH  61  84
ENDBRANCH  35  36
ENDBRANCH  28  30
ENDBRANCH  27  28
ENDBRANCH  26  27
ENDBRANCH   1  26
TORSDOF 19
ENDMDL
