MODEL 1
REMARK VINA RESULT:      -9.1      0.000      0.000
REMARK SMILES Cc1nc(C[N@H+](C)[C@H](C)c2ccc(C(=O)OCCOCCOC(=O)c3ccc(-c4c5nc(c(-c6cccc(S(=O)(=O)[O-])c6F)c6ccc([nH]6)c(-c6cccc(S(=O)(=O)[O-])c6F)c6nc(c(-c7cccc(S(=O)(=O)[O-])c7F)c7ccc4[nH]7)C=C6)C=C5)cc3)o2)cs1
REMARK SMILES IDX 18 1 17 2 16 3 14 4 15 5 13 6 10 7 11 8 88 9 12 10 8 11 9 12
REMARK SMILES IDX 6 13 7 14 5 16 4 17 1 18 2 19 3 20 90 21 89 22 19 23 20 24
REMARK SMILES IDX 21 25 22 26 23 27 24 28 25 29 26 30 87 31 27 32 86 33 28 34
REMARK SMILES IDX 29 35 30 36 80 37 31 38 85 39 79 40 81 41 32 42 84 43 78 44
REMARK SMILES IDX 77 45 33 47 65 48 45 49 64 50 46 51 49 52 63 53 82 54 47 55
REMARK SMILES IDX 48 56 62 58 83 59 50 60 34 61 35 62 43 63 36 64 38 65 44 66
REMARK SMILES IDX 37 67 39 68 40 69 41 70 42 71 66 72 67 73 75 74 68 75 70 76
REMARK SMILES IDX 76 77 69 78 71 79 72 80 73 81 74 82 51 83 52 84 60 85 53 86
REMARK SMILES IDX 55 87 61 88 54 89 56 90 57 91 58 92 59 93
REMARK H PARENT 6 15 81 46 49 57
REMARK Flexibility Score: inf
ROOT
ATOM      1  C   UNL A   1      40.135  22.216  26.301  1.00  0.00     0.202 C 
ENDROOT
BRANCH   1   2
ATOM      2  C   UNL A   1      38.902  21.382  25.947  1.00  0.00     0.261 C 
BRANCH   2   3
ATOM      3  O   UNL A   1      38.026  22.121  25.081  1.00  0.00    -0.457 OA
BRANCH   3   4
ATOM      4  C   UNL A   1      36.761  21.629  24.949  1.00  0.00     0.374 C 
ATOM      5  O   UNL A   1      36.475  20.442  24.834  1.00  0.00    -0.242 OA
BRANCH   4   6
ATOM      6  C   UNL A   1      35.818  22.713  25.068  1.00  0.00     0.212 A 
ATOM      7  C   UNL A   1      34.142  23.971  24.365  1.00  0.00     0.162 A 
ATOM      8  C   UNL A   1      34.477  24.418  25.629  1.00  0.00     0.053 A 
ATOM      9  O   UNL A   1      34.992  22.965  24.004  1.00  0.00    -0.448 OA
ATOM     10  C   UNL A   1      35.511  23.579  26.101  1.00  0.00     0.059 A 
BRANCH   7  11
ATOM     11  C   UNL A   1      33.133  24.414  23.338  1.00  0.00     0.248 C 
ATOM     12  C   UNL A   1      31.764  23.730  23.499  1.00  0.00     0.084 C 
BRANCH  11  13
ATOM     13  N   UNL A   1      33.084  25.890  23.196  1.00  0.00    -0.324 N 
ATOM     14  C   UNL A   1      33.198  26.271  21.785  1.00  0.00     0.333 C 
ATOM     15  H   UNL A   1      33.883  26.200  23.748  1.00  0.00     0.348 HD
BRANCH  13  16
ATOM     16  C   UNL A   1      31.923  26.592  23.791  1.00  0.00     0.320 C 
BRANCH  16  17
ATOM     17  C   UNL A   1      32.274  27.762  24.672  1.00  0.00     0.106 A 
ATOM     18  C   UNL A   1      34.687  29.126  27.066  1.00  0.00     0.079 C 
ATOM     19  C   UNL A   1      33.574  28.844  26.118  1.00  0.00     0.090 A 
ATOM     20  N   UNL A   1      33.463  27.745  25.399  1.00  0.00    -0.241 NA
ATOM     21  S   UNL A   1      32.302  29.982  25.929  1.00  0.00    -0.127 S 
ATOM     22  C   UNL A   1      31.552  28.934  24.805  1.00  0.00     0.096 A 
ENDBRANCH  16  17
ENDBRANCH  13  16
ENDBRANCH  11  13
ENDBRANCH   7  11
ENDBRANCH   4   6
ENDBRANCH   3   4
ENDBRANCH   2   3
ENDBRANCH   1   2
BRANCH   1  23
ATOM     23  O   UNL A   1      41.295  21.416  26.546  1.00  0.00    -0.374 OA
BRANCH  23  24
ATOM     24  C   UNL A   1      41.068  20.004  26.554  1.00  0.00     0.202 C 
BRANCH  24  25
ATOM     25  C   UNL A   1      42.319  19.193  26.206  1.00  0.00     0.261 C 
BRANCH  25  26
ATOM     26  O   UNL A   1      42.776  19.524  24.883  1.00  0.00    -0.460 OA
BRANCH  26  27
ATOM     27  C   UNL A   1      44.117  19.654  24.748  1.00  0.00     0.338 C 
ATOM     28  O   UNL A   1      44.904  18.802  24.369  1.00  0.00    -0.246 OA
BRANCH  27  29
ATOM     29  C   UNL A   1      44.503  21.062  24.978  1.00  0.00     0.060 A 
ATOM     30  C   UNL A   1      45.219  21.350  26.146  1.00  0.00     0.016 A 
ATOM     31  C   UNL A   1      44.154  22.086  24.092  1.00  0.00     0.016 A 
ATOM     32  C   UNL A   1      45.547  22.669  26.458  1.00  0.00     0.010 A 
ATOM     33  C   UNL A   1      44.482  23.409  24.408  1.00  0.00     0.010 A 
ATOM     34  C   UNL A   1      45.149  23.710  25.608  1.00  0.00    -0.014 A 
BRANCH  34  35
ATOM     35  C   UNL A   1      45.321  25.117  26.041  1.00  0.00     0.031 A 
ATOM     36  C   UNL A   1      46.701  25.712  26.068  1.00  0.00     0.074 A 
ATOM     37  C   UNL A   1      44.259  25.859  26.405  1.00  0.00     0.049 A 
ATOM     38  N   UNL A   1      47.076  26.916  26.412  1.00  0.00    -0.248 NA
ATOM     39  C   UNL A   1      47.807  24.831  25.656  1.00  0.00     0.031 C 
ATOM     40  C   UNL A   1      42.874  25.393  26.431  1.00  0.00     0.029 A 
ATOM     41  N   UNL A   1      44.189  27.157  26.844  1.00  0.00    -0.354 N 
ATOM     42  C   UNL A   1      48.459  26.934  26.278  1.00  0.00     0.074 A 
ATOM     43  C   UNL A   1      48.859  25.614  25.841  1.00  0.00     0.031 C 
ATOM     44  C   UNL A   1      42.092  26.384  26.892  1.00  0.00     0.029 A 
ATOM     45  C   UNL A   1      42.922  27.546  27.207  1.00  0.00     0.049 A 
ATOM     46  H   UNL A   1      44.971  27.752  26.894  1.00  0.00     0.167 HD
ATOM     47  C   UNL A   1      49.319  27.962  26.479  1.00  0.00     0.034 A 
ATOM     48  C   UNL A   1      42.484  28.702  27.746  1.00  0.00     0.034 A 
ATOM     49  C   UNL A   1      48.920  29.279  26.894  1.00  0.00     0.049 A 
ATOM     50  C   UNL A   1      43.461  29.827  27.974  1.00  0.00     0.074 A 
ATOM     51  C   UNL A   1      49.710  30.400  27.075  1.00  0.00     0.029 A 
ATOM     52  N   UNL A   1      47.621  29.652  27.203  1.00  0.00    -0.354 N 
ATOM     53  N   UNL A   1      44.745  29.870  27.715  1.00  0.00    -0.248 NA
ATOM     54  C   UNL A   1      42.921  31.075  28.536  1.00  0.00     0.031 C 
ATOM     55  C   UNL A   1      48.892  31.446  27.512  1.00  0.00     0.029 A 
ATOM     56  C   UNL A   1      47.589  30.982  27.585  1.00  0.00     0.049 A 
ATOM     57  H   UNL A   1      46.837  29.058  27.159  1.00  0.00     0.167 HD
ATOM     58  C   UNL A   1      45.160  31.156  28.049  1.00  0.00     0.074 A 
ATOM     59  C   UNL A   1      43.985  31.866  28.512  1.00  0.00     0.031 C 
ATOM     60  C   UNL A   1      46.403  31.694  27.993  1.00  0.00     0.034 A 
BRANCH  47  61
ATOM     61  C   UNL A   1      50.777  27.707  26.213  1.00  0.00     0.023 A 
ATOM     62  C   UNL A   1      51.630  27.380  27.288  1.00  0.00     0.012 A 
ATOM     63  C   UNL A   1      51.297  27.748  24.906  1.00  0.00     0.148 A 
ATOM     64  C   UNL A   1      52.984  27.129  27.069  1.00  0.00     0.002 A 
ATOM     65  C   UNL A   1      52.640  27.458  24.691  1.00  0.00     0.091 A 
ATOM     66  F   UNL A   1      50.478  28.088  23.901  1.00  0.00    -0.205 F 
ATOM     67  C   UNL A   1      53.486  27.159  25.771  1.00  0.00     0.022 A 
BRANCH  65  68
ATOM     68  S   UNL A   1      53.360  27.401  23.046  1.00  0.00     0.127 S 
ATOM     69  O   UNL A   1      54.624  26.712  23.302  1.00  0.00    -0.237 OA
ATOM     70  O   UNL A   1      52.378  26.612  22.302  1.00  0.00    -0.237 OA
ATOM     71  O   UNL A   1      53.474  28.787  22.615  1.00  0.00    -0.744 OA
ENDBRANCH  65  68
ENDBRANCH  47  61
BRANCH  48  72
ATOM     72  C   UNL A   1      41.039  28.865  28.068  1.00  0.00     0.023 A 
ATOM     73  C   UNL A   1      40.128  29.167  27.038  1.00  0.00     0.012 A 
ATOM     74  C   UNL A   1      40.561  28.689  29.381  1.00  0.00     0.148 A 
ATOM     75  C   UNL A   1      38.767  29.312  27.315  1.00  0.00     0.002 A 
ATOM     76  C   UNL A   1      39.199  28.780  29.640  1.00  0.00     0.091 A 
ATOM     77  F   UNL A   1      41.449  28.421  30.349  1.00  0.00    -0.205 F 
ATOM     78  C   UNL A   1      38.301  29.108  28.612  1.00  0.00     0.022 A 
BRANCH  76  79
ATOM     79  S   UNL A   1      38.499  28.402  31.250  1.00  0.00     0.127 S 
ATOM     80  O   UNL A   1      37.128  28.879  31.100  1.00  0.00    -0.237 OA
ATOM     81  O   UNL A   1      38.645  26.946  31.309  1.00  0.00    -0.237 OA
ATOM     82  O   UNL A   1      39.320  29.124  32.214  1.00  0.00    -0.744 OA
ENDBRANCH  76  79
ENDBRANCH  48  72
BRANCH  60  83
ATOM     83  C   UNL A   1      46.567  33.130  28.418  1.00  0.00     0.023 A 
ATOM     84  C   UNL A   1      46.427  34.159  27.466  1.00  0.00     0.012 A 
ATOM     85  C   UNL A   1      46.777  33.464  29.772  1.00  0.00     0.148 A 
ATOM     86  C   UNL A   1      46.521  35.497  27.849  1.00  0.00     0.002 A 
ATOM     87  C   UNL A   1      46.824  34.801  30.153  1.00  0.00     0.091 A 
ATOM     88  F   UNL A   1      46.926  32.472  30.660  1.00  0.00    -0.205 F 
ATOM     89  C   UNL A   1      46.706  35.818  29.192  1.00  0.00     0.022 A 
BRANCH  87  90
ATOM     90  S   UNL A   1      46.966  35.304  31.872  1.00  0.00     0.127 S 
ATOM     91  O   UNL A   1      46.660  36.731  31.791  1.00  0.00    -0.237 OA
ATOM     92  O   UNL A   1      45.934  34.495  32.521  1.00  0.00    -0.237 OA
ATOM     93  O   UNL A   1      48.328  34.977  32.271  1.00  0.00    -0.744 OA
ENDBRANCH  87  90
ENDBRANCH  60  83
ENDBRANCH  34  35
ENDBRANCH  27  29
ENDBRANCH  26  27
ENDBRANCH  25  26
ENDBRANCH  24  25
ENDBRANCH  23  24
ENDBRANCH   1  23
TORSDOF 21
ENDMDL
MODEL 2
REMARK VINA RESULT:      -8.9      1.910      2.352
REMARK SMILES Cc1nc(C[N@H+](C)[C@H](C)c2ccc(C(=O)OCCOCCOC(=O)c3ccc(-c4c5nc(c(-c6cccc(S(=O)(=O)[O-])c6F)c6ccc([nH]6)c(-c6cccc(S(=O)(=O)[O-])c6F)c6nc(c(-c7cccc(S(=O)(=O)[O-])c7F)c7ccc4[nH]7)C=C6)C=C5)cc3)o2)cs1
REMARK SMILES IDX 18 1 17 2 16 3 14 4 15 5 13 6 10 7 11 8 88 9 12 10 8 11 9 12
REMARK SMILES IDX 6 13 7 14 5 16 4 17 1 18 2 19 3 20 90 21 89 22 19 23 20 24
REMARK SMILES IDX 21 25 22 26 23 27 24 28 25 29 26 30 87 31 27 32 86 33 28 34
REMARK SMILES IDX 29 35 30 36 80 37 31 38 85 39 79 40 81 41 32 42 84 43 78 44
REMARK SMILES IDX 77 45 33 47 65 48 45 49 64 50 46 51 49 52 63 53 82 54 47 55
REMARK SMILES IDX 48 56 62 58 83 59 50 60 34 61 35 62 43 63 36 64 38 65 44 66
REMARK SMILES IDX 37 67 39 68 40 69 41 70 42 71 66 72 67 73 75 74 68 75 70 76
REMARK SMILES IDX 76 77 69 78 71 79 72 80 73 81 74 82 51 83 52 84 60 85 53 86
REMARK SMILES IDX 55 87 61 88 54 89 56 90 57 91 58 92 59 93
REMARK H PARENT 6 15 81 46 49 57
REMARK Flexibility Score: inf
ROOT
ATOM      1  C   UNL A   1      40.220  22.063  26.411  1.00  0.00     0.202 C 
ENDROOT
BRANCH   1   2
ATOM      2  C   UNL A   1      39.099  21.218  25.802  1.00  0.00     0.261 C 
BRANCH   2   3
ATOM      3  O   UNL A   1      38.051  22.061  25.296  1.00  0.00    -0.457 OA
BRANCH   3   4
ATOM      4  C   UNL A   1      36.833  21.470  25.136  1.00  0.00     0.374 C 
ATOM      5  O   UNL A   1      36.647  20.267  24.989  1.00  0.00    -0.242 OA
BRANCH   4   6
ATOM      6  C   UNL A   1      35.802  22.469  25.269  1.00  0.00     0.212 A 
ATOM      7  C   UNL A   1      34.000  23.563  24.604  1.00  0.00     0.162 A 
ATOM      8  C   UNL A   1      34.335  24.061  25.849  1.00  0.00     0.053 A 
ATOM      9  O   UNL A   1      34.924  22.628  24.230  1.00  0.00    -0.448 OA
ATOM     10  C   UNL A   1      35.453  23.324  26.299  1.00  0.00     0.059 A 
BRANCH   7  11
ATOM     11  C   UNL A   1      32.924  23.896  23.604  1.00  0.00     0.248 C 
ATOM     12  C   UNL A   1      31.549  23.317  23.977  1.00  0.00     0.084 C 
BRANCH  11  13
ATOM     13  N   UNL A   1      32.920  25.334  23.238  1.00  0.00    -0.324 N 
ATOM     14  C   UNL A   1      32.881  25.491  21.781  1.00  0.00     0.333 C 
ATOM     15  H   UNL A   1      33.792  25.676  23.643  1.00  0.00     0.348 HD
BRANCH  13  16
ATOM     16  C   UNL A   1      31.869  26.186  23.841  1.00  0.00     0.320 C 
BRANCH  16  17
ATOM     17  C   UNL A   1      32.382  27.355  24.640  1.00  0.00     0.106 A 
ATOM     18  C   UNL A   1      31.586  30.656  26.016  1.00  0.00     0.079 C 
ATOM     19  C   UNL A   1      32.171  29.349  25.607  1.00  0.00     0.090 A 
ATOM     20  N   UNL A   1      31.531  28.424  24.920  1.00  0.00    -0.241 NA
ATOM     21  S   UNL A   1      33.800  28.978  26.006  1.00  0.00    -0.127 S 
ATOM     22  C   UNL A   1      33.638  27.475  25.207  1.00  0.00     0.096 A 
ENDBRANCH  16  17
ENDBRANCH  13  16
ENDBRANCH  11  13
ENDBRANCH   7  11
ENDBRANCH   4   6
ENDBRANCH   3   4
ENDBRANCH   2   3
ENDBRANCH   1   2
BRANCH   1  23
ATOM     23  O   UNL A   1      41.368  21.289  26.767  1.00  0.00    -0.374 OA
BRANCH  23  24
ATOM     24  C   UNL A   1      41.167  19.873  26.775  1.00  0.00     0.202 C 
BRANCH  24  25
ATOM     25  C   UNL A   1      42.404  19.089  26.330  1.00  0.00     0.261 C 
BRANCH  25  26
ATOM     26  O   UNL A   1      42.771  19.456  24.988  1.00  0.00    -0.460 OA
BRANCH  26  27
ATOM     27  C   UNL A   1      44.092  19.674  24.789  1.00  0.00     0.338 C 
ATOM     28  O   UNL A   1      44.904  18.892  24.323  1.00  0.00    -0.246 OA
BRANCH  27  29
ATOM     29  C   UNL A   1      44.409  21.090  25.073  1.00  0.00     0.060 A 
ATOM     30  C   UNL A   1      45.224  21.358  26.179  1.00  0.00     0.016 A 
ATOM     31  C   UNL A   1      43.903  22.138  24.298  1.00  0.00     0.016 A 
ATOM     32  C   UNL A   1      45.496  22.676  26.544  1.00  0.00     0.010 A 
ATOM     33  C   UNL A   1      44.176  23.459  24.666  1.00  0.00     0.010 A 
ATOM     34  C   UNL A   1      44.944  23.735  25.811  1.00  0.00    -0.014 A 
BRANCH  34  35
ATOM     35  C   UNL A   1      45.070  25.122  26.317  1.00  0.00     0.031 A 
ATOM     36  C   UNL A   1      46.391  25.829  26.199  1.00  0.00     0.074 A 
ATOM     37  C   UNL A   1      44.018  25.748  26.876  1.00  0.00     0.049 A 
ATOM     38  N   UNL A   1      46.719  27.037  26.575  1.00  0.00    -0.248 NA
ATOM     39  C   UNL A   1      47.490  25.072  25.576  1.00  0.00     0.031 C 
ATOM     40  C   UNL A   1      42.690  25.165  27.058  1.00  0.00     0.029 A 
ATOM     41  N   UNL A   1      43.913  27.005  27.414  1.00  0.00    -0.354 N 
ATOM     42  C   UNL A   1      48.064  27.181  26.255  1.00  0.00     0.074 A 
ATOM     43  C   UNL A   1      48.496  25.929  25.671  1.00  0.00     0.031 C 
ATOM     44  C   UNL A   1      41.909  26.056  27.693  1.00  0.00     0.029 A 
ATOM     45  C   UNL A   1      42.685  27.262  27.975  1.00  0.00     0.049 A 
ATOM     46  H   UNL A   1      44.648  27.660  27.400  1.00  0.00     0.167 HD
ATOM     47  C   UNL A   1      48.863  28.263  26.410  1.00  0.00     0.034 A 
ATOM     48  C   UNL A   1      42.243  28.341  28.652  1.00  0.00     0.034 A 
ATOM     49  C   UNL A   1      48.429  29.514  26.971  1.00  0.00     0.049 A 
ATOM     50  C   UNL A   1      43.154  29.529  28.825  1.00  0.00     0.074 A 
ATOM     51  C   UNL A   1      49.151  30.685  27.123  1.00  0.00     0.029 A 
ATOM     52  N   UNL A   1      47.164  29.755  27.482  1.00  0.00    -0.354 N 
ATOM     53  N   UNL A   1      44.382  29.697  28.396  1.00  0.00    -0.248 NA
ATOM     54  C   UNL A   1      42.607  30.689  29.545  1.00  0.00     0.031 C 
ATOM     55  C   UNL A   1      48.326  31.629  27.743  1.00  0.00     0.029 A 
ATOM     56  C   UNL A   1      47.085  31.052  27.960  1.00  0.00     0.049 A 
ATOM     57  H   UNL A   1      46.429  29.101  27.501  1.00  0.00     0.167 HD
ATOM     58  C   UNL A   1      44.741  30.990  28.764  1.00  0.00     0.074 A 
ATOM     59  C   UNL A   1      43.594  31.567  29.434  1.00  0.00     0.031 C 
ATOM     60  C   UNL A   1      45.920  31.634  28.578  1.00  0.00     0.034 A 
BRANCH  47  61
ATOM     61  C   UNL A   1      50.284  28.150  25.929  1.00  0.00     0.023 A 
ATOM     62  C   UNL A   1      50.580  28.411  24.576  1.00  0.00     0.012 A 
ATOM     63  C   UNL A   1      51.329  27.829  26.816  1.00  0.00     0.148 A 
ATOM     64  C   UNL A   1      51.890  28.324  24.105  1.00  0.00     0.002 A 
ATOM     65  C   UNL A   1      52.638  27.782  26.348  1.00  0.00     0.091 A 
ATOM     66  F   UNL A   1      51.026  27.556  28.093  1.00  0.00    -0.205 F 
ATOM     67  C   UNL A   1      52.918  28.019  24.992  1.00  0.00     0.022 A 
BRANCH  65  68
ATOM     68  S   UNL A   1      54.036  27.469  27.431  1.00  0.00     0.127 S 
ATOM     69  O   UNL A   1      54.877  26.620  26.587  1.00  0.00    -0.237 OA
ATOM     70  O   UNL A   1      54.564  28.815  27.657  1.00  0.00    -0.237 OA
ATOM     71  O   UNL A   1      53.484  26.829  28.616  1.00  0.00    -0.744 OA
ENDBRANCH  65  68
ENDBRANCH  47  61
BRANCH  48  72
ATOM     72  C   UNL A   1      40.850  28.361  29.179  1.00  0.00     0.023 A 
ATOM     73  C   UNL A   1      40.563  27.737  30.408  1.00  0.00     0.012 A 
ATOM     74  C   UNL A   1      39.818  29.022  28.486  1.00  0.00     0.148 A 
ATOM     75  C   UNL A   1      39.267  27.754  30.927  1.00  0.00     0.002 A 
ATOM     76  C   UNL A   1      38.543  29.082  29.034  1.00  0.00     0.091 A 
ATOM     77  F   UNL A   1      40.108  29.593  27.308  1.00  0.00    -0.205 F 
ATOM     78  C   UNL A   1      38.261  28.435  30.248  1.00  0.00     0.022 A 
BRANCH  76  79
ATOM     79  S   UNL A   1      37.222  30.048  28.294  1.00  0.00     0.127 S 
ATOM     80  O   UNL A   1      36.053  29.564  29.023  1.00  0.00    -0.237 OA
ATOM     81  O   UNL A   1      37.630  31.416  28.618  1.00  0.00    -0.237 OA
ATOM     82  O   UNL A   1      37.257  29.734  26.871  1.00  0.00    -0.744 OA
ENDBRANCH  76  79
ENDBRANCH  48  72
BRANCH  60  83
ATOM     83  C   UNL A   1      46.034  33.050  29.080  1.00  0.00     0.023 A 
ATOM     84  C   UNL A   1      46.613  33.299  30.340  1.00  0.00     0.012 A 
ATOM     85  C   UNL A   1      45.644  34.137  28.271  1.00  0.00     0.148 A 
ATOM     86  C   UNL A   1      46.777  34.606  30.798  1.00  0.00     0.002 A 
ATOM     87  C   UNL A   1      45.852  35.438  28.716  1.00  0.00     0.091 A 
ATOM     88  F   UNL A   1      45.077  33.880  27.083  1.00  0.00    -0.205 F 
ATOM     89  C   UNL A   1      46.409  35.674  29.983  1.00  0.00     0.022 A 
BRANCH  87  90
ATOM     90  S   UNL A   1      45.494  36.871  27.694  1.00  0.00     0.127 S 
ATOM     91  O   UNL A   1      45.854  37.971  28.587  1.00  0.00    -0.237 OA
ATOM     92  O   UNL A   1      46.402  36.684  26.562  1.00  0.00    -0.237 OA
ATOM     93  O   UNL A   1      44.081  36.775  27.354  1.00  0.00    -0.744 OA
ENDBRANCH  87  90
ENDBRANCH  60  83
ENDBRANCH  34  35
ENDBRANCH  27  29
ENDBRANCH  26  27
ENDBRANCH  25  26
ENDBRANCH  24  25
ENDBRANCH  23  24
ENDBRANCH   1  23
TORSDOF 21
ENDMDL
MODEL 3
REMARK VINA RESULT:      -8.6      4.890     10.540
REMARK SMILES Cc1nc(C[N@H+](C)[C@H](C)c2ccc(C(=O)OCCOCCOC(=O)c3ccc(-c4c5nc(c(-c6cccc(S(=O)(=O)[O-])c6F)c6ccc([nH]6)c(-c6cccc(S(=O)(=O)[O-])c6F)c6nc(c(-c7cccc(S(=O)(=O)[O-])c7F)c7ccc4[nH]7)C=C6)C=C5)cc3)o2)cs1
REMARK SMILES IDX 18 1 17 2 16 3 14 4 15 5 13 6 10 7 11 8 88 9 12 10 8 11 9 12
REMARK SMILES IDX 6 13 7 14 5 16 4 17 1 18 2 19 3 20 90 21 89 22 19 23 20 24
REMARK SMILES IDX 21 25 22 26 23 27 24 28 25 29 26 30 87 31 27 32 86 33 28 34
REMARK SMILES IDX 29 35 30 36 80 37 31 38 85 39 79 40 81 41 32 42 84 43 78 44
REMARK SMILES IDX 77 45 33 47 65 48 45 49 64 50 46 51 49 52 63 53 82 54 47 55
REMARK SMILES IDX 48 56 62 58 83 59 50 60 34 61 35 62 43 63 36 64 38 65 44 66
REMARK SMILES IDX 37 67 39 68 40 69 41 70 42 71 66 72 67 73 75 74 68 75 70 76
REMARK SMILES IDX 76 77 69 78 71 79 72 80 73 81 74 82 51 83 52 84 60 85 53 86
REMARK SMILES IDX 55 87 61 88 54 89 56 90 57 91 58 92 59 93
REMARK H PARENT 6 15 81 46 49 57
REMARK Flexibility Score: inf
ROOT
ATOM      1  C   UNL A   1      36.375  33.427  29.632  1.00  0.00     0.202 C 
ENDROOT
BRANCH   1   2
ATOM      2  C   UNL A   1      37.118  32.170  29.175  1.00  0.00     0.261 C 
BRANCH   2   3
ATOM      3  O   UNL A   1      36.310  31.001  29.392  1.00  0.00    -0.457 OA
BRANCH   3   4
ATOM      4  C   UNL A   1      36.577  29.932  28.587  1.00  0.00     0.374 C 
ATOM      5  O   UNL A   1      36.045  29.716  27.504  1.00  0.00    -0.242 OA
BRANCH   4   6
ATOM      6  C   UNL A   1      37.650  29.163  29.166  1.00  0.00     0.212 A 
ATOM      7  C   UNL A   1      39.695  28.325  29.203  1.00  0.00     0.162 A 
ATOM      8  C   UNL A   1      39.090  27.959  30.390  1.00  0.00     0.053 A 
ATOM      9  O   UNL A   1      38.800  29.016  28.436  1.00  0.00    -0.448 OA
ATOM     10  C   UNL A   1      37.802  28.541  30.391  1.00  0.00     0.059 A 
BRANCH   7  11
ATOM     11  C   UNL A   1      41.045  28.049  28.594  1.00  0.00     0.248 C 
ATOM     12  C   UNL A   1      42.180  28.005  29.631  1.00  0.00     0.084 C 
BRANCH  11  13
ATOM     13  N   UNL A   1      41.015  26.907  27.648  1.00  0.00    -0.324 N 
ATOM     14  C   UNL A   1      41.969  27.122  26.556  1.00  0.00     0.333 C 
ATOM     15  H   UNL A   1      40.047  26.904  27.324  1.00  0.00     0.348 HD
BRANCH  13  16
ATOM     16  C   UNL A   1      41.224  25.553  28.211  1.00  0.00     0.320 C 
BRANCH  16  17
ATOM     17  C   UNL A   1      40.443  24.458  27.535  1.00  0.00     0.106 A 
ATOM     18  C   UNL A   1      37.304  23.572  25.866  1.00  0.00     0.079 C 
ATOM     19  C   UNL A   1      38.663  23.650  26.469  1.00  0.00     0.090 A 
ATOM     20  N   UNL A   1      39.190  24.739  26.993  1.00  0.00    -0.241 NA
ATOM     21  S   UNL A   1      39.650  22.246  26.539  1.00  0.00    -0.127 S 
ATOM     22  C   UNL A   1      40.866  23.158  27.323  1.00  0.00     0.096 A 
ENDBRANCH  16  17
ENDBRANCH  13  16
ENDBRANCH  11  13
ENDBRANCH   7  11
ENDBRANCH   4   6
ENDBRANCH   3   4
ENDBRANCH   2   3
ENDBRANCH   1   2
BRANCH   1  23
ATOM     23  O   UNL A   1      35.109  33.139  30.231  1.00  0.00    -0.374 OA
BRANCH  23  24
ATOM     24  C   UNL A   1      34.508  34.229  30.936  1.00  0.00     0.202 C 
BRANCH  24  25
ATOM     25  C   UNL A   1      34.466  34.013  32.450  1.00  0.00     0.261 C 
BRANCH  25  26
ATOM     26  O   UNL A   1      35.717  34.402  33.044  1.00  0.00    -0.460 OA
BRANCH  26  27
ATOM     27  C   UNL A   1      36.101  33.671  34.118  1.00  0.00     0.338 C 
ATOM     28  O   UNL A   1      35.494  33.530  35.167  1.00  0.00    -0.246 OA
BRANCH  27  29
ATOM     29  C   UNL A   1      37.321  32.905  33.785  1.00  0.00     0.060 A 
ATOM     30  C   UNL A   1      38.529  33.349  34.336  1.00  0.00     0.016 A 
ATOM     31  C   UNL A   1      37.298  31.796  32.934  1.00  0.00     0.016 A 
ATOM     32  C   UNL A   1      39.725  32.716  34.000  1.00  0.00     0.010 A 
ATOM     33  C   UNL A   1      38.499  31.164  32.596  1.00  0.00     0.010 A 
ATOM     34  C   UNL A   1      39.721  31.642  33.099  1.00  0.00    -0.014 A 
BRANCH  34  35
ATOM     35  C   UNL A   1      41.006  31.106  32.592  1.00  0.00     0.031 A 
ATOM     36  C   UNL A   1      41.690  31.801  31.448  1.00  0.00     0.074 A 
ATOM     37  C   UNL A   1      41.559  30.010  33.143  1.00  0.00     0.049 A 
ATOM     38  N   UNL A   1      42.814  31.502  30.851  1.00  0.00    -0.248 NA
ATOM     39  C   UNL A   1      41.016  32.991  30.902  1.00  0.00     0.031 C 
ATOM     40  C   UNL A   1      40.988  29.242  34.247  1.00  0.00     0.029 A 
ATOM     41  N   UNL A   1      42.716  29.344  32.829  1.00  0.00    -0.354 N 
ATOM     42  C   UNL A   1      42.974  32.451  29.848  1.00  0.00     0.074 A 
ATOM     43  C   UNL A   1      41.821  33.324  29.904  1.00  0.00     0.031 C 
ATOM     44  C   UNL A   1      41.784  28.189  34.501  1.00  0.00     0.029 A 
ATOM     45  C   UNL A   1      42.910  28.202  33.568  1.00  0.00     0.049 A 
ATOM     46  H   UNL A   1      43.348  29.654  32.140  1.00  0.00     0.167 HD
ATOM     47  C   UNL A   1      43.997  32.598  28.973  1.00  0.00     0.034 A 
ATOM     48  C   UNL A   1      43.878  27.265  33.492  1.00  0.00     0.034 A 
ATOM     49  C   UNL A   1      45.153  31.743  28.931  1.00  0.00     0.049 A 
ATOM     50  C   UNL A   1      45.000  27.442  32.501  1.00  0.00     0.074 A 
ATOM     51  C   UNL A   1      46.266  31.841  28.115  1.00  0.00     0.029 A 
ATOM     52  N   UNL A   1      45.340  30.625  29.729  1.00  0.00    -0.354 N 
ATOM     53  N   UNL A   1      45.204  28.419  31.651  1.00  0.00    -0.248 NA
ATOM     54  C   UNL A   1      46.042  26.405  32.484  1.00  0.00     0.031 C 
ATOM     55  C   UNL A   1      47.118  30.772  28.408  1.00  0.00     0.029 A 
ATOM     56  C   UNL A   1      46.545  30.018  29.419  1.00  0.00     0.049 A 
ATOM     57  H   UNL A   1      44.709  30.310  30.416  1.00  0.00     0.167 HD
ATOM     58  C   UNL A   1      46.412  28.133  31.023  1.00  0.00     0.074 A 
ATOM     59  C   UNL A   1      46.903  26.900  31.605  1.00  0.00     0.031 C 
ATOM     60  C   UNL A   1      47.049  28.820  30.042  1.00  0.00     0.034 A 
BRANCH  47  61
ATOM     61  C   UNL A   1      43.928  33.754  28.013  1.00  0.00     0.023 A 
ATOM     62  C   UNL A   1      43.540  33.522  26.678  1.00  0.00     0.012 A 
ATOM     63  C   UNL A   1      44.203  35.068  28.435  1.00  0.00     0.148 A 
ATOM     64  C   UNL A   1      43.457  34.577  25.769  1.00  0.00     0.002 A 
ATOM     65  C   UNL A   1      44.081  36.119  27.534  1.00  0.00     0.091 A 
ATOM     66  F   UNL A   1      44.599  35.265  29.701  1.00  0.00    -0.205 F 
ATOM     67  C   UNL A   1      43.718  35.875  26.200  1.00  0.00     0.022 A 
BRANCH  65  68
ATOM     68  S   UNL A   1      44.327  37.833  28.015  1.00  0.00     0.127 S 
ATOM     69  O   UNL A   1      43.388  37.963  29.129  1.00  0.00    -0.237 OA
ATOM     70  O   UNL A   1      45.737  37.848  28.403  1.00  0.00    -0.237 OA
ATOM     71  O   UNL A   1      44.016  38.625  26.834  1.00  0.00    -0.744 OA
ENDBRANCH  65  68
ENDBRANCH  47  61
BRANCH  48  72
ATOM     72  C   UNL A   1      43.847  26.096  34.414  1.00  0.00     0.023 A 
ATOM     73  C   UNL A   1      43.302  24.876  33.971  1.00  0.00     0.012 A 
ATOM     74  C   UNL A   1      44.384  26.179  35.713  1.00  0.00     0.148 A 
ATOM     75  C   UNL A   1      43.273  23.764  34.814  1.00  0.00     0.002 A 
ATOM     76  C   UNL A   1      44.402  25.053  36.527  1.00  0.00     0.091 A 
ATOM     77  F   UNL A   1      44.881  27.355  36.121  1.00  0.00    -0.205 F 
ATOM     78  C   UNL A   1      43.833  23.848  36.086  1.00  0.00     0.022 A 
BRANCH  76  79
ATOM     79  S   UNL A   1      45.221  25.036  38.126  1.00  0.00     0.127 S 
ATOM     80  O   UNL A   1      45.191  23.616  38.463  1.00  0.00    -0.237 OA
ATOM     81  O   UNL A   1      46.544  25.566  37.794  1.00  0.00    -0.237 OA
ATOM     82  O   UNL A   1      44.426  25.908  38.982  1.00  0.00    -0.744 OA
ENDBRANCH  76  79
ENDBRANCH  48  72
BRANCH  60  83
ATOM     83  C   UNL A   1      48.363  28.277  29.543  1.00  0.00     0.023 A 
ATOM     84  C   UNL A   1      49.565  28.693  30.150  1.00  0.00     0.012 A 
ATOM     85  C   UNL A   1      48.402  27.296  28.532  1.00  0.00     0.148 A 
ATOM     86  C   UNL A   1      50.787  28.161  29.740  1.00  0.00     0.002 A 
ATOM     87  C   UNL A   1      49.621  26.739  28.160  1.00  0.00     0.091 A 
ATOM     88  F   UNL A   1      47.251  26.927  27.953  1.00  0.00    -0.205 F 
ATOM     89  C   UNL A   1      50.814  27.177  28.755  1.00  0.00     0.022 A 
BRANCH  87  90
ATOM     90  S   UNL A   1      49.739  25.400  26.967  1.00  0.00     0.127 S 
ATOM     91  O   UNL A   1      51.147  25.023  27.080  1.00  0.00    -0.237 OA
ATOM     92  O   UNL A   1      48.800  24.416  27.507  1.00  0.00    -0.237 OA
ATOM     93  O   UNL A   1      49.343  25.970  25.687  1.00  0.00    -0.744 OA
ENDBRANCH  87  90
ENDBRANCH  60  83
ENDBRANCH  34  35
ENDBRANCH  27  29
ENDBRANCH  26  27
ENDBRANCH  25  26
ENDBRANCH  24  25
ENDBRANCH  23  24
ENDBRANCH   1  23
TORSDOF 21
ENDMDL
