MODEL 1
REMARK VINA RESULT:     -12.8      0.000      0.000
REMARK SMILES CS(=O)(=O)c1ccc(/C=C(/C(=O)OCCOCCOC(=O)c2ccc(-c3c4nc(c(-c5cccc(S(=O)(=O)[O-])c5F)c5ccc([nH]5)c(-c5cccc(S(=O)(=O)[O-])c5F)c5nc(c(-c6cccc(S(=O)(=O)[O-])c6F)c6ccc3[nH]6)C=C5)C=C4)cc2)c2ccc(-c3ccc(F)cc3F)cc2)cc1
REMARK SMILES IDX 17 1 16 2 15 3 14 4 13 5 11 6 12 7 10 8 9 9 8 10 5 11 6 12
REMARK SMILES IDX 100 13 7 14 99 15 2 16 1 17 3 18 4 19 85 20 86 21 98 22
REMARK SMILES IDX 87 23 97 24 88 25 89 26 90 27 95 28 91 29 94 30 96 31 92 32
REMARK SMILES IDX 93 33 18 34 19 35 20 36 21 37 22 38 23 39 84 40 24 41 83 42
REMARK SMILES IDX 25 43 26 44 27 45 77 46 28 47 82 48 76 49 78 50 29 51 81 52
REMARK SMILES IDX 75 53 74 54 30 56 62 57 42 58 61 59 43 60 46 61 60 62 79 63
REMARK SMILES IDX 44 64 45 65 59 67 80 68 47 69 31 70 32 71 40 72 33 73 35 74
REMARK SMILES IDX 41 75 34 76 36 77 37 78 38 79 39 80 63 81 64 82 72 83 65 84
REMARK SMILES IDX 67 85 73 86 66 87 68 88 69 89 70 90 71 91 48 92 49 93 57 94
REMARK SMILES IDX 50 95 52 96 58 97 51 98 53 99 54 100 55 101 56 102
REMARK H PARENT 78 55 46 66
REMARK Flexibility Score: inf
ROOT
ATOM      1  C   UNL A   1      35.901  20.921  24.906  1.00  0.00     0.202 C 
ENDROOT
BRANCH   1   2
ATOM      2  O   UNL A   1      35.251  20.985  26.171  1.00  0.00    -0.374 OA
BRANCH   2   3
ATOM      3  C   UNL A   1      33.867  21.339  26.182  1.00  0.00     0.202 C 
BRANCH   3   4
ATOM      4  C   UNL A   1      33.511  22.828  26.096  1.00  0.00     0.261 C 
BRANCH   4   5
ATOM      5  O   UNL A   1      32.193  23.033  25.555  1.00  0.00    -0.460 OA
BRANCH   5   6
ATOM      6  C   UNL A   1      31.448  23.953  26.220  1.00  0.00     0.338 C 
ATOM      7  O   UNL A   1      31.100  23.876  27.392  1.00  0.00    -0.246 OA
BRANCH   6   8
ATOM      8  C   UNL A   1      31.203  25.185  25.402  1.00  0.00     0.067 C 
ATOM      9  C   UNL A   1      30.260  25.201  24.429  1.00  0.00     0.024 C 
BRANCH   9  10
ATOM     10  C   UNL A   1      29.706  26.384  23.714  1.00  0.00    -0.025 A 
ATOM     11  C   UNL A   1      28.645  28.839  22.843  1.00  0.00     0.067 A 
ATOM     12  C   UNL A   1      29.957  28.504  22.527  1.00  0.00     0.021 A 
ATOM     13  C   UNL A   1      27.814  27.913  23.472  1.00  0.00     0.021 A 
ATOM     14  C   UNL A   1      30.463  27.265  22.928  1.00  0.00     0.009 A 
ATOM     15  C   UNL A   1      28.350  26.693  23.910  1.00  0.00     0.009 A 
BRANCH  11  16
ATOM     16  S   UNL A   1      28.040  30.469  22.485  1.00  0.00     0.175 S 
ATOM     17  C   UNL A   1      29.407  31.521  22.911  1.00  0.00     0.163 C 
ATOM     18  O   UNL A   1      26.948  30.742  23.398  1.00  0.00    -0.224 OA
ATOM     19  O   UNL A   1      27.853  30.569  21.048  1.00  0.00    -0.224 OA
ENDBRANCH  11  16
ENDBRANCH   9  10
BRANCH   8  20
ATOM     20  C   UNL A   1      31.987  26.370  25.795  1.00  0.00    -0.011 A 
ATOM     21  C   UNL A   1      31.497  27.216  26.799  1.00  0.00     0.009 A 
ATOM     22  C   UNL A   1      33.229  26.640  25.223  1.00  0.00     0.009 A 
ATOM     23  C   UNL A   1      32.253  28.300  27.245  1.00  0.00     0.009 A 
ATOM     24  C   UNL A   1      33.992  27.714  25.688  1.00  0.00     0.009 A 
ATOM     25  C   UNL A   1      33.525  28.560  26.712  1.00  0.00    -0.015 A 
BRANCH  25  26
ATOM     26  C   UNL A   1      34.344  29.674  27.227  1.00  0.00     0.018 A 
ATOM     27  C   UNL A   1      35.709  29.485  27.529  1.00  0.00     0.015 A 
ATOM     28  C   UNL A   1      33.809  30.956  27.436  1.00  0.00     0.133 A 
ATOM     29  C   UNL A   1      36.490  30.533  28.024  1.00  0.00     0.040 A 
ATOM     30  C   UNL A   1      34.580  32.007  27.922  1.00  0.00     0.079 A 
ATOM     31  F   UNL A   1      32.515  31.203  27.177  1.00  0.00    -0.206 F 
ATOM     32  C   UNL A   1      35.916  31.783  28.214  1.00  0.00     0.126 A 
ATOM     33  F   UNL A   1      36.666  32.787  28.686  1.00  0.00    -0.207 F 
ENDBRANCH  25  26
ENDBRANCH   8  20
ENDBRANCH   6   8
ENDBRANCH   5   6
ENDBRANCH   4   5
ENDBRANCH   3   4
ENDBRANCH   2   3
ENDBRANCH   1   2
BRANCH   1  34
ATOM     34  C   UNL A   1      37.434  20.895  24.872  1.00  0.00     0.261 C 
BRANCH  34  35
ATOM     35  O   UNL A   1      38.031  22.019  25.528  1.00  0.00    -0.460 OA
BRANCH  35  36
ATOM     36  C   UNL A   1      39.173  21.730  26.193  1.00  0.00     0.338 C 
ATOM     37  O   UNL A   1      39.775  20.661  26.201  1.00  0.00    -0.246 OA
BRANCH  36  38
ATOM     38  C   UNL A   1      39.730  22.956  26.784  1.00  0.00     0.060 A 
ATOM     39  C   UNL A   1      39.170  24.177  26.383  1.00  0.00     0.016 A 
ATOM     40  C   UNL A   1      40.805  22.921  27.674  1.00  0.00     0.016 A 
ATOM     41  C   UNL A   1      39.716  25.373  26.835  1.00  0.00     0.010 A 
ATOM     42  C   UNL A   1      41.358  24.124  28.118  1.00  0.00     0.010 A 
ATOM     43  C   UNL A   1      40.840  25.353  27.670  1.00  0.00    -0.014 A 
BRANCH  43  44
ATOM     44  C   UNL A   1      41.556  26.617  27.954  1.00  0.00     0.031 A 
ATOM     45  C   UNL A   1      42.935  26.814  27.391  1.00  0.00     0.074 A 
ATOM     46  C   UNL A   1      40.984  27.574  28.703  1.00  0.00     0.049 A 
ATOM     47  N   UNL A   1      43.746  27.830  27.524  1.00  0.00    -0.248 NA
ATOM     48  C   UNL A   1      43.473  25.716  26.571  1.00  0.00     0.031 C 
ATOM     49  C   UNL A   1      39.654  27.491  29.304  1.00  0.00     0.029 A 
ATOM     50  N   UNL A   1      41.464  28.794  29.107  1.00  0.00    -0.354 N 
ATOM     51  C   UNL A   1      44.902  27.482  26.836  1.00  0.00     0.074 A 
ATOM     52  C   UNL A   1      44.692  26.157  26.296  1.00  0.00     0.031 C 
ATOM     53  C   UNL A   1      39.435  28.602  30.028  1.00  0.00     0.029 A 
ATOM     54  C   UNL A   1      40.617  29.459  29.959  1.00  0.00     0.049 A 
ATOM     55  H   UNL A   1      42.331  29.156  28.814  1.00  0.00     0.167 HD
ATOM     56  C   UNL A   1      46.031  28.208  26.658  1.00  0.00     0.034 A 
ATOM     57  C   UNL A   1      40.788  30.617  30.627  1.00  0.00     0.034 A 
ATOM     58  C   UNL A   1      46.227  29.531  27.185  1.00  0.00     0.049 A 
ATOM     59  C   UNL A   1      42.057  31.401  30.426  1.00  0.00     0.074 A 
ATOM     60  C   UNL A   1      47.308  30.376  27.008  1.00  0.00     0.029 A 
ATOM     61  N   UNL A   1      45.330  30.196  28.008  1.00  0.00    -0.354 N 
ATOM     62  N   UNL A   1      43.089  31.122  29.666  1.00  0.00    -0.248 NA
ATOM     63  C   UNL A   1      42.172  32.679  31.145  1.00  0.00     0.031 C 
ATOM     64  C   UNL A   1      47.080  31.538  27.754  1.00  0.00     0.029 A 
ATOM     65  C   UNL A   1      45.840  31.432  28.364  1.00  0.00     0.049 A 
ATOM     66  H   UNL A   1      44.458  29.841  28.294  1.00  0.00     0.167 HD
ATOM     67  C   UNL A   1      43.960  32.199  29.789  1.00  0.00     0.074 A 
ATOM     68  C   UNL A   1      43.325  33.146  30.684  1.00  0.00     0.031 C 
ATOM     69  C   UNL A   1      45.179  32.384  29.222  1.00  0.00     0.034 A 
BRANCH  56  70
ATOM     70  C   UNL A   1      47.138  27.582  25.851  1.00  0.00     0.023 A 
ATOM     71  C   UNL A   1      48.008  26.651  26.453  1.00  0.00     0.012 A 
ATOM     72  C   UNL A   1      47.299  27.895  24.487  1.00  0.00     0.148 A 
ATOM     73  C   UNL A   1      49.046  26.072  25.723  1.00  0.00     0.002 A 
ATOM     74  C   UNL A   1      48.307  27.279  23.754  1.00  0.00     0.091 A 
ATOM     75  F   UNL A   1      46.481  28.803  23.937  1.00  0.00    -0.205 F 
ATOM     76  C   UNL A   1      49.189  26.378  24.373  1.00  0.00     0.022 A 
BRANCH  74  77
ATOM     77  S   UNL A   1      48.520  27.550  21.991  1.00  0.00     0.127 S 
ATOM     78  O   UNL A   1      49.660  28.465  21.969  1.00  0.00    -0.237 OA
ATOM     79  O   UNL A   1      48.810  26.202  21.504  1.00  0.00    -0.237 OA
ATOM     80  O   UNL A   1      47.260  28.106  21.518  1.00  0.00    -0.744 OA
ENDBRANCH  74  77
ENDBRANCH  56  70
BRANCH  57  81
ATOM     81  C   UNL A   1      39.707  31.114  31.523  1.00  0.00     0.023 A 
ATOM     82  C   UNL A   1      38.503  31.589  30.969  1.00  0.00     0.012 A 
ATOM     83  C   UNL A   1      39.850  31.070  32.924  1.00  0.00     0.148 A 
ATOM     84  C   UNL A   1      37.469  32.032  31.794  1.00  0.00     0.002 A 
ATOM     85  C   UNL A   1      38.795  31.458  33.740  1.00  0.00     0.091 A 
ATOM     86  F   UNL A   1      41.009  30.623  33.430  1.00  0.00    -0.205 F 
ATOM     87  C   UNL A   1      37.609  31.955  33.177  1.00  0.00     0.022 A 
BRANCH  85  88
ATOM     88  S   UNL A   1      38.833  31.265  35.526  1.00  0.00     0.127 S 
ATOM     89  O   UNL A   1      39.125  29.842  35.668  1.00  0.00    -0.237 OA
ATOM     90  O   UNL A   1      39.928  32.161  35.899  1.00  0.00    -0.237 OA
ATOM     91  O   UNL A   1      37.523  31.691  35.999  1.00  0.00    -0.744 OA
ENDBRANCH  85  88
ENDBRANCH  57  81
BRANCH  69  92
ATOM     92  C   UNL A   1      45.903  33.672  29.521  1.00  0.00     0.023 A 
ATOM     93  C   UNL A   1      46.777  33.748  30.623  1.00  0.00     0.012 A 
ATOM     94  C   UNL A   1      45.777  34.781  28.661  1.00  0.00     0.148 A 
ATOM     95  C   UNL A   1      47.488  34.920  30.884  1.00  0.00     0.002 A 
ATOM     96  C   UNL A   1      46.527  35.926  28.898  1.00  0.00     0.091 A 
ATOM     97  F   UNL A   1      44.927  34.695  27.627  1.00  0.00    -0.205 F 
ATOM     98  C   UNL A   1      47.374  36.002  30.015  1.00  0.00     0.022 A 
BRANCH  96  99
ATOM     99  S   UNL A   1      46.518  37.332  27.778  1.00  0.00     0.127 S 
ATOM    100  O   UNL A   1      46.260  36.687  26.492  1.00  0.00    -0.237 OA
ATOM    101  O   UNL A   1      45.406  38.131  28.295  1.00  0.00    -0.237 OA
ATOM    102  O   UNL A   1      47.825  37.960  27.912  1.00  0.00    -0.744 OA
ENDBRANCH  96  99
ENDBRANCH  69  92
ENDBRANCH  43  44
ENDBRANCH  36  38
ENDBRANCH  35  36
ENDBRANCH  34  35
ENDBRANCH   1  34
TORSDOF 21
ENDMDL
MODEL 2
REMARK VINA RESULT:     -12.1      0.906      7.401
REMARK SMILES CS(=O)(=O)c1ccc(/C=C(/C(=O)OCCOCCOC(=O)c2ccc(-c3c4nc(c(-c5cccc(S(=O)(=O)[O-])c5F)c5ccc([nH]5)c(-c5cccc(S(=O)(=O)[O-])c5F)c5nc(c(-c6cccc(S(=O)(=O)[O-])c6F)c6ccc3[nH]6)C=C5)C=C4)cc2)c2ccc(-c3ccc(F)cc3F)cc2)cc1
REMARK SMILES IDX 17 1 16 2 15 3 14 4 13 5 11 6 12 7 10 8 9 9 8 10 5 11 6 12
REMARK SMILES IDX 100 13 7 14 99 15 2 16 1 17 3 18 4 19 85 20 86 21 98 22
REMARK SMILES IDX 87 23 97 24 88 25 89 26 90 27 95 28 91 29 94 30 96 31 92 32
REMARK SMILES IDX 93 33 18 34 19 35 20 36 21 37 22 38 23 39 84 40 24 41 83 42
REMARK SMILES IDX 25 43 26 44 27 45 77 46 28 47 82 48 76 49 78 50 29 51 81 52
REMARK SMILES IDX 75 53 74 54 30 56 62 57 42 58 61 59 43 60 46 61 60 62 79 63
REMARK SMILES IDX 44 64 45 65 59 67 80 68 47 69 31 70 32 71 40 72 33 73 35 74
REMARK SMILES IDX 41 75 34 76 36 77 37 78 38 79 39 80 63 81 64 82 72 83 65 84
REMARK SMILES IDX 67 85 73 86 66 87 68 88 69 89 70 90 71 91 48 92 49 93 57 94
REMARK SMILES IDX 50 95 52 96 58 97 51 98 53 99 54 100 55 101 56 102
REMARK H PARENT 78 55 46 66
REMARK Flexibility Score: inf
ROOT
ATOM      1  C   UNL A   1      36.130  21.256  24.838  1.00  0.00     0.202 C 
ENDROOT
BRANCH   1   2
ATOM      2  O   UNL A   1      35.257  20.559  25.721  1.00  0.00    -0.374 OA
BRANCH   2   3
ATOM      3  C   UNL A   1      33.872  20.909  25.688  1.00  0.00     0.202 C 
BRANCH   3   4
ATOM      4  C   UNL A   1      33.500  22.374  25.947  1.00  0.00     0.261 C 
BRANCH   4   5
ATOM      5  O   UNL A   1      32.103  22.622  25.707  1.00  0.00    -0.460 OA
BRANCH   5   6
ATOM      6  C   UNL A   1      31.581  23.648  26.427  1.00  0.00     0.338 C 
ATOM      7  O   UNL A   1      31.380  23.641  27.635  1.00  0.00    -0.246 OA
BRANCH   6   8
ATOM      8  C   UNL A   1      31.401  24.886  25.602  1.00  0.00     0.067 C 
ATOM      9  C   UNL A   1      30.602  24.888  24.508  1.00  0.00     0.024 C 
BRANCH   9  10
ATOM     10  C   UNL A   1      30.104  26.062  23.741  1.00  0.00    -0.025 A 
ATOM     11  C   UNL A   1      29.207  28.539  22.754  1.00  0.00     0.067 A 
ATOM     12  C   UNL A   1      30.454  28.057  22.375  1.00  0.00     0.021 A 
ATOM     13  C   UNL A   1      28.346  27.745  23.512  1.00  0.00     0.021 A 
ATOM     14  C   UNL A   1      30.875  26.807  22.837  1.00  0.00     0.009 A 
ATOM     15  C   UNL A   1      28.801  26.515  24.007  1.00  0.00     0.009 A 
BRANCH  11  16
ATOM     16  S   UNL A   1      28.726  30.190  22.311  1.00  0.00     0.175 S 
ATOM     17  C   UNL A   1      27.190  30.419  23.173  1.00  0.00     0.163 C 
ATOM     18  O   UNL A   1      28.461  30.201  20.886  1.00  0.00    -0.224 OA
ATOM     19  O   UNL A   1      29.689  31.107  22.896  1.00  0.00    -0.224 OA
ENDBRANCH  11  16
ENDBRANCH   9  10
BRANCH   8  20
ATOM     20  C   UNL A   1      32.073  26.093  26.120  1.00  0.00    -0.011 A 
ATOM     21  C   UNL A   1      33.396  26.358  25.744  1.00  0.00     0.009 A 
ATOM     22  C   UNL A   1      31.403  27.002  26.937  1.00  0.00     0.009 A 
ATOM     23  C   UNL A   1      34.030  27.530  26.155  1.00  0.00     0.009 A 
ATOM     24  C   UNL A   1      32.035  28.184  27.329  1.00  0.00     0.009 A 
ATOM     25  C   UNL A   1      33.356  28.477  26.941  1.00  0.00    -0.015 A 
BRANCH  25  26
ATOM     26  C   UNL A   1      34.012  29.741  27.326  1.00  0.00     0.018 A 
ATOM     27  C   UNL A   1      33.312  30.964  27.264  1.00  0.00     0.015 A 
ATOM     28  C   UNL A   1      35.346  29.782  27.767  1.00  0.00     0.133 A 
ATOM     29  C   UNL A   1      33.929  32.167  27.620  1.00  0.00     0.040 A 
ATOM     30  C   UNL A   1      35.965  30.974  28.130  1.00  0.00     0.079 A 
ATOM     31  F   UNL A   1      36.072  28.656  27.841  1.00  0.00    -0.206 F 
ATOM     32  C   UNL A   1      35.249  32.157  28.050  1.00  0.00     0.126 A 
ATOM     33  F   UNL A   1      35.838  33.310  28.393  1.00  0.00    -0.207 F 
ENDBRANCH  25  26
ENDBRANCH   8  20
ENDBRANCH   6   8
ENDBRANCH   5   6
ENDBRANCH   4   5
ENDBRANCH   3   4
ENDBRANCH   2   3
ENDBRANCH   1   2
BRANCH   1  34
ATOM     34  C   UNL A   1      37.643  21.098  25.030  1.00  0.00     0.261 C 
BRANCH  34  35
ATOM     35  O   UNL A   1      38.233  22.175  25.766  1.00  0.00    -0.460 OA
BRANCH  35  36
ATOM     36  C   UNL A   1      39.392  21.854  26.386  1.00  0.00     0.338 C 
ATOM     37  O   UNL A   1      39.945  20.760  26.399  1.00  0.00    -0.246 OA
BRANCH  36  38
ATOM     38  C   UNL A   1      40.030  23.071  26.912  1.00  0.00     0.060 A 
ATOM     39  C   UNL A   1      39.697  24.288  26.303  1.00  0.00     0.016 A 
ATOM     40  C   UNL A   1      40.966  23.021  27.946  1.00  0.00     0.016 A 
ATOM     41  C   UNL A   1      40.338  25.458  26.694  1.00  0.00     0.010 A 
ATOM     42  C   UNL A   1      41.616  24.196  28.330  1.00  0.00     0.010 A 
ATOM     43  C   UNL A   1      41.331  25.411  27.679  1.00  0.00    -0.014 A 
BRANCH  43  44
ATOM     44  C   UNL A   1      42.171  26.606  27.922  1.00  0.00     0.031 A 
ATOM     45  C   UNL A   1      41.583  27.768  28.673  1.00  0.00     0.074 A 
ATOM     46  C   UNL A   1      43.439  26.652  27.481  1.00  0.00     0.049 A 
ATOM     47  N   UNL A   1      42.130  28.913  28.983  1.00  0.00    -0.248 NA
ATOM     48  C   UNL A   1      40.191  27.620  29.129  1.00  0.00     0.031 C 
ATOM     49  C   UNL A   1      44.112  25.587  26.740  1.00  0.00     0.029 A 
ATOM     50  N   UNL A   1      44.376  27.650  27.570  1.00  0.00    -0.354 N 
ATOM     51  C   UNL A   1      41.142  29.636  29.640  1.00  0.00     0.074 A 
ATOM     52  C   UNL A   1      39.959  28.805  29.673  1.00  0.00     0.031 C 
ATOM     53  C   UNL A   1      45.349  26.001  26.414  1.00  0.00     0.029 A 
ATOM     54  C   UNL A   1      45.542  27.365  26.902  1.00  0.00     0.049 A 
ATOM     55  H   UNL A   1      44.227  28.487  28.065  1.00  0.00     0.167 HD
ATOM     56  C   UNL A   1      41.218  30.876  30.180  1.00  0.00     0.034 A 
ATOM     57  C   UNL A   1      46.632  28.128  26.689  1.00  0.00     0.034 A 
ATOM     58  C   UNL A   1      42.402  31.691  30.157  1.00  0.00     0.049 A 
ATOM     59  C   UNL A   1      46.690  29.509  27.286  1.00  0.00     0.074 A 
ATOM     60  C   UNL A   1      42.601  32.933  30.731  1.00  0.00     0.029 A 
ATOM     61  N   UNL A   1      43.582  31.354  29.511  1.00  0.00    -0.354 N 
ATOM     62  N   UNL A   1      45.797  30.130  28.019  1.00  0.00    -0.248 NA
ATOM     63  C   UNL A   1      47.919  30.282  27.059  1.00  0.00     0.031 C 
ATOM     64  C   UNL A   1      43.891  33.364  30.400  1.00  0.00     0.029 A 
ATOM     65  C   UNL A   1      44.507  32.372  29.653  1.00  0.00     0.049 A 
ATOM     66  H   UNL A   1      43.737  30.513  29.024  1.00  0.00     0.167 HD
ATOM     67  C   UNL A   1      46.366  31.350  28.367  1.00  0.00     0.074 A 
ATOM     68  C   UNL A   1      47.690  31.372  27.778  1.00  0.00     0.031 C 
ATOM     69  C   UNL A   1      45.838  32.365  29.098  1.00  0.00     0.034 A 
BRANCH  56  70
ATOM     70  C   UNL A   1      39.982  31.418  30.849  1.00  0.00     0.023 A 
ATOM     71  C   UNL A   1      38.992  32.064  30.081  1.00  0.00     0.012 A 
ATOM     72  C   UNL A   1      39.787  31.263  32.235  1.00  0.00     0.148 A 
ATOM     73  C   UNL A   1      37.848  32.583  30.687  1.00  0.00     0.002 A 
ATOM     74  C   UNL A   1      38.623  31.742  32.825  1.00  0.00     0.091 A 
ATOM     75  F   UNL A   1      40.750  30.670  32.956  1.00  0.00    -0.205 F 
ATOM     76  C   UNL A   1      37.659  32.413  32.055  1.00  0.00     0.022 A 
BRANCH  74  77
ATOM     77  S   UNL A   1      38.255  31.501  34.567  1.00  0.00     0.127 S 
ATOM     78  O   UNL A   1      36.949  32.148  34.684  1.00  0.00    -0.237 OA
ATOM     79  O   UNL A   1      38.226  30.042  34.678  1.00  0.00    -0.237 OA
ATOM     80  O   UNL A   1      39.340  32.141  35.296  1.00  0.00    -0.744 OA
ENDBRANCH  74  77
ENDBRANCH  56  70
BRANCH  57  81
ATOM     81  C   UNL A   1      47.768  27.582  25.896  1.00  0.00     0.023 A 
ATOM     82  C   UNL A   1      48.742  26.787  26.529  1.00  0.00     0.012 A 
ATOM     83  C   UNL A   1      47.857  27.806  24.508  1.00  0.00     0.148 A 
ATOM     84  C   UNL A   1      49.798  26.242  25.797  1.00  0.00     0.002 A 
ATOM     85  C   UNL A   1      48.878  27.214  23.775  1.00  0.00     0.091 A 
ATOM     86  F   UNL A   1      46.924  28.575  23.929  1.00  0.00    -0.205 F 
ATOM     87  C   UNL A   1      49.859  26.445  24.421  1.00  0.00     0.022 A 
BRANCH  85  88
ATOM     88  S   UNL A   1      48.960  27.306  21.983  1.00  0.00     0.127 S 
ATOM     89  O   UNL A   1      50.401  27.308  21.749  1.00  0.00    -0.237 OA
ATOM     90  O   UNL A   1      48.271  26.078  21.589  1.00  0.00    -0.237 OA
ATOM     91  O   UNL A   1      48.261  28.531  21.617  1.00  0.00    -0.744 OA
ENDBRANCH  85  88
ENDBRANCH  57  81
BRANCH  69  92
ATOM     92  C   UNL A   1      46.699  33.578  29.336  1.00  0.00     0.023 A 
ATOM     93  C   UNL A   1      47.603  33.598  30.417  1.00  0.00     0.012 A 
ATOM     94  C   UNL A   1      46.669  34.667  28.442  1.00  0.00     0.148 A 
ATOM     95  C   UNL A   1      48.439  34.696  30.622  1.00  0.00     0.002 A 
ATOM     96  C   UNL A   1      47.540  35.733  28.623  1.00  0.00     0.091 A 
ATOM     97  F   UNL A   1      45.790  34.638  27.430  1.00  0.00    -0.205 F 
ATOM     98  C   UNL A   1      48.417  35.756  29.720  1.00  0.00     0.022 A 
BRANCH  96  99
ATOM     99  S   UNL A   1      47.650  37.096  27.457  1.00  0.00     0.127 S 
ATOM    100  O   UNL A   1      48.982  37.627  27.744  1.00  0.00    -0.237 OA
ATOM    101  O   UNL A   1      47.530  36.412  26.169  1.00  0.00    -0.237 OA
ATOM    102  O   UNL A   1      46.541  37.986  27.774  1.00  0.00    -0.744 OA
ENDBRANCH  96  99
ENDBRANCH  69  92
ENDBRANCH  43  44
ENDBRANCH  36  38
ENDBRANCH  35  36
ENDBRANCH  34  35
ENDBRANCH   1  34
TORSDOF 21
ENDMDL
MODEL 3
REMARK VINA RESULT:     -11.7      2.043      7.409
REMARK SMILES CS(=O)(=O)c1ccc(/C=C(/C(=O)OCCOCCOC(=O)c2ccc(-c3c4nc(c(-c5cccc(S(=O)(=O)[O-])c5F)c5ccc([nH]5)c(-c5cccc(S(=O)(=O)[O-])c5F)c5nc(c(-c6cccc(S(=O)(=O)[O-])c6F)c6ccc3[nH]6)C=C5)C=C4)cc2)c2ccc(-c3ccc(F)cc3F)cc2)cc1
REMARK SMILES IDX 17 1 16 2 15 3 14 4 13 5 11 6 12 7 10 8 9 9 8 10 5 11 6 12
REMARK SMILES IDX 100 13 7 14 99 15 2 16 1 17 3 18 4 19 85 20 86 21 98 22
REMARK SMILES IDX 87 23 97 24 88 25 89 26 90 27 95 28 91 29 94 30 96 31 92 32
REMARK SMILES IDX 93 33 18 34 19 35 20 36 21 37 22 38 23 39 84 40 24 41 83 42
REMARK SMILES IDX 25 43 26 44 27 45 77 46 28 47 82 48 76 49 78 50 29 51 81 52
REMARK SMILES IDX 75 53 74 54 30 56 62 57 42 58 61 59 43 60 46 61 60 62 79 63
REMARK SMILES IDX 44 64 45 65 59 67 80 68 47 69 31 70 32 71 40 72 33 73 35 74
REMARK SMILES IDX 41 75 34 76 36 77 37 78 38 79 39 80 63 81 64 82 72 83 65 84
REMARK SMILES IDX 67 85 73 86 66 87 68 88 69 89 70 90 71 91 48 92 49 93 57 94
REMARK SMILES IDX 50 95 52 96 58 97 51 98 53 99 54 100 55 101 56 102
REMARK H PARENT 78 55 46 66
REMARK Flexibility Score: inf
ROOT
ATOM      1  C   UNL A   1      35.888  21.473  24.615  1.00  0.00     0.202 C 
ENDROOT
BRANCH   1   2
ATOM      2  O   UNL A   1      34.871  21.157  25.559  1.00  0.00    -0.374 OA
BRANCH   2   3
ATOM      3  C   UNL A   1      33.530  21.523  25.228  1.00  0.00     0.202 C 
BRANCH   3   4
ATOM      4  C   UNL A   1      32.976  22.821  25.828  1.00  0.00     0.261 C 
BRANCH   4   5
ATOM      5  O   UNL A   1      31.644  23.103  25.357  1.00  0.00    -0.460 OA
BRANCH   5   6
ATOM      6  C   UNL A   1      30.990  24.062  26.061  1.00  0.00     0.338 C 
ATOM      7  O   UNL A   1      30.655  23.980  27.236  1.00  0.00    -0.246 OA
BRANCH   6   8
ATOM      8  C   UNL A   1      30.837  25.333  25.281  1.00  0.00     0.067 C 
ATOM      9  C   UNL A   1      29.886  25.455  24.324  1.00  0.00     0.024 C 
BRANCH   9  10
ATOM     10  C   UNL A   1      29.423  26.700  23.651  1.00  0.00    -0.025 A 
ATOM     11  C   UNL A   1      28.499  29.240  22.871  1.00  0.00     0.067 A 
ATOM     12  C   UNL A   1      29.823  28.886  22.639  1.00  0.00     0.021 A 
ATOM     13  C   UNL A   1      27.597  28.299  23.365  1.00  0.00     0.021 A 
ATOM     14  C   UNL A   1      30.264  27.608  22.992  1.00  0.00     0.009 A 
ATOM     15  C   UNL A   1      28.063  27.037  23.758  1.00  0.00     0.009 A 
BRANCH  11  16
ATOM     16  S   UNL A   1      27.967  30.908  22.580  1.00  0.00     0.175 S 
ATOM     17  C   UNL A   1      29.403  31.876  22.974  1.00  0.00     0.163 C 
ATOM     18  O   UNL A   1      26.928  31.211  23.544  1.00  0.00    -0.224 OA
ATOM     19  O   UNL A   1      27.727  31.057  21.155  1.00  0.00    -0.224 OA
ENDBRANCH  11  16
ENDBRANCH   9  10
BRANCH   8  20
ATOM     20  C   UNL A   1      31.721  26.438  25.696  1.00  0.00    -0.011 A 
ATOM     21  C   UNL A   1      31.360  27.234  26.791  1.00  0.00     0.009 A 
ATOM     22  C   UNL A   1      32.934  26.676  25.052  1.00  0.00     0.009 A 
ATOM     23  C   UNL A   1      32.214  28.236  27.252  1.00  0.00     0.009 A 
ATOM     24  C   UNL A   1      33.795  27.666  25.531  1.00  0.00     0.009 A 
ATOM     25  C   UNL A   1      33.458  28.460  26.643  1.00  0.00    -0.015 A 
BRANCH  25  26
ATOM     26  C   UNL A   1      34.382  29.482  27.172  1.00  0.00     0.018 A 
ATOM     27  C   UNL A   1      35.694  29.138  27.556  1.00  0.00     0.015 A 
ATOM     28  C   UNL A   1      34.000  30.827  27.313  1.00  0.00     0.133 A 
ATOM     29  C   UNL A   1      36.573  30.099  28.063  1.00  0.00     0.040 A 
ATOM     30  C   UNL A   1      34.870  31.792  27.811  1.00  0.00     0.079 A 
ATOM     31  F   UNL A   1      32.762  31.221  26.975  1.00  0.00    -0.206 F 
ATOM     32  C   UNL A   1      36.150  31.416  28.184  1.00  0.00     0.126 A 
ATOM     33  F   UNL A   1      36.993  32.337  28.669  1.00  0.00    -0.207 F 
ENDBRANCH  25  26
ENDBRANCH   8  20
ENDBRANCH   6   8
ENDBRANCH   5   6
ENDBRANCH   4   5
ENDBRANCH   3   4
ENDBRANCH   2   3
ENDBRANCH   1   2
BRANCH   1  34
ATOM     34  C   UNL A   1      37.341  21.122  24.959  1.00  0.00     0.261 C 
BRANCH  34  35
ATOM     35  O   UNL A   1      37.995  22.131  25.737  1.00  0.00    -0.460 OA
BRANCH  35  36
ATOM     36  C   UNL A   1      39.217  21.773  26.195  1.00  0.00     0.338 C 
ATOM     37  O   UNL A   1      39.815  20.728  25.965  1.00  0.00    -0.246 OA
BRANCH  36  38
ATOM     38  C   UNL A   1      39.845  22.912  26.880  1.00  0.00     0.060 A 
ATOM     39  C   UNL A   1      39.517  24.198  26.429  1.00  0.00     0.016 A 
ATOM     40  C   UNL A   1      40.771  22.731  27.910  1.00  0.00     0.016 A 
ATOM     41  C   UNL A   1      40.151  25.308  26.975  1.00  0.00     0.010 A 
ATOM     42  C   UNL A   1      41.413  23.847  28.449  1.00  0.00     0.010 A 
ATOM     43  C   UNL A   1      41.133  25.136  27.957  1.00  0.00    -0.014 A 
BRANCH  43  44
ATOM     44  C   UNL A   1      41.967  26.290  28.362  1.00  0.00     0.031 A 
ATOM     45  C   UNL A   1      41.376  27.332  29.269  1.00  0.00     0.074 A 
ATOM     46  C   UNL A   1      43.232  26.405  27.926  1.00  0.00     0.049 A 
ATOM     47  N   UNL A   1      41.918  28.426  29.735  1.00  0.00    -0.248 NA
ATOM     48  C   UNL A   1      39.987  27.113  29.706  1.00  0.00     0.031 C 
ATOM     49  C   UNL A   1      43.909  25.458  27.041  1.00  0.00     0.029 A 
ATOM     50  N   UNL A   1      44.164  27.386  28.150  1.00  0.00    -0.354 N 
ATOM     51  C   UNL A   1      40.929  29.044  30.490  1.00  0.00     0.074 A 
ATOM     52  C   UNL A   1      39.751  28.209  30.411  1.00  0.00     0.031 C 
ATOM     53  C   UNL A   1      45.141  25.921  26.771  1.00  0.00     0.029 A 
ATOM     54  C   UNL A   1      45.329  27.205  27.445  1.00  0.00     0.049 A 
ATOM     55  H   UNL A   1      44.013  28.145  28.758  1.00  0.00     0.167 HD
ATOM     56  C   UNL A   1      41.000  30.196  31.198  1.00  0.00     0.034 A 
ATOM     57  C   UNL A   1      46.414  27.998  27.336  1.00  0.00     0.034 A 
ATOM     58  C   UNL A   1      42.180  31.014  31.285  1.00  0.00     0.049 A 
ATOM     59  C   UNL A   1      46.466  29.282  28.120  1.00  0.00     0.074 A 
ATOM     60  C   UNL A   1      42.375  32.165  32.025  1.00  0.00     0.029 A 
ATOM     61  N   UNL A   1      43.358  30.778  30.593  1.00  0.00    -0.354 N 
ATOM     62  N   UNL A   1      45.573  29.789  28.936  1.00  0.00    -0.248 NA
ATOM     63  C   UNL A   1      47.691  30.086  27.998  1.00  0.00     0.031 C 
ATOM     64  C   UNL A   1      43.661  32.646  31.753  1.00  0.00     0.029 A 
ATOM     65  C   UNL A   1      44.279  31.773  30.872  1.00  0.00     0.049 A 
ATOM     66  H   UNL A   1      43.516  30.014  29.992  1.00  0.00     0.167 HD
ATOM     67  C   UNL A   1      46.137  30.952  29.449  1.00  0.00     0.074 A 
ATOM     68  C   UNL A   1      47.459  31.064  28.864  1.00  0.00     0.031 C 
ATOM     69  C   UNL A   1      45.607  31.851  30.316  1.00  0.00     0.034 A 
BRANCH  56  70
ATOM     70  C   UNL A   1      39.765  30.632  31.941  1.00  0.00     0.023 A 
ATOM     71  C   UNL A   1      39.359  29.938  33.099  1.00  0.00     0.012 A 
ATOM     72  C   UNL A   1      39.021  31.747  31.509  1.00  0.00     0.148 A 
ATOM     73  C   UNL A   1      38.210  30.320  33.791  1.00  0.00     0.002 A 
ATOM     74  C   UNL A   1      37.903  32.151  32.231  1.00  0.00     0.091 A 
ATOM     75  F   UNL A   1      39.405  32.380  30.391  1.00  0.00    -0.205 F 
ATOM     76  C   UNL A   1      37.489  31.431  33.363  1.00  0.00     0.022 A 
BRANCH  74  77
ATOM     77  S   UNL A   1      36.957  33.616  31.803  1.00  0.00     0.127 S 
ATOM     78  O   UNL A   1      35.697  33.031  31.347  1.00  0.00    -0.237 OA
ATOM     79  O   UNL A   1      36.876  34.317  33.084  1.00  0.00    -0.237 OA
ATOM     80  O   UNL A   1      37.733  34.308  30.783  1.00  0.00    -0.744 OA
ENDBRANCH  74  77
ENDBRANCH  56  70
BRANCH  57  81
ATOM     81  C   UNL A   1      47.548  27.574  26.470  1.00  0.00     0.023 A 
ATOM     82  C   UNL A   1      48.620  26.851  27.028  1.00  0.00     0.012 A 
ATOM     83  C   UNL A   1      47.544  27.842  25.087  1.00  0.00     0.148 A 
ATOM     84  C   UNL A   1      49.679  26.422  26.227  1.00  0.00     0.002 A 
ATOM     85  C   UNL A   1      48.573  27.362  24.286  1.00  0.00     0.091 A 
ATOM     86  F   UNL A   1      46.519  28.541  24.580  1.00  0.00    -0.205 F 
ATOM     87  C   UNL A   1      49.649  26.665  24.856  1.00  0.00     0.022 A 
BRANCH  85  88
ATOM     88  S   UNL A   1      48.551  27.508  22.496  1.00  0.00     0.127 S 
ATOM     89  O   UNL A   1      48.483  26.110  22.081  1.00  0.00    -0.237 OA
ATOM     90  O   UNL A   1      47.327  28.279  22.274  1.00  0.00    -0.237 OA
ATOM     91  O   UNL A   1      49.776  28.212  22.140  1.00  0.00    -0.744 OA
ENDBRANCH  85  88
ENDBRANCH  57  81
BRANCH  69  92
ATOM     92  C   UNL A   1      46.462  33.024  30.719  1.00  0.00     0.023 A 
ATOM     93  C   UNL A   1      46.388  34.231  29.994  1.00  0.00     0.012 A 
ATOM     94  C   UNL A   1      47.280  32.957  31.864  1.00  0.00     0.148 A 
ATOM     95  C   UNL A   1      47.139  35.339  30.384  1.00  0.00     0.002 A 
ATOM     96  C   UNL A   1      47.985  34.081  32.276  1.00  0.00     0.091 A 
ATOM     97  F   UNL A   1      47.351  31.796  32.531  1.00  0.00    -0.205 F 
ATOM     98  C   UNL A   1      47.926  35.269  31.530  1.00  0.00     0.022 A 
BRANCH  96  99
ATOM     99  S   UNL A   1      48.948  34.112  33.793  1.00  0.00     0.127 S 
ATOM    100  O   UNL A   1      50.078  33.251  33.446  1.00  0.00    -0.237 OA
ATOM    101  O   UNL A   1      49.280  35.531  33.921  1.00  0.00    -0.237 OA
ATOM    102  O   UNL A   1      48.070  33.601  34.837  1.00  0.00    -0.744 OA
ENDBRANCH  96  99
ENDBRANCH  69  92
ENDBRANCH  43  44
ENDBRANCH  36  38
ENDBRANCH  35  36
ENDBRANCH  34  35
ENDBRANCH   1  34
TORSDOF 21
ENDMDL
