MODEL 1
REMARK VINA RESULT:     -11.5      0.000      0.000
REMARK SMILES O=C(N[C@@H]1[C@@H](C(=O)OCCOCCOC(=O)c2ccc(-c3c4nc(c(-c5cccc(S(=O)(=O)[O-])c5F)c5ccc([nH]5)c(-c5cccc(S(=O)(=O)[O-])c5F)c5nc(c(-c6cccc(S(=O)(=O)[O-])c6F)c6ccc3[nH]6)C=C5)C=C4)cc2)[C@H]2C=C[C@@H]1C2)OCc1ccccc1
REMARK SMILES IDX 10 1 9 2 8 3 6 4 7 5 5 6 4 7 83 8 80 9 82 10 84 11 81 12
REMARK SMILES IDX 3 13 1 14 2 15 85 17 86 18 87 19 88 20 92 21 89 22 91 23
REMARK SMILES IDX 90 24 11 25 12 26 13 27 14 28 15 29 16 30 17 31 18 32 79 33
REMARK SMILES IDX 19 34 78 35 20 36 21 37 22 38 72 39 23 40 77 41 71 42 73 43
REMARK SMILES IDX 24 44 76 45 70 46 69 47 25 49 57 50 37 51 56 52 38 53 41 54
REMARK SMILES IDX 55 55 74 56 39 57 40 58 54 60 75 61 42 62 26 63 27 64 35 65
REMARK SMILES IDX 28 66 30 67 36 68 29 69 31 70 32 71 33 72 34 73 58 74 59 75
REMARK SMILES IDX 67 76 60 77 62 78 68 79 61 80 63 81 64 82 65 83 66 84 43 85
REMARK SMILES IDX 44 86 52 87 45 88 47 89 53 90 46 91 48 92 49 93 50 94 51 95
REMARK H PARENT 3 16 73 48 41 59
REMARK Flexibility Score: inf
ROOT
ATOM      1  C   UNL A   1      36.158  22.243  25.206  1.00  0.00     0.202 C 
ENDROOT
BRANCH   1   2
ATOM      2  C   UNL A   1      35.671  23.427  24.360  1.00  0.00     0.261 C 
BRANCH   2   3
ATOM      3  O   UNL A   1      35.196  23.031  23.059  1.00  0.00    -0.463 OA
BRANCH   3   4
ATOM      4  C   UNL A   1      33.895  23.329  22.799  1.00  0.00     0.311 C 
ATOM      5  O   UNL A   1      33.184  22.725  22.002  1.00  0.00    -0.252 OA
BRANCH   4   6
ATOM      6  C   UNL A   1      33.385  24.511  23.592  1.00  0.00     0.129 C 
ATOM      7  C   UNL A   1      31.874  24.630  23.935  1.00  0.00     0.107 C 
ATOM      8  C   UNL A   1      31.563  26.103  23.522  1.00  0.00     0.035 C 
ATOM      9  C   UNL A   1      33.696  25.861  22.897  1.00  0.00     0.028 C 
ATOM     10  C   UNL A   1      31.601  26.168  22.008  1.00  0.00    -0.025 C 
ATOM     11  C   UNL A   1      32.891  26.825  23.770  1.00  0.00     0.018 C 
ATOM     12  C   UNL A   1      32.881  26.009  21.636  1.00  0.00    -0.027 C 
BRANCH   7  13
ATOM     13  N   UNL A   1      31.448  24.311  25.306  1.00  0.00    -0.317 N 
ATOM     14  O   UNL A   1      31.067  23.146  27.197  1.00  0.00    -0.225 OA
ATOM     15  C   UNL A   1      31.240  23.145  25.984  1.00  0.00     0.407 C 
ATOM     16  H   UNL A   1      31.275  25.111  25.853  1.00  0.00     0.167 HD
BRANCH  15  17
ATOM     17  O   UNL A   1      31.364  22.024  25.257  1.00  0.00    -0.445 OA
BRANCH  17  18
ATOM     18  C   UNL A   1      32.547  21.186  25.295  1.00  0.00     0.270 C 
BRANCH  18  19
ATOM     19  C   UNL A   1      32.545  19.801  24.665  1.00  0.00    -0.011 A 
ATOM     20  C   UNL A   1      32.393  19.585  23.292  1.00  0.00     0.007 A 
ATOM     21  C   UNL A   1      32.775  18.680  25.493  1.00  0.00     0.007 A 
ATOM     22  C   UNL A   1      32.581  18.309  22.750  1.00  0.00     0.000 A 
ATOM     23  C   UNL A   1      32.955  17.406  24.951  1.00  0.00     0.000 A 
ATOM     24  C   UNL A   1      32.878  17.226  23.574  1.00  0.00     0.000 A 
ENDBRANCH  18  19
ENDBRANCH  17  18
ENDBRANCH  15  17
ENDBRANCH   7  13
ENDBRANCH   4   6
ENDBRANCH   3   4
ENDBRANCH   2   3
ENDBRANCH   1   2
BRANCH   1  25
ATOM     25  O   UNL A   1      35.812  20.916  24.802  1.00  0.00    -0.374 OA
BRANCH  25  26
ATOM     26  C   UNL A   1      36.825  19.920  24.834  1.00  0.00     0.202 C 
BRANCH  26  27
ATOM     27  C   UNL A   1      38.296  20.328  24.976  1.00  0.00     0.261 C 
BRANCH  27  28
ATOM     28  O   UNL A   1      38.871  19.988  26.231  1.00  0.00    -0.460 OA
BRANCH  28  29
ATOM     29  C   UNL A   1      40.206  20.225  26.259  1.00  0.00     0.338 C 
ATOM     30  O   UNL A   1      41.088  19.545  25.772  1.00  0.00    -0.246 OA
BRANCH  29  31
ATOM     31  C   UNL A   1      40.447  21.549  26.843  1.00  0.00     0.060 A 
ATOM     32  C   UNL A   1      39.920  22.641  26.145  1.00  0.00     0.016 A 
ATOM     33  C   UNL A   1      41.227  21.719  27.987  1.00  0.00     0.016 A 
ATOM     34  C   UNL A   1      40.259  23.925  26.536  1.00  0.00     0.010 A 
ATOM     35  C   UNL A   1      41.566  23.012  28.379  1.00  0.00     0.010 A 
ATOM     36  C   UNL A   1      41.133  24.107  27.614  1.00  0.00    -0.014 A 
BRANCH  36  37
ATOM     37  C   UNL A   1      41.738  25.439  27.804  1.00  0.00     0.031 A 
ATOM     38  C   UNL A   1      40.940  26.492  28.519  1.00  0.00     0.074 A 
ATOM     39  C   UNL A   1      42.991  25.671  27.385  1.00  0.00     0.049 A 
ATOM     40  N   UNL A   1      41.269  27.721  28.809  1.00  0.00    -0.248 NA
ATOM     41  C   UNL A   1      39.589  26.111  28.969  1.00  0.00     0.031 C 
ATOM     42  C   UNL A   1      43.841  24.702  26.693  1.00  0.00     0.029 A 
ATOM     43  N   UNL A   1      43.758  26.802  27.465  1.00  0.00    -0.354 N 
ATOM     44  C   UNL A   1      40.159  28.270  29.438  1.00  0.00     0.074 A 
ATOM     45  C   UNL A   1      39.142  27.246  29.486  1.00  0.00     0.031 C 
ATOM     46  C   UNL A   1      45.007  25.293  26.383  1.00  0.00     0.029 A 
ATOM     47  C   UNL A   1      44.969  26.683  26.828  1.00  0.00     0.049 A 
ATOM     48  H   UNL A   1      43.471  27.620  27.932  1.00  0.00     0.167 HD
ATOM     49  C   UNL A   1      40.010  29.518  29.937  1.00  0.00     0.034 A 
ATOM     50  C   UNL A   1      45.921  27.608  26.607  1.00  0.00     0.034 A 
ATOM     51  C   UNL A   1      41.043  30.515  29.900  1.00  0.00     0.049 A 
ATOM     52  C   UNL A   1      45.724  28.992  27.164  1.00  0.00     0.074 A 
ATOM     53  C   UNL A   1      41.025  31.793  30.426  1.00  0.00     0.029 A 
ATOM     54  N   UNL A   1      42.275  30.351  29.284  1.00  0.00    -0.354 N 
ATOM     55  N   UNL A   1      44.717  29.465  27.860  1.00  0.00    -0.248 NA
ATOM     56  C   UNL A   1      46.806  29.958  26.940  1.00  0.00     0.031 C 
ATOM     57  C   UNL A   1      42.231  32.417  30.091  1.00  0.00     0.029 A 
ATOM     58  C   UNL A   1      43.019  31.511  29.397  1.00  0.00     0.049 A 
ATOM     59  H   UNL A   1      42.576  29.529  28.833  1.00  0.00     0.167 HD
ATOM     60  C   UNL A   1      45.058  30.772  28.185  1.00  0.00     0.074 A 
ATOM     61  C   UNL A   1      46.376  31.007  27.627  1.00  0.00     0.031 C 
ATOM     62  C   UNL A   1      44.346  31.701  28.870  1.00  0.00     0.034 A 
BRANCH  49  63
ATOM     63  C   UNL A   1      38.689  29.877  30.565  1.00  0.00     0.023 A 
ATOM     64  C   UNL A   1      38.407  29.495  31.891  1.00  0.00     0.012 A 
ATOM     65  C   UNL A   1      37.751  30.651  29.854  1.00  0.00     0.148 A 
ATOM     66  C   UNL A   1      37.202  29.856  32.493  1.00  0.00     0.002 A 
ATOM     67  C   UNL A   1      36.574  31.047  30.475  1.00  0.00     0.091 A 
ATOM     68  F   UNL A   1      38.026  30.980  28.584  1.00  0.00    -0.205 F 
ATOM     69  C   UNL A   1      36.292  30.643  31.790  1.00  0.00     0.022 A 
BRANCH  67  70
ATOM     70  S   UNL A   1      35.376  32.125  29.682  1.00  0.00     0.127 S 
ATOM     71  O   UNL A   1      34.438  32.379  30.775  1.00  0.00    -0.237 OA
ATOM     72  O   UNL A   1      36.200  33.274  29.307  1.00  0.00    -0.237 OA
ATOM     73  O   UNL A   1      34.834  31.371  28.560  1.00  0.00    -0.744 OA
ENDBRANCH  67  70
ENDBRANCH  49  63
BRANCH  50  74
ATOM     74  C   UNL A   1      47.139  27.249  25.830  1.00  0.00     0.023 A 
ATOM     75  C   UNL A   1      48.159  26.489  26.430  1.00  0.00     0.012 A 
ATOM     76  C   UNL A   1      47.275  27.640  24.483  1.00  0.00     0.148 A 
ATOM     77  C   UNL A   1      49.310  26.154  25.714  1.00  0.00     0.002 A 
ATOM     78  C   UNL A   1      48.394  27.253  23.758  1.00  0.00     0.091 A 
ATOM     79  F   UNL A   1      46.298  28.376  23.933  1.00  0.00    -0.205 F 
ATOM     80  C   UNL A   1      49.422  26.527  24.377  1.00  0.00     0.022 A 
BRANCH  78  81
ATOM     81  S   UNL A   1      48.552  27.570  21.998  1.00  0.00     0.127 S 
ATOM     82  O   UNL A   1      49.753  28.401  21.950  1.00  0.00    -0.237 OA
ATOM     83  O   UNL A   1      48.716  26.219  21.462  1.00  0.00    -0.237 OA
ATOM     84  O   UNL A   1      47.313  28.224  21.603  1.00  0.00    -0.744 OA
ENDBRANCH  78  81
ENDBRANCH  50  74
BRANCH  62  85
ATOM     85  C   UNL A   1      44.991  33.042  29.094  1.00  0.00     0.023 A 
ATOM     86  C   UNL A   1      45.765  33.268  30.250  1.00  0.00     0.012 A 
ATOM     87  C   UNL A   1      44.889  34.053  28.119  1.00  0.00     0.148 A 
ATOM     88  C   UNL A   1      46.395  34.495  30.449  1.00  0.00     0.002 A 
ATOM     89  C   UNL A   1      45.566  35.252  28.298  1.00  0.00     0.091 A 
ATOM     90  F   UNL A   1      44.135  33.821  27.034  1.00  0.00    -0.205 F 
ATOM     91  C   UNL A   1      46.307  35.480  29.468  1.00  0.00     0.022 A 
BRANCH  89  92
ATOM     92  S   UNL A   1      45.594  36.536  27.044  1.00  0.00     0.127 S 
ATOM     93  O   UNL A   1      44.183  36.913  26.972  1.00  0.00    -0.237 OA
ATOM     94  O   UNL A   1      46.464  37.544  27.651  1.00  0.00    -0.237 OA
ATOM     95  O   UNL A   1      46.135  35.915  25.842  1.00  0.00    -0.744 OA
ENDBRANCH  89  92
ENDBRANCH  62  85
ENDBRANCH  36  37
ENDBRANCH  29  31
ENDBRANCH  28  29
ENDBRANCH  27  28
ENDBRANCH  26  27
ENDBRANCH  25  26
ENDBRANCH   1  25
TORSDOF 21
ENDMDL
MODEL 2
REMARK VINA RESULT:     -11.3      1.673      2.217
REMARK SMILES O=C(N[C@@H]1[C@@H](C(=O)OCCOCCOC(=O)c2ccc(-c3c4nc(c(-c5cccc(S(=O)(=O)[O-])c5F)c5ccc([nH]5)c(-c5cccc(S(=O)(=O)[O-])c5F)c5nc(c(-c6cccc(S(=O)(=O)[O-])c6F)c6ccc3[nH]6)C=C5)C=C4)cc2)[C@H]2C=C[C@@H]1C2)OCc1ccccc1
REMARK SMILES IDX 10 1 9 2 8 3 6 4 7 5 5 6 4 7 83 8 80 9 82 10 84 11 81 12
REMARK SMILES IDX 3 13 1 14 2 15 85 17 86 18 87 19 88 20 92 21 89 22 91 23
REMARK SMILES IDX 90 24 11 25 12 26 13 27 14 28 15 29 16 30 17 31 18 32 79 33
REMARK SMILES IDX 19 34 78 35 20 36 21 37 22 38 72 39 23 40 77 41 71 42 73 43
REMARK SMILES IDX 24 44 76 45 70 46 69 47 25 49 57 50 37 51 56 52 38 53 41 54
REMARK SMILES IDX 55 55 74 56 39 57 40 58 54 60 75 61 42 62 26 63 27 64 35 65
REMARK SMILES IDX 28 66 30 67 36 68 29 69 31 70 32 71 33 72 34 73 58 74 59 75
REMARK SMILES IDX 67 76 60 77 62 78 68 79 61 80 63 81 64 82 65 83 66 84 43 85
REMARK SMILES IDX 44 86 52 87 45 88 47 89 53 90 46 91 48 92 49 93 50 94 51 95
REMARK H PARENT 3 16 73 48 41 59
REMARK Flexibility Score: inf
ROOT
ATOM      1  C   UNL A   1      36.736  23.007  24.514  1.00  0.00     0.202 C 
ENDROOT
BRANCH   1   2
ATOM      2  C   UNL A   1      35.829  23.116  25.747  1.00  0.00     0.261 C 
BRANCH   2   3
ATOM      3  O   UNL A   1      35.282  24.436  25.928  1.00  0.00    -0.463 OA
BRANCH   3   4
ATOM      4  C   UNL A   1      34.269  24.767  25.082  1.00  0.00     0.311 C 
ATOM      5  O   UNL A   1      34.267  25.747  24.344  1.00  0.00    -0.252 OA
BRANCH   4   6
ATOM      6  C   UNL A   1      33.107  23.802  25.139  1.00  0.00     0.129 C 
ATOM      7  C   UNL A   1      32.040  23.796  24.010  1.00  0.00     0.107 C 
ATOM      8  C   UNL A   1      30.707  23.819  24.823  1.00  0.00     0.035 C 
ATOM      9  C   UNL A   1      32.259  23.981  26.423  1.00  0.00     0.028 C 
ATOM     10  C   UNL A   1      30.577  25.197  25.442  1.00  0.00    -0.025 C 
ATOM     11  C   UNL A   1      31.069  23.072  26.110  1.00  0.00     0.018 C 
ATOM     12  C   UNL A   1      31.519  25.295  26.394  1.00  0.00    -0.027 C 
BRANCH   7  13
ATOM     13  N   UNL A   1      32.092  22.715  23.014  1.00  0.00    -0.317 N 
ATOM     14  O   UNL A   1      31.952  20.661  22.096  1.00  0.00    -0.225 OA
ATOM     15  C   UNL A   1      32.099  21.352  23.097  1.00  0.00     0.407 C 
ATOM     16  H   UNL A   1      32.129  23.045  22.087  1.00  0.00     0.167 HD
BRANCH  15  17
ATOM     17  O   UNL A   1      32.151  20.849  24.339  1.00  0.00    -0.445 OA
BRANCH  17  18
ATOM     18  C   UNL A   1      33.265  20.056  24.824  1.00  0.00     0.270 C 
BRANCH  18  19
ATOM     19  C   UNL A   1      33.256  18.539  24.701  1.00  0.00    -0.011 A 
ATOM     20  C   UNL A   1      33.907  17.851  23.672  1.00  0.00     0.007 A 
ATOM     21  C   UNL A   1      32.620  17.782  25.710  1.00  0.00     0.007 A 
ATOM     22  C   UNL A   1      34.019  16.457  23.712  1.00  0.00     0.000 A 
ATOM     23  C   UNL A   1      32.726  16.391  25.743  1.00  0.00     0.000 A 
ATOM     24  C   UNL A   1      33.444  15.730  24.753  1.00  0.00     0.000 A 
ENDBRANCH  18  19
ENDBRANCH  17  18
ENDBRANCH  15  17
ENDBRANCH   7  13
ENDBRANCH   4   6
ENDBRANCH   3   4
ENDBRANCH   2   3
ENDBRANCH   1   2
BRANCH   1  25
ATOM     25  O   UNL A   1      37.001  21.714  23.963  1.00  0.00    -0.374 OA
BRANCH  25  26
ATOM     26  C   UNL A   1      37.118  20.616  24.857  1.00  0.00     0.202 C 
BRANCH  26  27
ATOM     27  C   UNL A   1      38.453  19.872  24.986  1.00  0.00     0.261 C 
BRANCH  27  28
ATOM     28  O   UNL A   1      38.990  19.873  26.303  1.00  0.00    -0.460 OA
BRANCH  28  29
ATOM     29  C   UNL A   1      40.321  20.132  26.309  1.00  0.00     0.338 C 
ATOM     30  O   UNL A   1      41.207  19.468  25.807  1.00  0.00    -0.246 OA
BRANCH  29  31
ATOM     31  C   UNL A   1      40.549  21.460  26.889  1.00  0.00     0.060 A 
ATOM     32  C   UNL A   1      40.013  22.545  26.188  1.00  0.00     0.016 A 
ATOM     33  C   UNL A   1      41.326  21.641  28.034  1.00  0.00     0.016 A 
ATOM     34  C   UNL A   1      40.339  23.834  26.575  1.00  0.00     0.010 A 
ATOM     35  C   UNL A   1      41.653  22.938  28.423  1.00  0.00     0.010 A 
ATOM     36  C   UNL A   1      41.211  24.027  27.654  1.00  0.00    -0.014 A 
BRANCH  36  37
ATOM     37  C   UNL A   1      41.803  25.365  27.841  1.00  0.00     0.031 A 
ATOM     38  C   UNL A   1      40.986  26.418  28.533  1.00  0.00     0.074 A 
ATOM     39  C   UNL A   1      43.061  25.602  27.440  1.00  0.00     0.049 A 
ATOM     40  N   UNL A   1      41.302  27.652  28.816  1.00  0.00    -0.248 NA
ATOM     41  C   UNL A   1      39.630  26.032  28.964  1.00  0.00     0.031 C 
ATOM     42  C   UNL A   1      43.929  24.633  26.772  1.00  0.00     0.029 A 
ATOM     43  N   UNL A   1      43.819  26.739  27.522  1.00  0.00    -0.354 N 
ATOM     44  C   UNL A   1      40.178  28.200  29.422  1.00  0.00     0.074 A 
ATOM     45  C   UNL A   1      39.168  27.169  29.464  1.00  0.00     0.031 C 
ATOM     46  C   UNL A   1      45.096  25.229  26.475  1.00  0.00     0.029 A 
ATOM     47  C   UNL A   1      45.041  26.622  26.906  1.00  0.00     0.049 A 
ATOM     48  H   UNL A   1      43.518  27.559  27.976  1.00  0.00     0.167 HD
ATOM     49  C   UNL A   1      40.012  29.452  29.907  1.00  0.00     0.034 A 
ATOM     50  C   UNL A   1      45.990  27.552  26.691  1.00  0.00     0.034 A 
ATOM     51  C   UNL A   1      41.039  30.456  29.877  1.00  0.00     0.049 A 
ATOM     52  C   UNL A   1      45.774  28.940  27.232  1.00  0.00     0.074 A 
ATOM     53  C   UNL A   1      41.004  31.738  30.390  1.00  0.00     0.029 A 
ATOM     54  N   UNL A   1      42.282  30.294  29.282  1.00  0.00    -0.354 N 
ATOM     55  N   UNL A   1      44.753  29.412  27.907  1.00  0.00    -0.248 NA
ATOM     56  C   UNL A   1      46.853  29.911  27.017  1.00  0.00     0.031 C 
ATOM     57  C   UNL A   1      42.210  32.367  30.069  1.00  0.00     0.029 A 
ATOM     58  C   UNL A   1      43.015  31.461  29.396  1.00  0.00     0.049 A 
ATOM     59  H   UNL A   1      42.595  29.470  28.844  1.00  0.00     0.167 HD
ATOM     60  C   UNL A   1      45.080  30.725  28.225  1.00  0.00     0.074 A 
ATOM     61  C   UNL A   1      46.405  30.964  27.687  1.00  0.00     0.031 C 
ATOM     62  C   UNL A   1      44.350  31.655  28.889  1.00  0.00     0.034 A 
BRANCH  49  63
ATOM     63  C   UNL A   1      38.679  29.807  30.509  1.00  0.00     0.023 A 
ATOM     64  C   UNL A   1      38.362  29.400  31.820  1.00  0.00     0.012 A 
ATOM     65  C   UNL A   1      37.763  30.602  29.792  1.00  0.00     0.148 A 
ATOM     66  C   UNL A   1      37.145  29.757  32.401  1.00  0.00     0.002 A 
ATOM     67  C   UNL A   1      36.574  30.994  30.392  1.00  0.00     0.091 A 
ATOM     68  F   UNL A   1      38.072  30.955  28.536  1.00  0.00    -0.205 F 
ATOM     69  C   UNL A   1      36.258  30.564  31.692  1.00  0.00     0.022 A 
BRANCH  67  70
ATOM     70  S   UNL A   1      35.403  32.095  29.593  1.00  0.00     0.127 S 
ATOM     71  O   UNL A   1      36.253  33.234  29.250  1.00  0.00    -0.237 OA
ATOM     72  O   UNL A   1      34.965  31.295  28.448  1.00  0.00    -0.237 OA
ATOM     73  O   UNL A   1      34.366  32.368  30.578  1.00  0.00    -0.744 OA
ENDBRANCH  67  70
ENDBRANCH  49  63
BRANCH  50  74
ATOM     74  C   UNL A   1      47.223  27.194  25.938  1.00  0.00     0.023 A 
ATOM     75  C   UNL A   1      47.346  27.542  24.581  1.00  0.00     0.012 A 
ATOM     76  C   UNL A   1      48.290  26.530  26.577  1.00  0.00     0.148 A 
ATOM     77  C   UNL A   1      48.494  27.203  23.862  1.00  0.00     0.002 A 
ATOM     78  C   UNL A   1      49.453  26.250  25.873  1.00  0.00     0.091 A 
ATOM     79  F   UNL A   1      48.148  26.196  27.868  1.00  0.00    -0.205 F 
ATOM     80  C   UNL A   1      49.550  26.567  24.510  1.00  0.00     0.022 A 
BRANCH  78  81
ATOM     81  S   UNL A   1      50.910  25.561  26.665  1.00  0.00     0.127 S 
ATOM     82  O   UNL A   1      51.766  25.273  25.517  1.00  0.00    -0.237 OA
ATOM     83  O   UNL A   1      51.354  26.677  27.501  1.00  0.00    -0.237 OA
ATOM     84  O   UNL A   1      50.441  24.404  27.413  1.00  0.00    -0.744 OA
ENDBRANCH  78  81
ENDBRANCH  50  74
BRANCH  62  85
ATOM     85  C   UNL A   1      44.982  33.003  29.111  1.00  0.00     0.023 A 
ATOM     86  C   UNL A   1      45.721  33.250  30.285  1.00  0.00     0.012 A 
ATOM     87  C   UNL A   1      44.903  33.998  28.118  1.00  0.00     0.148 A 
ATOM     88  C   UNL A   1      46.340  34.483  30.483  1.00  0.00     0.002 A 
ATOM     89  C   UNL A   1      45.568  35.203  28.298  1.00  0.00     0.091 A 
ATOM     90  F   UNL A   1      44.181  33.746  27.016  1.00  0.00    -0.205 F 
ATOM     91  C   UNL A   1      46.275  35.453  29.485  1.00  0.00     0.022 A 
BRANCH  89  92
ATOM     92  S   UNL A   1      45.626  36.469  27.025  1.00  0.00     0.127 S 
ATOM     93  O   UNL A   1      45.957  35.682  25.838  1.00  0.00    -0.237 OA
ATOM     94  O   UNL A   1      44.260  36.993  27.048  1.00  0.00    -0.237 OA
ATOM     95  O   UNL A   1      46.646  37.419  27.447  1.00  0.00    -0.744 OA
ENDBRANCH  89  92
ENDBRANCH  62  85
ENDBRANCH  36  37
ENDBRANCH  29  31
ENDBRANCH  28  29
ENDBRANCH  27  28
ENDBRANCH  26  27
ENDBRANCH  25  26
ENDBRANCH   1  25
TORSDOF 21
ENDMDL
MODEL 3
REMARK VINA RESULT:     -11.1      5.175     10.146
REMARK SMILES O=C(N[C@@H]1[C@@H](C(=O)OCCOCCOC(=O)c2ccc(-c3c4nc(c(-c5cccc(S(=O)(=O)[O-])c5F)c5ccc([nH]5)c(-c5cccc(S(=O)(=O)[O-])c5F)c5nc(c(-c6cccc(S(=O)(=O)[O-])c6F)c6ccc3[nH]6)C=C5)C=C4)cc2)[C@H]2C=C[C@@H]1C2)OCc1ccccc1
REMARK SMILES IDX 10 1 9 2 8 3 6 4 7 5 5 6 4 7 83 8 80 9 82 10 84 11 81 12
REMARK SMILES IDX 3 13 1 14 2 15 85 17 86 18 87 19 88 20 92 21 89 22 91 23
REMARK SMILES IDX 90 24 11 25 12 26 13 27 14 28 15 29 16 30 17 31 18 32 79 33
REMARK SMILES IDX 19 34 78 35 20 36 21 37 22 38 72 39 23 40 77 41 71 42 73 43
REMARK SMILES IDX 24 44 76 45 70 46 69 47 25 49 57 50 37 51 56 52 38 53 41 54
REMARK SMILES IDX 55 55 74 56 39 57 40 58 54 60 75 61 42 62 26 63 27 64 35 65
REMARK SMILES IDX 28 66 30 67 36 68 29 69 31 70 32 71 33 72 34 73 58 74 59 75
REMARK SMILES IDX 67 76 60 77 62 78 68 79 61 80 63 81 64 82 65 83 66 84 43 85
REMARK SMILES IDX 44 86 52 87 45 88 47 89 53 90 46 91 48 92 49 93 50 94 51 95
REMARK H PARENT 3 16 73 48 41 59
REMARK Flexibility Score: inf
ROOT
ATOM      1  C   UNL A   1      32.905  29.517  24.756  1.00  0.00     0.202 C 
ENDROOT
BRANCH   1   2
ATOM      2  C   UNL A   1      34.004  28.529  25.167  1.00  0.00     0.261 C 
BRANCH   2   3
ATOM      3  O   UNL A   1      33.544  27.530  26.097  1.00  0.00    -0.463 OA
BRANCH   3   4
ATOM      4  C   UNL A   1      33.491  26.261  25.611  1.00  0.00     0.311 C 
ATOM      5  O   UNL A   1      34.305  25.777  24.831  1.00  0.00    -0.252 OA
BRANCH   4   6
ATOM      6  C   UNL A   1      32.303  25.477  26.121  1.00  0.00     0.129 C 
ATOM      7  C   UNL A   1      32.142  23.976  25.755  1.00  0.00     0.107 C 
ATOM      8  C   UNL A   1      30.654  23.916  25.282  1.00  0.00     0.035 C 
ATOM      9  C   UNL A   1      30.956  26.096  25.672  1.00  0.00     0.028 C 
ATOM     10  C   UNL A   1      30.572  24.630  23.948  1.00  0.00    -0.025 C 
ATOM     11  C   UNL A   1      29.978  25.007  26.117  1.00  0.00     0.018 C 
ATOM     12  C   UNL A   1      30.767  25.937  24.184  1.00  0.00    -0.027 C 
BRANCH   7  13
ATOM     13  N   UNL A   1      32.464  22.973  26.781  1.00  0.00    -0.317 N 
ATOM     14  O   UNL A   1      33.603  21.423  27.955  1.00  0.00    -0.225 OA
ATOM     15  C   UNL A   1      33.429  22.015  26.897  1.00  0.00     0.407 C 
ATOM     16  H   UNL A   1      31.851  22.999  27.552  1.00  0.00     0.167 HD
BRANCH  15  17
ATOM     17  O   UNL A   1      34.230  21.870  25.830  1.00  0.00    -0.445 OA
BRANCH  17  18
ATOM     18  C   UNL A   1      33.752  21.397  24.544  1.00  0.00     0.270 C 
BRANCH  18  19
ATOM     19  C   UNL A   1      33.615  19.909  24.260  1.00  0.00    -0.011 A 
ATOM     20  C   UNL A   1      32.516  19.354  23.596  1.00  0.00     0.007 A 
ATOM     21  C   UNL A   1      34.677  19.050  24.621  1.00  0.00     0.007 A 
ATOM     22  C   UNL A   1      32.530  18.012  23.202  1.00  0.00     0.000 A 
ATOM     23  C   UNL A   1      34.685  17.709  24.234  1.00  0.00     0.000 A 
ATOM     24  C   UNL A   1      33.618  17.196  23.505  1.00  0.00     0.000 A 
ENDBRANCH  18  19
ENDBRANCH  17  18
ENDBRANCH  15  17
ENDBRANCH   7  13
ENDBRANCH   4   6
ENDBRANCH   3   4
ENDBRANCH   2   3
ENDBRANCH   1   2
BRANCH   1  25
ATOM     25  O   UNL A   1      31.721  29.604  25.552  1.00  0.00    -0.374 OA
BRANCH  25  26
ATOM     26  C   UNL A   1      31.024  30.843  25.584  1.00  0.00     0.202 C 
BRANCH  26  27
ATOM     27  C   UNL A   1      31.492  31.960  26.523  1.00  0.00     0.261 C 
BRANCH  27  28
ATOM     28  O   UNL A   1      32.589  31.596  27.353  1.00  0.00    -0.460 OA
BRANCH  28  29
ATOM     29  C   UNL A   1      33.398  32.651  27.618  1.00  0.00     0.338 C 
ATOM     30  O   UNL A   1      33.082  33.822  27.706  1.00  0.00    -0.246 OA
BRANCH  29  31
ATOM     31  C   UNL A   1      34.737  32.156  27.955  1.00  0.00     0.060 A 
ATOM     32  C   UNL A   1      34.844  30.789  28.231  1.00  0.00     0.016 A 
ATOM     33  C   UNL A   1      35.831  33.015  28.074  1.00  0.00     0.016 A 
ATOM     34  C   UNL A   1      36.033  30.287  28.729  1.00  0.00     0.010 A 
ATOM     35  C   UNL A   1      37.028  32.507  28.575  1.00  0.00     0.010 A 
ATOM     36  C   UNL A   1      37.105  31.158  28.961  1.00  0.00    -0.014 A 
BRANCH  36  37
ATOM     37  C   UNL A   1      38.227  30.679  29.789  1.00  0.00     0.031 A 
ATOM     38  C   UNL A   1      39.151  29.645  29.211  1.00  0.00     0.074 A 
ATOM     39  C   UNL A   1      38.432  31.202  31.007  1.00  0.00     0.049 A 
ATOM     40  N   UNL A   1      40.203  29.089  29.745  1.00  0.00    -0.248 NA
ATOM     41  C   UNL A   1      38.850  29.172  27.847  1.00  0.00     0.031 C 
ATOM     42  C   UNL A   1      37.592  32.219  31.639  1.00  0.00     0.029 A 
ATOM     43  N   UNL A   1      39.402  30.935  31.935  1.00  0.00    -0.354 N 
ATOM     44  C   UNL A   1      40.668  28.178  28.805  1.00  0.00     0.074 A 
ATOM     45  C   UNL A   1      39.783  28.248  27.667  1.00  0.00     0.031 C 
ATOM     46  C   UNL A   1      38.067  32.469  32.871  1.00  0.00     0.029 A 
ATOM     47  C   UNL A   1      39.221  31.610  33.118  1.00  0.00     0.049 A 
ATOM     48  H   UNL A   1      40.153  30.320  31.773  1.00  0.00     0.167 HD
ATOM     49  C   UNL A   1      41.743  27.362  28.888  1.00  0.00     0.034 A 
ATOM     50  C   UNL A   1      39.899  31.514  34.277  1.00  0.00     0.034 A 
ATOM     51  C   UNL A   1      42.625  27.325  30.021  1.00  0.00     0.049 A 
ATOM     52  C   UNL A   1      41.085  30.590  34.343  1.00  0.00     0.074 A 
ATOM     53  C   UNL A   1      43.778  26.582  30.190  1.00  0.00     0.029 A 
ATOM     54  N   UNL A   1      42.439  28.051  31.188  1.00  0.00    -0.354 N 
ATOM     55  N   UNL A   1      41.584  29.819  33.406  1.00  0.00    -0.248 NA
ATOM     56  C   UNL A   1      41.825  30.550  35.611  1.00  0.00     0.031 C 
ATOM     57  C   UNL A   1      44.266  26.826  31.477  1.00  0.00     0.029 A 
ATOM     58  C   UNL A   1      43.443  27.758  32.092  1.00  0.00     0.049 A 
ATOM     59  H   UNL A   1      41.701  28.682  31.349  1.00  0.00     0.167 HD
ATOM     60  C   UNL A   1      42.712  29.227  33.958  1.00  0.00     0.074 A 
ATOM     61  C   UNL A   1      42.836  29.748  35.306  1.00  0.00     0.031 C 
ATOM     62  C   UNL A   1      43.565  28.325  33.410  1.00  0.00     0.034 A 
BRANCH  49  63
ATOM     63  C   UNL A   1      42.028  26.447  27.727  1.00  0.00     0.023 A 
ATOM     64  C   UNL A   1      42.753  26.916  26.614  1.00  0.00     0.012 A 
ATOM     65  C   UNL A   1      41.628  25.096  27.771  1.00  0.00     0.148 A 
ATOM     66  C   UNL A   1      43.055  26.064  25.552  1.00  0.00     0.002 A 
ATOM     67  C   UNL A   1      41.972  24.242  26.732  1.00  0.00     0.091 A 
ATOM     68  F   UNL A   1      40.915  24.676  28.826  1.00  0.00    -0.205 F 
ATOM     69  C   UNL A   1      42.676  24.725  25.617  1.00  0.00     0.022 A 
BRANCH  67  70
ATOM     70  S   UNL A   1      41.599  22.485  26.759  1.00  0.00     0.127 S 
ATOM     71  O   UNL A   1      40.176  22.490  27.095  1.00  0.00    -0.237 OA
ATOM     72  O   UNL A   1      41.899  22.090  25.381  1.00  0.00    -0.237 OA
ATOM     73  O   UNL A   1      42.475  21.901  27.765  1.00  0.00    -0.744 OA
ENDBRANCH  67  70
ENDBRANCH  49  63
BRANCH  50  74
ATOM     74  C   UNL A   1      39.473  32.318  35.454  1.00  0.00     0.023 A 
ATOM     75  C   UNL A   1      39.852  33.668  35.561  1.00  0.00     0.012 A 
ATOM     76  C   UNL A   1      38.665  31.748  36.461  1.00  0.00     0.148 A 
ATOM     77  C   UNL A   1      39.466  34.429  36.667  1.00  0.00     0.002 A 
ATOM     78  C   UNL A   1      38.234  32.527  37.526  1.00  0.00     0.091 A 
ATOM     79  F   UNL A   1      38.326  30.457  36.347  1.00  0.00    -0.205 F 
ATOM     80  C   UNL A   1      38.650  33.862  37.642  1.00  0.00     0.022 A 
BRANCH  78  81
ATOM     81  S   UNL A   1      37.070  31.916  38.749  1.00  0.00     0.127 S 
ATOM     82  O   UNL A   1      37.028  30.490  38.436  1.00  0.00    -0.237 OA
ATOM     83  O   UNL A   1      37.746  32.253  40.003  1.00  0.00    -0.237 OA
ATOM     84  O   UNL A   1      35.836  32.654  38.519  1.00  0.00    -0.744 OA
ENDBRANCH  78  81
ENDBRANCH  50  74
BRANCH  62  85
ATOM     85  C   UNL A   1      44.731  27.877  34.249  1.00  0.00     0.023 A 
ATOM     86  C   UNL A   1      45.946  28.589  34.207  1.00  0.00     0.012 A 
ATOM     87  C   UNL A   1      44.594  26.791  35.136  1.00  0.00     0.148 A 
ATOM     88  C   UNL A   1      47.019  28.202  35.007  1.00  0.00     0.002 A 
ATOM     89  C   UNL A   1      45.649  26.446  35.969  1.00  0.00     0.091 A 
ATOM     90  F   UNL A   1      43.434  26.118  35.148  1.00  0.00    -0.205 F 
ATOM     91  C   UNL A   1      46.867  27.140  35.896  1.00  0.00     0.022 A 
BRANCH  89  92
ATOM     92  S   UNL A   1      45.509  25.162  37.217  1.00  0.00     0.127 S 
ATOM     93  O   UNL A   1      44.411  25.667  38.041  1.00  0.00    -0.237 OA
ATOM     94  O   UNL A   1      45.178  23.984  36.414  1.00  0.00    -0.237 OA
ATOM     95  O   UNL A   1      46.806  25.098  37.878  1.00  0.00    -0.744 OA
ENDBRANCH  89  92
ENDBRANCH  62  85
ENDBRANCH  36  37
ENDBRANCH  29  31
ENDBRANCH  28  29
ENDBRANCH  27  28
ENDBRANCH  26  27
ENDBRANCH  25  26
ENDBRANCH   1  25
TORSDOF 21
ENDMDL
