MODEL 1
REMARK VINA RESULT:     -10.6      0.000      0.000
REMARK SMILES CC(C)N1C(=O)C[C@@H](Sc2csc(C(=O)OCCOCCOC(=O)c3ccc(-c4c5nc(c(-c6cccc(S(=O)(=O)[O-])c6F)c6ccc([nH]6)c(-c6cccc(S(=O)(=O)[O-])c6F)c6nc(c(-c7cccc(S(=O)(=O)[O-])c7F)c7ccc4[nH]7)C=C6)C=C5)cc3)c2)C1=O
REMARK SMILES IDX 19 1 18 2 17 3 16 4 14 5 15 6 13 7 10 8 11 9 88 10 12 11
REMARK SMILES IDX 9 12 8 13 4 14 5 15 89 16 6 17 7 18 90 19 2 20 1 21 3 22
REMARK SMILES IDX 20 23 21 24 22 25 23 26 24 27 25 28 26 29 87 30 27 31 86 32
REMARK SMILES IDX 28 33 29 34 30 35 80 36 31 37 85 38 79 39 81 40 32 41 84 42
REMARK SMILES IDX 78 43 77 44 33 46 65 47 45 48 64 49 46 50 49 51 63 52 82 53
REMARK SMILES IDX 47 54 48 55 62 57 83 58 50 59 34 60 35 61 43 62 36 63 38 64
REMARK SMILES IDX 44 65 37 66 39 67 40 68 41 69 42 70 66 71 67 72 75 73 68 74
REMARK SMILES IDX 70 75 76 76 69 77 71 78 72 79 73 80 74 81 51 82 52 83 60 84
REMARK SMILES IDX 53 85 55 86 61 87 54 88 56 89 57 90 58 91 59 92
REMARK H PARENT 81 45 49 56
REMARK Flexibility Score: inf
ROOT
ATOM      1  O   UNL A   1      30.878  30.769  25.720  1.00  0.00    -0.374 OA
ENDROOT
BRANCH   1   2
ATOM      2  C   UNL A   1      31.230  29.900  24.639  1.00  0.00     0.202 C 
BRANCH   2   3
ATOM      3  C   UNL A   1      31.406  28.439  25.065  1.00  0.00     0.261 C 
BRANCH   3   4
ATOM      4  O   UNL A   1      31.520  27.602  23.901  1.00  0.00    -0.459 OA
BRANCH   4   5
ATOM      5  C   UNL A   1      32.758  27.089  23.656  1.00  0.00     0.348 C 
ATOM      6  O   UNL A   1      33.663  27.688  23.086  1.00  0.00    -0.245 OA
BRANCH   5   7
ATOM      7  C   UNL A   1      32.877  25.800  24.308  1.00  0.00     0.113 A 
ATOM      8  C   UNL A   1      32.560  23.591  25.019  1.00  0.00     0.020 A 
ATOM      9  C   UNL A   1      33.377  24.090  26.006  1.00  0.00     0.080 A 
ATOM     10  C   UNL A   1      32.232  24.601  24.060  1.00  0.00     0.042 A 
ATOM     11  S   UNL A   1      33.895  25.684  25.682  1.00  0.00    -0.136 S 
BRANCH   8  12
ATOM     12  S   UNL A   1      31.848  21.989  24.927  1.00  0.00    -0.111 SA
BRANCH  12  13
ATOM     13  C   UNL A   1      32.898  20.989  23.835  1.00  0.00     0.150 C 
ATOM     14  N   UNL A   1      33.286  18.697  24.080  1.00  0.00    -0.279 N 
ATOM     15  C   UNL A   1      32.455  18.809  23.000  1.00  0.00     0.231 C 
ATOM     16  C   UNL A   1      33.688  19.922  24.547  1.00  0.00     0.243 C 
ATOM     17  O   UNL A   1      32.018  17.893  22.318  1.00  0.00    -0.274 OA
ATOM     18  C   UNL A   1      32.141  20.252  22.745  1.00  0.00     0.125 C 
ATOM     19  O   UNL A   1      34.567  20.133  25.369  1.00  0.00    -0.273 OA
BRANCH  14  20
ATOM     20  C   UNL A   1      33.784  17.402  24.549  1.00  0.00     0.087 C 
ATOM     21  C   UNL A   1      32.731  16.677  25.382  1.00  0.00     0.031 C 
ATOM     22  C   UNL A   1      34.304  16.507  23.423  1.00  0.00     0.031 C 
ENDBRANCH  14  20
ENDBRANCH  12  13
ENDBRANCH   8  12
ENDBRANCH   5   7
ENDBRANCH   4   5
ENDBRANCH   3   4
ENDBRANCH   2   3
ENDBRANCH   1   2
BRANCH   1  23
ATOM     23  C   UNL A   1      31.980  31.335  26.438  1.00  0.00     0.202 C 
BRANCH  23  24
ATOM     24  C   UNL A   1      31.819  32.825  26.756  1.00  0.00     0.261 C 
BRANCH  24  25
ATOM     25  O   UNL A   1      32.404  33.129  28.035  1.00  0.00    -0.460 OA
BRANCH  25  26
ATOM     26  C   UNL A   1      33.480  33.950  27.999  1.00  0.00     0.338 C 
ATOM     27  O   UNL A   1      33.478  35.156  27.818  1.00  0.00    -0.246 OA
BRANCH  26  28
ATOM     28  C   UNL A   1      34.691  33.198  28.393  1.00  0.00     0.060 A 
ATOM     29  C   UNL A   1      34.503  31.974  29.045  1.00  0.00     0.016 A 
ATOM     30  C   UNL A   1      35.983  33.682  28.160  1.00  0.00     0.016 A 
ATOM     31  C   UNL A   1      35.600  31.250  29.506  1.00  0.00     0.010 A 
ATOM     32  C   UNL A   1      37.084  32.956  28.629  1.00  0.00     0.010 A 
ATOM     33  C   UNL A   1      36.895  31.754  29.333  1.00  0.00    -0.014 A 
BRANCH  33  34
ATOM     34  C   UNL A   1      38.037  31.087  30.002  1.00  0.00     0.031 A 
ATOM     35  C   UNL A   1      38.387  31.475  31.412  1.00  0.00     0.074 A 
ATOM     36  C   UNL A   1      38.750  30.141  29.365  1.00  0.00     0.049 A 
ATOM     37  N   UNL A   1      39.330  31.010  32.188  1.00  0.00    -0.248 NA
ATOM     38  C   UNL A   1      37.564  32.529  32.030  1.00  0.00     0.031 C 
ATOM     39  C   UNL A   1      38.516  29.685  27.996  1.00  0.00     0.029 A 
ATOM     40  N   UNL A   1      39.834  29.409  29.784  1.00  0.00    -0.354 N 
ATOM     41  C   UNL A   1      39.230  31.722  33.376  1.00  0.00     0.074 A 
ATOM     42  C   UNL A   1      38.142  32.663  33.215  1.00  0.00     0.031 C 
ATOM     43  C   UNL A   1      39.446  28.769  27.677  1.00  0.00     0.029 A 
ATOM     44  C   UNL A   1      40.346  28.581  28.814  1.00  0.00     0.049 A 
ATOM     45  H   UNL A   1      40.207  29.472  30.693  1.00  0.00     0.167 HD
ATOM     46  C   UNL A   1      39.959  31.589  34.509  1.00  0.00     0.034 A 
ATOM     47  C   UNL A   1      41.425  27.773  28.840  1.00  0.00     0.034 A 
ATOM     48  C   UNL A   1      41.024  30.639  34.679  1.00  0.00     0.049 A 
ATOM     49  C   UNL A   1      42.231  27.655  30.107  1.00  0.00     0.074 A 
ATOM     50  C   UNL A   1      41.785  30.395  35.807  1.00  0.00     0.029 A 
ATOM     51  N   UNL A   1      41.485  29.784  33.691  1.00  0.00    -0.354 N 
ATOM     52  N   UNL A   1      42.032  28.231  31.268  1.00  0.00    -0.248 NA
ATOM     53  C   UNL A   1      43.390  26.751  30.079  1.00  0.00     0.031 C 
ATOM     54  C   UNL A   1      42.718  29.398  35.497  1.00  0.00     0.029 A 
ATOM     55  C   UNL A   1      42.529  29.017  34.178  1.00  0.00     0.049 A 
ATOM     56  H   UNL A   1      41.124  29.730  32.777  1.00  0.00     0.167 HD
ATOM     57  C   UNL A   1      43.018  27.736  32.115  1.00  0.00     0.074 A 
ATOM     58  C   UNL A   1      43.802  26.797  31.339  1.00  0.00     0.031 C 
ATOM     59  C   UNL A   1      43.264  28.043  33.413  1.00  0.00     0.034 A 
BRANCH  46  60
ATOM     60  C   UNL A   1      39.596  32.467  35.674  1.00  0.00     0.023 A 
ATOM     61  C   UNL A   1      38.858  31.920  36.744  1.00  0.00     0.012 A 
ATOM     62  C   UNL A   1      40.024  33.806  35.740  1.00  0.00     0.148 A 
ATOM     63  C   UNL A   1      38.531  32.700  37.852  1.00  0.00     0.002 A 
ATOM     64  C   UNL A   1      39.724  34.568  36.863  1.00  0.00     0.091 A 
ATOM     65  F   UNL A   1      40.699  34.315  34.699  1.00  0.00    -0.205 F 
ATOM     66  C   UNL A   1      38.973  34.019  37.917  1.00  0.00     0.022 A 
BRANCH  64  67
ATOM     67  S   UNL A   1      40.302  36.257  37.062  1.00  0.00     0.127 S 
ATOM     68  O   UNL A   1      41.739  36.057  37.239  1.00  0.00    -0.237 OA
ATOM     69  O   UNL A   1      39.924  36.869  35.787  1.00  0.00    -0.237 OA
ATOM     70  O   UNL A   1      39.592  36.785  38.219  1.00  0.00    -0.744 OA
ENDBRANCH  64  67
ENDBRANCH  46  60
BRANCH  47  71
ATOM     71  C   UNL A   1      41.777  26.970  27.636  1.00  0.00     0.023 A 
ATOM     72  C   UNL A   1      42.382  27.603  26.533  1.00  0.00     0.012 A 
ATOM     73  C   UNL A   1      41.540  25.583  27.587  1.00  0.00     0.148 A 
ATOM     74  C   UNL A   1      42.723  26.872  25.394  1.00  0.00     0.002 A 
ATOM     75  C   UNL A   1      41.929  24.852  26.469  1.00  0.00     0.091 A 
ATOM     76  F   UNL A   1      40.940  25.002  28.636  1.00  0.00    -0.205 F 
ATOM     77  C   UNL A   1      42.508  25.496  25.366  1.00  0.00     0.022 A 
BRANCH  75  78
ATOM     78  S   UNL A   1      41.804  23.061  26.410  1.00  0.00     0.127 S 
ATOM     79  O   UNL A   1      42.535  22.669  27.612  1.00  0.00    -0.237 OA
ATOM     80  O   UNL A   1      40.357  22.853  26.474  1.00  0.00    -0.237 OA
ATOM     81  O   UNL A   1      42.406  22.673  25.141  1.00  0.00    -0.744 OA
ENDBRANCH  75  78
ENDBRANCH  47  71
BRANCH  59  82
ATOM     82  C   UNL A   1      44.414  27.349  34.093  1.00  0.00     0.023 A 
ATOM     83  C   UNL A   1      45.711  27.885  33.981  1.00  0.00     0.012 A 
ATOM     84  C   UNL A   1      44.199  26.221  34.910  1.00  0.00     0.148 A 
ATOM     85  C   UNL A   1      46.781  27.297  34.653  1.00  0.00     0.002 A 
ATOM     86  C   UNL A   1      45.264  25.665  35.609  1.00  0.00     0.091 A 
ATOM     87  F   UNL A   1      42.961  25.712  34.988  1.00  0.00    -0.205 F 
ATOM     88  C   UNL A   1      46.557  26.196  35.476  1.00  0.00     0.022 A 
BRANCH  86  89
ATOM     89  S   UNL A   1      45.042  24.302  36.761  1.00  0.00     0.127 S 
ATOM     90  O   UNL A   1      44.604  23.228  35.870  1.00  0.00    -0.237 OA
ATOM     91  O   UNL A   1      46.389  24.128  37.308  1.00  0.00    -0.237 OA
ATOM     92  O   UNL A   1      44.056  24.761  37.730  1.00  0.00    -0.744 OA
ENDBRANCH  86  89
ENDBRANCH  59  82
ENDBRANCH  33  34
ENDBRANCH  26  28
ENDBRANCH  25  26
ENDBRANCH  24  25
ENDBRANCH  23  24
ENDBRANCH   1  23
TORSDOF 20
ENDMDL
MODEL 2
REMARK VINA RESULT:     -10.5      1.503      7.951
REMARK SMILES CC(C)N1C(=O)C[C@@H](Sc2csc(C(=O)OCCOCCOC(=O)c3ccc(-c4c5nc(c(-c6cccc(S(=O)(=O)[O-])c6F)c6ccc([nH]6)c(-c6cccc(S(=O)(=O)[O-])c6F)c6nc(c(-c7cccc(S(=O)(=O)[O-])c7F)c7ccc4[nH]7)C=C6)C=C5)cc3)c2)C1=O
REMARK SMILES IDX 19 1 18 2 17 3 16 4 14 5 15 6 13 7 10 8 11 9 88 10 12 11
REMARK SMILES IDX 9 12 8 13 4 14 5 15 89 16 6 17 7 18 90 19 2 20 1 21 3 22
REMARK SMILES IDX 20 23 21 24 22 25 23 26 24 27 25 28 26 29 87 30 27 31 86 32
REMARK SMILES IDX 28 33 29 34 30 35 80 36 31 37 85 38 79 39 81 40 32 41 84 42
REMARK SMILES IDX 78 43 77 44 33 46 65 47 45 48 64 49 46 50 49 51 63 52 82 53
REMARK SMILES IDX 47 54 48 55 62 57 83 58 50 59 34 60 35 61 43 62 36 63 38 64
REMARK SMILES IDX 44 65 37 66 39 67 40 68 41 69 42 70 66 71 67 72 75 73 68 74
REMARK SMILES IDX 70 75 76 76 69 77 71 78 72 79 73 80 74 81 51 82 52 83 60 84
REMARK SMILES IDX 53 85 55 86 61 87 54 88 56 89 57 90 58 91 59 92
REMARK H PARENT 81 45 49 56
REMARK Flexibility Score: inf
ROOT
ATOM      1  O   UNL A   1      30.329  29.920  23.986  1.00  0.00    -0.374 OA
ENDROOT
BRANCH   1   2
ATOM      2  C   UNL A   1      30.728  29.273  22.774  1.00  0.00     0.202 C 
BRANCH   2   3
ATOM      3  C   UNL A   1      30.308  27.801  22.704  1.00  0.00     0.261 C 
BRANCH   3   4
ATOM      4  O   UNL A   1      31.101  27.115  21.720  1.00  0.00    -0.459 OA
BRANCH   4   5
ATOM      5  C   UNL A   1      32.369  26.791  22.099  1.00  0.00     0.348 C 
ATOM      6  O   UNL A   1      33.388  27.253  21.598  1.00  0.00    -0.245 OA
BRANCH   5   7
ATOM      7  C   UNL A   1      32.314  25.943  23.274  1.00  0.00     0.113 A 
ATOM      8  C   UNL A   1      31.778  24.287  24.840  1.00  0.00     0.020 A 
ATOM      9  C   UNL A   1      32.429  25.211  25.620  1.00  0.00     0.080 A 
ATOM     10  C   UNL A   1      31.669  24.736  23.486  1.00  0.00     0.042 A 
ATOM     11  S   UNL A   1      33.067  26.505  24.706  1.00  0.00    -0.136 S 
BRANCH   8  12
ATOM     12  S   UNL A   1      31.022  22.789  25.359  1.00  0.00    -0.111 SA
BRANCH  12  13
ATOM     13  C   UNL A   1      32.330  21.538  25.493  1.00  0.00     0.150 C 
ATOM     14  N   UNL A   1      34.582  21.895  24.977  1.00  0.00    -0.279 N 
ATOM     15  C   UNL A   1      34.530  21.831  26.342  1.00  0.00     0.231 C 
ATOM     16  C   UNL A   1      33.369  21.614  24.404  1.00  0.00     0.243 C 
ATOM     17  O   UNL A   1      35.473  21.939  27.113  1.00  0.00    -0.274 OA
ATOM     18  C   UNL A   1      33.119  21.597  26.789  1.00  0.00     0.125 C 
ATOM     19  O   UNL A   1      33.156  21.412  23.218  1.00  0.00    -0.273 OA
BRANCH  14  20
ATOM     20  C   UNL A   1      35.841  22.091  24.254  1.00  0.00     0.087 C 
ATOM     21  C   UNL A   1      36.352  23.520  24.415  1.00  0.00     0.031 C 
ATOM     22  C   UNL A   1      36.922  21.077  24.631  1.00  0.00     0.031 C 
ENDBRANCH  14  20
ENDBRANCH  12  13
ENDBRANCH   8  12
ENDBRANCH   5   7
ENDBRANCH   4   5
ENDBRANCH   3   4
ENDBRANCH   2   3
ENDBRANCH   1   2
BRANCH   1  23
ATOM     23  C   UNL A   1      31.222  29.760  25.093  1.00  0.00     0.202 C 
BRANCH  23  24
ATOM     24  C   UNL A   1      31.445  31.039  25.907  1.00  0.00     0.261 C 
BRANCH  24  25
ATOM     25  O   UNL A   1      32.465  30.829  26.900  1.00  0.00    -0.460 OA
BRANCH  25  26
ATOM     26  C   UNL A   1      33.168  31.931  27.250  1.00  0.00     0.338 C 
ATOM     27  O   UNL A   1      32.773  33.084  27.252  1.00  0.00    -0.246 OA
BRANCH  26  28
ATOM     28  C   UNL A   1      34.473  31.528  27.817  1.00  0.00     0.060 A 
ATOM     29  C   UNL A   1      34.634  30.180  28.162  1.00  0.00     0.016 A 
ATOM     30  C   UNL A   1      35.511  32.440  28.035  1.00  0.00     0.016 A 
ATOM     31  C   UNL A   1      35.813  29.748  28.767  1.00  0.00     0.010 A 
ATOM     32  C   UNL A   1      36.691  32.006  28.648  1.00  0.00     0.010 A 
ATOM     33  C   UNL A   1      36.834  30.666  29.046  1.00  0.00    -0.014 A 
BRANCH  33  34
ATOM     34  C   UNL A   1      37.992  30.244  29.869  1.00  0.00     0.031 A 
ATOM     35  C   UNL A   1      38.959  29.237  29.308  1.00  0.00     0.074 A 
ATOM     36  C   UNL A   1      38.186  30.755  31.097  1.00  0.00     0.049 A 
ATOM     37  N   UNL A   1      40.043  28.744  29.845  1.00  0.00    -0.248 NA
ATOM     38  C   UNL A   1      38.664  28.718  27.961  1.00  0.00     0.031 C 
ATOM     39  C   UNL A   1      37.317  31.728  31.755  1.00  0.00     0.029 A 
ATOM     40  N   UNL A   1      39.172  30.505  32.020  1.00  0.00    -0.354 N 
ATOM     41  C   UNL A   1      40.551  27.844  28.916  1.00  0.00     0.074 A 
ATOM     42  C   UNL A   1      39.648  27.848  27.785  1.00  0.00     0.031 C 
ATOM     43  C   UNL A   1      37.792  31.975  32.987  1.00  0.00     0.029 A 
ATOM     44  C   UNL A   1      38.993  31.170  33.209  1.00  0.00     0.049 A 
ATOM     45  H   UNL A   1      39.934  29.908  31.845  1.00  0.00     0.167 HD
ATOM     46  C   UNL A   1      41.680  27.100  28.986  1.00  0.00     0.034 A 
ATOM     47  C   UNL A   1      39.710  31.125  34.349  1.00  0.00     0.034 A 
ATOM     48  C   UNL A   1      42.590  27.112  30.098  1.00  0.00     0.049 A 
ATOM     49  C   UNL A   1      40.954  30.276  34.408  1.00  0.00     0.074 A 
ATOM     50  C   UNL A   1      43.787  26.433  30.236  1.00  0.00     0.029 A 
ATOM     51  N   UNL A   1      42.400  27.833  31.265  1.00  0.00    -0.354 N 
ATOM     52  N   UNL A   1      41.497  29.542  33.467  1.00  0.00    -0.248 NA
ATOM     53  C   UNL A   1      41.702  30.274  35.674  1.00  0.00     0.031 C 
ATOM     54  C   UNL A   1      44.315  26.733  31.497  1.00  0.00     0.029 A 
ATOM     55  C   UNL A   1      43.452  27.607  32.138  1.00  0.00     0.049 A 
ATOM     56  H   UNL A   1      41.632  28.419  31.450  1.00  0.00     0.167 HD
ATOM     57  C   UNL A   1      42.664  29.020  34.014  1.00  0.00     0.074 A 
ATOM     58  C   UNL A   1      42.759  29.536  35.364  1.00  0.00     0.031 C 
ATOM     59  C   UNL A   1      43.565  28.174  33.456  1.00  0.00     0.034 A 
BRANCH  46  60
ATOM     60  C   UNL A   1      42.018  26.240  27.799  1.00  0.00     0.023 A 
ATOM     61  C   UNL A   1      42.762  26.794  26.738  1.00  0.00     0.012 A 
ATOM     62  C   UNL A   1      41.650  24.882  27.754  1.00  0.00     0.148 A 
ATOM     63  C   UNL A   1      43.117  26.015  25.638  1.00  0.00     0.002 A 
ATOM     64  C   UNL A   1      42.036  24.103  26.670  1.00  0.00     0.091 A 
ATOM     65  F   UNL A   1      40.917  24.384  28.759  1.00  0.00    -0.205 F 
ATOM     66  C   UNL A   1      42.764  24.669  25.609  1.00  0.00     0.022 A 
BRANCH  64  67
ATOM     67  S   UNL A   1      41.680  22.345  26.574  1.00  0.00     0.127 S 
ATOM     68  O   UNL A   1      40.222  22.345  26.478  1.00  0.00    -0.237 OA
ATOM     69  O   UNL A   1      42.372  21.952  25.346  1.00  0.00    -0.237 OA
ATOM     70  O   UNL A   1      42.232  21.763  27.790  1.00  0.00    -0.744 OA
ENDBRANCH  64  67
ENDBRANCH  46  60
BRANCH  47  71
ATOM     71  C   UNL A   1      39.297  31.951  35.518  1.00  0.00     0.023 A 
ATOM     72  C   UNL A   1      38.470  31.386  36.507  1.00  0.00     0.012 A 
ATOM     73  C   UNL A   1      39.737  33.280  35.667  1.00  0.00     0.148 A 
ATOM     74  C   UNL A   1      38.070  32.139  37.613  1.00  0.00     0.002 A 
ATOM     75  C   UNL A   1      39.377  34.007  36.797  1.00  0.00     0.091 A 
ATOM     76  F   UNL A   1      40.504  33.809  34.701  1.00  0.00    -0.205 F 
ATOM     77  C   UNL A   1      38.532  33.444  37.764  1.00  0.00     0.022 A 
BRANCH  75  78
ATOM     78  S   UNL A   1      40.035  35.646  37.125  1.00  0.00     0.127 S 
ATOM     79  O   UNL A   1      39.384  35.982  38.389  1.00  0.00    -0.237 OA
ATOM     80  O   UNL A   1      41.472  35.386  37.222  1.00  0.00    -0.237 OA
ATOM     81  O   UNL A   1      39.652  36.454  35.975  1.00  0.00    -0.744 OA
ENDBRANCH  75  78
ENDBRANCH  47  71
BRANCH  59  82
ATOM     82  C   UNL A   1      44.750  27.762  34.290  1.00  0.00     0.023 A 
ATOM     83  C   UNL A   1      45.911  28.559  34.286  1.00  0.00     0.012 A 
ATOM     84  C   UNL A   1      44.683  26.640  35.139  1.00  0.00     0.148 A 
ATOM     85  C   UNL A   1      46.996  28.234  35.098  1.00  0.00     0.002 A 
ATOM     86  C   UNL A   1      45.755  26.345  35.975  1.00  0.00     0.091 A 
ATOM     87  F   UNL A   1      43.578  25.881  35.113  1.00  0.00    -0.205 F 
ATOM     88  C   UNL A   1      46.914  27.136  35.951  1.00  0.00     0.022 A 
BRANCH  86  89
ATOM     89  S   UNL A   1      45.692  25.001  37.168  1.00  0.00     0.127 S 
ATOM     90  O   UNL A   1      47.097  24.885  37.559  1.00  0.00    -0.237 OA
ATOM     91  O   UNL A   1      44.814  25.541  38.207  1.00  0.00    -0.237 OA
ATOM     92  O   UNL A   1      45.140  23.861  36.450  1.00  0.00    -0.744 OA
ENDBRANCH  86  89
ENDBRANCH  59  82
ENDBRANCH  33  34
ENDBRANCH  26  28
ENDBRANCH  25  26
ENDBRANCH  24  25
ENDBRANCH  23  24
ENDBRANCH   1  23
TORSDOF 20
ENDMDL
MODEL 3
REMARK VINA RESULT:     -10.3      2.059      2.521
REMARK SMILES CC(C)N1C(=O)C[C@@H](Sc2csc(C(=O)OCCOCCOC(=O)c3ccc(-c4c5nc(c(-c6cccc(S(=O)(=O)[O-])c6F)c6ccc([nH]6)c(-c6cccc(S(=O)(=O)[O-])c6F)c6nc(c(-c7cccc(S(=O)(=O)[O-])c7F)c7ccc4[nH]7)C=C6)C=C5)cc3)c2)C1=O
REMARK SMILES IDX 19 1 18 2 17 3 16 4 14 5 15 6 13 7 10 8 11 9 88 10 12 11
REMARK SMILES IDX 9 12 8 13 4 14 5 15 89 16 6 17 7 18 90 19 2 20 1 21 3 22
REMARK SMILES IDX 20 23 21 24 22 25 23 26 24 27 25 28 26 29 87 30 27 31 86 32
REMARK SMILES IDX 28 33 29 34 30 35 80 36 31 37 85 38 79 39 81 40 32 41 84 42
REMARK SMILES IDX 78 43 77 44 33 46 65 47 45 48 64 49 46 50 49 51 63 52 82 53
REMARK SMILES IDX 47 54 48 55 62 57 83 58 50 59 34 60 35 61 43 62 36 63 38 64
REMARK SMILES IDX 44 65 37 66 39 67 40 68 41 69 42 70 66 71 67 72 75 73 68 74
REMARK SMILES IDX 70 75 76 76 69 77 71 78 72 79 73 80 74 81 51 82 52 83 60 84
REMARK SMILES IDX 53 85 55 86 61 87 54 88 56 89 57 90 58 91 59 92
REMARK H PARENT 81 45 49 56
REMARK Flexibility Score: inf
ROOT
ATOM      1  O   UNL A   1      31.420  31.065  26.761  1.00  0.00    -0.374 OA
ENDROOT
BRANCH   1   2
ATOM      2  C   UNL A   1      31.345  30.389  25.501  1.00  0.00     0.202 C 
BRANCH   2   3
ATOM      3  C   UNL A   1      32.568  29.515  25.207  1.00  0.00     0.261 C 
BRANCH   3   4
ATOM      4  O   UNL A   1      32.750  28.559  26.267  1.00  0.00    -0.459 OA
BRANCH   4   5
ATOM      5  C   UNL A   1      31.794  27.595  26.369  1.00  0.00     0.348 C 
ATOM      6  O   UNL A   1      31.080  27.418  27.350  1.00  0.00    -0.245 OA
BRANCH   5   7
ATOM      7  C   UNL A   1      31.654  26.925  25.091  1.00  0.00     0.113 A 
ATOM      8  C   UNL A   1      32.052  25.890  23.028  1.00  0.00     0.020 A 
ATOM      9  C   UNL A   1      30.721  26.215  22.927  1.00  0.00     0.080 A 
ATOM     10  C   UNL A   1      32.604  26.347  24.267  1.00  0.00     0.042 A 
ATOM     11  S   UNL A   1      30.100  26.883  24.371  1.00  0.00    -0.136 S 
BRANCH   8  12
ATOM     12  S   UNL A   1      33.067  25.141  21.807  1.00  0.00    -0.111 SA
BRANCH  12  13
ATOM     13  C   UNL A   1      33.265  23.394  22.261  1.00  0.00     0.150 C 
ATOM     14  N   UNL A   1      34.100  22.629  24.306  1.00  0.00    -0.279 N 
ATOM     15  C   UNL A   1      32.757  22.378  24.348  1.00  0.00     0.231 C 
ATOM     16  C   UNL A   1      34.495  23.107  23.082  1.00  0.00     0.243 C 
ATOM     17  O   UNL A   1      32.142  21.860  25.268  1.00  0.00    -0.274 OA
ATOM     18  C   UNL A   1      32.113  22.828  23.072  1.00  0.00     0.125 C 
ATOM     19  O   UNL A   1      35.644  23.240  22.691  1.00  0.00    -0.273 OA
BRANCH  14  20
ATOM     20  C   UNL A   1      34.996  22.270  25.408  1.00  0.00     0.087 C 
ATOM     21  C   UNL A   1      34.696  23.099  26.653  1.00  0.00     0.031 C 
ATOM     22  C   UNL A   1      34.991  20.775  25.732  1.00  0.00     0.031 C 
ENDBRANCH  14  20
ENDBRANCH  12  13
ENDBRANCH   8  12
ENDBRANCH   5   7
ENDBRANCH   4   5
ENDBRANCH   3   4
ENDBRANCH   2   3
ENDBRANCH   1   2
BRANCH   1  23
ATOM     23  C   UNL A   1      32.637  31.780  27.004  1.00  0.00     0.202 C 
BRANCH  23  24
ATOM     24  C   UNL A   1      32.451  33.292  27.169  1.00  0.00     0.261 C 
BRANCH  24  25
ATOM     25  O   UNL A   1      32.618  33.669  28.547  1.00  0.00    -0.460 OA
BRANCH  25  26
ATOM     26  C   UNL A   1      33.678  34.471  28.803  1.00  0.00     0.338 C 
ATOM     27  O   UNL A   1      33.672  35.687  28.900  1.00  0.00    -0.246 OA
BRANCH  26  28
ATOM     28  C   UNL A   1      34.858  33.644  29.135  1.00  0.00     0.060 A 
ATOM     29  C   UNL A   1      34.645  32.514  29.934  1.00  0.00     0.016 A 
ATOM     30  C   UNL A   1      36.148  33.970  28.703  1.00  0.00     0.016 A 
ATOM     31  C   UNL A   1      35.724  31.732  30.342  1.00  0.00     0.010 A 
ATOM     32  C   UNL A   1      37.230  33.188  29.119  1.00  0.00     0.010 A 
ATOM     33  C   UNL A   1      37.027  32.085  29.967  1.00  0.00    -0.014 A 
BRANCH  33  34
ATOM     34  C   UNL A   1      38.180  31.375  30.569  1.00  0.00     0.031 A 
ATOM     35  C   UNL A   1      38.559  31.673  31.993  1.00  0.00     0.074 A 
ATOM     36  C   UNL A   1      38.877  30.471  29.859  1.00  0.00     0.049 A 
ATOM     37  N   UNL A   1      39.516  31.158  32.719  1.00  0.00    -0.248 NA
ATOM     38  C   UNL A   1      37.752  32.687  32.694  1.00  0.00     0.031 C 
ATOM     39  C   UNL A   1      38.614  30.102  28.469  1.00  0.00     0.029 A 
ATOM     40  N   UNL A   1      39.967  29.712  30.209  1.00  0.00    -0.354 N 
ATOM     41  C   UNL A   1      39.442  31.793  33.952  1.00  0.00     0.074 A 
ATOM     42  C   UNL A   1      38.354  32.744  33.873  1.00  0.00     0.031 C 
ATOM     43  C   UNL A   1      39.535  29.206  28.074  1.00  0.00     0.029 A 
ATOM     44  C   UNL A   1      40.458  28.946  29.179  1.00  0.00     0.049 A 
ATOM     45  H   UNL A   1      40.359  29.717  31.112  1.00  0.00     0.167 HD
ATOM     46  C   UNL A   1      40.194  31.588  35.059  1.00  0.00     0.034 A 
ATOM     47  C   UNL A   1      41.534  28.136  29.131  1.00  0.00     0.034 A 
ATOM     48  C   UNL A   1      41.260  30.628  35.147  1.00  0.00     0.049 A 
ATOM     49  C   UNL A   1      42.365  27.937  30.372  1.00  0.00     0.074 A 
ATOM     50  C   UNL A   1      42.043  30.311  36.242  1.00  0.00     0.029 A 
ATOM     51  N   UNL A   1      41.698  29.836  34.097  1.00  0.00    -0.354 N 
ATOM     52  N   UNL A   1      42.192  28.439  31.570  1.00  0.00    -0.248 NA
ATOM     53  C   UNL A   1      43.521  27.034  30.263  1.00  0.00     0.031 C 
ATOM     54  C   UNL A   1      42.967  29.335  35.850  1.00  0.00     0.029 A 
ATOM     55  C   UNL A   1      42.750  29.038  34.514  1.00  0.00     0.049 A 
ATOM     56  H   UNL A   1      41.319  29.840  33.189  1.00  0.00     0.167 HD
ATOM     57  C   UNL A   1      43.193  27.889  32.364  1.00  0.00     0.074 A 
ATOM     58  C   UNL A   1      43.959  27.000  31.514  1.00  0.00     0.031 C 
ATOM     59  C   UNL A   1      43.466  28.113  33.673  1.00  0.00     0.034 A 
BRANCH  46  60
ATOM     60  C   UNL A   1      39.857  32.391  36.285  1.00  0.00     0.023 A 
ATOM     61  C   UNL A   1      40.576  33.574  36.551  1.00  0.00     0.012 A 
ATOM     62  C   UNL A   1      38.806  32.010  37.139  1.00  0.00     0.148 A 
ATOM     63  C   UNL A   1      40.268  34.356  37.664  1.00  0.00     0.002 A 
ATOM     64  C   UNL A   1      38.482  32.812  38.228  1.00  0.00     0.091 A 
ATOM     65  F   UNL A   1      38.155  30.866  36.884  1.00  0.00    -0.205 F 
ATOM     66  C   UNL A   1      39.215  33.981  38.495  1.00  0.00     0.022 A 
BRANCH  64  67
ATOM     67  S   UNL A   1      37.103  32.442  39.318  1.00  0.00     0.127 S 
ATOM     68  O   UNL A   1      37.263  33.462  40.352  1.00  0.00    -0.237 OA
ATOM     69  O   UNL A   1      35.948  32.639  38.440  1.00  0.00    -0.237 OA
ATOM     70  O   UNL A   1      37.302  31.066  39.753  1.00  0.00    -0.744 OA
ENDBRANCH  64  67
ENDBRANCH  46  60
BRANCH  47  71
ATOM     71  C   UNL A   1      41.859  27.410  27.872  1.00  0.00     0.023 A 
ATOM     72  C   UNL A   1      42.401  28.120  26.783  1.00  0.00     0.012 A 
ATOM     73  C   UNL A   1      41.659  26.021  27.756  1.00  0.00     0.148 A 
ATOM     74  C   UNL A   1      42.716  27.462  25.593  1.00  0.00     0.002 A 
ATOM     75  C   UNL A   1      42.024  25.364  26.585  1.00  0.00     0.091 A 
ATOM     76  F   UNL A   1      41.119  25.367  28.794  1.00  0.00    -0.205 F 
ATOM     77  C   UNL A   1      42.539  26.084  25.498  1.00  0.00     0.022 A 
BRANCH  75  78
ATOM     78  S   UNL A   1      41.946  23.576  26.432  1.00  0.00     0.127 S 
ATOM     79  O   UNL A   1      42.556  23.360  25.122  1.00  0.00    -0.237 OA
ATOM     80  O   UNL A   1      42.756  23.136  27.569  1.00  0.00    -0.237 OA
ATOM     81  O   UNL A   1      40.532  23.240  26.541  1.00  0.00    -0.744 OA
ENDBRANCH  75  78
ENDBRANCH  47  71
BRANCH  59  82
ATOM     82  C   UNL A   1      44.627  27.376  34.285  1.00  0.00     0.023 A 
ATOM     83  C   UNL A   1      45.909  27.958  34.259  1.00  0.00     0.012 A 
ATOM     84  C   UNL A   1      44.436  26.153  34.957  1.00  0.00     0.148 A 
ATOM     85  C   UNL A   1      46.988  27.324  34.874  1.00  0.00     0.002 A 
ATOM     86  C   UNL A   1      45.509  25.547  35.603  1.00  0.00     0.091 A 
ATOM     87  F   UNL A   1      43.213  25.603  34.953  1.00  0.00    -0.205 F 
ATOM     88  C   UNL A   1      46.786  26.127  35.556  1.00  0.00     0.022 A 
BRANCH  86  89
ATOM     89  S   UNL A   1      45.313  24.050  36.579  1.00  0.00     0.127 S 
ATOM     90  O   UNL A   1      46.688  23.791  37.005  1.00  0.00    -0.237 OA
ATOM     91  O   UNL A   1      44.416  24.486  37.650  1.00  0.00    -0.237 OA
ATOM     92  O   UNL A   1      44.735  23.063  35.677  1.00  0.00    -0.744 OA
ENDBRANCH  86  89
ENDBRANCH  59  82
ENDBRANCH  33  34
ENDBRANCH  26  28
ENDBRANCH  25  26
ENDBRANCH  24  25
ENDBRANCH  23  24
ENDBRANCH   1  23
TORSDOF 20
ENDMDL
