MODEL 1
REMARK VINA RESULT:     -10.7      0.000      0.000
REMARK SMILES CC(C)C[C@H](Nc1ncnc2scc(-c3ccccc3)c12)C(=O)OCCOCCOC(=O)c1ccc(-c2c3nc(c(-c4cccc(S(=O)(=O)[O-])c4F)c4ccc([nH]4)c(-c4cccc(S(=O)(=O)[O-])c4F)c4nc(c(-c5cccc(S(=O)(=O)[O-])c5F)c5ccc2[nH]5)C=C4)C=C3)cc1
REMARK SMILES IDX 27 1 26 2 25 3 24 4 22 5 23 6 5 7 4 8 2 9 1 10 3 11 6 12
REMARK SMILES IDX 7 14 8 15 21 16 9 17 11 18 14 19 10 20 12 21 13 22 15 23
REMARK SMILES IDX 16 24 20 25 17 26 19 27 18 28 28 29 29 30 30 31 31 32 32 33
REMARK SMILES IDX 33 34 34 35 95 36 35 37 94 38 36 39 37 40 38 41 88 42 39 43
REMARK SMILES IDX 93 44 87 45 89 46 40 47 92 48 86 49 85 50 41 52 73 53 53 54
REMARK SMILES IDX 72 55 54 56 57 57 71 58 90 59 55 60 56 61 70 63 91 64 58 65
REMARK SMILES IDX 42 66 43 67 51 68 44 69 46 70 52 71 45 72 47 73 48 74 49 75
REMARK SMILES IDX 50 76 74 77 75 78 83 79 76 80 78 81 84 82 77 83 79 84 80 85
REMARK SMILES IDX 81 86 82 87 59 88 60 89 68 90 61 91 63 92 69 93 62 94 64 95
REMARK SMILES IDX 65 96 66 97 67 98
REMARK H PARENT 6 13 89 51 57 62
REMARK Flexibility Score: inf
ROOT
ATOM      1  O   UNL A   1      36.375  22.488  25.272  1.00  0.00    -0.374 OA
ENDROOT
BRANCH   1   2
ATOM      2  C   UNL A   1      36.103  23.599  24.420  1.00  0.00     0.202 C 
BRANCH   2   3
ATOM      3  C   UNL A   1      35.340  23.337  23.123  1.00  0.00     0.261 C 
BRANCH   3   4
ATOM      4  O   UNL A   1      34.482  24.426  22.761  1.00  0.00    -0.462 OA
BRANCH   4   5
ATOM      5  C   UNL A   1      33.494  24.085  21.881  1.00  0.00     0.328 C 
ATOM      6  O   UNL A   1      33.645  23.345  20.914  1.00  0.00    -0.250 OA
BRANCH   5   7
ATOM      7  C   UNL A   1      32.181  24.799  22.205  1.00  0.00     0.191 C 
BRANCH   7   8
ATOM      8  C   UNL A   1      32.479  26.142  22.900  1.00  0.00     0.040 C 
BRANCH   8   9
ATOM      9  C   UNL A   1      31.738  27.374  22.347  1.00  0.00    -0.015 C 
ATOM     10  C   UNL A   1      30.275  27.427  22.782  1.00  0.00     0.007 C 
ATOM     11  C   UNL A   1      32.462  28.649  22.777  1.00  0.00     0.007 C 
ENDBRANCH   8   9
ENDBRANCH   7   8
BRANCH   7  12
ATOM     12  N   UNL A   1      31.312  23.969  23.064  1.00  0.00    -0.356 N 
ATOM     13  H   UNL A   1      30.397  24.261  23.281  1.00  0.00     0.163 HD
BRANCH  12  14
ATOM     14  C   UNL A   1      31.806  22.775  23.561  1.00  0.00     0.139 A 
ATOM     15  N   UNL A   1      31.689  21.678  22.775  1.00  0.00    -0.219 NA
ATOM     16  C   UNL A   1      32.396  22.624  24.842  1.00  0.00     0.062 A 
ATOM     17  C   UNL A   1      32.153  20.502  23.211  1.00  0.00     0.225 A 
ATOM     18  C   UNL A   1      32.821  21.337  25.156  1.00  0.00     0.129 A 
ATOM     19  C   UNL A   1      32.643  23.508  25.967  1.00  0.00     0.006 A 
ATOM     20  N   UNL A   1      32.735  20.245  24.379  1.00  0.00    -0.225 NA
ATOM     21  S   UNL A   1      33.502  21.199  26.710  1.00  0.00    -0.123 S 
ATOM     22  C   UNL A   1      33.221  22.843  27.036  1.00  0.00     0.076 A 
BRANCH  19  23
ATOM     23  C   UNL A   1      32.315  24.917  26.125  1.00  0.00    -0.017 A 
ATOM     24  C   UNL A   1      30.977  25.319  26.193  1.00  0.00     0.009 A 
ATOM     25  C   UNL A   1      33.323  25.887  26.127  1.00  0.00     0.009 A 
ATOM     26  C   UNL A   1      30.662  26.671  26.238  1.00  0.00     0.001 A 
ATOM     27  C   UNL A   1      33.007  27.239  26.247  1.00  0.00     0.001 A 
ATOM     28  C   UNL A   1      31.675  27.629  26.286  1.00  0.00     0.000 A 
ENDBRANCH  19  23
ENDBRANCH  12  14
ENDBRANCH   7  12
ENDBRANCH   5   7
ENDBRANCH   4   5
ENDBRANCH   3   4
ENDBRANCH   2   3
ENDBRANCH   1   2
BRANCH   1  29
ATOM     29  C   UNL A   1      36.563  21.215  24.656  1.00  0.00     0.202 C 
BRANCH  29  30
ATOM     30  C   UNL A   1      37.722  20.341  25.149  1.00  0.00     0.261 C 
BRANCH  30  31
ATOM     31  O   UNL A   1      38.981  21.027  25.176  1.00  0.00    -0.460 OA
BRANCH  31  32
ATOM     32  C   UNL A   1      39.657  20.931  26.349  1.00  0.00     0.338 C 
ATOM     33  O   UNL A   1      40.035  19.910  26.905  1.00  0.00    -0.246 OA
BRANCH  32  34
ATOM     34  C   UNL A   1      40.033  22.282  26.795  1.00  0.00     0.060 A 
ATOM     35  C   UNL A   1      39.406  23.392  26.213  1.00  0.00     0.016 A 
ATOM     36  C   UNL A   1      41.015  22.455  27.765  1.00  0.00     0.016 A 
ATOM     37  C   UNL A   1      39.772  24.686  26.595  1.00  0.00     0.010 A 
ATOM     38  C   UNL A   1      41.371  23.751  28.146  1.00  0.00     0.010 A 
ATOM     39  C   UNL A   1      40.774  24.881  27.553  1.00  0.00    -0.014 A 
BRANCH  39  40
ATOM     40  C   UNL A   1      41.309  26.238  27.855  1.00  0.00     0.031 A 
ATOM     41  C   UNL A   1      42.711  26.576  27.407  1.00  0.00     0.074 A 
ATOM     42  C   UNL A   1      40.597  27.149  28.551  1.00  0.00     0.049 A 
ATOM     43  N   UNL A   1      43.420  27.648  27.638  1.00  0.00    -0.248 NA
ATOM     44  C   UNL A   1      43.421  25.548  26.626  1.00  0.00     0.031 C 
ATOM     45  C   UNL A   1      39.247  26.956  29.083  1.00  0.00     0.029 A 
ATOM     46  N   UNL A   1      40.929  28.422  28.953  1.00  0.00    -0.354 N 
ATOM     47  C   UNL A   1      44.669  27.400  27.080  1.00  0.00     0.074 A 
ATOM     48  C   UNL A   1      44.639  26.056  26.552  1.00  0.00     0.031 C 
ATOM     49  C   UNL A   1      38.872  28.064  29.747  1.00  0.00     0.029 A 
ATOM     50  C   UNL A   1      39.956  29.041  29.706  1.00  0.00     0.049 A 
ATOM     51  H   UNL A   1      41.784  28.851  28.723  1.00  0.00     0.167 HD
ATOM     52  C   UNL A   1      45.738  28.224  26.974  1.00  0.00     0.034 A 
ATOM     53  C   UNL A   1      39.943  30.253  30.299  1.00  0.00     0.034 A 
ATOM     54  C   UNL A   1      45.752  29.585  27.431  1.00  0.00     0.049 A 
ATOM     55  C   UNL A   1      41.136  31.165  30.142  1.00  0.00     0.074 A 
ATOM     56  C   UNL A   1      46.755  30.527  27.288  1.00  0.00     0.029 A 
ATOM     57  N   UNL A   1      44.718  30.198  28.117  1.00  0.00    -0.354 N 
ATOM     58  N   UNL A   1      42.254  30.961  29.491  1.00  0.00    -0.248 NA
ATOM     59  C   UNL A   1      41.047  32.493  30.771  1.00  0.00     0.031 C 
ATOM     60  C   UNL A   1      46.337  31.704  27.916  1.00  0.00     0.029 A 
ATOM     61  C   UNL A   1      45.059  31.505  28.412  1.00  0.00     0.049 A 
ATOM     62  H   UNL A   1      43.865  29.768  28.357  1.00  0.00     0.167 HD
ATOM     63  C   UNL A   1      42.980  32.144  29.593  1.00  0.00     0.074 A 
ATOM     64  C   UNL A   1      42.166  33.069  30.353  1.00  0.00     0.031 C 
ATOM     65  C   UNL A   1      44.215  32.436  29.115  1.00  0.00     0.034 A 
BRANCH  52  66
ATOM     66  C   UNL A   1      46.967  27.683  26.293  1.00  0.00     0.023 A 
ATOM     67  C   UNL A   1      47.169  27.919  24.917  1.00  0.00     0.012 A 
ATOM     68  C   UNL A   1      47.941  26.975  27.023  1.00  0.00     0.148 A 
ATOM     69  C   UNL A   1      48.294  27.415  24.268  1.00  0.00     0.002 A 
ATOM     70  C   UNL A   1      49.087  26.525  26.380  1.00  0.00     0.091 A 
ATOM     71  F   UNL A   1      47.721  26.744  28.325  1.00  0.00    -0.205 F 
ATOM     72  C   UNL A   1      49.258  26.729  25.001  1.00  0.00     0.022 A 
BRANCH  70  73
ATOM     73  S   UNL A   1      50.428  25.708  27.251  1.00  0.00     0.127 S 
ATOM     74  O   UNL A   1      49.803  24.443  27.634  1.00  0.00    -0.237 OA
ATOM     75  O   UNL A   1      51.444  25.594  26.206  1.00  0.00    -0.237 OA
ATOM     76  O   UNL A   1      50.785  26.585  28.357  1.00  0.00    -0.744 OA
ENDBRANCH  70  73
ENDBRANCH  52  66
BRANCH  53  77
ATOM     77  C   UNL A   1      38.743  30.715  31.060  1.00  0.00     0.023 A 
ATOM     78  C   UNL A   1      38.659  30.465  32.444  1.00  0.00     0.012 A 
ATOM     79  C   UNL A   1      37.679  31.377  30.419  1.00  0.00     0.148 A 
ATOM     80  C   UNL A   1      37.519  30.822  33.167  1.00  0.00     0.002 A 
ATOM     81  C   UNL A   1      36.570  31.781  31.156  1.00  0.00     0.091 A 
ATOM     82  F   UNL A   1      37.771  31.598  29.100  1.00  0.00    -0.205 F 
ATOM     83  C   UNL A   1      36.479  31.485  32.524  1.00  0.00     0.022 A 
BRANCH  81  84
ATOM     84  S   UNL A   1      35.236  32.750  30.442  1.00  0.00     0.127 S 
ATOM     85  O   UNL A   1      35.929  33.977  30.059  1.00  0.00    -0.237 OA
ATOM     86  O   UNL A   1      34.816  31.902  29.325  1.00  0.00    -0.237 OA
ATOM     87  O   UNL A   1      34.242  32.888  31.497  1.00  0.00    -0.744 OA
ENDBRANCH  81  84
ENDBRANCH  53  77
BRANCH  65  88
ATOM     88  C   UNL A   1      44.751  33.827  29.336  1.00  0.00     0.023 A 
ATOM     89  C   UNL A   1      45.434  34.141  30.528  1.00  0.00     0.012 A 
ATOM     90  C   UNL A   1      44.651  34.800  28.321  1.00  0.00     0.148 A 
ATOM     91  C   UNL A   1      45.977  35.412  30.719  1.00  0.00     0.002 A 
ATOM     92  C   UNL A   1      45.242  36.044  28.496  1.00  0.00     0.091 A 
ATOM     93  F   UNL A   1      43.985  34.486  27.200  1.00  0.00    -0.205 F 
ATOM     94  C   UNL A   1      45.892  36.357  29.700  1.00  0.00     0.022 A 
BRANCH  92  95
ATOM     95  S   UNL A   1      45.274  37.287  27.200  1.00  0.00     0.127 S 
ATOM     96  O   UNL A   1      43.850  37.466  26.923  1.00  0.00    -0.237 OA
ATOM     97  O   UNL A   1      45.912  38.418  27.873  1.00  0.00    -0.237 OA
ATOM     98  O   UNL A   1      46.053  36.714  26.111  1.00  0.00    -0.744 OA
ENDBRANCH  92  95
ENDBRANCH  65  88
ENDBRANCH  39  40
ENDBRANCH  32  34
ENDBRANCH  31  32
ENDBRANCH  30  31
ENDBRANCH  29  30
ENDBRANCH   1  29
TORSDOF 22
ENDMDL
MODEL 2
REMARK VINA RESULT:     -10.4      1.740      2.091
REMARK SMILES CC(C)C[C@H](Nc1ncnc2scc(-c3ccccc3)c12)C(=O)OCCOCCOC(=O)c1ccc(-c2c3nc(c(-c4cccc(S(=O)(=O)[O-])c4F)c4ccc([nH]4)c(-c4cccc(S(=O)(=O)[O-])c4F)c4nc(c(-c5cccc(S(=O)(=O)[O-])c5F)c5ccc2[nH]5)C=C4)C=C3)cc1
REMARK SMILES IDX 27 1 26 2 25 3 24 4 22 5 23 6 5 7 4 8 2 9 1 10 3 11 6 12
REMARK SMILES IDX 7 14 8 15 21 16 9 17 11 18 14 19 10 20 12 21 13 22 15 23
REMARK SMILES IDX 16 24 20 25 17 26 19 27 18 28 28 29 29 30 30 31 31 32 32 33
REMARK SMILES IDX 33 34 34 35 95 36 35 37 94 38 36 39 37 40 38 41 88 42 39 43
REMARK SMILES IDX 93 44 87 45 89 46 40 47 92 48 86 49 85 50 41 52 73 53 53 54
REMARK SMILES IDX 72 55 54 56 57 57 71 58 90 59 55 60 56 61 70 63 91 64 58 65
REMARK SMILES IDX 42 66 43 67 51 68 44 69 46 70 52 71 45 72 47 73 48 74 49 75
REMARK SMILES IDX 50 76 74 77 75 78 83 79 76 80 78 81 84 82 77 83 79 84 80 85
REMARK SMILES IDX 81 86 82 87 59 88 60 89 68 90 61 91 63 92 69 93 62 94 64 95
REMARK SMILES IDX 65 96 66 97 67 98
REMARK H PARENT 6 13 89 51 57 62
REMARK Flexibility Score: inf
ROOT
ATOM      1  O   UNL A   1      36.516  22.285  25.059  1.00  0.00    -0.374 OA
ENDROOT
BRANCH   1   2
ATOM      2  C   UNL A   1      36.408  23.345  24.112  1.00  0.00     0.202 C 
BRANCH   2   3
ATOM      3  C   UNL A   1      35.454  23.159  22.934  1.00  0.00     0.261 C 
BRANCH   3   4
ATOM      4  O   UNL A   1      34.517  24.237  22.810  1.00  0.00    -0.462 OA
BRANCH   4   5
ATOM      5  C   UNL A   1      33.520  24.005  21.907  1.00  0.00     0.328 C 
ATOM      6  O   UNL A   1      33.642  23.331  20.889  1.00  0.00    -0.250 OA
BRANCH   5   7
ATOM      7  C   UNL A   1      32.237  24.750  22.280  1.00  0.00     0.191 C 
BRANCH   7   8
ATOM      8  C   UNL A   1      32.594  26.109  22.914  1.00  0.00     0.040 C 
BRANCH   8   9
ATOM      9  C   UNL A   1      31.842  27.335  22.362  1.00  0.00    -0.015 C 
ATOM     10  C   UNL A   1      30.392  27.401  22.835  1.00  0.00     0.007 C 
ATOM     11  C   UNL A   1      32.582  28.614  22.754  1.00  0.00     0.007 C 
ENDBRANCH   8   9
ENDBRANCH   7   8
BRANCH   7  12
ATOM     12  N   UNL A   1      31.405  23.962  23.212  1.00  0.00    -0.356 N 
ATOM     13  H   UNL A   1      30.496  24.259  23.445  1.00  0.00     0.163 HD
BRANCH  12  14
ATOM     14  C   UNL A   1      31.926  22.799  23.754  1.00  0.00     0.139 A 
ATOM     15  N   UNL A   1      31.759  21.654  23.049  1.00  0.00    -0.219 NA
ATOM     16  C   UNL A   1      32.592  22.727  25.004  1.00  0.00     0.062 A 
ATOM     17  C   UNL A   1      32.247  20.506  23.531  1.00  0.00     0.225 A 
ATOM     18  C   UNL A   1      33.033  21.460  25.374  1.00  0.00     0.129 A 
ATOM     19  C   UNL A   1      32.909  23.680  26.053  1.00  0.00     0.006 A 
ATOM     20  N   UNL A   1      32.898  20.322  24.675  1.00  0.00    -0.225 NA
ATOM     21  S   UNL A   1      33.807  21.418  26.889  1.00  0.00    -0.123 S 
ATOM     22  C   UNL A   1      33.550  23.081  27.125  1.00  0.00     0.076 A 
BRANCH  19  23
ATOM     23  C   UNL A   1      32.595  25.098  26.139  1.00  0.00    -0.017 A 
ATOM     24  C   UNL A   1      33.623  26.045  26.093  1.00  0.00     0.009 A 
ATOM     25  C   UNL A   1      31.279  25.524  26.352  1.00  0.00     0.009 A 
ATOM     26  C   UNL A   1      33.333  27.391  26.281  1.00  0.00     0.001 A 
ATOM     27  C   UNL A   1      30.982  26.881  26.466  1.00  0.00     0.001 A 
ATOM     28  C   UNL A   1      32.014  27.811  26.446  1.00  0.00     0.000 A 
ENDBRANCH  19  23
ENDBRANCH  12  14
ENDBRANCH   7  12
ENDBRANCH   5   7
ENDBRANCH   4   5
ENDBRANCH   3   4
ENDBRANCH   2   3
ENDBRANCH   1   2
BRANCH   1  29
ATOM     29  C   UNL A   1      37.032  21.037  24.596  1.00  0.00     0.202 C 
BRANCH  29  30
ATOM     30  C   UNL A   1      38.117  20.352  25.434  1.00  0.00     0.261 C 
BRANCH  30  31
ATOM     31  O   UNL A   1      39.356  21.074  25.462  1.00  0.00    -0.460 OA
BRANCH  31  32
ATOM     32  C   UNL A   1      40.013  21.030  26.648  1.00  0.00     0.338 C 
ATOM     33  O   UNL A   1      40.433  20.039  27.227  1.00  0.00    -0.246 OA
BRANCH  32  34
ATOM     34  C   UNL A   1      40.311  22.405  27.080  1.00  0.00     0.060 A 
ATOM     35  C   UNL A   1      39.623  23.471  26.484  1.00  0.00     0.016 A 
ATOM     36  C   UNL A   1      41.278  22.645  28.051  1.00  0.00     0.016 A 
ATOM     37  C   UNL A   1      39.914  24.789  26.851  1.00  0.00     0.010 A 
ATOM     38  C   UNL A   1      41.559  23.963  28.418  1.00  0.00     0.010 A 
ATOM     39  C   UNL A   1      40.900  25.051  27.810  1.00  0.00    -0.014 A 
BRANCH  39  40
ATOM     40  C   UNL A   1      41.356  26.440  28.098  1.00  0.00     0.031 A 
ATOM     41  C   UNL A   1      42.757  26.835  27.697  1.00  0.00     0.074 A 
ATOM     42  C   UNL A   1      40.573  27.330  28.742  1.00  0.00     0.049 A 
ATOM     43  N   UNL A   1      43.404  27.947  27.928  1.00  0.00    -0.248 NA
ATOM     44  C   UNL A   1      43.548  25.825  26.971  1.00  0.00     0.031 C 
ATOM     45  C   UNL A   1      39.213  27.084  29.224  1.00  0.00     0.029 A 
ATOM     46  N   UNL A   1      40.826  28.627  29.123  1.00  0.00    -0.354 N 
ATOM     47  C   UNL A   1      44.685  27.747  27.427  1.00  0.00     0.074 A 
ATOM     48  C   UNL A   1      44.742  26.392  26.932  1.00  0.00     0.031 C 
ATOM     49  C   UNL A   1      38.758  28.187  29.844  1.00  0.00     0.029 A 
ATOM     50  C   UNL A   1      39.795  29.215  29.821  1.00  0.00     0.049 A 
ATOM     51  H   UNL A   1      41.669  29.093  28.916  1.00  0.00     0.167 HD
ATOM     52  C   UNL A   1      45.716  28.620  27.341  1.00  0.00     0.034 A 
ATOM     53  C   UNL A   1      39.700  30.439  30.382  1.00  0.00     0.034 A 
ATOM     54  C   UNL A   1      45.646  29.990  27.763  1.00  0.00     0.049 A 
ATOM     55  C   UNL A   1      40.852  31.405  30.249  1.00  0.00     0.074 A 
ATOM     56  C   UNL A   1      46.606  30.978  27.635  1.00  0.00     0.029 A 
ATOM     57  N   UNL A   1      44.556  30.568  28.391  1.00  0.00    -0.354 N 
ATOM     58  N   UNL A   1      42.005  31.241  29.648  1.00  0.00    -0.248 NA
ATOM     59  C   UNL A   1      40.673  32.742  30.838  1.00  0.00     0.031 C 
ATOM     60  C   UNL A   1      46.107  32.147  28.216  1.00  0.00     0.029 A 
ATOM     61  C   UNL A   1      44.821  31.897  28.666  1.00  0.00     0.049 A 
ATOM     62  H   UNL A   1      43.716  30.102  28.609  1.00  0.00     0.167 HD
ATOM     63  C   UNL A   1      42.667  32.461  29.748  1.00  0.00     0.074 A 
ATOM     64  C   UNL A   1      41.779  33.362  30.450  1.00  0.00     0.031 C 
ATOM     65  C   UNL A   1      43.905  32.802  29.311  1.00  0.00     0.034 A 
BRANCH  52  66
ATOM     66  C   UNL A   1      46.996  28.125  26.724  1.00  0.00     0.023 A 
ATOM     67  C   UNL A   1      48.037  27.649  27.549  1.00  0.00     0.012 A 
ATOM     68  C   UNL A   1      47.156  28.095  25.325  1.00  0.00     0.148 A 
ATOM     69  C   UNL A   1      49.234  27.199  26.995  1.00  0.00     0.002 A 
ATOM     70  C   UNL A   1      48.330  27.593  24.779  1.00  0.00     0.091 A 
ATOM     71  F   UNL A   1      46.165  28.571  24.558  1.00  0.00    -0.205 F 
ATOM     72  C   UNL A   1      49.376  27.160  25.611  1.00  0.00     0.022 A 
BRANCH  70  73
ATOM     73  S   UNL A   1      48.578  27.418  23.009  1.00  0.00     0.127 S 
ATOM     74  O   UNL A   1      48.468  25.970  22.838  1.00  0.00    -0.237 OA
ATOM     75  O   UNL A   1      47.455  28.183  22.469  1.00  0.00    -0.237 OA
ATOM     76  O   UNL A   1      49.892  27.980  22.728  1.00  0.00    -0.744 OA
ENDBRANCH  70  73
ENDBRANCH  52  66
BRANCH  53  77
ATOM     77  C   UNL A   1      38.449  30.859  31.082  1.00  0.00     0.023 A 
ATOM     78  C   UNL A   1      38.261  30.517  32.436  1.00  0.00     0.012 A 
ATOM     79  C   UNL A   1      37.437  31.573  30.411  1.00  0.00     0.148 A 
ATOM     80  C   UNL A   1      37.073  30.834  33.096  1.00  0.00     0.002 A 
ATOM     81  C   UNL A   1      36.279  31.936  31.091  1.00  0.00     0.091 A 
ATOM     82  F   UNL A   1      37.627  31.882  29.121  1.00  0.00    -0.205 F 
ATOM     83  C   UNL A   1      36.085  31.549  32.426  1.00  0.00     0.022 A 
BRANCH  81  84
ATOM     84  S   UNL A   1      35.005  32.963  30.349  1.00  0.00     0.127 S 
ATOM     85  O   UNL A   1      34.133  33.230  31.490  1.00  0.00    -0.237 OA
ATOM     86  O   UNL A   1      35.782  34.112  29.883  1.00  0.00    -0.237 OA
ATOM     87  O   UNL A   1      34.423  32.160  29.283  1.00  0.00    -0.744 OA
ENDBRANCH  81  84
ENDBRANCH  53  77
BRANCH  65  88
ATOM     88  C   UNL A   1      44.363  34.223  29.517  1.00  0.00     0.023 A 
ATOM     89  C   UNL A   1      44.117  35.197  28.530  1.00  0.00     0.012 A 
ATOM     90  C   UNL A   1      44.962  34.608  30.734  1.00  0.00     0.148 A 
ATOM     91  C   UNL A   1      44.493  36.525  28.736  1.00  0.00     0.002 A 
ATOM     92  C   UNL A   1      45.283  35.941  30.954  1.00  0.00     0.091 A 
ATOM     93  F   UNL A   1      45.201  33.664  31.655  1.00  0.00    -0.205 F 
ATOM     94  C   UNL A   1      45.064  36.898  29.950  1.00  0.00     0.022 A 
BRANCH  92  95
ATOM     95  S   UNL A   1      45.924  36.532  32.524  1.00  0.00     0.127 S 
ATOM     96  O   UNL A   1      46.095  37.960  32.258  1.00  0.00    -0.237 OA
ATOM     97  O   UNL A   1      44.833  36.209  33.444  1.00  0.00    -0.237 OA
ATOM     98  O   UNL A   1      47.155  35.791  32.761  1.00  0.00    -0.744 OA
ENDBRANCH  92  95
ENDBRANCH  65  88
ENDBRANCH  39  40
ENDBRANCH  32  34
ENDBRANCH  31  32
ENDBRANCH  30  31
ENDBRANCH  29  30
ENDBRANCH   1  29
TORSDOF 22
ENDMDL
MODEL 3
REMARK VINA RESULT:     -10.4      1.764      8.019
REMARK SMILES CC(C)C[C@H](Nc1ncnc2scc(-c3ccccc3)c12)C(=O)OCCOCCOC(=O)c1ccc(-c2c3nc(c(-c4cccc(S(=O)(=O)[O-])c4F)c4ccc([nH]4)c(-c4cccc(S(=O)(=O)[O-])c4F)c4nc(c(-c5cccc(S(=O)(=O)[O-])c5F)c5ccc2[nH]5)C=C4)C=C3)cc1
REMARK SMILES IDX 27 1 26 2 25 3 24 4 22 5 23 6 5 7 4 8 2 9 1 10 3 11 6 12
REMARK SMILES IDX 7 14 8 15 21 16 9 17 11 18 14 19 10 20 12 21 13 22 15 23
REMARK SMILES IDX 16 24 20 25 17 26 19 27 18 28 28 29 29 30 30 31 31 32 32 33
REMARK SMILES IDX 33 34 34 35 95 36 35 37 94 38 36 39 37 40 38 41 88 42 39 43
REMARK SMILES IDX 93 44 87 45 89 46 40 47 92 48 86 49 85 50 41 52 73 53 53 54
REMARK SMILES IDX 72 55 54 56 57 57 71 58 90 59 55 60 56 61 70 63 91 64 58 65
REMARK SMILES IDX 42 66 43 67 51 68 44 69 46 70 52 71 45 72 47 73 48 74 49 75
REMARK SMILES IDX 50 76 74 77 75 78 83 79 76 80 78 81 84 82 77 83 79 84 80 85
REMARK SMILES IDX 81 86 82 87 59 88 60 89 68 90 61 91 63 92 69 93 62 94 64 95
REMARK SMILES IDX 65 96 66 97 67 98
REMARK H PARENT 6 13 89 51 57 62
REMARK Flexibility Score: inf
ROOT
ATOM      1  O   UNL A   1      34.943  20.605  25.934  1.00  0.00    -0.374 OA
ENDROOT
BRANCH   1   2
ATOM      2  C   UNL A   1      33.969  21.631  26.114  1.00  0.00     0.202 C 
BRANCH   2   3
ATOM      3  C   UNL A   1      34.336  22.821  26.998  1.00  0.00     0.261 C 
BRANCH   3   4
ATOM      4  O   UNL A   1      33.791  24.054  26.514  1.00  0.00    -0.462 OA
BRANCH   4   5
ATOM      5  C   UNL A   1      34.655  24.780  25.745  1.00  0.00     0.328 C 
ATOM      6  O   UNL A   1      35.810  24.450  25.491  1.00  0.00    -0.250 OA
BRANCH   5   7
ATOM      7  C   UNL A   1      34.033  26.102  25.292  1.00  0.00     0.191 C 
BRANCH   7   8
ATOM      8  C   UNL A   1      32.983  26.560  26.324  1.00  0.00     0.040 C 
BRANCH   8   9
ATOM      9  C   UNL A   1      33.212  27.945  26.959  1.00  0.00    -0.015 C 
ATOM     10  C   UNL A   1      34.378  28.700  26.323  1.00  0.00     0.007 C 
ATOM     11  C   UNL A   1      31.932  28.775  26.864  1.00  0.00     0.007 C 
ENDBRANCH   8   9
ENDBRANCH   7   8
BRANCH   7  12
ATOM     12  N   UNL A   1      33.409  25.978  23.960  1.00  0.00    -0.356 N 
ATOM     13  H   UNL A   1      33.528  25.160  23.425  1.00  0.00     0.163 HD
BRANCH  12  14
ATOM     14  C   UNL A   1      32.653  27.031  23.474  1.00  0.00     0.139 A 
ATOM     15  N   UNL A   1      33.321  28.095  22.966  1.00  0.00    -0.219 NA
ATOM     16  C   UNL A   1      31.236  27.079  23.502  1.00  0.00     0.062 A 
ATOM     17  C   UNL A   1      32.634  29.135  22.483  1.00  0.00     0.225 A 
ATOM     18  C   UNL A   1      30.667  28.234  22.972  1.00  0.00     0.129 A 
ATOM     19  C   UNL A   1      30.190  26.203  24.000  1.00  0.00     0.006 A 
ATOM     20  N   UNL A   1      31.314  29.284  22.442  1.00  0.00    -0.225 NA
ATOM     21  S   UNL A   1      28.966  28.257  23.047  1.00  0.00    -0.123 S 
ATOM     22  C   UNL A   1      28.928  26.744  23.822  1.00  0.00     0.076 A 
BRANCH  19  23
ATOM     23  C   UNL A   1      30.304  24.924  24.685  1.00  0.00    -0.017 A 
ATOM     24  C   UNL A   1      29.998  24.833  26.046  1.00  0.00     0.009 A 
ATOM     25  C   UNL A   1      30.798  23.799  24.016  1.00  0.00     0.009 A 
ATOM     26  C   UNL A   1      30.206  23.637  26.724  1.00  0.00     0.001 A 
ATOM     27  C   UNL A   1      30.936  22.582  24.680  1.00  0.00     0.001 A 
ATOM     28  C   UNL A   1      30.655  22.509  26.038  1.00  0.00     0.000 A 
ENDBRANCH  19  23
ENDBRANCH  12  14
ENDBRANCH   7  12
ENDBRANCH   5   7
ENDBRANCH   4   5
ENDBRANCH   3   4
ENDBRANCH   2   3
ENDBRANCH   1   2
BRANCH   1  29
ATOM     29  C   UNL A   1      35.717  20.632  24.735  1.00  0.00     0.202 C 
BRANCH  29  30
ATOM     30  C   UNL A   1      37.242  20.546  24.861  1.00  0.00     0.261 C 
BRANCH  30  31
ATOM     31  O   UNL A   1      37.762  21.255  25.994  1.00  0.00    -0.460 OA
BRANCH  31  32
ATOM     32  C   UNL A   1      39.090  21.088  26.209  1.00  0.00     0.338 C 
ATOM     33  O   UNL A   1      39.760  20.093  25.976  1.00  0.00    -0.246 OA
BRANCH  32  34
ATOM     34  C   UNL A   1      39.672  22.375  26.625  1.00  0.00     0.060 A 
ATOM     35  C   UNL A   1      39.092  23.566  26.165  1.00  0.00     0.016 A 
ATOM     36  C   UNL A   1      40.796  22.409  27.444  1.00  0.00     0.016 A 
ATOM     37  C   UNL A   1      39.648  24.799  26.516  1.00  0.00     0.010 A 
ATOM     38  C   UNL A   1      41.342  23.645  27.796  1.00  0.00     0.010 A 
ATOM     39  C   UNL A   1      40.793  24.852  27.321  1.00  0.00    -0.014 A 
BRANCH  39  40
ATOM     40  C   UNL A   1      41.511  26.134  27.571  1.00  0.00     0.031 A 
ATOM     41  C   UNL A   1      40.829  27.189  28.409  1.00  0.00     0.074 A 
ATOM     42  C   UNL A   1      42.723  26.391  27.037  1.00  0.00     0.049 A 
ATOM     43  N   UNL A   1      41.211  28.409  28.679  1.00  0.00    -0.248 NA
ATOM     44  C   UNL A   1      39.521  26.833  28.986  1.00  0.00     0.031 C 
ATOM     45  C   UNL A   1      43.489  25.487  26.177  1.00  0.00     0.029 A 
ATOM     46  N   UNL A   1      43.515  27.512  27.122  1.00  0.00    -0.354 N 
ATOM     47  C   UNL A   1      40.171  28.976  29.407  1.00  0.00     0.074 A 
ATOM     48  C   UNL A   1      39.120  27.989  29.486  1.00  0.00     0.031 C 
ATOM     49  C   UNL A   1      44.632  26.092  25.809  1.00  0.00     0.029 A 
ATOM     50  C   UNL A   1      44.677  27.432  26.388  1.00  0.00     0.049 A 
ATOM     51  H   UNL A   1      43.273  28.300  27.660  1.00  0.00     0.167 HD
ATOM     52  C   UNL A   1      40.104  30.192  29.997  1.00  0.00     0.034 A 
ATOM     53  C   UNL A   1      45.661  28.336  26.200  1.00  0.00     0.034 A 
ATOM     54  C   UNL A   1      41.172  31.151  29.986  1.00  0.00     0.049 A 
ATOM     55  C   UNL A   1      45.577  29.675  26.892  1.00  0.00     0.074 A 
ATOM     56  C   UNL A   1      41.234  32.374  30.631  1.00  0.00     0.029 A 
ATOM     57  N   UNL A   1      42.363  30.998  29.298  1.00  0.00    -0.354 N 
ATOM     58  N   UNL A   1      44.646  30.137  27.690  1.00  0.00    -0.248 NA
ATOM     59  C   UNL A   1      46.701  30.603  26.688  1.00  0.00     0.031 C 
ATOM     60  C   UNL A   1      42.454  32.974  30.306  1.00  0.00     0.029 A 
ATOM     61  C   UNL A   1      43.166  32.106  29.495  1.00  0.00     0.049 A 
ATOM     62  H   UNL A   1      42.604  30.215  28.751  1.00  0.00     0.167 HD
ATOM     63  C   UNL A   1      45.092  31.385  28.116  1.00  0.00     0.074 A 
ATOM     64  C   UNL A   1      46.385  31.599  27.504  1.00  0.00     0.031 C 
ATOM     65  C   UNL A   1      44.479  32.281  28.930  1.00  0.00     0.034 A 
BRANCH  52  66
ATOM     66  C   UNL A   1      38.843  30.532  30.747  1.00  0.00     0.023 A 
ATOM     67  C   UNL A   1      38.729  30.206  32.115  1.00  0.00     0.012 A 
ATOM     68  C   UNL A   1      37.786  31.207  30.108  1.00  0.00     0.148 A 
ATOM     69  C   UNL A   1      37.565  30.501  32.821  1.00  0.00     0.002 A 
ATOM     70  C   UNL A   1      36.651  31.548  30.833  1.00  0.00     0.091 A 
ATOM     71  F   UNL A   1      37.904  31.490  28.803  1.00  0.00    -0.205 F 
ATOM     72  C   UNL A   1      36.532  31.182  32.184  1.00  0.00     0.022 A 
BRANCH  70  73
ATOM     73  S   UNL A   1      35.302  32.501  30.129  1.00  0.00     0.127 S 
ATOM     74  O   UNL A   1      34.867  31.632  29.037  1.00  0.00    -0.237 OA
ATOM     75  O   UNL A   1      34.369  32.581  31.253  1.00  0.00    -0.237 OA
ATOM     76  O   UNL A   1      35.877  33.774  29.720  1.00  0.00    -0.744 OA
ENDBRANCH  70  73
ENDBRANCH  52  66
BRANCH  53  77
ATOM     77  C   UNL A   1      46.850  28.002  25.360  1.00  0.00     0.023 A 
ATOM     78  C   UNL A   1      46.764  28.114  23.957  1.00  0.00     0.012 A 
ATOM     79  C   UNL A   1      48.054  27.553  25.936  1.00  0.00     0.148 A 
ATOM     80  C   UNL A   1      47.835  27.741  23.143  1.00  0.00     0.002 A 
ATOM     81  C   UNL A   1      49.137  27.238  25.123  1.00  0.00     0.091 A 
ATOM     82  F   UNL A   1      48.115  27.444  27.271  1.00  0.00    -0.205 F 
ATOM     83  C   UNL A   1      49.023  27.310  23.726  1.00  0.00     0.022 A 
BRANCH  81  84
ATOM     84  S   UNL A   1      50.746  26.792  25.785  1.00  0.00     0.127 S 
ATOM     85  O   UNL A   1      50.459  25.518  26.438  1.00  0.00    -0.237 OA
ATOM     86  O   UNL A   1      51.553  26.695  24.568  1.00  0.00    -0.237 OA
ATOM     87  O   UNL A   1      51.125  27.886  26.669  1.00  0.00    -0.744 OA
ENDBRANCH  81  84
ENDBRANCH  53  77
BRANCH  65  88
ATOM     88  C   UNL A   1      45.215  33.553  29.265  1.00  0.00     0.023 A 
ATOM     89  C   UNL A   1      46.080  33.600  30.377  1.00  0.00     0.012 A 
ATOM     90  C   UNL A   1      45.113  34.678  28.421  1.00  0.00     0.148 A 
ATOM     91  C   UNL A   1      46.803  34.758  30.663  1.00  0.00     0.002 A 
ATOM     92  C   UNL A   1      45.877  35.808  28.682  1.00  0.00     0.091 A 
ATOM     93  F   UNL A   1      44.274  34.619  27.377  1.00  0.00    -0.205 F 
ATOM     94  C   UNL A   1      46.712  35.855  29.811  1.00  0.00     0.022 A 
BRANCH  92  95
ATOM     95  S   UNL A   1      45.904  37.228  27.583  1.00  0.00     0.127 S 
ATOM     96  O   UNL A   1      46.613  36.693  26.422  1.00  0.00    -0.237 OA
ATOM     97  O   UNL A   1      44.479  37.477  27.366  1.00  0.00    -0.237 OA
ATOM     98  O   UNL A   1      46.599  38.284  28.306  1.00  0.00    -0.744 OA
ENDBRANCH  92  95
ENDBRANCH  65  88
ENDBRANCH  39  40
ENDBRANCH  32  34
ENDBRANCH  31  32
ENDBRANCH  30  31
ENDBRANCH  29  30
ENDBRANCH   1  29
TORSDOF 22
ENDMDL
