MODEL 1
REMARK VINA RESULT:     -11.0      0.000      0.000
REMARK SMILES COc1ccc(C(=O)Nc2cc(C(=O)OCCOCCOC(=O)c3ccc(-c4c5nc(c(-c6cccc(S(=O)(=O)[O-])c6F)c6ccc([nH]6)c(-c6cccc(S(=O)(=O)[O-])c6F)c6nc(c(-c7cccc(S(=O)(=O)[O-])c7F)c7ccc4[nH]7)C=C6)C=C5)cc3)c(Cl)cc2Cl)cc1Cl
REMARK SMILES IDX 18 1 17 2 16 3 15 4 13 5 14 6 12 7 10 8 11 9 90 10 89 11
REMARK SMILES IDX 91 12 87 13 88 14 9 15 7 16 8 17 6 19 3 20 4 21 93 22 5 23
REMARK SMILES IDX 92 24 94 25 2 26 1 27 19 28 20 29 21 30 22 31 23 32 24 33
REMARK SMILES IDX 25 34 86 35 26 36 85 37 27 38 28 39 29 40 79 41 30 42 84 43
REMARK SMILES IDX 78 44 80 45 31 46 83 47 77 48 76 49 32 51 64 52 44 53 63 54
REMARK SMILES IDX 45 55 48 56 62 57 81 58 46 59 47 60 61 62 82 63 49 64 33 65
REMARK SMILES IDX 34 66 42 67 35 68 37 69 43 70 36 71 38 72 39 73 40 74 41 75
REMARK SMILES IDX 65 76 66 77 74 78 67 79 69 80 75 81 68 82 70 83 71 84 72 85
REMARK SMILES IDX 73 86 50 87 51 88 59 89 52 90 54 91 60 92 53 93 55 94 56 95
REMARK SMILES IDX 57 96 58 97
REMARK H PARENT 9 18 80 50 48 61
REMARK Flexibility Score: inf
ROOT
ATOM      1  O   UNL A   1      31.099  31.222  25.399  1.00  0.00    -0.374 OA
ENDROOT
BRANCH   1   2
ATOM      2  C   UNL A   1      31.687  29.924  25.406  1.00  0.00     0.202 C 
BRANCH   2   3
ATOM      3  C   UNL A   1      31.866  29.198  26.743  1.00  0.00     0.261 C 
BRANCH   3   4
ATOM      4  O   UNL A   1      32.474  27.902  26.605  1.00  0.00    -0.460 OA
BRANCH   4   5
ATOM      5  C   UNL A   1      31.607  26.875  26.458  1.00  0.00     0.339 C 
ATOM      6  O   UNL A   1      30.629  26.625  27.146  1.00  0.00    -0.246 OA
BRANCH   5   7
ATOM      7  C   UNL A   1      31.854  26.149  25.200  1.00  0.00     0.080 A 
ATOM      8  C   UNL A   1      33.505  24.977  23.852  1.00  0.00     0.061 A 
ATOM      9  C   UNL A   1      33.106  25.513  25.078  1.00  0.00     0.045 A 
ATOM     10  C   UNL A   1      32.658  25.108  22.742  1.00  0.00     0.066 A 
ATOM     11  C   UNL A   1      31.385  25.668  22.882  1.00  0.00     0.044 A 
ATOM     12  Cl  UNL A   1      33.132  24.514  21.190  1.00  0.00    -0.082 Cl
ATOM     13  C   UNL A   1      30.978  26.189  24.114  1.00  0.00     0.057 A 
ATOM     14  Cl  UNL A   1      29.417  26.914  24.197  1.00  0.00    -0.083 Cl
BRANCH   8  15
ATOM     15  N   UNL A   1      34.769  24.376  23.703  1.00  0.00    -0.321 N 
ATOM     16  C   UNL A   1      35.255  23.215  24.263  1.00  0.00     0.255 C 
ATOM     17  O   UNL A   1      36.466  23.038  24.373  1.00  0.00    -0.269 OA
ATOM     18  H   UNL A   1      35.395  24.853  23.112  1.00  0.00     0.170 HD
BRANCH  16  19
ATOM     19  C   UNL A   1      34.330  22.085  24.571  1.00  0.00     0.041 A 
ATOM     20  C   UNL A   1      32.793  19.771  25.135  1.00  0.00     0.137 A 
ATOM     21  C   UNL A   1      33.564  20.402  26.126  1.00  0.00     0.049 A 
ATOM     22  C   UNL A   1      32.832  20.294  23.838  1.00  0.00     0.083 A 
ATOM     23  C   UNL A   1      34.331  21.539  25.853  1.00  0.00     0.018 A 
ATOM     24  C   UNL A   1      33.598  21.442  23.565  1.00  0.00     0.038 A 
ATOM     25  Cl  UNL A   1      32.046  19.602  22.463  1.00  0.00    -0.080 Cl
BRANCH  20  26
ATOM     26  O   UNL A   1      32.141  18.677  25.629  1.00  0.00    -0.495 OA
ATOM     27  C   UNL A   1      32.544  17.364  25.274  1.00  0.00     0.278 C 
ENDBRANCH  20  26
ENDBRANCH  16  19
ENDBRANCH   8  15
ENDBRANCH   5   7
ENDBRANCH   4   5
ENDBRANCH   3   4
ENDBRANCH   2   3
ENDBRANCH   1   2
BRANCH   1  28
ATOM     28  C   UNL A   1      31.016  31.940  26.618  1.00  0.00     0.202 C 
BRANCH  28  29
ATOM     29  C   UNL A   1      32.114  32.949  26.995  1.00  0.00     0.261 C 
BRANCH  29  30
ATOM     30  O   UNL A   1      33.364  32.413  27.425  1.00  0.00    -0.460 OA
BRANCH  30  31
ATOM     31  C   UNL A   1      34.215  33.320  27.963  1.00  0.00     0.338 C 
ATOM     32  O   UNL A   1      34.041  34.524  28.089  1.00  0.00    -0.246 OA
BRANCH  31  33
ATOM     33  C   UNL A   1      35.398  32.614  28.467  1.00  0.00     0.060 A 
ATOM     34  C   UNL A   1      35.236  31.342  29.026  1.00  0.00     0.016 A 
ATOM     35  C   UNL A   1      36.654  33.226  28.425  1.00  0.00     0.016 A 
ATOM     36  C   UNL A   1      36.341  30.677  29.554  1.00  0.00     0.010 A 
ATOM     37  C   UNL A   1      37.757  32.557  28.958  1.00  0.00     0.010 A 
ATOM     38  C   UNL A   1      37.603  31.288  29.541  1.00  0.00    -0.014 A 
BRANCH  38  39
ATOM     39  C   UNL A   1      38.751  30.610  30.184  1.00  0.00     0.031 A 
ATOM     40  C   UNL A   1      39.157  30.991  31.579  1.00  0.00     0.074 A 
ATOM     41  C   UNL A   1      39.435  29.668  29.510  1.00  0.00     0.049 A 
ATOM     42  N   UNL A   1      40.107  30.493  32.326  1.00  0.00    -0.248 NA
ATOM     43  C   UNL A   1      38.399  32.080  32.215  1.00  0.00     0.031 C 
ATOM     44  C   UNL A   1      39.157  29.252  28.135  1.00  0.00     0.029 A 
ATOM     45  N   UNL A   1      40.517  28.912  29.880  1.00  0.00    -0.354 N 
ATOM     46  C   UNL A   1      40.080  31.221  33.509  1.00  0.00     0.074 A 
ATOM     47  C   UNL A   1      39.028  32.206  33.374  1.00  0.00     0.031 C 
ATOM     48  C   UNL A   1      40.060  28.329  27.768  1.00  0.00     0.029 A 
ATOM     49  C   UNL A   1      40.987  28.101  28.875  1.00  0.00     0.049 A 
ATOM     50  H   UNL A   1      40.918  28.945  30.778  1.00  0.00     0.167 HD
ATOM     51  C   UNL A   1      40.853  31.071  34.612  1.00  0.00     0.034 A 
ATOM     52  C   UNL A   1      42.052  27.276  28.846  1.00  0.00     0.034 A 
ATOM     53  C   UNL A   1      41.887  30.080  34.741  1.00  0.00     0.049 A 
ATOM     54  C   UNL A   1      42.882  27.112  30.090  1.00  0.00     0.074 A 
ATOM     55  C   UNL A   1      42.670  29.792  35.844  1.00  0.00     0.029 A 
ATOM     56  N   UNL A   1      42.298  29.229  33.727  1.00  0.00    -0.354 N 
ATOM     57  N   UNL A   1      42.738  27.689  31.260  1.00  0.00    -0.248 NA
ATOM     58  C   UNL A   1      43.995  26.155  30.027  1.00  0.00     0.031 C 
ATOM     59  C   UNL A   1      43.577  28.787  35.485  1.00  0.00     0.029 A 
ATOM     60  C   UNL A   1      43.338  28.429  34.168  1.00  0.00     0.049 A 
ATOM     61  H   UNL A   1      41.907  29.198  32.823  1.00  0.00     0.167 HD
ATOM     62  C   UNL A   1      43.724  27.150  32.078  1.00  0.00     0.074 A 
ATOM     63  C   UNL A   1      44.442  26.179  31.276  1.00  0.00     0.031 C 
ATOM     64  C   UNL A   1      44.020  27.442  33.369  1.00  0.00     0.034 A 
BRANCH  51  65
ATOM     65  C   UNL A   1      40.590  31.991  35.777  1.00  0.00     0.023 A 
ATOM     66  C   UNL A   1      41.493  33.036  36.061  1.00  0.00     0.012 A 
ATOM     67  C   UNL A   1      39.430  31.849  36.564  1.00  0.00     0.148 A 
ATOM     68  C   UNL A   1      41.267  33.902  37.130  1.00  0.00     0.002 A 
ATOM     69  C   UNL A   1      39.189  32.743  37.601  1.00  0.00     0.091 A 
ATOM     70  F   UNL A   1      38.595  30.836  36.295  1.00  0.00    -0.205 F 
ATOM     71  C   UNL A   1      40.110  33.761  37.893  1.00  0.00     0.022 A 
BRANCH  69  72
ATOM     72  S   UNL A   1      37.692  32.688  38.594  1.00  0.00     0.127 S 
ATOM     73  O   UNL A   1      37.931  33.771  39.547  1.00  0.00    -0.237 OA
ATOM     74  O   UNL A   1      36.654  32.967  37.602  1.00  0.00    -0.237 OA
ATOM     75  O   UNL A   1      37.640  31.350  39.164  1.00  0.00    -0.744 OA
ENDBRANCH  69  72
ENDBRANCH  51  65
BRANCH  52  76
ATOM     76  C   UNL A   1      42.358  26.512  27.604  1.00  0.00     0.023 A 
ATOM     77  C   UNL A   1      43.080  27.126  26.564  1.00  0.00     0.012 A 
ATOM     78  C   UNL A   1      41.983  25.159  27.476  1.00  0.00     0.148 A 
ATOM     79  C   UNL A   1      43.405  26.415  25.409  1.00  0.00     0.002 A 
ATOM     80  C   UNL A   1      42.359  24.441  26.348  1.00  0.00     0.091 A 
ATOM     81  F   UNL A   1      41.283  24.597  28.472  1.00  0.00    -0.205 F 
ATOM     82  C   UNL A   1      43.056  25.070  25.307  1.00  0.00     0.022 A 
BRANCH  80  83
ATOM     83  S   UNL A   1      42.076  22.673  26.193  1.00  0.00     0.127 S 
ATOM     84  O   UNL A   1      42.749  22.372  24.932  1.00  0.00    -0.237 OA
ATOM     85  O   UNL A   1      42.743  22.157  27.388  1.00  0.00    -0.237 OA
ATOM     86  O   UNL A   1      40.629  22.504  26.193  1.00  0.00    -0.744 OA
ENDBRANCH  80  83
ENDBRANCH  52  76
BRANCH  64  87
ATOM     87  C   UNL A   1      45.163  26.695  34.007  1.00  0.00     0.023 A 
ATOM     88  C   UNL A   1      46.460  27.246  33.980  1.00  0.00     0.012 A 
ATOM     89  C   UNL A   1      44.942  25.483  34.689  1.00  0.00     0.148 A 
ATOM     90  C   UNL A   1      47.525  26.585  34.591  1.00  0.00     0.002 A 
ATOM     91  C   UNL A   1      45.999  24.854  35.337  1.00  0.00     0.091 A 
ATOM     92  F   UNL A   1      43.706  24.962  34.687  1.00  0.00    -0.205 F 
ATOM     93  C   UNL A   1      47.293  25.397  35.279  1.00  0.00     0.022 A 
BRANCH  91  94
ATOM     94  S   UNL A   1      45.773  23.372  36.327  1.00  0.00     0.127 S 
ATOM     95  O   UNL A   1      47.149  23.056  36.710  1.00  0.00    -0.237 OA
ATOM     96  O   UNL A   1      44.931  23.853  37.423  1.00  0.00    -0.237 OA
ATOM     97  O   UNL A   1      45.127  22.402  35.453  1.00  0.00    -0.744 OA
ENDBRANCH  91  94
ENDBRANCH  64  87
ENDBRANCH  38  39
ENDBRANCH  31  33
ENDBRANCH  30  31
ENDBRANCH  29  30
ENDBRANCH  28  29
ENDBRANCH   1  28
TORSDOF 20
ENDMDL
MODEL 2
REMARK VINA RESULT:     -10.8      1.437      7.499
REMARK SMILES COc1ccc(C(=O)Nc2cc(C(=O)OCCOCCOC(=O)c3ccc(-c4c5nc(c(-c6cccc(S(=O)(=O)[O-])c6F)c6ccc([nH]6)c(-c6cccc(S(=O)(=O)[O-])c6F)c6nc(c(-c7cccc(S(=O)(=O)[O-])c7F)c7ccc4[nH]7)C=C6)C=C5)cc3)c(Cl)cc2Cl)cc1Cl
REMARK SMILES IDX 18 1 17 2 16 3 15 4 13 5 14 6 12 7 10 8 11 9 90 10 89 11
REMARK SMILES IDX 91 12 87 13 88 14 9 15 7 16 8 17 6 19 3 20 4 21 93 22 5 23
REMARK SMILES IDX 92 24 94 25 2 26 1 27 19 28 20 29 21 30 22 31 23 32 24 33
REMARK SMILES IDX 25 34 86 35 26 36 85 37 27 38 28 39 29 40 79 41 30 42 84 43
REMARK SMILES IDX 78 44 80 45 31 46 83 47 77 48 76 49 32 51 64 52 44 53 63 54
REMARK SMILES IDX 45 55 48 56 62 57 81 58 46 59 47 60 61 62 82 63 49 64 33 65
REMARK SMILES IDX 34 66 42 67 35 68 37 69 43 70 36 71 38 72 39 73 40 74 41 75
REMARK SMILES IDX 65 76 66 77 74 78 67 79 69 80 75 81 68 82 70 83 71 84 72 85
REMARK SMILES IDX 73 86 50 87 51 88 59 89 52 90 54 91 60 92 53 93 55 94 56 95
REMARK SMILES IDX 57 96 58 97
REMARK H PARENT 9 18 80 50 48 61
REMARK Flexibility Score: inf
ROOT
ATOM      1  O   UNL A   1      33.452  31.021  27.471  1.00  0.00    -0.374 OA
ENDROOT
BRANCH   1   2
ATOM      2  C   UNL A   1      33.328  29.682  26.998  1.00  0.00     0.202 C 
BRANCH   2   3
ATOM      3  C   UNL A   1      32.708  29.436  25.619  1.00  0.00     0.261 C 
BRANCH   3   4
ATOM      4  O   UNL A   1      31.410  28.822  25.684  1.00  0.00    -0.460 OA
BRANCH   4   5
ATOM      5  C   UNL A   1      31.408  27.523  26.060  1.00  0.00     0.339 C 
ATOM      6  O   UNL A   1      31.062  27.063  27.137  1.00  0.00    -0.246 OA
BRANCH   5   7
ATOM      7  C   UNL A   1      31.699  26.641  24.916  1.00  0.00     0.080 A 
ATOM      8  C   UNL A   1      33.409  25.358  23.756  1.00  0.00     0.061 A 
ATOM      9  C   UNL A   1      32.974  26.043  24.893  1.00  0.00     0.045 A 
ATOM     10  C   UNL A   1      32.573  25.303  22.632  1.00  0.00     0.066 A 
ATOM     11  C   UNL A   1      31.278  25.827  22.683  1.00  0.00     0.044 A 
ATOM     12  Cl  UNL A   1      33.089  24.519  21.180  1.00  0.00    -0.082 Cl
ATOM     13  C   UNL A   1      30.836  26.498  23.828  1.00  0.00     0.057 A 
ATOM     14  Cl  UNL A   1      29.248  27.167  23.797  1.00  0.00    -0.083 Cl
BRANCH   8  15
ATOM     15  N   UNL A   1      34.696  24.791  23.702  1.00  0.00    -0.321 N 
ATOM     16  C   UNL A   1      35.176  23.655  24.315  1.00  0.00     0.255 C 
ATOM     17  O   UNL A   1      36.382  23.514  24.507  1.00  0.00    -0.269 OA
ATOM     18  H   UNL A   1      35.347  25.276  23.144  1.00  0.00     0.170 HD
BRANCH  16  19
ATOM     19  C   UNL A   1      34.264  22.504  24.582  1.00  0.00     0.041 A 
ATOM     20  C   UNL A   1      32.751  20.153  25.054  1.00  0.00     0.137 A 
ATOM     21  C   UNL A   1      33.550  20.729  26.058  1.00  0.00     0.049 A 
ATOM     22  C   UNL A   1      32.751  20.752  23.790  1.00  0.00     0.083 A 
ATOM     23  C   UNL A   1      34.305  21.884  25.830  1.00  0.00     0.018 A 
ATOM     24  C   UNL A   1      33.504  21.918  23.562  1.00  0.00     0.038 A 
ATOM     25  Cl  UNL A   1      31.926  20.138  22.400  1.00  0.00    -0.080 Cl
BRANCH  20  26
ATOM     26  O   UNL A   1      32.118  19.029  25.502  1.00  0.00    -0.495 OA
ATOM     27  C   UNL A   1      32.736  17.755  25.408  1.00  0.00     0.278 C 
ENDBRANCH  20  26
ENDBRANCH  16  19
ENDBRANCH   8  15
ENDBRANCH   5   7
ENDBRANCH   4   5
ENDBRANCH   3   4
ENDBRANCH   2   3
ENDBRANCH   1   2
BRANCH   1  28
ATOM     28  C   UNL A   1      32.375  31.920  27.264  1.00  0.00     0.202 C 
BRANCH  28  29
ATOM     29  C   UNL A   1      32.638  33.432  27.181  1.00  0.00     0.261 C 
BRANCH  29  30
ATOM     30  O   UNL A   1      32.333  34.206  28.341  1.00  0.00    -0.460 OA
BRANCH  30  31
ATOM     31  C   UNL A   1      33.306  35.068  28.719  1.00  0.00     0.338 C 
ATOM     32  O   UNL A   1      33.272  36.291  28.697  1.00  0.00    -0.246 OA
BRANCH  31  33
ATOM     33  C   UNL A   1      34.435  34.300  29.256  1.00  0.00     0.060 A 
ATOM     34  C   UNL A   1      34.181  33.310  30.211  1.00  0.00     0.016 A 
ATOM     35  C   UNL A   1      35.740  34.587  28.848  1.00  0.00     0.016 A 
ATOM     36  C   UNL A   1      35.244  32.602  30.769  1.00  0.00     0.010 A 
ATOM     37  C   UNL A   1      36.803  33.878  29.412  1.00  0.00     0.010 A 
ATOM     38  C   UNL A   1      36.561  32.895  30.387  1.00  0.00    -0.014 A 
BRANCH  38  39
ATOM     39  C   UNL A   1      37.688  32.201  31.051  1.00  0.00     0.031 A 
ATOM     40  C   UNL A   1      38.465  31.155  30.305  1.00  0.00     0.074 A 
ATOM     41  C   UNL A   1      37.999  32.500  32.325  1.00  0.00     0.049 A 
ATOM     42  N   UNL A   1      39.502  30.463  30.695  1.00  0.00    -0.248 NA
ATOM     43  C   UNL A   1      38.010  30.841  28.940  1.00  0.00     0.031 C 
ATOM     44  C   UNL A   1      37.284  33.466  33.159  1.00  0.00     0.029 A 
ATOM     45  N   UNL A   1      38.979  32.004  33.146  1.00  0.00    -0.354 N 
ATOM     46  C   UNL A   1      39.811  29.614  29.640  1.00  0.00     0.074 A 
ATOM     47  C   UNL A   1      38.841  29.868  28.596  1.00  0.00     0.031 C 
ATOM     48  C   UNL A   1      37.836  33.476  34.384  1.00  0.00     0.029 A 
ATOM     49  C   UNL A   1      38.931  32.510  34.423  1.00  0.00     0.049 A 
ATOM     50  H   UNL A   1      39.652  31.350  32.850  1.00  0.00     0.167 HD
ATOM     51  C   UNL A   1      40.821  28.716  29.545  1.00  0.00     0.034 A 
ATOM     52  C   UNL A   1      39.678  32.217  35.505  1.00  0.00     0.034 A 
ATOM     53  C   UNL A   1      41.788  28.481  30.583  1.00  0.00     0.049 A 
ATOM     54  C   UNL A   1      40.807  31.231  35.369  1.00  0.00     0.074 A 
ATOM     55  C   UNL A   1      42.897  27.654  30.555  1.00  0.00     0.029 A 
ATOM     56  N   UNL A   1      41.752  29.057  31.844  1.00  0.00    -0.354 N 
ATOM     57  N   UNL A   1      41.190  30.559  34.309  1.00  0.00    -0.248 NA
ATOM     58  C   UNL A   1      41.631  30.993  36.561  1.00  0.00     0.031 C 
ATOM     59  C   UNL A   1      43.512  27.706  31.812  1.00  0.00     0.029 A 
ATOM     60  C   UNL A   1      42.804  28.588  32.612  1.00  0.00     0.049 A 
ATOM     61  H   UNL A   1      41.075  29.704  32.149  1.00  0.00     0.167 HD
ATOM     62  C   UNL A   1      42.313  29.837  34.699  1.00  0.00     0.074 A 
ATOM     63  C   UNL A   1      42.563  30.176  36.086  1.00  0.00     0.031 C 
ATOM     64  C   UNL A   1      43.060  28.961  33.981  1.00  0.00     0.034 A 
BRANCH  51  65
ATOM     65  C   UNL A   1      40.942  27.936  28.260  1.00  0.00     0.023 A 
ATOM     66  C   UNL A   1      41.530  28.539  27.129  1.00  0.00     0.012 A 
ATOM     67  C   UNL A   1      40.514  26.597  28.184  1.00  0.00     0.148 A 
ATOM     68  C   UNL A   1      41.657  27.834  25.933  1.00  0.00     0.002 A 
ATOM     69  C   UNL A   1      40.684  25.886  27.002  1.00  0.00     0.091 A 
ATOM     70  F   UNL A   1      39.936  26.047  29.262  1.00  0.00    -0.205 F 
ATOM     71  C   UNL A   1      41.244  26.505  25.873  1.00  0.00     0.022 A 
BRANCH  69  72
ATOM     72  S   UNL A   1      40.249  24.150  26.848  1.00  0.00     0.127 S 
ATOM     73  O   UNL A   1      41.149  23.714  25.781  1.00  0.00    -0.237 OA
ATOM     74  O   UNL A   1      40.581  23.630  28.175  1.00  0.00    -0.237 OA
ATOM     75  O   UNL A   1      38.830  24.120  26.524  1.00  0.00    -0.744 OA
ENDBRANCH  69  72
ENDBRANCH  51  65
BRANCH  52  76
ATOM     76  C   UNL A   1      39.403  32.907  36.797  1.00  0.00     0.023 A 
ATOM     77  C   UNL A   1      40.034  34.131  37.084  1.00  0.00     0.012 A 
ATOM     78  C   UNL A   1      38.475  32.379  37.717  1.00  0.00     0.148 A 
ATOM     79  C   UNL A   1      39.763  34.808  38.273  1.00  0.00     0.002 A 
ATOM     80  C   UNL A   1      38.166  33.086  38.872  1.00  0.00     0.091 A 
ATOM     81  F   UNL A   1      37.896  31.204  37.431  1.00  0.00    -0.205 F 
ATOM     82  C   UNL A   1      38.820  34.293  39.160  1.00  0.00     0.022 A 
BRANCH  80  83
ATOM     83  S   UNL A   1      36.866  32.569  40.000  1.00  0.00     0.127 S 
ATOM     84  O   UNL A   1      37.348  31.260  40.431  1.00  0.00    -0.237 OA
ATOM     85  O   UNL A   1      36.923  33.615  41.022  1.00  0.00    -0.237 OA
ATOM     86  O   UNL A   1      35.641  32.564  39.213  1.00  0.00    -0.744 OA
ENDBRANCH  80  83
ENDBRANCH  52  76
BRANCH  64  87
ATOM     87  C   UNL A   1      44.230  28.313  34.675  1.00  0.00     0.023 A 
ATOM     88  C   UNL A   1      45.466  28.985  34.736  1.00  0.00     0.012 A 
ATOM     89  C   UNL A   1      44.087  27.071  35.323  1.00  0.00     0.148 A 
ATOM     90  C   UNL A   1      46.552  28.416  35.401  1.00  0.00     0.002 A 
ATOM     91  C   UNL A   1      45.159  26.531  36.025  1.00  0.00     0.091 A 
ATOM     92  F   UNL A   1      42.909  26.435  35.238  1.00  0.00    -0.205 F 
ATOM     93  C   UNL A   1      46.396  27.196  36.055  1.00  0.00     0.022 A 
BRANCH  91  94
ATOM     94  S   UNL A   1      45.018  25.013  36.976  1.00  0.00     0.127 S 
ATOM     95  O   UNL A   1      46.036  25.212  38.007  1.00  0.00    -0.237 OA
ATOM     96  O   UNL A   1      43.639  25.075  37.460  1.00  0.00    -0.237 OA
ATOM     97  O   UNL A   1      45.279  23.929  36.038  1.00  0.00    -0.744 OA
ENDBRANCH  91  94
ENDBRANCH  64  87
ENDBRANCH  38  39
ENDBRANCH  31  33
ENDBRANCH  30  31
ENDBRANCH  29  30
ENDBRANCH  28  29
ENDBRANCH   1  28
TORSDOF 20
ENDMDL
MODEL 3
REMARK VINA RESULT:     -10.4      2.297      7.951
REMARK SMILES COc1ccc(C(=O)Nc2cc(C(=O)OCCOCCOC(=O)c3ccc(-c4c5nc(c(-c6cccc(S(=O)(=O)[O-])c6F)c6ccc([nH]6)c(-c6cccc(S(=O)(=O)[O-])c6F)c6nc(c(-c7cccc(S(=O)(=O)[O-])c7F)c7ccc4[nH]7)C=C6)C=C5)cc3)c(Cl)cc2Cl)cc1Cl
REMARK SMILES IDX 18 1 17 2 16 3 15 4 13 5 14 6 12 7 10 8 11 9 90 10 89 11
REMARK SMILES IDX 91 12 87 13 88 14 9 15 7 16 8 17 6 19 3 20 4 21 93 22 5 23
REMARK SMILES IDX 92 24 94 25 2 26 1 27 19 28 20 29 21 30 22 31 23 32 24 33
REMARK SMILES IDX 25 34 86 35 26 36 85 37 27 38 28 39 29 40 79 41 30 42 84 43
REMARK SMILES IDX 78 44 80 45 31 46 83 47 77 48 76 49 32 51 64 52 44 53 63 54
REMARK SMILES IDX 45 55 48 56 62 57 81 58 46 59 47 60 61 62 82 63 49 64 33 65
REMARK SMILES IDX 34 66 42 67 35 68 37 69 43 70 36 71 38 72 39 73 40 74 41 75
REMARK SMILES IDX 65 76 66 77 74 78 67 79 69 80 75 81 68 82 70 83 71 84 72 85
REMARK SMILES IDX 73 86 50 87 51 88 59 89 52 90 54 91 60 92 53 93 55 94 56 95
REMARK SMILES IDX 57 96 58 97
REMARK H PARENT 9 18 80 50 48 61
REMARK Flexibility Score: inf
ROOT
ATOM      1  O   UNL A   1      34.261  31.070  27.415  1.00  0.00    -0.374 OA
ENDROOT
BRANCH   1   2
ATOM      2  C   UNL A   1      34.663  29.704  27.353  1.00  0.00     0.202 C 
BRANCH   2   3
ATOM      3  C   UNL A   1      33.587  28.615  27.295  1.00  0.00     0.261 C 
BRANCH   3   4
ATOM      4  O   UNL A   1      33.526  27.949  26.022  1.00  0.00    -0.460 OA
BRANCH   4   5
ATOM      5  C   UNL A   1      32.300  27.505  25.666  1.00  0.00     0.339 C 
ATOM      6  O   UNL A   1      31.253  27.643  26.279  1.00  0.00    -0.246 OA
BRANCH   5   7
ATOM      7  C   UNL A   1      32.309  26.973  24.292  1.00  0.00     0.080 A 
ATOM      8  C   UNL A   1      31.984  25.004  22.901  1.00  0.00     0.061 A 
ATOM      9  C   UNL A   1      31.827  25.660  24.124  1.00  0.00     0.045 A 
ATOM     10  C   UNL A   1      32.654  25.660  21.857  1.00  0.00     0.066 A 
ATOM     11  C   UNL A   1      33.060  26.989  21.998  1.00  0.00     0.044 A 
ATOM     12  Cl  UNL A   1      32.926  24.869  20.344  1.00  0.00    -0.082 Cl
ATOM     13  C   UNL A   1      32.887  27.652  23.218  1.00  0.00     0.057 A 
ATOM     14  Cl  UNL A   1      33.464  29.271  23.334  1.00  0.00    -0.083 Cl
BRANCH   8  15
ATOM     15  N   UNL A   1      31.546  23.678  22.730  1.00  0.00    -0.321 N 
ATOM     16  C   UNL A   1      32.256  22.503  22.844  1.00  0.00     0.255 C 
ATOM     17  O   UNL A   1      31.863  21.483  22.282  1.00  0.00    -0.269 OA
ATOM     18  H   UNL A   1      30.595  23.575  22.497  1.00  0.00     0.170 HD
BRANCH  16  19
ATOM     19  C   UNL A   1      33.399  22.406  23.797  1.00  0.00     0.041 A 
ATOM     20  C   UNL A   1      35.604  21.960  25.523  1.00  0.00     0.137 A 
ATOM     21  C   UNL A   1      35.784  22.260  24.162  1.00  0.00     0.049 A 
ATOM     22  C   UNL A   1      34.295  21.846  26.005  1.00  0.00     0.083 A 
ATOM     23  C   UNL A   1      34.700  22.473  23.303  1.00  0.00     0.018 A 
ATOM     24  C   UNL A   1      33.206  22.067  25.143  1.00  0.00     0.038 A 
ATOM     25  Cl  UNL A   1      33.865  21.379  27.613  1.00  0.00    -0.080 Cl
BRANCH  20  26
ATOM     26  O   UNL A   1      36.800  21.781  26.159  1.00  0.00    -0.495 OA
ATOM     27  C   UNL A   1      38.018  22.182  25.552  1.00  0.00     0.278 C 
ENDBRANCH  20  26
ENDBRANCH  16  19
ENDBRANCH   8  15
ENDBRANCH   5   7
ENDBRANCH   4   5
ENDBRANCH   3   4
ENDBRANCH   2   3
ENDBRANCH   1   2
BRANCH   1  28
ATOM     28  C   UNL A   1      32.889  31.385  27.247  1.00  0.00     0.202 C 
BRANCH  28  29
ATOM     29  C   UNL A   1      32.406  32.835  27.408  1.00  0.00     0.261 C 
BRANCH  29  30
ATOM     30  O   UNL A   1      33.410  33.840  27.545  1.00  0.00    -0.460 OA
BRANCH  30  31
ATOM     31  C   UNL A   1      33.406  34.486  28.735  1.00  0.00     0.338 C 
ATOM     32  O   UNL A   1      32.601  35.318  29.132  1.00  0.00    -0.246 OA
BRANCH  31  33
ATOM     33  C   UNL A   1      34.509  33.971  29.554  1.00  0.00     0.060 A 
ATOM     34  C   UNL A   1      35.817  34.350  29.234  1.00  0.00     0.016 A 
ATOM     35  C   UNL A   1      34.254  33.086  30.605  1.00  0.00     0.016 A 
ATOM     36  C   UNL A   1      36.882  33.834  29.970  1.00  0.00     0.010 A 
ATOM     37  C   UNL A   1      35.324  32.568  31.337  1.00  0.00     0.010 A 
ATOM     38  C   UNL A   1      36.644  32.926  31.011  1.00  0.00    -0.014 A 
BRANCH  38  39
ATOM     39  C   UNL A   1      37.787  32.315  31.727  1.00  0.00     0.031 A 
ATOM     40  C   UNL A   1      38.570  31.210  31.079  1.00  0.00     0.074 A 
ATOM     41  C   UNL A   1      38.108  32.743  32.962  1.00  0.00     0.049 A 
ATOM     42  N   UNL A   1      39.621  30.573  31.523  1.00  0.00    -0.248 NA
ATOM     43  C   UNL A   1      38.105  30.757  29.758  1.00  0.00     0.031 C 
ATOM     44  C   UNL A   1      37.389  33.778  33.704  1.00  0.00     0.029 A 
ATOM     45  N   UNL A   1      39.103  32.343  33.816  1.00  0.00    -0.354 N 
ATOM     46  C   UNL A   1      39.930  29.627  30.553  1.00  0.00     0.074 A 
ATOM     47  C   UNL A   1      38.946  29.765  29.502  1.00  0.00     0.031 C 
ATOM     48  C   UNL A   1      37.954  33.917  34.915  1.00  0.00     0.029 A 
ATOM     49  C   UNL A   1      39.062  32.972  35.037  1.00  0.00     0.049 A 
ATOM     50  H   UNL A   1      39.782  31.671  33.578  1.00  0.00     0.167 HD
ATOM     51  C   UNL A   1      40.951  28.737  30.536  1.00  0.00     0.034 A 
ATOM     52  C   UNL A   1      39.825  32.798  36.134  1.00  0.00     0.034 A 
ATOM     53  C   UNL A   1      41.933  28.618  31.580  1.00  0.00     0.049 A 
ATOM     54  C   UNL A   1      40.965  31.818  36.082  1.00  0.00     0.074 A 
ATOM     55  C   UNL A   1      43.052  27.806  31.621  1.00  0.00     0.029 A 
ATOM     56  N   UNL A   1      41.902  29.316  32.779  1.00  0.00    -0.354 N 
ATOM     57  N   UNL A   1      41.347  31.048  35.089  1.00  0.00    -0.248 NA
ATOM     58  C   UNL A   1      41.806  31.709  37.282  1.00  0.00     0.031 C 
ATOM     59  C   UNL A   1      43.679  27.990  32.860  1.00  0.00     0.029 A 
ATOM     60  C   UNL A   1      42.968  28.939  33.577  1.00  0.00     0.049 A 
ATOM     61  H   UNL A   1      41.219  29.981  33.027  1.00  0.00     0.167 HD
ATOM     62  C   UNL A   1      42.483  30.383  35.535  1.00  0.00     0.074 A 
ATOM     63  C   UNL A   1      42.743  30.861  36.879  1.00  0.00     0.031 C 
ATOM     64  C   UNL A   1      43.234  29.449  34.898  1.00  0.00     0.034 A 
BRANCH  51  65
ATOM     65  C   UNL A   1      41.069  27.835  29.334  1.00  0.00     0.023 A 
ATOM     66  C   UNL A   1      40.186  26.745  29.188  1.00  0.00     0.012 A 
ATOM     67  C   UNL A   1      42.023  28.090  28.329  1.00  0.00     0.148 A 
ATOM     68  C   UNL A   1      40.273  25.902  28.081  1.00  0.00     0.002 A 
ATOM     69  C   UNL A   1      42.075  27.271  27.207  1.00  0.00     0.091 A 
ATOM     70  F   UNL A   1      42.869  29.116  28.495  1.00  0.00    -0.205 F 
ATOM     71  C   UNL A   1      41.210  26.171  27.087  1.00  0.00     0.022 A 
BRANCH  69  72
ATOM     72  S   UNL A   1      43.198  27.578  25.839  1.00  0.00     0.127 S 
ATOM     73  O   UNL A   1      44.194  26.525  26.033  1.00  0.00    -0.237 OA
ATOM     74  O   UNL A   1      42.329  27.388  24.678  1.00  0.00    -0.237 OA
ATOM     75  O   UNL A   1      43.681  28.940  26.017  1.00  0.00    -0.744 OA
ENDBRANCH  69  72
ENDBRANCH  51  65
BRANCH  52  76
ATOM     76  C   UNL A   1      39.555  33.609  37.354  1.00  0.00     0.023 A 
ATOM     77  C   UNL A   1      40.021  34.934  37.430  1.00  0.00     0.012 A 
ATOM     78  C   UNL A   1      38.789  33.087  38.415  1.00  0.00     0.148 A 
ATOM     79  C   UNL A   1      39.748  35.720  38.550  1.00  0.00     0.002 A 
ATOM     80  C   UNL A   1      38.472  33.893  39.502  1.00  0.00     0.091 A 
ATOM     81  F   UNL A   1      38.366  31.818  38.329  1.00  0.00    -0.205 F 
ATOM     82  C   UNL A   1      38.963  35.204  39.579  1.00  0.00     0.022 A 
BRANCH  80  83
ATOM     83  S   UNL A   1      37.354  33.359  40.803  1.00  0.00     0.127 S 
ATOM     84  O   UNL A   1      38.142  32.325  41.469  1.00  0.00    -0.237 OA
ATOM     85  O   UNL A   1      37.178  34.592  41.572  1.00  0.00    -0.237 OA
ATOM     86  O   UNL A   1      36.151  32.897  40.125  1.00  0.00    -0.744 OA
ENDBRANCH  80  83
ENDBRANCH  52  76
BRANCH  64  87
ATOM     87  C   UNL A   1      44.420  28.887  35.639  1.00  0.00     0.023 A 
ATOM     88  C   UNL A   1      45.600  29.649  35.749  1.00  0.00     0.012 A 
ATOM     89  C   UNL A   1      44.343  27.637  36.282  1.00  0.00     0.148 A 
ATOM     90  C   UNL A   1      46.698  29.160  36.457  1.00  0.00     0.002 A 
ATOM     91  C   UNL A   1      45.424  27.177  37.027  1.00  0.00     0.091 A 
ATOM     92  F   UNL A   1      43.220  26.916  36.151  1.00  0.00    -0.205 F 
ATOM     93  C   UNL A   1      46.606  27.931  37.105  1.00  0.00     0.022 A 
BRANCH  91  94
ATOM     94  S   UNL A   1      45.357  25.651  37.974  1.00  0.00     0.127 S 
ATOM     95  O   UNL A   1      44.329  25.961  38.967  1.00  0.00    -0.237 OA
ATOM     96  O   UNL A   1      44.954  24.674  36.963  1.00  0.00    -0.237 OA
ATOM     97  O   UNL A   1      46.700  25.451  38.503  1.00  0.00    -0.744 OA
ENDBRANCH  91  94
ENDBRANCH  64  87
ENDBRANCH  38  39
ENDBRANCH  31  33
ENDBRANCH  30  31
ENDBRANCH  29  30
ENDBRANCH  28  29
ENDBRANCH   1  28
TORSDOF 20
ENDMDL
