MODEL 1
REMARK VINA RESULT:     -11.0      0.000      0.000
REMARK SMILES CCc1c(C)nc(Nc2cc(Cl)ccc2C)nc1OCC(=O)OCCOCCOC(=O)c1ccc(-c2c3nc(c(-c4cccc(S(=O)(=O)[O-])c4F)c4ccc([nH]4)c(-c4cccc(S(=O)(=O)[O-])c4F)c4nc(c(-c5cccc(S(=O)(=O)[O-])c5F)c5ccc2[nH]5)C=C4)C=C3)cc1
REMARK SMILES IDX 25 1 24 2 23 3 21 4 22 5 20 6 19 7 18 8 3 9 4 10 5 11 6 12
REMARK SMILES IDX 17 13 7 14 2 15 1 16 8 17 9 19 10 20 15 21 11 22 14 23 16 24
REMARK SMILES IDX 12 25 13 26 26 27 27 28 28 29 29 30 30 31 31 32 32 33 33 34
REMARK SMILES IDX 94 35 34 36 93 37 35 38 36 39 37 40 87 41 38 42 92 43 86 44
REMARK SMILES IDX 88 45 39 46 91 47 85 48 84 49 40 51 72 52 52 53 71 54 53 55
REMARK SMILES IDX 56 56 70 57 89 58 54 59 55 60 69 62 90 63 57 64 41 65 42 66
REMARK SMILES IDX 50 67 43 68 45 69 51 70 44 71 46 72 47 73 48 74 49 75 73 76
REMARK SMILES IDX 74 77 82 78 75 79 77 80 83 81 76 82 78 83 79 84 80 85 81 86
REMARK SMILES IDX 58 87 59 88 67 89 60 90 62 91 68 92 61 93 63 94 64 95 65 96
REMARK SMILES IDX 66 97
REMARK H PARENT 8 18 88 50 56 61
REMARK Flexibility Score: inf
ROOT
ATOM      1  C   UNL A   1      32.846  28.714  27.284  1.00  0.00     0.202 C 
ENDROOT
BRANCH   1   2
ATOM      2  C   UNL A   1      32.470  27.501  26.422  1.00  0.00     0.261 C 
BRANCH   2   3
ATOM      3  O   UNL A   1      31.154  27.019  26.780  1.00  0.00    -0.461 OA
BRANCH   3   4
ATOM      4  C   UNL A   1      30.833  25.784  26.317  1.00  0.00     0.344 C 
ATOM      5  O   UNL A   1      31.352  24.738  26.693  1.00  0.00    -0.248 OA
BRANCH   4   6
ATOM      6  C   UNL A   1      29.738  25.811  25.248  1.00  0.00     0.353 C 
BRANCH   6   7
ATOM      7  O   UNL A   1      30.004  25.845  23.871  1.00  0.00    -0.465 OA
BRANCH   7   8
ATOM      8  C   UNL A   1      31.172  26.077  23.235  1.00  0.00     0.222 A 
ATOM      9  C   UNL A   1      31.743  27.264  22.782  1.00  0.00     0.035 A 
ATOM     10  C   UNL A   1      33.080  27.124  22.373  1.00  0.00     0.050 A 
ATOM     11  C   UNL A   1      34.026  28.269  22.145  1.00  0.00     0.067 C 
ATOM     12  N   UNL A   1      33.709  25.931  22.276  1.00  0.00    -0.218 NA
ATOM     13  N   UNL A   1      31.814  24.884  23.129  1.00  0.00    -0.177 NA
ATOM     14  C   UNL A   1      33.051  24.831  22.633  1.00  0.00     0.230 A 
BRANCH   9  15
ATOM     15  C   UNL A   1      31.049  28.594  22.614  1.00  0.00     0.040 C 
ATOM     16  C   UNL A   1      30.401  29.244  23.830  1.00  0.00     0.009 C 
ENDBRANCH   9  15
BRANCH  14  17
ATOM     17  N   UNL A   1      33.666  23.583  22.557  1.00  0.00    -0.324 N 
ATOM     18  H   UNL A   1      33.668  23.165  21.666  1.00  0.00     0.170 HD
BRANCH  17  19
ATOM     19  C   UNL A   1      34.282  22.843  23.576  1.00  0.00     0.045 A 
ATOM     20  C   UNL A   1      35.542  23.251  24.037  1.00  0.00     0.047 A 
ATOM     21  C   UNL A   1      33.736  21.645  24.085  1.00  0.00    -0.027 A 
ATOM     22  C   UNL A   1      36.188  22.552  25.058  1.00  0.00     0.043 A 
ATOM     23  C   UNL A   1      34.391  20.962  25.127  1.00  0.00     0.007 A 
ATOM     24  C   UNL A   1      32.450  21.074  23.565  1.00  0.00     0.046 C 
ATOM     25  Cl  UNL A   1      37.714  23.099  25.639  1.00  0.00    -0.084 Cl
ATOM     26  C   UNL A   1      35.609  21.421  25.620  1.00  0.00     0.021 A 
ENDBRANCH  17  19
ENDBRANCH  14  17
ENDBRANCH   7   8
ENDBRANCH   6   7
ENDBRANCH   4   6
ENDBRANCH   3   4
ENDBRANCH   2   3
ENDBRANCH   1   2
BRANCH   1  27
ATOM     27  O   UNL A   1      33.120  29.921  26.556  1.00  0.00    -0.374 OA
BRANCH  27  28
ATOM     28  C   UNL A   1      33.763  30.955  27.287  1.00  0.00     0.202 C 
BRANCH  28  29
ATOM     29  C   UNL A   1      32.990  32.239  27.527  1.00  0.00     0.261 C 
BRANCH  29  30
ATOM     30  O   UNL A   1      33.798  33.386  27.397  1.00  0.00    -0.460 OA
BRANCH  30  31
ATOM     31  C   UNL A   1      33.587  34.263  28.391  1.00  0.00     0.338 C 
ATOM     32  O   UNL A   1      32.685  35.081  28.507  1.00  0.00    -0.246 OA
BRANCH  31  33
ATOM     33  C   UNL A   1      34.542  33.933  29.435  1.00  0.00     0.060 A 
ATOM     34  C   UNL A   1      35.884  34.156  29.131  1.00  0.00     0.016 A 
ATOM     35  C   UNL A   1      34.121  33.435  30.675  1.00  0.00     0.016 A 
ATOM     36  C   UNL A   1      36.838  33.757  30.039  1.00  0.00     0.010 A 
ATOM     37  C   UNL A   1      35.080  33.054  31.595  1.00  0.00     0.010 A 
ATOM     38  C   UNL A   1      36.431  33.148  31.235  1.00  0.00    -0.014 A 
BRANCH  38  39
ATOM     39  C   UNL A   1      37.451  32.415  31.987  1.00  0.00     0.031 A 
ATOM     40  C   UNL A   1      38.148  31.282  31.296  1.00  0.00     0.074 A 
ATOM     41  C   UNL A   1      37.799  32.867  33.199  1.00  0.00     0.049 A 
ATOM     42  N   UNL A   1      39.179  30.592  31.691  1.00  0.00    -0.248 NA
ATOM     43  C   UNL A   1      37.620  30.873  29.979  1.00  0.00     0.031 C 
ATOM     44  C   UNL A   1      37.149  33.976  33.901  1.00  0.00     0.029 A 
ATOM     45  N   UNL A   1      38.794  32.467  34.038  1.00  0.00    -0.354 N 
ATOM     46  C   UNL A   1      39.415  29.662  30.686  1.00  0.00     0.074 A 
ATOM     47  C   UNL A   1      38.404  29.851  29.674  1.00  0.00     0.031 C 
ATOM     48  C   UNL A   1      37.775  34.174  35.072  1.00  0.00     0.029 A 
ATOM     49  C   UNL A   1      38.849  33.195  35.199  1.00  0.00     0.049 A 
ATOM     50  H   UNL A   1      39.413  31.729  33.833  1.00  0.00     0.167 HD
ATOM     51  C   UNL A   1      40.407  28.748  30.614  1.00  0.00     0.034 A 
ATOM     52  C   UNL A   1      39.686  33.068  36.243  1.00  0.00     0.034 A 
ATOM     53  C   UNL A   1      41.399  28.602  31.642  1.00  0.00     0.049 A 
ATOM     54  C   UNL A   1      40.776  32.038  36.135  1.00  0.00     0.074 A 
ATOM     55  C   UNL A   1      42.466  27.726  31.697  1.00  0.00     0.029 A 
ATOM     56  N   UNL A   1      41.435  29.357  32.807  1.00  0.00    -0.354 N 
ATOM     57  N   UNL A   1      41.044  31.220  35.143  1.00  0.00    -0.248 NA
ATOM     58  C   UNL A   1      41.704  31.943  37.265  1.00  0.00     0.031 C 
ATOM     59  C   UNL A   1      43.127  27.932  32.913  1.00  0.00     0.029 A 
ATOM     60  C   UNL A   1      42.499  28.965  33.594  1.00  0.00     0.049 A 
ATOM     61  H   UNL A   1      40.794  30.068  33.038  1.00  0.00     0.167 HD
ATOM     62  C   UNL A   1      42.189  30.532  35.514  1.00  0.00     0.074 A 
ATOM     63  C   UNL A   1      42.579  31.058  36.810  1.00  0.00     0.031 C 
ATOM     64  C   UNL A   1      42.857  29.545  34.865  1.00  0.00     0.034 A 
BRANCH  51  65
ATOM     65  C   UNL A   1      40.461  27.862  29.397  1.00  0.00     0.023 A 
ATOM     66  C   UNL A   1      39.582  26.764  29.282  1.00  0.00     0.012 A 
ATOM     67  C   UNL A   1      41.366  28.130  28.353  1.00  0.00     0.148 A 
ATOM     68  C   UNL A   1      39.622  25.933  28.163  1.00  0.00     0.002 A 
ATOM     69  C   UNL A   1      41.369  27.325  27.219  1.00  0.00     0.091 A 
ATOM     70  F   UNL A   1      42.216  29.157  28.493  1.00  0.00    -0.205 F 
ATOM     71  C   UNL A   1      40.507  26.220  27.127  1.00  0.00     0.022 A 
BRANCH  69  72
ATOM     72  S   UNL A   1      42.419  27.652  25.799  1.00  0.00     0.127 S 
ATOM     73  O   UNL A   1      41.889  28.931  25.326  1.00  0.00    -0.237 OA
ATOM     74  O   UNL A   1      43.744  27.730  26.412  1.00  0.00    -0.237 OA
ATOM     75  O   UNL A   1      42.230  26.529  24.891  1.00  0.00    -0.744 OA
ENDBRANCH  69  72
ENDBRANCH  51  65
BRANCH  52  76
ATOM     76  C   UNL A   1      39.545  33.958  37.426  1.00  0.00     0.023 A 
ATOM     77  C   UNL A   1      40.035  35.277  37.379  1.00  0.00     0.012 A 
ATOM     78  C   UNL A   1      38.888  33.510  38.590  1.00  0.00     0.148 A 
ATOM     79  C   UNL A   1      39.909  36.120  38.484  1.00  0.00     0.002 A 
ATOM     80  C   UNL A   1      38.713  34.373  39.664  1.00  0.00     0.091 A 
ATOM     81  F   UNL A   1      38.436  32.249  38.618  1.00  0.00    -0.205 F 
ATOM     82  C   UNL A   1      39.240  35.673  39.621  1.00  0.00     0.022 A 
BRANCH  80  83
ATOM     83  S   UNL A   1      37.743  33.920  41.105  1.00  0.00     0.127 S 
ATOM     84  O   UNL A   1      36.577  33.290  40.494  1.00  0.00    -0.237 OA
ATOM     85  O   UNL A   1      38.646  33.005  41.804  1.00  0.00    -0.237 OA
ATOM     86  O   UNL A   1      37.493  35.167  41.815  1.00  0.00    -0.744 OA
ENDBRANCH  80  83
ENDBRANCH  52  76
BRANCH  64  87
ATOM     87  C   UNL A   1      44.087  29.008  35.542  1.00  0.00     0.023 A 
ATOM     88  C   UNL A   1      45.344  29.591  35.285  1.00  0.00     0.012 A 
ATOM     89  C   UNL A   1      43.986  27.947  36.461  1.00  0.00     0.148 A 
ATOM     90  C   UNL A   1      46.492  29.084  35.889  1.00  0.00     0.002 A 
ATOM     91  C   UNL A   1      45.126  27.488  37.105  1.00  0.00     0.091 A 
ATOM     92  F   UNL A   1      42.782  27.398  36.678  1.00  0.00    -0.205 F 
ATOM     93  C   UNL A   1      46.382  28.042  36.806  1.00  0.00     0.022 A 
BRANCH  91  94
ATOM     94  S   UNL A   1      45.061  26.225  38.377  1.00  0.00     0.127 S 
ATOM     95  O   UNL A   1      44.143  26.824  39.343  1.00  0.00    -0.237 OA
ATOM     96  O   UNL A   1      44.519  25.078  37.648  1.00  0.00    -0.237 OA
ATOM     97  O   UNL A   1      46.432  26.050  38.838  1.00  0.00    -0.744 OA
ENDBRANCH  91  94
ENDBRANCH  64  87
ENDBRANCH  38  39
ENDBRANCH  31  33
ENDBRANCH  30  31
ENDBRANCH  29  30
ENDBRANCH  28  29
ENDBRANCH  27  28
ENDBRANCH   1  27
TORSDOF 22
ENDMDL
MODEL 2
REMARK VINA RESULT:     -10.4      2.465      8.137
REMARK SMILES CCc1c(C)nc(Nc2cc(Cl)ccc2C)nc1OCC(=O)OCCOCCOC(=O)c1ccc(-c2c3nc(c(-c4cccc(S(=O)(=O)[O-])c4F)c4ccc([nH]4)c(-c4cccc(S(=O)(=O)[O-])c4F)c4nc(c(-c5cccc(S(=O)(=O)[O-])c5F)c5ccc2[nH]5)C=C4)C=C3)cc1
REMARK SMILES IDX 25 1 24 2 23 3 21 4 22 5 20 6 19 7 18 8 3 9 4 10 5 11 6 12
REMARK SMILES IDX 17 13 7 14 2 15 1 16 8 17 9 19 10 20 15 21 11 22 14 23 16 24
REMARK SMILES IDX 12 25 13 26 26 27 27 28 28 29 29 30 30 31 31 32 32 33 33 34
REMARK SMILES IDX 94 35 34 36 93 37 35 38 36 39 37 40 87 41 38 42 92 43 86 44
REMARK SMILES IDX 88 45 39 46 91 47 85 48 84 49 40 51 72 52 52 53 71 54 53 55
REMARK SMILES IDX 56 56 70 57 89 58 54 59 55 60 69 62 90 63 57 64 41 65 42 66
REMARK SMILES IDX 50 67 43 68 45 69 51 70 44 71 46 72 47 73 48 74 49 75 73 76
REMARK SMILES IDX 74 77 82 78 75 79 77 80 83 81 76 82 78 83 79 84 80 85 81 86
REMARK SMILES IDX 58 87 59 88 67 89 60 90 62 91 68 92 61 93 63 94 64 95 65 96
REMARK SMILES IDX 66 97
REMARK H PARENT 8 18 88 50 56 61
REMARK Flexibility Score: inf
ROOT
ATOM      1  C   UNL A   1      33.474  28.436  26.717  1.00  0.00     0.202 C 
ENDROOT
BRANCH   1   2
ATOM      2  C   UNL A   1      34.479  28.525  25.560  1.00  0.00     0.261 C 
BRANCH   2   3
ATOM      3  O   UNL A   1      34.166  27.540  24.547  1.00  0.00    -0.461 OA
BRANCH   3   4
ATOM      4  C   UNL A   1      33.890  28.033  23.312  1.00  0.00     0.344 C 
ATOM      5  O   UNL A   1      33.813  29.226  23.037  1.00  0.00    -0.248 OA
BRANCH   4   6
ATOM      6  C   UNL A   1      33.670  26.940  22.265  1.00  0.00     0.353 C 
BRANCH   6   7
ATOM      7  O   UNL A   1      32.494  26.181  22.176  1.00  0.00    -0.465 OA
BRANCH   7   8
ATOM      8  C   UNL A   1      31.504  26.035  23.083  1.00  0.00     0.222 A 
ATOM      9  C   UNL A   1      30.289  26.703  23.221  1.00  0.00     0.035 A 
ATOM     10  C   UNL A   1      29.425  26.108  24.156  1.00  0.00     0.050 A 
ATOM     11  C   UNL A   1      27.959  26.414  24.277  1.00  0.00     0.067 C 
ATOM     12  N   UNL A   1      29.788  25.083  24.961  1.00  0.00    -0.218 NA
ATOM     13  N   UNL A   1      31.858  25.010  23.901  1.00  0.00    -0.177 NA
ATOM     14  C   UNL A   1      31.009  24.572  24.832  1.00  0.00     0.230 A 
BRANCH   9  15
ATOM     15  C   UNL A   1      29.887  27.996  22.555  1.00  0.00     0.040 C 
ATOM     16  C   UNL A   1      30.224  29.313  23.244  1.00  0.00     0.009 C 
ENDBRANCH   9  15
BRANCH  14  17
ATOM     17  N   UNL A   1      31.420  23.510  25.636  1.00  0.00    -0.324 N 
ATOM     18  H   UNL A   1      31.049  23.500  26.548  1.00  0.00     0.170 HD
BRANCH  17  19
ATOM     19  C   UNL A   1      32.289  22.456  25.323  1.00  0.00     0.045 A 
ATOM     20  C   UNL A   1      31.873  21.495  24.390  1.00  0.00     0.047 A 
ATOM     21  C   UNL A   1      33.522  22.261  25.983  1.00  0.00    -0.027 A 
ATOM     22  C   UNL A   1      32.709  20.434  24.038  1.00  0.00     0.043 A 
ATOM     23  C   UNL A   1      34.361  21.198  25.603  1.00  0.00     0.007 A 
ATOM     24  C   UNL A   1      33.990  23.175  27.077  1.00  0.00     0.046 C 
ATOM     25  Cl  UNL A   1      32.194  19.292  22.856  1.00  0.00    -0.084 Cl
ATOM     26  C   UNL A   1      33.960  20.292  24.625  1.00  0.00     0.021 A 
ENDBRANCH  17  19
ENDBRANCH  14  17
ENDBRANCH   7   8
ENDBRANCH   6   7
ENDBRANCH   4   6
ENDBRANCH   3   4
ENDBRANCH   2   3
ENDBRANCH   1   2
BRANCH   1  27
ATOM     27  O   UNL A   1      32.124  28.791  26.383  1.00  0.00    -0.374 OA
BRANCH  27  28
ATOM     28  C   UNL A   1      31.672  30.046  26.873  1.00  0.00     0.202 C 
BRANCH  28  29
ATOM     29  C   UNL A   1      32.641  31.213  26.832  1.00  0.00     0.261 C 
BRANCH  29  30
ATOM     30  O   UNL A   1      33.192  31.501  28.096  1.00  0.00    -0.460 OA
BRANCH  30  31
ATOM     31  C   UNL A   1      34.002  32.571  28.059  1.00  0.00     0.338 C 
ATOM     32  O   UNL A   1      33.699  33.756  28.031  1.00  0.00    -0.246 OA
BRANCH  31  33
ATOM     33  C   UNL A   1      35.351  32.068  28.255  1.00  0.00     0.060 A 
ATOM     34  C   UNL A   1      35.469  30.694  28.455  1.00  0.00     0.016 A 
ATOM     35  C   UNL A   1      36.458  32.925  28.229  1.00  0.00     0.016 A 
ATOM     36  C   UNL A   1      36.709  30.178  28.758  1.00  0.00     0.010 A 
ATOM     37  C   UNL A   1      37.706  32.403  28.512  1.00  0.00     0.010 A 
ATOM     38  C   UNL A   1      37.806  31.047  28.851  1.00  0.00    -0.014 A 
BRANCH  38  39
ATOM     39  C   UNL A   1      39.001  30.537  29.525  1.00  0.00     0.031 A 
ATOM     40  C   UNL A   1      39.270  31.011  30.921  1.00  0.00     0.074 A 
ATOM     41  C   UNL A   1      39.719  29.582  28.918  1.00  0.00     0.049 A 
ATOM     42  N   UNL A   1      40.164  30.592  31.770  1.00  0.00    -0.248 NA
ATOM     43  C   UNL A   1      38.416  32.100  31.436  1.00  0.00     0.031 C 
ATOM     44  C   UNL A   1      39.480  29.086  27.561  1.00  0.00     0.029 A 
ATOM     45  N   UNL A   1      40.774  28.849  29.370  1.00  0.00    -0.354 N 
ATOM     46  C   UNL A   1      39.992  31.371  32.909  1.00  0.00     0.074 A 
ATOM     47  C   UNL A   1      38.930  32.309  32.638  1.00  0.00     0.031 C 
ATOM     48  C   UNL A   1      40.367  28.114  27.292  1.00  0.00     0.029 A 
ATOM     49  C   UNL A   1      41.237  27.942  28.451  1.00  0.00     0.049 A 
ATOM     50  H   UNL A   1      41.166  28.958  30.267  1.00  0.00     0.167 HD
ATOM     51  C   UNL A   1      40.655  31.285  34.083  1.00  0.00     0.034 A 
ATOM     52  C   UNL A   1      42.257  27.075  28.553  1.00  0.00     0.034 A 
ATOM     53  C   UNL A   1      41.701  30.327  34.312  1.00  0.00     0.049 A 
ATOM     54  C   UNL A   1      42.979  27.007  29.870  1.00  0.00     0.074 A 
ATOM     55  C   UNL A   1      42.451  30.121  35.453  1.00  0.00     0.029 A 
ATOM     56  N   UNL A   1      42.147  29.415  33.364  1.00  0.00    -0.354 N 
ATOM     57  N   UNL A   1      42.755  27.687  30.971  1.00  0.00    -0.248 NA
ATOM     58  C   UNL A   1      44.062  26.025  29.976  1.00  0.00     0.031 C 
ATOM     59  C   UNL A   1      43.373  29.104  35.182  1.00  0.00     0.029 A 
ATOM     60  C   UNL A   1      43.168  28.647  33.888  1.00  0.00     0.049 A 
ATOM     61  H   UNL A   1      41.788  29.329  32.452  1.00  0.00     0.167 HD
ATOM     62  C   UNL A   1      43.647  27.197  31.913  1.00  0.00     0.074 A 
ATOM     63  C   UNL A   1      44.392  26.138  31.255  1.00  0.00     0.031 C 
ATOM     64  C   UNL A   1      43.855  27.585  33.196  1.00  0.00     0.034 A 
BRANCH  51  65
ATOM     65  C   UNL A   1      40.264  32.236  35.184  1.00  0.00     0.023 A 
ATOM     66  C   UNL A   1      40.954  33.456  35.343  1.00  0.00     0.012 A 
ATOM     67  C   UNL A   1      39.194  31.933  36.047  1.00  0.00     0.148 A 
ATOM     68  C   UNL A   1      40.604  34.344  36.359  1.00  0.00     0.002 A 
ATOM     69  C   UNL A   1      38.820  32.845  37.028  1.00  0.00     0.091 A 
ATOM     70  F   UNL A   1      38.570  30.756  35.902  1.00  0.00    -0.205 F 
ATOM     71  C   UNL A   1      39.531  34.044  37.194  1.00  0.00     0.022 A 
BRANCH  69  72
ATOM     72  S   UNL A   1      37.408  32.586  38.107  1.00  0.00     0.127 S 
ATOM     73  O   UNL A   1      37.371  31.127  38.202  1.00  0.00    -0.237 OA
ATOM     74  O   UNL A   1      37.831  33.266  39.330  1.00  0.00    -0.237 OA
ATOM     75  O   UNL A   1      36.268  33.192  37.433  1.00  0.00    -0.744 OA
ENDBRANCH  69  72
ENDBRANCH  51  65
BRANCH  52  76
ATOM     76  C   UNL A   1      42.607  26.194  27.407  1.00  0.00     0.023 A 
ATOM     77  C   UNL A   1      43.456  26.665  26.388  1.00  0.00     0.012 A 
ATOM     78  C   UNL A   1      42.128  24.870  27.344  1.00  0.00     0.148 A 
ATOM     79  C   UNL A   1      43.789  25.847  25.308  1.00  0.00     0.002 A 
ATOM     80  C   UNL A   1      42.511  24.042  26.297  1.00  0.00     0.091 A 
ATOM     81  F   UNL A   1      41.314  24.443  28.319  1.00  0.00    -0.205 F 
ATOM     82  C   UNL A   1      43.326  24.534  25.267  1.00  0.00     0.022 A 
BRANCH  80  83
ATOM     83  S   UNL A   1      42.073  22.302  26.246  1.00  0.00     0.127 S 
ATOM     84  O   UNL A   1      40.622  22.364  26.092  1.00  0.00    -0.237 OA
ATOM     85  O   UNL A   1      42.801  21.840  25.062  1.00  0.00    -0.237 OA
ATOM     86  O   UNL A   1      42.557  21.739  27.499  1.00  0.00    -0.744 OA
ENDBRANCH  80  83
ENDBRANCH  52  76
BRANCH  64  87
ATOM     87  C   UNL A   1      44.906  26.834  33.963  1.00  0.00     0.023 A 
ATOM     88  C   UNL A   1      46.226  27.326  34.015  1.00  0.00     0.012 A 
ATOM     89  C   UNL A   1      44.573  25.658  34.662  1.00  0.00     0.148 A 
ATOM     90  C   UNL A   1      47.213  26.623  34.703  1.00  0.00     0.002 A 
ATOM     91  C   UNL A   1      45.548  24.997  35.394  1.00  0.00     0.091 A 
ATOM     92  F   UNL A   1      43.315  25.200  34.585  1.00  0.00    -0.205 F 
ATOM     93  C   UNL A   1      46.872  25.467  35.400  1.00  0.00     0.022 A 
BRANCH  91  94
ATOM     94  S   UNL A   1      45.174  23.565  36.408  1.00  0.00     0.127 S 
ATOM     95  O   UNL A   1      46.504  22.999  36.625  1.00  0.00    -0.237 OA
ATOM     96  O   UNL A   1      44.568  24.173  37.592  1.00  0.00    -0.237 OA
ATOM     97  O   UNL A   1      44.263  22.745  35.620  1.00  0.00    -0.744 OA
ENDBRANCH  91  94
ENDBRANCH  64  87
ENDBRANCH  38  39
ENDBRANCH  31  33
ENDBRANCH  30  31
ENDBRANCH  29  30
ENDBRANCH  28  29
ENDBRANCH  27  28
ENDBRANCH   1  27
TORSDOF 22
ENDMDL
MODEL 3
REMARK VINA RESULT:     -10.3      2.384      7.743
REMARK SMILES CCc1c(C)nc(Nc2cc(Cl)ccc2C)nc1OCC(=O)OCCOCCOC(=O)c1ccc(-c2c3nc(c(-c4cccc(S(=O)(=O)[O-])c4F)c4ccc([nH]4)c(-c4cccc(S(=O)(=O)[O-])c4F)c4nc(c(-c5cccc(S(=O)(=O)[O-])c5F)c5ccc2[nH]5)C=C4)C=C3)cc1
REMARK SMILES IDX 25 1 24 2 23 3 21 4 22 5 20 6 19 7 18 8 3 9 4 10 5 11 6 12
REMARK SMILES IDX 17 13 7 14 2 15 1 16 8 17 9 19 10 20 15 21 11 22 14 23 16 24
REMARK SMILES IDX 12 25 13 26 26 27 27 28 28 29 29 30 30 31 31 32 32 33 33 34
REMARK SMILES IDX 94 35 34 36 93 37 35 38 36 39 37 40 87 41 38 42 92 43 86 44
REMARK SMILES IDX 88 45 39 46 91 47 85 48 84 49 40 51 72 52 52 53 71 54 53 55
REMARK SMILES IDX 56 56 70 57 89 58 54 59 55 60 69 62 90 63 57 64 41 65 42 66
REMARK SMILES IDX 50 67 43 68 45 69 51 70 44 71 46 72 47 73 48 74 49 75 73 76
REMARK SMILES IDX 74 77 82 78 75 79 77 80 83 81 76 82 78 83 79 84 80 85 81 86
REMARK SMILES IDX 58 87 59 88 67 89 60 90 62 91 68 92 61 93 63 94 64 95 65 96
REMARK SMILES IDX 66 97
REMARK H PARENT 8 18 88 50 56 61
REMARK Flexibility Score: inf
ROOT
ATOM      1  C   UNL A   1      33.191  28.859  27.221  1.00  0.00     0.202 C 
ENDROOT
BRANCH   1   2
ATOM      2  C   UNL A   1      32.619  27.738  26.342  1.00  0.00     0.261 C 
BRANCH   2   3
ATOM      3  O   UNL A   1      31.395  27.224  26.917  1.00  0.00    -0.461 OA
BRANCH   3   4
ATOM      4  C   UNL A   1      31.036  25.977  26.519  1.00  0.00     0.344 C 
ATOM      5  O   UNL A   1      31.541  24.938  26.932  1.00  0.00    -0.248 OA
BRANCH   4   6
ATOM      6  C   UNL A   1      29.917  25.980  25.475  1.00  0.00     0.353 C 
BRANCH   6   7
ATOM      7  O   UNL A   1      30.146  25.835  24.098  1.00  0.00    -0.465 OA
BRANCH   7   8
ATOM      8  C   UNL A   1      31.284  26.032  23.399  1.00  0.00     0.222 A 
ATOM      9  C   UNL A   1      31.806  27.182  22.811  1.00  0.00     0.035 A 
ATOM     10  C   UNL A   1      33.130  27.034  22.367  1.00  0.00     0.050 A 
ATOM     11  C   UNL A   1      34.036  28.173  21.993  1.00  0.00     0.067 C 
ATOM     12  N   UNL A   1      33.789  25.852  22.363  1.00  0.00    -0.218 NA
ATOM     13  N   UNL A   1      31.954  24.850  23.385  1.00  0.00    -0.177 NA
ATOM     14  C   UNL A   1      33.174  24.778  22.851  1.00  0.00     0.230 A 
BRANCH   9  15
ATOM     15  C   UNL A   1      31.071  28.472  22.541  1.00  0.00     0.040 C 
ATOM     16  C   UNL A   1      30.403  29.195  23.704  1.00  0.00     0.009 C 
ENDBRANCH   9  15
BRANCH  14  17
ATOM     17  N   UNL A   1      33.820  23.542  22.873  1.00  0.00    -0.324 N 
ATOM     18  H   UNL A   1      33.834  23.056  22.017  1.00  0.00     0.170 HD
BRANCH  17  19
ATOM     19  C   UNL A   1      34.451  22.901  23.947  1.00  0.00     0.045 A 
ATOM     20  C   UNL A   1      33.714  22.658  25.115  1.00  0.00     0.047 A 
ATOM     21  C   UNL A   1      35.827  22.583  23.944  1.00  0.00    -0.027 A 
ATOM     22  C   UNL A   1      34.297  22.012  26.206  1.00  0.00     0.043 A 
ATOM     23  C   UNL A   1      36.396  21.915  25.044  1.00  0.00     0.007 A 
ATOM     24  C   UNL A   1      36.716  22.915  22.782  1.00  0.00     0.046 C 
ATOM     25  Cl  UNL A   1      33.357  21.684  27.611  1.00  0.00    -0.084 Cl
ATOM     26  C   UNL A   1      35.630  21.621  26.169  1.00  0.00     0.021 A 
ENDBRANCH  17  19
ENDBRANCH  14  17
ENDBRANCH   7   8
ENDBRANCH   6   7
ENDBRANCH   4   6
ENDBRANCH   3   4
ENDBRANCH   2   3
ENDBRANCH   1   2
BRANCH   1  27
ATOM     27  O   UNL A   1      32.535  30.130  27.096  1.00  0.00    -0.374 OA
BRANCH  27  28
ATOM     28  C   UNL A   1      33.362  31.274  27.250  1.00  0.00     0.202 C 
BRANCH  28  29
ATOM     29  C   UNL A   1      32.700  32.579  27.653  1.00  0.00     0.261 C 
BRANCH  29  30
ATOM     30  O   UNL A   1      33.626  33.627  27.812  1.00  0.00    -0.460 OA
BRANCH  30  31
ATOM     31  C   UNL A   1      34.039  33.743  29.084  1.00  0.00     0.338 C 
ATOM     32  O   UNL A   1      33.463  34.268  30.028  1.00  0.00    -0.246 OA
BRANCH  31  33
ATOM     33  C   UNL A   1      35.247  32.944  29.196  1.00  0.00     0.060 A 
ATOM     34  C   UNL A   1      35.165  31.820  30.015  1.00  0.00     0.016 A 
ATOM     35  C   UNL A   1      36.415  33.290  28.504  1.00  0.00     0.016 A 
ATOM     36  C   UNL A   1      36.308  31.090  30.247  1.00  0.00     0.010 A 
ATOM     37  C   UNL A   1      37.558  32.544  28.721  1.00  0.00     0.010 A 
ATOM     38  C   UNL A   1      37.510  31.498  29.652  1.00  0.00    -0.014 A 
BRANCH  38  39
ATOM     39  C   UNL A   1      38.746  30.939  30.204  1.00  0.00     0.031 A 
ATOM     40  C   UNL A   1      39.154  31.372  31.580  1.00  0.00     0.074 A 
ATOM     41  C   UNL A   1      39.380  29.982  29.512  1.00  0.00     0.049 A 
ATOM     42  N   UNL A   1      40.108  30.908  32.335  1.00  0.00    -0.248 NA
ATOM     43  C   UNL A   1      38.381  32.469  32.195  1.00  0.00     0.031 C 
ATOM     44  C   UNL A   1      39.005  29.527  28.171  1.00  0.00     0.029 A 
ATOM     45  N   UNL A   1      40.450  29.210  29.850  1.00  0.00    -0.354 N 
ATOM     46  C   UNL A   1      40.062  31.662  33.502  1.00  0.00     0.074 A 
ATOM     47  C   UNL A   1      39.007  32.634  33.349  1.00  0.00     0.031 C 
ATOM     48  C   UNL A   1      39.836  28.539  27.802  1.00  0.00     0.029 A 
ATOM     49  C   UNL A   1      40.802  28.315  28.872  1.00  0.00     0.049 A 
ATOM     50  H   UNL A   1      40.923  29.286  30.710  1.00  0.00     0.167 HD
ATOM     51  C   UNL A   1      40.825  31.529  34.609  1.00  0.00     0.034 A 
ATOM     52  C   UNL A   1      41.803  27.419  28.862  1.00  0.00     0.034 A 
ATOM     53  C   UNL A   1      41.860  30.538  34.720  1.00  0.00     0.049 A 
ATOM     54  C   UNL A   1      42.638  27.299  30.107  1.00  0.00     0.074 A 
ATOM     55  C   UNL A   1      42.702  30.284  35.784  1.00  0.00     0.029 A 
ATOM     56  N   UNL A   1      42.192  29.639  33.715  1.00  0.00    -0.354 N 
ATOM     57  N   UNL A   1      42.533  27.957  31.238  1.00  0.00    -0.248 NA
ATOM     58  C   UNL A   1      43.697  26.287  30.092  1.00  0.00     0.031 C 
ATOM     59  C   UNL A   1      43.567  29.251  35.407  1.00  0.00     0.029 A 
ATOM     60  C   UNL A   1      43.234  28.832  34.127  1.00  0.00     0.049 A 
ATOM     61  H   UNL A   1      41.750  29.586  32.837  1.00  0.00     0.167 HD
ATOM     62  C   UNL A   1      43.492  27.420  32.084  1.00  0.00     0.074 A 
ATOM     63  C   UNL A   1      44.144  26.358  31.337  1.00  0.00     0.031 C 
ATOM     64  C   UNL A   1      43.825  27.770  33.352  1.00  0.00     0.034 A 
BRANCH  51  65
ATOM     65  C   UNL A   1      40.561  32.462  35.761  1.00  0.00     0.023 A 
ATOM     66  C   UNL A   1      39.566  32.148  36.710  1.00  0.00     0.012 A 
ATOM     67  C   UNL A   1      41.316  33.639  35.921  1.00  0.00     0.148 A 
ATOM     68  C   UNL A   1      39.308  33.004  37.781  1.00  0.00     0.002 A 
ATOM     69  C   UNL A   1      41.087  34.463  37.016  1.00  0.00     0.091 A 
ATOM     70  F   UNL A   1      42.236  33.937  34.992  1.00  0.00    -0.205 F 
ATOM     71  C   UNL A   1      40.075  34.154  37.940  1.00  0.00     0.022 A 
BRANCH  69  72
ATOM     72  S   UNL A   1      42.067  35.930  37.351  1.00  0.00     0.127 S 
ATOM     73  O   UNL A   1      41.864  36.707  36.129  1.00  0.00    -0.237 OA
ATOM     74  O   UNL A   1      41.407  36.474  38.537  1.00  0.00    -0.237 OA
ATOM     75  O   UNL A   1      43.429  35.464  37.569  1.00  0.00    -0.744 OA
ENDBRANCH  69  72
ENDBRANCH  51  65
BRANCH  52  76
ATOM     76  C   UNL A   1      42.022  26.558  27.669  1.00  0.00     0.023 A 
ATOM     77  C   UNL A   1      42.704  27.067  26.548  1.00  0.00     0.012 A 
ATOM     78  C   UNL A   1      41.588  25.218  27.659  1.00  0.00     0.148 A 
ATOM     79  C   UNL A   1      42.914  26.268  25.423  1.00  0.00     0.002 A 
ATOM     80  C   UNL A   1      41.853  24.410  26.560  1.00  0.00     0.091 A 
ATOM     81  F   UNL A   1      40.933  24.754  28.733  1.00  0.00    -0.205 F 
ATOM     82  C   UNL A   1      42.499  24.939  25.433  1.00  0.00     0.022 A 
BRANCH  80  83
ATOM     83  S   UNL A   1      41.477  22.655  26.551  1.00  0.00     0.127 S 
ATOM     84  O   UNL A   1      42.058  22.219  27.818  1.00  0.00    -0.237 OA
ATOM     85  O   UNL A   1      40.013  22.658  26.511  1.00  0.00    -0.237 OA
ATOM     86  O   UNL A   1      42.104  22.127  25.347  1.00  0.00    -0.744 OA
ENDBRANCH  80  83
ENDBRANCH  52  76
BRANCH  64  87
ATOM     87  C   UNL A   1      44.919  26.972  34.003  1.00  0.00     0.023 A 
ATOM     88  C   UNL A   1      46.266  27.347  33.823  1.00  0.00     0.012 A 
ATOM     89  C   UNL A   1      44.606  25.871  34.823  1.00  0.00     0.148 A 
ATOM     90  C   UNL A   1      47.288  26.599  34.402  1.00  0.00     0.002 A 
ATOM     91  C   UNL A   1      45.627  25.169  35.445  1.00  0.00     0.091 A 
ATOM     92  F   UNL A   1      43.319  25.524  34.967  1.00  0.00    -0.205 F 
ATOM     93  C   UNL A   1      46.969  25.519  35.221  1.00  0.00     0.022 A 
BRANCH  91  94
ATOM     94  S   UNL A   1      45.302  23.834  36.600  1.00  0.00     0.127 S 
ATOM     95  O   UNL A   1      44.487  24.507  37.609  1.00  0.00    -0.237 OA
ATOM     96  O   UNL A   1      44.576  22.875  35.767  1.00  0.00    -0.237 OA
ATOM     97  O   UNL A   1      46.606  23.370  37.053  1.00  0.00    -0.744 OA
ENDBRANCH  91  94
ENDBRANCH  64  87
ENDBRANCH  38  39
ENDBRANCH  31  33
ENDBRANCH  30  31
ENDBRANCH  29  30
ENDBRANCH  28  29
ENDBRANCH  27  28
ENDBRANCH   1  27
TORSDOF 22
ENDMDL
