MODEL 1
REMARK VINA RESULT:      -6.4      0.000      0.000
REMARK SMILES CC(C)(O)CCOc1ccc(C(=O)OCCOCCOC(=O)c2ccc(-c3c4nc(c(-c5cccc(S(=O)(=O)[O-])c5F)c5ccc([nH]5)c(-c5cccc(S(=O)(=O)[O-])c5F)c5nc(c(-c6cccc(S(=O)(=O)[O-])c6F)c6ccc3[nH]6)C=C5)C=C4)cc2)cc1
REMARK SMILES IDX 16 1 15 2 14 3 12 4 13 5 11 6 8 7 9 8 87 9 10 10 86 11 7 12
REMARK SMILES IDX 6 13 5 14 2 15 1 16 3 17 4 18 17 20 18 21 19 22 20 23 21 24
REMARK SMILES IDX 22 25 23 26 24 27 85 28 25 29 84 30 26 31 27 32 28 33 78 34
REMARK SMILES IDX 29 35 83 36 77 37 79 38 30 39 82 40 76 41 75 42 31 44 63 45
REMARK SMILES IDX 43 46 62 47 44 48 47 49 61 50 80 51 45 52 46 53 60 55 81 56
REMARK SMILES IDX 48 57 32 58 33 59 41 60 34 61 36 62 42 63 35 64 37 65 38 66
REMARK SMILES IDX 39 67 40 68 64 69 65 70 73 71 66 72 68 73 74 74 67 75 69 76
REMARK SMILES IDX 70 77 71 78 72 79 49 80 50 81 58 82 51 83 53 84 59 85 52 86
REMARK SMILES IDX 54 87 55 88 56 89 57 90
REMARK H PARENT 4 19 79 43 47 54
REMARK Flexibility Score: inf
ROOT
ATOM      1  C   UNL A   1      37.558  33.671  40.237  1.00  0.00     0.202 C 
ENDROOT
BRANCH   1   2
ATOM      2  C   UNL A   1      36.865  32.571  39.425  1.00  0.00     0.261 C 
BRANCH   2   3
ATOM      3  O   UNL A   1      37.291  32.553  38.055  1.00  0.00    -0.460 OA
BRANCH   3   4
ATOM      4  C   UNL A   1      37.474  31.323  37.511  1.00  0.00     0.338 C 
ATOM      5  O   UNL A   1      37.260  30.239  38.017  1.00  0.00    -0.246 OA
BRANCH   4   6
ATOM      6  C   UNL A   1      37.851  31.509  36.097  1.00  0.00     0.060 A 
ATOM      7  C   UNL A   1      38.785  32.015  33.511  1.00  0.00     0.119 A 
ATOM      8  C   UNL A   1      37.932  32.925  34.145  1.00  0.00     0.047 A 
ATOM      9  C   UNL A   1      39.058  30.799  34.136  1.00  0.00     0.047 A 
ATOM     10  C   UNL A   1      37.447  32.668  35.431  1.00  0.00     0.019 A 
ATOM     11  C   UNL A   1      38.636  30.560  35.445  1.00  0.00     0.019 A 
BRANCH   7  12
ATOM     12  O   UNL A   1      39.348  32.465  32.348  1.00  0.00    -0.493 OA
BRANCH  12  13
ATOM     13  C   UNL A   1      38.638  32.314  31.117  1.00  0.00     0.232 C 
BRANCH  13  14
ATOM     14  C   UNL A   1      38.524  30.867  30.593  1.00  0.00     0.076 C 
BRANCH  14  15
ATOM     15  C   UNL A   1      39.820  30.038  30.442  1.00  0.00     0.062 C 
ATOM     16  C   UNL A   1      40.103  29.651  28.986  1.00  0.00     0.042 C 
ATOM     17  C   UNL A   1      39.734  28.750  31.274  1.00  0.00     0.042 C 
BRANCH  15  18
ATOM     18  O   UNL A   1      40.912  30.775  30.987  1.00  0.00    -0.390 OA
ATOM     19  H   UNL A   1      40.649  31.164  31.835  1.00  0.00     0.211 HD
ENDBRANCH  15  18
ENDBRANCH  14  15
ENDBRANCH  13  14
ENDBRANCH  12  13
ENDBRANCH   7  12
ENDBRANCH   4   6
ENDBRANCH   3   4
ENDBRANCH   2   3
ENDBRANCH   1   2
BRANCH   1  20
ATOM     20  O   UNL A   1      38.819  34.103  39.722  1.00  0.00    -0.374 OA
BRANCH  20  21
ATOM     21  C   UNL A   1      39.739  34.599  40.698  1.00  0.00     0.202 C 
BRANCH  21  22
ATOM     22  C   UNL A   1      40.101  36.080  40.544  1.00  0.00     0.261 C 
BRANCH  22  23
ATOM     23  O   UNL A   1      40.053  36.490  39.167  1.00  0.00    -0.460 OA
BRANCH  23  24
ATOM     24  C   UNL A   1      41.262  36.636  38.574  1.00  0.00     0.338 C 
ATOM     25  O   UNL A   1      42.140  37.427  38.877  1.00  0.00    -0.246 OA
BRANCH  24  26
ATOM     26  C   UNL A   1      41.461  35.572  37.572  1.00  0.00     0.060 A 
ATOM     27  C   UNL A   1      42.776  35.148  37.337  1.00  0.00     0.016 A 
ATOM     28  C   UNL A   1      40.403  35.045  36.826  1.00  0.00     0.016 A 
ATOM     29  C   UNL A   1      43.045  34.246  36.312  1.00  0.00     0.010 A 
ATOM     30  C   UNL A   1      40.676  34.137  35.798  1.00  0.00     0.010 A 
ATOM     31  C   UNL A   1      42.002  33.767  35.508  1.00  0.00    -0.014 A 
BRANCH  31  32
ATOM     32  C   UNL A   1      42.322  32.989  34.285  1.00  0.00     0.031 A 
ATOM     33  C   UNL A   1      42.488  31.497  34.387  1.00  0.00     0.074 A 
ATOM     34  C   UNL A   1      42.444  33.604  33.095  1.00  0.00     0.049 A 
ATOM     35  N   UNL A   1      42.757  30.628  33.447  1.00  0.00    -0.248 NA
ATOM     36  C   UNL A   1      42.338  30.904  35.726  1.00  0.00     0.031 C 
ATOM     37  C   UNL A   1      42.311  35.042  32.870  1.00  0.00     0.029 A 
ATOM     38  N   UNL A   1      42.727  33.092  31.853  1.00  0.00    -0.354 N 
ATOM     39  C   UNL A   1      42.835  29.394  34.081  1.00  0.00     0.074 A 
ATOM     40  C   UNL A   1      42.603  29.627  35.489  1.00  0.00     0.031 C 
ATOM     41  C   UNL A   1      42.533  35.302  31.570  1.00  0.00     0.029 A 
ATOM     42  C   UNL A   1      42.844  34.054  30.877  1.00  0.00     0.049 A 
ATOM     43  H   UNL A   1      42.835  32.130  31.678  1.00  0.00     0.167 HD
ATOM     44  C   UNL A   1      43.060  28.174  33.538  1.00  0.00     0.034 A 
ATOM     45  C   UNL A   1      43.180  33.940  29.576  1.00  0.00     0.034 A 
ATOM     46  C   UNL A   1      43.267  27.941  32.135  1.00  0.00     0.049 A 
ATOM     47  C   UNL A   1      43.433  32.572  28.998  1.00  0.00     0.074 A 
ATOM     48  C   UNL A   1      43.450  26.737  31.480  1.00  0.00     0.029 A 
ATOM     49  N   UNL A   1      43.330  28.934  31.169  1.00  0.00    -0.354 N 
ATOM     50  N   UNL A   1      43.380  31.403  29.589  1.00  0.00    -0.248 NA
ATOM     51  C   UNL A   1      43.752  32.505  27.565  1.00  0.00     0.031 C 
ATOM     52  C   UNL A   1      43.655  27.003  30.122  1.00  0.00     0.029 A 
ATOM     53  C   UNL A   1      43.562  28.372  29.926  1.00  0.00     0.049 A 
ATOM     54  H   UNL A   1      43.227  29.898  31.343  1.00  0.00     0.167 HD
ATOM     55  C   UNL A   1      43.616  30.461  28.594  1.00  0.00     0.074 A 
ATOM     56  C   UNL A   1      43.798  31.195  27.359  1.00  0.00     0.031 C 
ATOM     57  C   UNL A   1      43.685  29.110  28.695  1.00  0.00     0.034 A 
BRANCH  44  58
ATOM     58  C   UNL A   1      43.072  26.985  34.465  1.00  0.00     0.023 A 
ATOM     59  C   UNL A   1      41.858  26.366  34.825  1.00  0.00     0.012 A 
ATOM     60  C   UNL A   1      44.287  26.448  34.933  1.00  0.00     0.148 A 
ATOM     61  C   UNL A   1      41.850  25.249  35.661  1.00  0.00     0.002 A 
ATOM     62  C   UNL A   1      44.274  25.308  35.729  1.00  0.00     0.091 A 
ATOM     63  F   UNL A   1      45.429  27.064  34.598  1.00  0.00    -0.205 F 
ATOM     64  C   UNL A   1      43.057  24.716  36.103  1.00  0.00     0.022 A 
BRANCH  62  65
ATOM     65  S   UNL A   1      45.779  24.497  36.282  1.00  0.00     0.127 S 
ATOM     66  O   UNL A   1      46.388  25.539  37.108  1.00  0.00    -0.237 OA
ATOM     67  O   UNL A   1      45.255  23.355  37.031  1.00  0.00    -0.237 OA
ATOM     68  O   UNL A   1      46.514  24.147  35.075  1.00  0.00    -0.744 OA
ENDBRANCH  62  65
ENDBRANCH  44  58
BRANCH  45  69
ATOM     69  C   UNL A   1      43.255  35.158  28.720  1.00  0.00     0.023 A 
ATOM     70  C   UNL A   1      42.078  35.697  28.168  1.00  0.00     0.012 A 
ATOM     71  C   UNL A   1      44.487  35.793  28.467  1.00  0.00     0.148 A 
ATOM     72  C   UNL A   1      42.128  36.829  27.354  1.00  0.00     0.002 A 
ATOM     73  C   UNL A   1      44.522  36.953  27.703  1.00  0.00     0.091 A 
ATOM     74  F   UNL A   1      45.598  35.255  28.989  1.00  0.00    -0.205 F 
ATOM     75  C   UNL A   1      43.348  37.463  27.130  1.00  0.00     0.022 A 
BRANCH  73  76
ATOM     76  S   UNL A   1      46.027  37.907  27.476  1.00  0.00     0.127 S 
ATOM     77  O   UNL A   1      46.865  36.972  26.728  1.00  0.00    -0.237 OA
ATOM     78  O   UNL A   1      45.543  39.053  26.706  1.00  0.00    -0.237 OA
ATOM     79  O   UNL A   1      46.490  38.239  28.817  1.00  0.00    -0.744 OA
ENDBRANCH  73  76
ENDBRANCH  45  69
BRANCH  57  80
ATOM     80  C   UNL A   1      43.917  28.321  27.431  1.00  0.00     0.023 A 
ATOM     81  C   UNL A   1      42.826  27.754  26.743  1.00  0.00     0.012 A 
ATOM     82  C   UNL A   1      45.211  28.210  26.885  1.00  0.00     0.148 A 
ATOM     83  C   UNL A   1      43.025  27.057  25.551  1.00  0.00     0.002 A 
ATOM     84  C   UNL A   1      45.395  27.560  25.671  1.00  0.00     0.091 A 
ATOM     85  F   UNL A   1      46.239  28.741  27.563  1.00  0.00    -0.205 F 
ATOM     86  C   UNL A   1      44.305  26.971  25.009  1.00  0.00     0.022 A 
BRANCH  84  87
ATOM     87  S   UNL A   1      46.992  27.487  24.851  1.00  0.00     0.127 S 
ATOM     88  O   UNL A   1      46.886  26.236  24.102  1.00  0.00    -0.237 OA
ATOM     89  O   UNL A   1      46.971  28.696  24.025  1.00  0.00    -0.237 OA
ATOM     90  O   UNL A   1      47.989  27.499  25.912  1.00  0.00    -0.744 OA
ENDBRANCH  84  87
ENDBRANCH  57  80
ENDBRANCH  31  32
ENDBRANCH  24  26
ENDBRANCH  23  24
ENDBRANCH  22  23
ENDBRANCH  21  22
ENDBRANCH  20  21
ENDBRANCH   1  20
TORSDOF 22
ENDMDL
MODEL 2
REMARK VINA RESULT:      -6.3      7.292     13.490
REMARK SMILES CC(C)(O)CCOc1ccc(C(=O)OCCOCCOC(=O)c2ccc(-c3c4nc(c(-c5cccc(S(=O)(=O)[O-])c5F)c5ccc([nH]5)c(-c5cccc(S(=O)(=O)[O-])c5F)c5nc(c(-c6cccc(S(=O)(=O)[O-])c6F)c6ccc3[nH]6)C=C5)C=C4)cc2)cc1
REMARK SMILES IDX 16 1 15 2 14 3 12 4 13 5 11 6 8 7 9 8 87 9 10 10 86 11 7 12
REMARK SMILES IDX 6 13 5 14 2 15 1 16 3 17 4 18 17 20 18 21 19 22 20 23 21 24
REMARK SMILES IDX 22 25 23 26 24 27 85 28 25 29 84 30 26 31 27 32 28 33 78 34
REMARK SMILES IDX 29 35 83 36 77 37 79 38 30 39 82 40 76 41 75 42 31 44 63 45
REMARK SMILES IDX 43 46 62 47 44 48 47 49 61 50 80 51 45 52 46 53 60 55 81 56
REMARK SMILES IDX 48 57 32 58 33 59 41 60 34 61 36 62 42 63 35 64 37 65 38 66
REMARK SMILES IDX 39 67 40 68 64 69 65 70 73 71 66 72 68 73 74 74 67 75 69 76
REMARK SMILES IDX 70 77 71 78 72 79 49 80 50 81 58 82 51 83 53 84 59 85 52 86
REMARK SMILES IDX 54 87 55 88 56 89 57 90
REMARK H PARENT 4 19 79 43 47 54
REMARK Flexibility Score: inf
ROOT
ATOM      1  C   UNL A   1      44.095  28.811  26.628  1.00  0.00     0.202 C 
ENDROOT
BRANCH   1   2
ATOM      2  C   UNL A   1      45.341  28.271  25.917  1.00  0.00     0.261 C 
BRANCH   2   3
ATOM      3  O   UNL A   1      45.047  27.137  25.088  1.00  0.00    -0.460 OA
BRANCH   3   4
ATOM      4  C   UNL A   1      46.038  26.215  24.979  1.00  0.00     0.338 C 
ATOM      5  O   UNL A   1      47.237  26.405  24.930  1.00  0.00    -0.246 OA
BRANCH   4   6
ATOM      6  C   UNL A   1      45.422  24.879  25.078  1.00  0.00     0.060 A 
ATOM      7  C   UNL A   1      44.247  22.344  24.984  1.00  0.00     0.119 A 
ATOM      8  C   UNL A   1      43.450  23.494  24.947  1.00  0.00     0.047 A 
ATOM      9  C   UNL A   1      45.618  22.481  25.193  1.00  0.00     0.047 A 
ATOM     10  C   UNL A   1      44.031  24.764  25.013  1.00  0.00     0.019 A 
ATOM     11  C   UNL A   1      46.217  23.741  25.194  1.00  0.00     0.019 A 
BRANCH   7  12
ATOM     12  O   UNL A   1      43.587  21.177  24.713  1.00  0.00    -0.493 OA
BRANCH  12  13
ATOM     13  C   UNL A   1      43.546  20.145  25.701  1.00  0.00     0.232 C 
BRANCH  13  14
ATOM     14  C   UNL A   1      42.133  19.678  26.109  1.00  0.00     0.076 C 
BRANCH  14  15
ATOM     15  C   UNL A   1      41.347  20.528  27.134  1.00  0.00     0.062 C 
ATOM     16  C   UNL A   1      40.209  21.325  26.486  1.00  0.00     0.042 C 
ATOM     17  C   UNL A   1      42.284  21.517  27.843  1.00  0.00     0.042 C 
BRANCH  15  18
ATOM     18  O   UNL A   1      40.842  19.675  28.159  1.00  0.00    -0.390 OA
ATOM     19  H   UNL A   1      39.908  19.883  28.321  1.00  0.00     0.211 HD
ENDBRANCH  15  18
ENDBRANCH  14  15
ENDBRANCH  13  14
ENDBRANCH  12  13
ENDBRANCH   7  12
ENDBRANCH   4   6
ENDBRANCH   3   4
ENDBRANCH   2   3
ENDBRANCH   1   2
BRANCH   1  20
ATOM     20  O   UNL A   1      43.007  29.157  25.769  1.00  0.00    -0.374 OA
BRANCH  20  21
ATOM     21  C   UNL A   1      41.904  28.246  25.786  1.00  0.00     0.202 C 
BRANCH  21  22
ATOM     22  C   UNL A   1      40.719  28.690  26.649  1.00  0.00     0.261 C 
BRANCH  22  23
ATOM     23  O   UNL A   1      40.852  28.222  28.002  1.00  0.00    -0.460 OA
BRANCH  23  24
ATOM     24  C   UNL A   1      40.817  26.876  28.144  1.00  0.00     0.338 C 
ATOM     25  O   UNL A   1      40.041  26.100  27.612  1.00  0.00    -0.246 OA
BRANCH  24  26
ATOM     26  C   UNL A   1      41.979  26.424  28.934  1.00  0.00     0.060 A 
ATOM     27  C   UNL A   1      42.438  27.276  29.947  1.00  0.00     0.016 A 
ATOM     28  C   UNL A   1      42.651  25.231  28.653  1.00  0.00     0.016 A 
ATOM     29  C   UNL A   1      43.608  26.971  30.637  1.00  0.00     0.010 A 
ATOM     30  C   UNL A   1      43.825  24.926  29.350  1.00  0.00     0.010 A 
ATOM     31  C   UNL A   1      44.332  25.816  30.314  1.00  0.00    -0.014 A 
BRANCH  31  32
ATOM     32  C   UNL A   1      45.684  25.617  30.891  1.00  0.00     0.031 A 
ATOM     33  C   UNL A   1      46.894  25.967  30.067  1.00  0.00     0.074 A 
ATOM     34  C   UNL A   1      45.832  25.147  32.143  1.00  0.00     0.049 A 
ATOM     35  N   UNL A   1      48.161  25.882  30.379  1.00  0.00    -0.248 NA
ATOM     36  C   UNL A   1      46.644  26.474  28.707  1.00  0.00     0.031 C 
ATOM     37  C   UNL A   1      44.739  24.769  33.037  1.00  0.00     0.029 A 
ATOM     38  N   UNL A   1      46.968  24.893  32.871  1.00  0.00    -0.354 N 
ATOM     39  C   UNL A   1      48.859  26.297  29.251  1.00  0.00     0.074 A 
ATOM     40  C   UNL A   1      47.876  26.617  28.240  1.00  0.00     0.031 C 
ATOM     41  C   UNL A   1      45.257  24.310  34.189  1.00  0.00     0.029 A 
ATOM     42  C   UNL A   1      46.716  24.341  34.105  1.00  0.00     0.049 A 
ATOM     43  H   UNL A   1      47.874  25.087  32.541  1.00  0.00     0.167 HD
ATOM     44  C   UNL A   1      50.197  26.419  29.078  1.00  0.00     0.034 A 
ATOM     45  C   UNL A   1      47.567  23.899  35.053  1.00  0.00     0.034 A 
ATOM     46  C   UNL A   1      51.171  26.123  30.093  1.00  0.00     0.049 A 
ATOM     47  C   UNL A   1      49.051  24.039  34.834  1.00  0.00     0.074 A 
ATOM     48  C   UNL A   1      52.546  26.265  30.033  1.00  0.00     0.029 A 
ATOM     49  N   UNL A   1      50.877  25.612  31.348  1.00  0.00    -0.354 N 
ATOM     50  N   UNL A   1      49.690  24.550  33.808  1.00  0.00    -0.248 NA
ATOM     51  C   UNL A   1      49.930  23.579  35.918  1.00  0.00     0.031 C 
ATOM     52  C   UNL A   1      53.086  25.812  31.241  1.00  0.00     0.029 A 
ATOM     53  C   UNL A   1      52.044  25.422  32.067  1.00  0.00     0.049 A 
ATOM     54  H   UNL A   1      49.970  25.414  31.678  1.00  0.00     0.167 HD
ATOM     55  C   UNL A   1      51.039  24.513  34.142  1.00  0.00     0.074 A 
ATOM     56  C   UNL A   1      51.125  23.942  35.470  1.00  0.00     0.031 C 
ATOM     57  C   UNL A   1      52.111  24.906  33.411  1.00  0.00     0.034 A 
BRANCH  44  58
ATOM     58  C   UNL A   1      50.689  26.918  27.744  1.00  0.00     0.023 A 
ATOM     59  C   UNL A   1      50.854  26.013  26.676  1.00  0.00     0.012 A 
ATOM     60  C   UNL A   1      50.931  28.289  27.532  1.00  0.00     0.148 A 
ATOM     61  C   UNL A   1      51.284  26.460  25.426  1.00  0.00     0.002 A 
ATOM     62  C   UNL A   1      51.315  28.733  26.272  1.00  0.00     0.091 A 
ATOM     63  F   UNL A   1      50.789  29.130  28.565  1.00  0.00    -0.205 F 
ATOM     64  C   UNL A   1      51.504  27.820  25.222  1.00  0.00     0.022 A 
BRANCH  62  65
ATOM     65  S   UNL A   1      51.544  30.474  25.887  1.00  0.00     0.127 S 
ATOM     66  O   UNL A   1      50.293  31.050  26.378  1.00  0.00    -0.237 OA
ATOM     67  O   UNL A   1      52.724  30.811  26.683  1.00  0.00    -0.237 OA
ATOM     68  O   UNL A   1      51.743  30.544  24.447  1.00  0.00    -0.744 OA
ENDBRANCH  62  65
ENDBRANCH  44  58
BRANCH  45  69
ATOM     69  C   UNL A   1      47.033  23.318  36.317  1.00  0.00     0.023 A 
ATOM     70  C   UNL A   1      46.439  24.159  37.276  1.00  0.00     0.012 A 
ATOM     71  C   UNL A   1      47.095  21.932  36.562  1.00  0.00     0.148 A 
ATOM     72  C   UNL A   1      45.944  23.636  38.471  1.00  0.00     0.002 A 
ATOM     73  C   UNL A   1      46.549  21.411  37.729  1.00  0.00     0.091 A 
ATOM     74  F   UNL A   1      47.679  21.150  35.643  1.00  0.00    -0.205 F 
ATOM     75  C   UNL A   1      45.989  22.262  38.693  1.00  0.00     0.022 A 
BRANCH  73  76
ATOM     76  S   UNL A   1      46.444  19.644  38.035  1.00  0.00     0.127 S 
ATOM     77  O   UNL A   1      45.688  19.183  36.872  1.00  0.00    -0.237 OA
ATOM     78  O   UNL A   1      47.854  19.257  38.047  1.00  0.00    -0.237 OA
ATOM     79  O   UNL A   1      45.773  19.505  39.321  1.00  0.00    -0.744 OA
ENDBRANCH  73  76
ENDBRANCH  45  69
BRANCH  57  80
ATOM     80  C   UNL A   1      53.475  24.788  34.043  1.00  0.00     0.023 A 
ATOM     81  C   UNL A   1      54.251  23.630  33.837  1.00  0.00     0.012 A 
ATOM     82  C   UNL A   1      54.017  25.861  34.778  1.00  0.00     0.148 A 
ATOM     83  C   UNL A   1      55.531  23.528  34.383  1.00  0.00     0.002 A 
ATOM     84  C   UNL A   1      55.312  25.774  35.275  1.00  0.00     0.091 A 
ATOM     85  F   UNL A   1      53.257  26.948  34.979  1.00  0.00    -0.205 F 
ATOM     86  C   UNL A   1      56.066  24.604  35.090  1.00  0.00     0.022 A 
BRANCH  84  87
ATOM     87  S   UNL A   1      56.115  27.146  36.111  1.00  0.00     0.127 S 
ATOM     88  O   UNL A   1      55.325  27.253  37.336  1.00  0.00    -0.237 OA
ATOM     89  O   UNL A   1      57.475  26.638  36.303  1.00  0.00    -0.237 OA
ATOM     90  O   UNL A   1      56.019  28.282  35.204  1.00  0.00    -0.744 OA
ENDBRANCH  84  87
ENDBRANCH  57  80
ENDBRANCH  31  32
ENDBRANCH  24  26
ENDBRANCH  23  24
ENDBRANCH  22  23
ENDBRANCH  21  22
ENDBRANCH  20  21
ENDBRANCH   1  20
TORSDOF 22
ENDMDL
MODEL 3
REMARK VINA RESULT:      -6.1      7.100     11.159
REMARK SMILES CC(C)(O)CCOc1ccc(C(=O)OCCOCCOC(=O)c2ccc(-c3c4nc(c(-c5cccc(S(=O)(=O)[O-])c5F)c5ccc([nH]5)c(-c5cccc(S(=O)(=O)[O-])c5F)c5nc(c(-c6cccc(S(=O)(=O)[O-])c6F)c6ccc3[nH]6)C=C5)C=C4)cc2)cc1
REMARK SMILES IDX 16 1 15 2 14 3 12 4 13 5 11 6 8 7 9 8 87 9 10 10 86 11 7 12
REMARK SMILES IDX 6 13 5 14 2 15 1 16 3 17 4 18 17 20 18 21 19 22 20 23 21 24
REMARK SMILES IDX 22 25 23 26 24 27 85 28 25 29 84 30 26 31 27 32 28 33 78 34
REMARK SMILES IDX 29 35 83 36 77 37 79 38 30 39 82 40 76 41 75 42 31 44 63 45
REMARK SMILES IDX 43 46 62 47 44 48 47 49 61 50 80 51 45 52 46 53 60 55 81 56
REMARK SMILES IDX 48 57 32 58 33 59 41 60 34 61 36 62 42 63 35 64 37 65 38 66
REMARK SMILES IDX 39 67 40 68 64 69 65 70 73 71 66 72 68 73 74 74 67 75 69 76
REMARK SMILES IDX 70 77 71 78 72 79 49 80 50 81 58 82 51 83 53 84 59 85 52 86
REMARK SMILES IDX 54 87 55 88 56 89 57 90
REMARK H PARENT 4 19 79 43 47 54
REMARK Flexibility Score: inf
ROOT
ATOM      1  C   UNL A   1      43.816  29.113  26.944  1.00  0.00     0.202 C 
ENDROOT
BRANCH   1   2
ATOM      2  C   UNL A   1      45.072  28.854  26.105  1.00  0.00     0.261 C 
BRANCH   2   3
ATOM      3  O   UNL A   1      44.846  27.887  25.068  1.00  0.00    -0.460 OA
BRANCH   3   4
ATOM      4  C   UNL A   1      45.810  26.942  24.924  1.00  0.00     0.338 C 
ATOM      5  O   UNL A   1      47.009  27.104  24.812  1.00  0.00    -0.246 OA
BRANCH   4   6
ATOM      6  C   UNL A   1      45.171  25.622  25.074  1.00  0.00     0.060 A 
ATOM      7  C   UNL A   1      43.909  23.127  25.081  1.00  0.00     0.119 A 
ATOM      8  C   UNL A   1      43.156  24.301  25.202  1.00  0.00     0.047 A 
ATOM      9  C   UNL A   1      45.300  23.216  25.084  1.00  0.00     0.047 A 
ATOM     10  C   UNL A   1      43.783  25.549  25.218  1.00  0.00     0.019 A 
ATOM     11  C   UNL A   1      45.935  24.458  25.032  1.00  0.00     0.019 A 
BRANCH   7  12
ATOM     12  O   UNL A   1      43.177  21.990  24.878  1.00  0.00    -0.493 OA
BRANCH  12  13
ATOM     13  C   UNL A   1      43.472  20.816  25.639  1.00  0.00     0.232 C 
BRANCH  13  14
ATOM     14  C   UNL A   1      42.244  20.051  26.174  1.00  0.00     0.076 C 
BRANCH  14  15
ATOM     15  C   UNL A   1      41.372  20.727  27.257  1.00  0.00     0.062 C 
ATOM     16  C   UNL A   1      40.172  21.471  26.663  1.00  0.00     0.042 C 
ATOM     17  C   UNL A   1      42.206  21.730  28.069  1.00  0.00     0.042 C 
BRANCH  15  18
ATOM     18  O   UNL A   1      40.939  19.741  28.191  1.00  0.00    -0.390 OA
ATOM     19  H   UNL A   1      41.642  19.085  28.317  1.00  0.00     0.211 HD
ENDBRANCH  15  18
ENDBRANCH  14  15
ENDBRANCH  13  14
ENDBRANCH  12  13
ENDBRANCH   7  12
ENDBRANCH   4   6
ENDBRANCH   3   4
ENDBRANCH   2   3
ENDBRANCH   1   2
BRANCH   1  20
ATOM     20  O   UNL A   1      42.678  29.568  26.209  1.00  0.00    -0.374 OA
BRANCH  20  21
ATOM     21  C   UNL A   1      41.674  28.578  25.966  1.00  0.00     0.202 C 
BRANCH  21  22
ATOM     22  C   UNL A   1      40.408  28.726  26.817  1.00  0.00     0.261 C 
BRANCH  22  23
ATOM     23  O   UNL A   1      40.634  28.298  28.170  1.00  0.00    -0.460 OA
BRANCH  23  24
ATOM     24  C   UNL A   1      40.674  26.954  28.343  1.00  0.00     0.338 C 
ATOM     25  O   UNL A   1      39.888  26.133  27.903  1.00  0.00    -0.246 OA
BRANCH  24  26
ATOM     26  C   UNL A   1      41.925  26.573  29.027  1.00  0.00     0.060 A 
ATOM     27  C   UNL A   1      42.465  27.492  29.936  1.00  0.00     0.016 A 
ATOM     28  C   UNL A   1      42.594  25.380  28.742  1.00  0.00     0.016 A 
ATOM     29  C   UNL A   1      43.709  27.252  30.513  1.00  0.00     0.010 A 
ATOM     30  C   UNL A   1      43.843  25.141  29.325  1.00  0.00     0.010 A 
ATOM     31  C   UNL A   1      44.426  26.095  30.178  1.00  0.00    -0.014 A 
BRANCH  31  32
ATOM     32  C   UNL A   1      45.836  25.958  30.618  1.00  0.00     0.031 A 
ATOM     33  C   UNL A   1      46.130  25.361  31.968  1.00  0.00     0.074 A 
ATOM     34  C   UNL A   1      46.845  26.344  29.816  1.00  0.00     0.049 A 
ATOM     35  N   UNL A   1      47.284  25.141  32.542  1.00  0.00    -0.248 NA
ATOM     36  C   UNL A   1      44.970  24.965  32.783  1.00  0.00     0.031 C 
ATOM     37  C   UNL A   1      46.688  26.940  28.490  1.00  0.00     0.029 A 
ATOM     38  N   UNL A   1      48.203  26.307  30.011  1.00  0.00    -0.354 N 
ATOM     39  C   UNL A   1      46.991  24.607  33.792  1.00  0.00     0.074 A 
ATOM     40  C   UNL A   1      45.550  24.554  33.901  1.00  0.00     0.031 C 
ATOM     41  C   UNL A   1      47.904  27.233  27.997  1.00  0.00     0.029 A 
ATOM     42  C   UNL A   1      48.921  26.866  28.980  1.00  0.00     0.049 A 
ATOM     43  H   UNL A   1      48.622  25.917  30.811  1.00  0.00     0.167 HD
ATOM     44  C   UNL A   1      47.844  24.183  34.755  1.00  0.00     0.034 A 
ATOM     45  C   UNL A   1      50.247  27.071  28.852  1.00  0.00     0.034 A 
ATOM     46  C   UNL A   1      49.276  24.216  34.634  1.00  0.00     0.049 A 
ATOM     47  C   UNL A   1      51.175  26.596  29.940  1.00  0.00     0.074 A 
ATOM     48  C   UNL A   1      50.225  23.760  35.532  1.00  0.00     0.029 A 
ATOM     49  N   UNL A   1      49.968  24.744  33.555  1.00  0.00    -0.354 N 
ATOM     50  N   UNL A   1      50.885  25.981  31.061  1.00  0.00    -0.248 NA
ATOM     51  C   UNL A   1      52.613  26.808  29.727  1.00  0.00     0.031 C 
ATOM     52  C   UNL A   1      51.492  24.040  35.009  1.00  0.00     0.029 A 
ATOM     53  C   UNL A   1      51.331  24.637  33.769  1.00  0.00     0.049 A 
ATOM     54  H   UNL A   1      49.550  25.138  32.755  1.00  0.00     0.167 HD
ATOM     55  C   UNL A   1      52.105  25.695  31.665  1.00  0.00     0.074 A 
ATOM     56  C   UNL A   1      53.137  26.191  30.779  1.00  0.00     0.031 C 
ATOM     57  C   UNL A   1      52.349  25.084  32.851  1.00  0.00     0.034 A 
BRANCH  44  58
ATOM     58  C   UNL A   1      47.249  23.622  36.021  1.00  0.00     0.023 A 
ATOM     59  C   UNL A   1      46.659  24.491  36.962  1.00  0.00     0.012 A 
ATOM     60  C   UNL A   1      47.223  22.233  36.251  1.00  0.00     0.148 A 
ATOM     61  C   UNL A   1      46.081  23.988  38.128  1.00  0.00     0.002 A 
ATOM     62  C   UNL A   1      46.605  21.736  37.393  1.00  0.00     0.091 A 
ATOM     63  F   UNL A   1      47.808  21.426  35.356  1.00  0.00    -0.205 F 
ATOM     64  C   UNL A   1      46.045  22.612  38.337  1.00  0.00     0.022 A 
BRANCH  62  65
ATOM     65  S   UNL A   1      46.435  19.976  37.713  1.00  0.00     0.127 S 
ATOM     66  O   UNL A   1      45.613  19.549  36.582  1.00  0.00    -0.237 OA
ATOM     67  O   UNL A   1      47.823  19.520  37.665  1.00  0.00    -0.237 OA
ATOM     68  O   UNL A   1      45.804  19.865  39.021  1.00  0.00    -0.744 OA
ENDBRANCH  62  65
ENDBRANCH  44  58
BRANCH  45  69
ATOM     69  C   UNL A   1      50.782  27.723  27.623  1.00  0.00     0.023 A 
ATOM     70  C   UNL A   1      51.190  26.932  26.533  1.00  0.00     0.012 A 
ATOM     71  C   UNL A   1      50.868  29.126  27.525  1.00  0.00     0.148 A 
ATOM     72  C   UNL A   1      51.705  27.523  25.379  1.00  0.00     0.002 A 
ATOM     73  C   UNL A   1      51.327  29.710  26.350  1.00  0.00     0.091 A 
ATOM     74  F   UNL A   1      50.489  29.862  28.579  1.00  0.00    -0.205 F 
ATOM     75  C   UNL A   1      51.764  28.911  25.283  1.00  0.00     0.022 A 
BRANCH  73  76
ATOM     76  S   UNL A   1      51.311  31.488  26.091  1.00  0.00     0.127 S 
ATOM     77  O   UNL A   1      52.331  31.937  27.035  1.00  0.00    -0.237 OA
ATOM     78  O   UNL A   1      51.687  31.589  24.681  1.00  0.00    -0.237 OA
ATOM     79  O   UNL A   1      49.949  31.916  26.380  1.00  0.00    -0.744 OA
ENDBRANCH  73  76
ENDBRANCH  45  69
BRANCH  57  80
ATOM     80  C   UNL A   1      53.787  24.864  33.247  1.00  0.00     0.023 A 
ATOM     81  C   UNL A   1      54.478  23.725  32.789  1.00  0.00     0.012 A 
ATOM     82  C   UNL A   1      54.474  25.829  34.011  1.00  0.00     0.148 A 
ATOM     83  C   UNL A   1      55.821  23.533  33.115  1.00  0.00     0.002 A 
ATOM     84  C   UNL A   1      55.825  25.657  34.288  1.00  0.00     0.091 A 
ATOM     85  F   UNL A   1      53.794  26.897  34.453  1.00  0.00    -0.205 F 
ATOM     86  C   UNL A   1      56.497  24.503  33.852  1.00  0.00     0.022 A 
BRANCH  84  87
ATOM     87  S   UNL A   1      56.796  26.901  35.145  1.00  0.00     0.127 S 
ATOM     88  O   UNL A   1      56.039  27.069  36.384  1.00  0.00    -0.237 OA
ATOM     89  O   UNL A   1      58.087  26.229  35.305  1.00  0.00    -0.237 OA
ATOM     90  O   UNL A   1      56.826  28.063  34.267  1.00  0.00    -0.744 OA
ENDBRANCH  84  87
ENDBRANCH  57  80
ENDBRANCH  31  32
ENDBRANCH  24  26
ENDBRANCH  23  24
ENDBRANCH  22  23
ENDBRANCH  21  22
ENDBRANCH  20  21
ENDBRANCH   1  20
TORSDOF 22
ENDMDL
