MODEL 1
REMARK VINA RESULT:     -12.4      0.000      0.000
REMARK SMILES Cc1ccc(C(=O)OCCOCCOC(=O)c2ccc(-c3c4nc(c(-c5cccc(S(=O)(=O)[O-])c5F)c5ccc([nH]5)c(-c5cccc(S(=O)(=O)[O-])c5F)c5nc(c(-c6cccc(S(=O)(=O)[O-])c6F)c6ccc3[nH]6)C=C5)C=C4)cc2)c2c1N[C@H](c1ccccc1F)[C@H]1CC=C[C@@H]21
REMARK SMILES IDX 12 1 11 2 10 3 9 4 8 5 6 6 7 7 5 8 1 9 2 10 3 11 81 12 4 13
REMARK SMILES IDX 80 14 82 15 95 16 83 17 91 19 94 20 92 21 93 22 84 23 85 24
REMARK SMILES IDX 89 25 86 26 88 27 90 28 87 29 13 30 14 31 15 32 16 33 17 34
REMARK SMILES IDX 18 35 79 36 19 37 78 38 20 39 21 40 22 41 72 42 23 43 77 44
REMARK SMILES IDX 71 45 73 46 24 47 76 48 70 49 69 50 25 52 57 53 37 54 56 55
REMARK SMILES IDX 38 56 41 57 55 58 74 59 39 60 40 61 54 63 75 64 42 65 26 66
REMARK SMILES IDX 27 67 35 68 28 69 30 70 36 71 29 72 31 73 32 74 33 75 34 76
REMARK SMILES IDX 58 77 59 78 67 79 60 80 62 81 68 82 61 83 63 84 64 85 65 86
REMARK SMILES IDX 66 87 43 88 44 89 52 90 45 91 47 92 53 93 46 94 48 95 49 96
REMARK SMILES IDX 50 97 51 98
REMARK H PARENT 82 18 73 51 41 62
REMARK Flexibility Score: inf
ROOT
ATOM      1  C   UNL A   1      36.065  20.321  24.806  1.00  0.00     0.202 C 
ENDROOT
BRANCH   1   2
ATOM      2  O   UNL A   1      35.140  19.245  24.635  1.00  0.00    -0.374 OA
BRANCH   2   3
ATOM      3  C   UNL A   1      33.749  19.558  24.626  1.00  0.00     0.202 C 
BRANCH   3   4
ATOM      4  C   UNL A   1      33.218  20.498  25.713  1.00  0.00     0.261 C 
BRANCH   4   5
ATOM      5  O   UNL A   1      32.611  21.674  25.166  1.00  0.00    -0.460 OA
BRANCH   5   6
ATOM      6  C   UNL A   1      33.414  22.764  25.136  1.00  0.00     0.338 C 
ATOM      7  O   UNL A   1      34.221  23.097  25.992  1.00  0.00    -0.246 OA
BRANCH   6   8
ATOM      8  C   UNL A   1      33.213  23.501  23.868  1.00  0.00     0.065 A 
ATOM      9  C   UNL A   1      32.532  25.198  19.973  1.00  0.00     0.046 C 
ATOM     10  C   UNL A   1      32.777  24.687  21.369  1.00  0.00    -0.028 A 
ATOM     11  C   UNL A   1      33.659  23.601  21.502  1.00  0.00     0.006 A 
ATOM     12  C   UNL A   1      32.178  25.254  22.517  1.00  0.00     0.042 A 
ATOM     13  C   UNL A   1      33.875  23.010  22.740  1.00  0.00     0.016 A 
ATOM     14  C   UNL A   1      32.379  24.647  23.783  1.00  0.00    -0.003 A 
ATOM     15  N   UNL A   1      31.372  26.380  22.406  1.00  0.00    -0.377 N 
ATOM     16  C   UNL A   1      31.825  25.313  25.031  1.00  0.00     0.050 C 
ATOM     17  C   UNL A   1      30.447  26.720  23.475  1.00  0.00     0.117 C 
ATOM     18  H   UNL A   1      31.428  26.947  21.603  1.00  0.00     0.161 HD
ATOM     19  C   UNL A   1      31.227  26.727  24.806  1.00  0.00     0.031 C 
ATOM     20  C   UNL A   1      30.677  24.639  25.736  1.00  0.00    -0.023 C 
ATOM     21  C   UNL A   1      30.313  26.927  26.028  1.00  0.00     0.034 C 
ATOM     22  C   UNL A   1      29.871  25.532  26.323  1.00  0.00    -0.030 C 
BRANCH  17  23
ATOM     23  C   UNL A   1      29.662  27.958  23.076  1.00  0.00     0.010 A 
ATOM     24  C   UNL A   1      30.358  29.006  22.439  1.00  0.00     0.009 A 
ATOM     25  C   UNL A   1      28.287  28.121  23.266  1.00  0.00     0.128 A 
ATOM     26  C   UNL A   1      29.694  30.144  21.976  1.00  0.00     0.001 A 
ATOM     27  C   UNL A   1      27.616  29.251  22.798  1.00  0.00     0.039 A 
ATOM     28  F   UNL A   1      27.560  27.178  23.880  1.00  0.00    -0.207 F 
ATOM     29  C   UNL A   1      28.318  30.262  22.146  1.00  0.00     0.003 A 
ENDBRANCH  17  23
ENDBRANCH   6   8
ENDBRANCH   5   6
ENDBRANCH   4   5
ENDBRANCH   3   4
ENDBRANCH   2   3
ENDBRANCH   1   2
BRANCH   1  30
ATOM     30  C   UNL A   1      37.553  19.992  24.977  1.00  0.00     0.261 C 
BRANCH  30  31
ATOM     31  O   UNL A   1      38.353  21.156  25.238  1.00  0.00    -0.460 OA
BRANCH  31  32
ATOM     32  C   UNL A   1      39.365  20.968  26.117  1.00  0.00     0.338 C 
ATOM     33  O   UNL A   1      40.018  19.951  26.293  1.00  0.00    -0.246 OA
BRANCH  32  34
ATOM     34  C   UNL A   1      39.722  22.256  26.732  1.00  0.00     0.060 A 
ATOM     35  C   UNL A   1      38.984  23.390  26.364  1.00  0.00     0.016 A 
ATOM     36  C   UNL A   1      40.826  22.361  27.576  1.00  0.00     0.016 A 
ATOM     37  C   UNL A   1      39.370  24.646  26.819  1.00  0.00     0.010 A 
ATOM     38  C   UNL A   1      41.227  23.626  28.011  1.00  0.00     0.010 A 
ATOM     39  C   UNL A   1      40.522  24.771  27.604  1.00  0.00    -0.014 A 
BRANCH  39  40
ATOM     40  C   UNL A   1      41.090  26.115  27.842  1.00  0.00     0.031 A 
ATOM     41  C   UNL A   1      42.487  26.396  27.366  1.00  0.00     0.074 A 
ATOM     42  C   UNL A   1      40.367  27.068  28.456  1.00  0.00     0.049 A 
ATOM     43  N   UNL A   1      43.198  27.482  27.499  1.00  0.00    -0.248 NA
ATOM     44  C   UNL A   1      43.174  25.310  26.642  1.00  0.00     0.031 C 
ATOM     45  C   UNL A   1      38.995  26.910  28.936  1.00  0.00     0.029 A 
ATOM     46  N   UNL A   1      40.702  28.352  28.800  1.00  0.00    -0.354 N 
ATOM     47  C   UNL A   1      44.418  27.209  26.894  1.00  0.00     0.074 A 
ATOM     48  C   UNL A   1      44.358  25.855  26.394  1.00  0.00     0.031 C 
ATOM     49  C   UNL A   1      38.615  28.049  29.541  1.00  0.00     0.029 A 
ATOM     50  C   UNL A   1      39.722  29.003  29.508  1.00  0.00     0.049 A 
ATOM     51  H   UNL A   1      41.562  28.768  28.561  1.00  0.00     0.167 HD
ATOM     52  C   UNL A   1      45.487  28.025  26.754  1.00  0.00     0.034 A 
ATOM     53  C   UNL A   1      39.728  30.222  30.081  1.00  0.00     0.034 A 
ATOM     54  C   UNL A   1      45.536  29.377  27.232  1.00  0.00     0.049 A 
ATOM     55  C   UNL A   1      40.946  31.096  29.943  1.00  0.00     0.074 A 
ATOM     56  C   UNL A   1      46.567  30.289  27.110  1.00  0.00     0.029 A 
ATOM     57  N   UNL A   1      44.515  30.007  27.924  1.00  0.00    -0.354 N 
ATOM     58  N   UNL A   1      42.063  30.853  29.300  1.00  0.00    -0.248 NA
ATOM     59  C   UNL A   1      40.899  32.419  30.585  1.00  0.00     0.031 C 
ATOM     60  C   UNL A   1      46.176  31.472  27.742  1.00  0.00     0.029 A 
ATOM     61  C   UNL A   1      44.894  31.298  28.241  1.00  0.00     0.049 A 
ATOM     62  H   UNL A   1      43.651  29.598  28.156  1.00  0.00     0.167 HD
ATOM     63  C   UNL A   1      42.839  31.998  29.438  1.00  0.00     0.074 A 
ATOM     64  C   UNL A   1      42.063  32.941  30.217  1.00  0.00     0.031 C 
ATOM     65  C   UNL A   1      44.087  32.240  28.970  1.00  0.00     0.034 A 
BRANCH  52  66
ATOM     66  C   UNL A   1      46.686  27.506  26.017  1.00  0.00     0.023 A 
ATOM     67  C   UNL A   1      46.827  27.799  24.646  1.00  0.00     0.012 A 
ATOM     68  C   UNL A   1      47.724  26.846  26.701  1.00  0.00     0.148 A 
ATOM     69  C   UNL A   1      47.990  27.447  23.966  1.00  0.00     0.002 A 
ATOM     70  C   UNL A   1      48.892  26.523  26.023  1.00  0.00     0.091 A 
ATOM     71  F   UNL A   1      47.554  26.570  28.002  1.00  0.00    -0.205 F 
ATOM     72  C   UNL A   1      49.026  26.820  24.656  1.00  0.00     0.022 A 
BRANCH  70  73
ATOM     73  S   UNL A   1      50.307  25.766  26.828  1.00  0.00     0.127 S 
ATOM     74  O   UNL A   1      49.765  24.463  27.215  1.00  0.00    -0.237 OA
ATOM     75  O   UNL A   1      51.287  25.721  25.743  1.00  0.00    -0.237 OA
ATOM     76  O   UNL A   1      50.657  26.639  27.940  1.00  0.00    -0.744 OA
ENDBRANCH  70  73
ENDBRANCH  52  66
BRANCH  53  77
ATOM     77  C   UNL A   1      38.524  30.695  30.815  1.00  0.00     0.023 A 
ATOM     78  C   UNL A   1      38.432  30.483  32.203  1.00  0.00     0.012 A 
ATOM     79  C   UNL A   1      37.494  31.389  30.151  1.00  0.00     0.148 A 
ATOM     80  C   UNL A   1      37.326  30.945  32.918  1.00  0.00     0.002 A 
ATOM     81  C   UNL A   1      36.414  31.880  30.875  1.00  0.00     0.091 A 
ATOM     82  F   UNL A   1      37.603  31.570  28.827  1.00  0.00    -0.205 F 
ATOM     83  C   UNL A   1      36.324  31.651  32.257  1.00  0.00     0.022 A 
BRANCH  81  84
ATOM     84  S   UNL A   1      35.120  32.879  30.129  1.00  0.00     0.127 S 
ATOM     85  O   UNL A   1      34.508  31.930  29.203  1.00  0.00    -0.237 OA
ATOM     86  O   UNL A   1      34.302  33.224  31.292  1.00  0.00    -0.237 OA
ATOM     87  O   UNL A   1      35.798  34.010  29.510  1.00  0.00    -0.744 OA
ENDBRANCH  81  84
ENDBRANCH  53  77
BRANCH  65  88
ATOM     88  C   UNL A   1      44.709  33.578  29.255  1.00  0.00     0.023 A 
ATOM     89  C   UNL A   1      45.505  33.739  30.404  1.00  0.00     0.012 A 
ATOM     90  C   UNL A   1      44.630  34.619  28.308  1.00  0.00     0.148 A 
ATOM     91  C   UNL A   1      46.214  34.921  30.611  1.00  0.00     0.002 A 
ATOM     92  C   UNL A   1      45.366  35.780  28.504  1.00  0.00     0.091 A 
ATOM     93  F   UNL A   1      43.862  34.437  27.224  1.00  0.00    -0.205 F 
ATOM     94  C   UNL A   1      46.154  35.935  29.656  1.00  0.00     0.022 A 
BRANCH  92  95
ATOM     95  S   UNL A   1      45.419  37.109  27.296  1.00  0.00     0.127 S 
ATOM     96  O   UNL A   1      46.274  38.087  27.968  1.00  0.00    -0.237 OA
ATOM     97  O   UNL A   1      46.032  36.452  26.142  1.00  0.00    -0.237 OA
ATOM     98  O   UNL A   1      44.039  37.530  27.095  1.00  0.00    -0.744 OA
ENDBRANCH  92  95
ENDBRANCH  65  88
ENDBRANCH  39  40
ENDBRANCH  32  34
ENDBRANCH  31  32
ENDBRANCH  30  31
ENDBRANCH   1  30
TORSDOF 18
ENDMDL
MODEL 2
REMARK VINA RESULT:     -12.4      0.378      7.532
REMARK SMILES Cc1ccc(C(=O)OCCOCCOC(=O)c2ccc(-c3c4nc(c(-c5cccc(S(=O)(=O)[O-])c5F)c5ccc([nH]5)c(-c5cccc(S(=O)(=O)[O-])c5F)c5nc(c(-c6cccc(S(=O)(=O)[O-])c6F)c6ccc3[nH]6)C=C5)C=C4)cc2)c2c1N[C@H](c1ccccc1F)[C@H]1CC=C[C@@H]21
REMARK SMILES IDX 12 1 11 2 10 3 9 4 8 5 6 6 7 7 5 8 1 9 2 10 3 11 81 12 4 13
REMARK SMILES IDX 80 14 82 15 95 16 83 17 91 19 94 20 92 21 93 22 84 23 85 24
REMARK SMILES IDX 89 25 86 26 88 27 90 28 87 29 13 30 14 31 15 32 16 33 17 34
REMARK SMILES IDX 18 35 79 36 19 37 78 38 20 39 21 40 22 41 72 42 23 43 77 44
REMARK SMILES IDX 71 45 73 46 24 47 76 48 70 49 69 50 25 52 57 53 37 54 56 55
REMARK SMILES IDX 38 56 41 57 55 58 74 59 39 60 40 61 54 63 75 64 42 65 26 66
REMARK SMILES IDX 27 67 35 68 28 69 30 70 36 71 29 72 31 73 32 74 33 75 34 76
REMARK SMILES IDX 58 77 59 78 67 79 60 80 62 81 68 82 61 83 63 84 64 85 65 86
REMARK SMILES IDX 66 87 43 88 44 89 52 90 45 91 47 92 53 93 46 94 48 95 49 96
REMARK SMILES IDX 50 97 51 98
REMARK H PARENT 82 18 73 51 41 62
REMARK Flexibility Score: inf
ROOT
ATOM      1  C   UNL A   1      36.005  20.319  24.970  1.00  0.00     0.202 C 
ENDROOT
BRANCH   1   2
ATOM      2  O   UNL A   1      35.075  19.278  24.660  1.00  0.00    -0.374 OA
BRANCH   2   3
ATOM      3  C   UNL A   1      33.689  19.613  24.628  1.00  0.00     0.202 C 
BRANCH   3   4
ATOM      4  C   UNL A   1      33.151  20.551  25.713  1.00  0.00     0.261 C 
BRANCH   4   5
ATOM      5  O   UNL A   1      32.559  21.733  25.164  1.00  0.00    -0.460 OA
BRANCH   5   6
ATOM      6  C   UNL A   1      33.377  22.811  25.125  1.00  0.00     0.338 C 
ATOM      7  O   UNL A   1      34.190  23.138  25.978  1.00  0.00    -0.246 OA
BRANCH   6   8
ATOM      8  C   UNL A   1      33.185  23.541  23.852  1.00  0.00     0.065 A 
ATOM      9  C   UNL A   1      32.528  25.216  19.943  1.00  0.00     0.046 C 
ATOM     10  C   UNL A   1      32.765  24.712  21.343  1.00  0.00    -0.028 A 
ATOM     11  C   UNL A   1      33.635  23.618  21.485  1.00  0.00     0.006 A 
ATOM     12  C   UNL A   1      32.172  25.294  22.487  1.00  0.00     0.042 A 
ATOM     13  C   UNL A   1      33.843  23.034  22.728  1.00  0.00     0.016 A 
ATOM     14  C   UNL A   1      32.364  24.695  23.757  1.00  0.00    -0.003 A 
ATOM     15  N   UNL A   1      31.378  26.428  22.366  1.00  0.00    -0.377 N 
ATOM     16  C   UNL A   1      31.816  25.376  24.999  1.00  0.00     0.050 C 
ATOM     17  C   UNL A   1      30.455  26.787  23.431  1.00  0.00     0.117 C 
ATOM     18  H   UNL A   1      31.441  26.989  21.559  1.00  0.00     0.161 HD
ATOM     19  C   UNL A   1      31.234  26.795  24.763  1.00  0.00     0.031 C 
ATOM     20  C   UNL A   1      30.660  24.720  25.708  1.00  0.00    -0.023 C 
ATOM     21  C   UNL A   1      30.321  27.014  25.982  1.00  0.00     0.034 C 
ATOM     22  C   UNL A   1      29.863  25.626  26.287  1.00  0.00    -0.030 C 
BRANCH  17  23
ATOM     23  C   UNL A   1      29.685  28.030  23.023  1.00  0.00     0.010 A 
ATOM     24  C   UNL A   1      30.400  29.080  22.410  1.00  0.00     0.009 A 
ATOM     25  C   UNL A   1      28.306  28.196  23.180  1.00  0.00     0.128 A 
ATOM     26  C   UNL A   1      29.751  30.224  21.939  1.00  0.00     0.001 A 
ATOM     27  C   UNL A   1      27.650  29.332  22.704  1.00  0.00     0.039 A 
ATOM     28  F   UNL A   1      27.561  27.252  23.768  1.00  0.00    -0.207 F 
ATOM     29  C   UNL A   1      28.371  30.345  22.076  1.00  0.00     0.003 A 
ENDBRANCH  17  23
ENDBRANCH   6   8
ENDBRANCH   5   6
ENDBRANCH   4   5
ENDBRANCH   3   4
ENDBRANCH   2   3
ENDBRANCH   1   2
BRANCH   1  30
ATOM     30  C   UNL A   1      37.504  20.000  24.935  1.00  0.00     0.261 C 
BRANCH  30  31
ATOM     31  O   UNL A   1      38.321  21.140  25.247  1.00  0.00    -0.460 OA
BRANCH  31  32
ATOM     32  C   UNL A   1      39.357  20.889  26.082  1.00  0.00     0.338 C 
ATOM     33  O   UNL A   1      39.958  19.835  26.224  1.00  0.00    -0.246 OA
BRANCH  32  34
ATOM     34  C   UNL A   1      39.812  22.149  26.686  1.00  0.00     0.060 A 
ATOM     35  C   UNL A   1      39.233  23.345  26.237  1.00  0.00     0.016 A 
ATOM     36  C   UNL A   1      40.861  22.162  27.606  1.00  0.00     0.016 A 
ATOM     37  C   UNL A   1      39.724  24.565  26.687  1.00  0.00     0.010 A 
ATOM     38  C   UNL A   1      41.370  23.388  28.035  1.00  0.00     0.010 A 
ATOM     39  C   UNL A   1      40.826  24.590  27.549  1.00  0.00    -0.014 A 
BRANCH  39  40
ATOM     40  C   UNL A   1      41.523  25.871  27.792  1.00  0.00     0.031 A 
ATOM     41  C   UNL A   1      40.788  26.957  28.526  1.00  0.00     0.074 A 
ATOM     42  C   UNL A   1      42.789  26.054  27.379  1.00  0.00     0.049 A 
ATOM     43  N   UNL A   1      41.185  28.166  28.816  1.00  0.00    -0.248 NA
ATOM     44  C   UNL A   1      39.429  26.637  29.000  1.00  0.00     0.031 C 
ATOM     45  C   UNL A   1      43.602  25.060  26.680  1.00  0.00     0.029 A 
ATOM     46  N   UNL A   1      43.603  27.153  27.472  1.00  0.00    -0.354 N 
ATOM     47  C   UNL A   1      40.123  28.758  29.488  1.00  0.00     0.074 A 
ATOM     48  C   UNL A   1      39.062  27.781  29.563  1.00  0.00     0.031 C 
ATOM     49  C   UNL A   1      44.792  25.608  26.379  1.00  0.00     0.029 A 
ATOM     50  C   UNL A   1      44.815  26.993  26.845  1.00  0.00     0.049 A 
ATOM     51  H   UNL A   1      43.343  27.978  27.942  1.00  0.00     0.167 HD
ATOM     52  C   UNL A   1      40.050  30.003  30.010  1.00  0.00     0.034 A 
ATOM     53  C   UNL A   1      45.817  27.872  26.654  1.00  0.00     0.034 A 
ATOM     54  C   UNL A   1      41.114  30.964  29.953  1.00  0.00     0.049 A 
ATOM     55  C   UNL A   1      45.693  29.264  27.213  1.00  0.00     0.074 A 
ATOM     56  C   UNL A   1      41.140  32.241  30.481  1.00  0.00     0.029 A 
ATOM     57  N   UNL A   1      42.333  30.756  29.330  1.00  0.00    -0.354 N 
ATOM     58  N   UNL A   1      44.715  29.785  27.915  1.00  0.00    -0.248 NA
ATOM     59  C   UNL A   1      46.818  30.184  26.979  1.00  0.00     0.031 C 
ATOM     60  C   UNL A   1      42.374  32.814  30.165  1.00  0.00     0.029 A 
ATOM     61  C   UNL A   1      43.119  31.885  29.457  1.00  0.00     0.049 A 
ATOM     62  H   UNL A   1      42.599  29.929  28.868  1.00  0.00     0.167 HD
ATOM     63  C   UNL A   1      45.115  31.079  28.225  1.00  0.00     0.074 A 
ATOM     64  C   UNL A   1      46.429  31.263  27.646  1.00  0.00     0.031 C 
ATOM     65  C   UNL A   1      44.447  32.031  28.920  1.00  0.00     0.034 A 
BRANCH  52  66
ATOM     66  C   UNL A   1      38.796  30.398  30.733  1.00  0.00     0.023 A 
ATOM     67  C   UNL A   1      38.712  30.188  32.124  1.00  0.00     0.012 A 
ATOM     68  C   UNL A   1      37.765  31.086  30.067  1.00  0.00     0.148 A 
ATOM     69  C   UNL A   1      37.619  30.663  32.844  1.00  0.00     0.002 A 
ATOM     70  C   UNL A   1      36.691  31.582  30.796  1.00  0.00     0.091 A 
ATOM     71  F   UNL A   1      37.867  31.258  28.741  1.00  0.00    -0.205 F 
ATOM     72  C   UNL A   1      36.616  31.370  32.183  1.00  0.00     0.022 A 
BRANCH  70  73
ATOM     73  S   UNL A   1      35.375  32.551  30.053  1.00  0.00     0.127 S 
ATOM     74  O   UNL A   1      36.094  33.758  29.641  1.00  0.00    -0.237 OA
ATOM     75  O   UNL A   1      34.948  31.690  28.951  1.00  0.00    -0.237 OA
ATOM     76  O   UNL A   1      34.382  32.756  31.098  1.00  0.00    -0.744 OA
ENDBRANCH  70  73
ENDBRANCH  52  66
BRANCH  53  77
ATOM     77  C   UNL A   1      47.038  27.446  25.920  1.00  0.00     0.023 A 
ATOM     78  C   UNL A   1      47.149  27.719  24.545  1.00  0.00     0.012 A 
ATOM     79  C   UNL A   1      48.104  26.811  26.588  1.00  0.00     0.148 A 
ATOM     80  C   UNL A   1      48.299  27.356  23.841  1.00  0.00     0.002 A 
ATOM     81  C   UNL A   1      49.261  26.487  25.891  1.00  0.00     0.091 A 
ATOM     82  F   UNL A   1      47.968  26.556  27.897  1.00  0.00    -0.205 F 
ATOM     83  C   UNL A   1      49.356  26.750  24.515  1.00  0.00     0.022 A 
BRANCH  81  84
ATOM     84  S   UNL A   1      50.711  25.790  26.689  1.00  0.00     0.127 S 
ATOM     85  O   UNL A   1      50.172  24.559  27.263  1.00  0.00    -0.237 OA
ATOM     86  O   UNL A   1      51.614  25.597  25.553  1.00  0.00    -0.237 OA
ATOM     87  O   UNL A   1      51.154  26.788  27.652  1.00  0.00    -0.744 OA
ENDBRANCH  81  84
ENDBRANCH  53  77
BRANCH  65  88
ATOM     88  C   UNL A   1      45.112  33.363  29.125  1.00  0.00     0.023 A 
ATOM     89  C   UNL A   1      45.894  33.574  30.276  1.00  0.00     0.012 A 
ATOM     90  C   UNL A   1      45.087  34.338  28.108  1.00  0.00     0.148 A 
ATOM     91  C   UNL A   1      46.642  34.742  30.415  1.00  0.00     0.002 A 
ATOM     92  C   UNL A   1      45.861  35.484  28.239  1.00  0.00     0.091 A 
ATOM     93  F   UNL A   1      44.331  34.110  27.025  1.00  0.00    -0.205 F 
ATOM     94  C   UNL A   1      46.635  35.689  29.392  1.00  0.00     0.022 A 
BRANCH  92  95
ATOM     95  S   UNL A   1      45.982  36.725  26.944  1.00  0.00     0.127 S 
ATOM     96  O   UNL A   1      46.289  35.903  25.774  1.00  0.00    -0.237 OA
ATOM     97  O   UNL A   1      44.639  37.305  26.947  1.00  0.00    -0.237 OA
ATOM     98  O   UNL A   1      47.041  37.636  27.354  1.00  0.00    -0.744 OA
ENDBRANCH  92  95
ENDBRANCH  65  88
ENDBRANCH  39  40
ENDBRANCH  32  34
ENDBRANCH  31  32
ENDBRANCH  30  31
ENDBRANCH   1  30
TORSDOF 18
ENDMDL
MODEL 3
REMARK VINA RESULT:     -12.3      1.713      2.438
REMARK SMILES Cc1ccc(C(=O)OCCOCCOC(=O)c2ccc(-c3c4nc(c(-c5cccc(S(=O)(=O)[O-])c5F)c5ccc([nH]5)c(-c5cccc(S(=O)(=O)[O-])c5F)c5nc(c(-c6cccc(S(=O)(=O)[O-])c6F)c6ccc3[nH]6)C=C5)C=C4)cc2)c2c1N[C@H](c1ccccc1F)[C@H]1CC=C[C@@H]21
REMARK SMILES IDX 12 1 11 2 10 3 9 4 8 5 6 6 7 7 5 8 1 9 2 10 3 11 81 12 4 13
REMARK SMILES IDX 80 14 82 15 95 16 83 17 91 19 94 20 92 21 93 22 84 23 85 24
REMARK SMILES IDX 89 25 86 26 88 27 90 28 87 29 13 30 14 31 15 32 16 33 17 34
REMARK SMILES IDX 18 35 79 36 19 37 78 38 20 39 21 40 22 41 72 42 23 43 77 44
REMARK SMILES IDX 71 45 73 46 24 47 76 48 70 49 69 50 25 52 57 53 37 54 56 55
REMARK SMILES IDX 38 56 41 57 55 58 74 59 39 60 40 61 54 63 75 64 42 65 26 66
REMARK SMILES IDX 27 67 35 68 28 69 30 70 36 71 29 72 31 73 32 74 33 75 34 76
REMARK SMILES IDX 58 77 59 78 67 79 60 80 62 81 68 82 61 83 63 84 64 85 65 86
REMARK SMILES IDX 66 87 43 88 44 89 52 90 45 91 47 92 53 93 46 94 48 95 49 96
REMARK SMILES IDX 50 97 51 98
REMARK H PARENT 82 18 73 51 41 62
REMARK Flexibility Score: inf
ROOT
ATOM      1  C   UNL A   1      37.594  20.514  24.696  1.00  0.00     0.202 C 
ENDROOT
BRANCH   1   2
ATOM      2  O   UNL A   1      36.260  20.311  25.171  1.00  0.00    -0.374 OA
BRANCH   2   3
ATOM      3  C   UNL A   1      35.293  21.318  24.885  1.00  0.00     0.202 C 
BRANCH   3   4
ATOM      4  C   UNL A   1      35.716  22.488  23.991  1.00  0.00     0.261 C 
BRANCH   4   5
ATOM      5  O   UNL A   1      34.694  23.485  23.880  1.00  0.00    -0.460 OA
BRANCH   5   6
ATOM      6  C   UNL A   1      34.541  24.264  24.976  1.00  0.00     0.338 C 
ATOM      7  O   UNL A   1      35.435  24.775  25.636  1.00  0.00    -0.246 OA
BRANCH   6   8
ATOM      8  C   UNL A   1      33.101  24.460  25.256  1.00  0.00     0.065 A 
ATOM      9  C   UNL A   1      29.028  24.952  26.553  1.00  0.00     0.046 C 
ATOM     10  C   UNL A   1      30.428  24.804  26.017  1.00  0.00    -0.028 A 
ATOM     11  C   UNL A   1      31.152  23.675  26.437  1.00  0.00     0.006 A 
ATOM     12  C   UNL A   1      31.017  25.726  25.122  1.00  0.00     0.042 A 
ATOM     13  C   UNL A   1      32.479  23.503  26.063  1.00  0.00     0.016 A 
ATOM     14  C   UNL A   1      32.376  25.569  24.748  1.00  0.00    -0.003 A 
ATOM     15  N   UNL A   1      30.281  26.799  24.634  1.00  0.00    -0.377 N 
ATOM     16  C   UNL A   1      32.979  26.495  23.706  1.00  0.00     0.050 C 
ATOM     17  C   UNL A   1      30.963  27.948  24.062  1.00  0.00     0.117 C 
ATOM     18  H   UNL A   1      29.297  26.780  24.677  1.00  0.00     0.161 HD
ATOM     19  C   UNL A   1      31.966  27.439  23.006  1.00  0.00     0.031 C 
ATOM     20  C   UNL A   1      34.010  27.494  24.167  1.00  0.00    -0.023 C 
ATOM     21  C   UNL A   1      32.854  28.561  22.441  1.00  0.00     0.034 C 
ATOM     22  C   UNL A   1      33.967  28.614  23.435  1.00  0.00    -0.030 C 
BRANCH  17  23
ATOM     23  C   UNL A   1      29.931  28.986  23.655  1.00  0.00     0.010 A 
ATOM     24  C   UNL A   1      28.878  28.577  22.812  1.00  0.00     0.009 A 
ATOM     25  C   UNL A   1      29.932  30.316  24.086  1.00  0.00     0.128 A 
ATOM     26  C   UNL A   1      27.850  29.453  22.455  1.00  0.00     0.001 A 
ATOM     27  C   UNL A   1      28.904  31.194  23.741  1.00  0.00     0.039 A 
ATOM     28  F   UNL A   1      30.908  30.785  24.874  1.00  0.00    -0.207 F 
ATOM     29  C   UNL A   1      27.857  30.761  22.929  1.00  0.00     0.003 A 
ENDBRANCH  17  23
ENDBRANCH   6   8
ENDBRANCH   5   6
ENDBRANCH   4   5
ENDBRANCH   3   4
ENDBRANCH   2   3
ENDBRANCH   1   2
BRANCH   1  30
ATOM     30  C   UNL A   1      38.701  19.576  25.191  1.00  0.00     0.261 C 
BRANCH  30  31
ATOM     31  O   UNL A   1      39.238  19.974  26.463  1.00  0.00    -0.460 OA
BRANCH  31  32
ATOM     32  C   UNL A   1      40.548  20.318  26.447  1.00  0.00     0.338 C 
ATOM     33  O   UNL A   1      41.472  19.701  25.940  1.00  0.00    -0.246 OA
BRANCH  32  34
ATOM     34  C   UNL A   1      40.699  21.681  26.977  1.00  0.00     0.060 A 
ATOM     35  C   UNL A   1      40.093  22.734  26.277  1.00  0.00     0.016 A 
ATOM     36  C   UNL A   1      41.507  21.929  28.087  1.00  0.00     0.016 A 
ATOM     37  C   UNL A   1      40.320  24.049  26.669  1.00  0.00     0.010 A 
ATOM     38  C   UNL A   1      41.754  23.251  28.462  1.00  0.00     0.010 A 
ATOM     39  C   UNL A   1      41.190  24.311  27.732  1.00  0.00    -0.014 A 
BRANCH  39  40
ATOM     40  C   UNL A   1      41.654  25.696  27.959  1.00  0.00     0.031 A 
ATOM     41  C   UNL A   1      43.037  26.071  27.510  1.00  0.00     0.074 A 
ATOM     42  C   UNL A   1      40.850  26.603  28.542  1.00  0.00     0.049 A 
ATOM     43  N   UNL A   1      43.664  27.208  27.639  1.00  0.00    -0.248 NA
ATOM     44  C   UNL A   1      43.818  25.028  26.819  1.00  0.00     0.031 C 
ATOM     45  C   UNL A   1      39.483  26.353  28.994  1.00  0.00     0.029 A 
ATOM     46  N   UNL A   1      41.083  27.914  28.871  1.00  0.00    -0.354 N 
ATOM     47  C   UNL A   1      44.914  27.016  27.066  1.00  0.00     0.074 A 
ATOM     48  C   UNL A   1      44.964  25.654  26.588  1.00  0.00     0.031 C 
ATOM     49  C   UNL A   1      39.006  27.470  29.572  1.00  0.00     0.029 A 
ATOM     50  C   UNL A   1      40.042  28.502  29.547  1.00  0.00     0.049 A 
ATOM     51  H   UNL A   1      41.916  28.387  28.644  1.00  0.00     0.167 HD
ATOM     52  C   UNL A   1      45.924  27.905  26.936  1.00  0.00     0.034 A 
ATOM     53  C   UNL A   1      39.946  29.727  30.099  1.00  0.00     0.034 A 
ATOM     54  C   UNL A   1      45.864  29.264  27.392  1.00  0.00     0.049 A 
ATOM     55  C   UNL A   1      41.101  30.685  29.973  1.00  0.00     0.074 A 
ATOM     56  C   UNL A   1      46.829  30.247  27.277  1.00  0.00     0.029 A 
ATOM     57  N   UNL A   1      44.785  29.829  28.051  1.00  0.00    -0.354 N 
ATOM     58  N   UNL A   1      42.247  30.515  29.358  1.00  0.00    -0.248 NA
ATOM     59  C   UNL A   1      40.943  32.011  30.591  1.00  0.00     0.031 C 
ATOM     60  C   UNL A   1      46.339  31.408  27.880  1.00  0.00     0.029 A 
ATOM     61  C   UNL A   1      45.062  31.148  28.354  1.00  0.00     0.049 A 
ATOM     62  H   UNL A   1      43.948  29.361  28.270  1.00  0.00     0.167 HD
ATOM     63  C   UNL A   1      42.934  31.714  29.494  1.00  0.00     0.074 A 
ATOM     64  C   UNL A   1      42.075  32.610  30.240  1.00  0.00     0.031 C 
ATOM     65  C   UNL A   1      44.172  32.040  29.049  1.00  0.00     0.034 A 
BRANCH  52  66
ATOM     66  C   UNL A   1      47.175  27.464  26.233  1.00  0.00     0.023 A 
ATOM     67  C   UNL A   1      48.130  26.712  26.944  1.00  0.00     0.012 A 
ATOM     68  C   UNL A   1      47.341  27.680  24.853  1.00  0.00     0.148 A 
ATOM     69  C   UNL A   1      49.236  26.175  26.288  1.00  0.00     0.002 A 
ATOM     70  C   UNL A   1      48.431  27.118  24.200  1.00  0.00     0.091 A 
ATOM     71  F   UNL A   1      46.422  28.410  24.207  1.00  0.00    -0.205 F 
ATOM     72  C   UNL A   1      49.379  26.368  24.915  1.00  0.00     0.022 A 
BRANCH  70  73
ATOM     73  S   UNL A   1      48.681  27.258  22.427  1.00  0.00     0.127 S 
ATOM     74  O   UNL A   1      47.647  28.225  22.058  1.00  0.00    -0.237 OA
ATOM     75  O   UNL A   1      50.049  27.770  22.353  1.00  0.00    -0.237 OA
ATOM     76  O   UNL A   1      48.492  25.921  21.883  1.00  0.00    -0.744 OA
ENDBRANCH  70  73
ENDBRANCH  52  66
BRANCH  53  77
ATOM     77  C   UNL A   1      38.695  30.122  30.799  1.00  0.00     0.023 A 
ATOM     78  C   UNL A   1      38.516  29.769  32.149  1.00  0.00     0.012 A 
ATOM     79  C   UNL A   1      37.705  30.881  30.145  1.00  0.00     0.148 A 
ATOM     80  C   UNL A   1      37.364  30.155  32.835  1.00  0.00     0.002 A 
ATOM     81  C   UNL A   1      36.578  31.295  30.844  1.00  0.00     0.091 A 
ATOM     82  F   UNL A   1      37.898  31.197  28.856  1.00  0.00    -0.205 F 
ATOM     83  C   UNL A   1      36.401  30.925  32.186  1.00  0.00     0.022 A 
BRANCH  81  84
ATOM     84  S   UNL A   1      35.329  32.366  30.124  1.00  0.00     0.127 S 
ATOM     85  O   UNL A   1      36.125  33.524  29.721  1.00  0.00    -0.237 OA
ATOM     86  O   UNL A   1      34.832  31.545  29.020  1.00  0.00    -0.237 OA
ATOM     87  O   UNL A   1      34.358  32.612  31.181  1.00  0.00    -0.744 OA
ENDBRANCH  81  84
ENDBRANCH  53  77
BRANCH  65  88
ATOM     88  C   UNL A   1      44.688  33.424  29.325  1.00  0.00     0.023 A 
ATOM     89  C   UNL A   1      45.397  33.672  30.515  1.00  0.00     0.012 A 
ATOM     90  C   UNL A   1      44.606  34.428  28.339  1.00  0.00     0.148 A 
ATOM     91  C   UNL A   1      46.016  34.904  30.723  1.00  0.00     0.002 A 
ATOM     92  C   UNL A   1      45.252  35.640  28.539  1.00  0.00     0.091 A 
ATOM     93  F   UNL A   1      43.922  34.162  27.217  1.00  0.00    -0.205 F 
ATOM     94  C   UNL A   1      45.954  35.881  29.731  1.00  0.00     0.022 A 
BRANCH  92  95
ATOM     95  S   UNL A   1      45.298  36.932  27.291  1.00  0.00     0.127 S 
ATOM     96  O   UNL A   1      43.875  37.128  27.015  1.00  0.00    -0.237 OA
ATOM     97  O   UNL A   1      45.938  38.032  28.010  1.00  0.00    -0.237 OA
ATOM     98  O   UNL A   1      46.074  36.396  26.181  1.00  0.00    -0.744 OA
ENDBRANCH  92  95
ENDBRANCH  65  88
ENDBRANCH  39  40
ENDBRANCH  32  34
ENDBRANCH  31  32
ENDBRANCH  30  31
ENDBRANCH   1  30
TORSDOF 18
ENDMDL
