MODEL 1
REMARK VINA RESULT:     -10.2      0.000      0.000
REMARK SMILES CCC[C@H](Cc1ccn(-c2ccccc2)n1)C(=O)OCCOCCOC(=O)c1ccc(-c2c3nc(c(-c4cccc(S(=O)(=O)[O-])c4F)c4ccc([nH]4)c(-c4cccc(S(=O)(=O)[O-])c4F)c4nc(c(-c5cccc(S(=O)(=O)[O-])c5F)c5ccc2[nH]5)C=C4)C=C3)cc1
REMARK SMILES IDX 22 1 21 2 20 3 19 4 17 5 18 6 4 7 3 8 2 9 1 10 5 11 6 12
REMARK SMILES IDX 7 13 16 14 8 15 9 16 10 17 11 18 15 19 12 20 14 21 13 22
REMARK SMILES IDX 23 23 24 24 25 25 26 26 27 27 28 28 29 29 90 30 30 31 89 32
REMARK SMILES IDX 31 33 32 34 33 35 83 36 34 37 88 38 82 39 84 40 35 41 87 42
REMARK SMILES IDX 81 43 80 44 36 46 68 47 48 48 67 49 49 50 52 51 66 52 85 53
REMARK SMILES IDX 50 54 51 55 65 57 86 58 53 59 37 60 38 61 46 62 39 63 41 64
REMARK SMILES IDX 47 65 40 66 42 67 43 68 44 69 45 70 69 71 70 72 78 73 71 74
REMARK SMILES IDX 73 75 79 76 72 77 74 78 75 79 76 80 77 81 54 82 55 83 63 84
REMARK SMILES IDX 56 85 58 86 64 87 57 88 59 89 60 90 61 91 62 92
REMARK H PARENT 84 45 52 56
REMARK Flexibility Score: inf
ROOT
ATOM      1  O   UNL A   1      34.307  30.627  27.286  1.00  0.00    -0.374 OA
ENDROOT
BRANCH   1   2
ATOM      2  C   UNL A   1      33.333  29.592  27.146  1.00  0.00     0.202 C 
BRANCH   2   3
ATOM      3  C   UNL A   1      33.638  28.474  26.151  1.00  0.00     0.261 C 
BRANCH   3   4
ATOM      4  O   UNL A   1      32.975  28.689  24.899  1.00  0.00    -0.463 OA
BRANCH   4   5
ATOM      5  C   UNL A   1      33.427  27.960  23.858  1.00  0.00     0.309 C 
ATOM      6  O   UNL A   1      34.269  28.354  23.055  1.00  0.00    -0.252 OA
BRANCH   5   7
ATOM      7  C   UNL A   1      32.840  26.561  23.776  1.00  0.00     0.105 C 
BRANCH   7   8
ATOM      8  C   UNL A   1      33.968  25.522  23.748  1.00  0.00     0.015 C 
BRANCH   8   9
ATOM      9  C   UNL A   1      34.330  24.942  25.121  1.00  0.00    -0.003 C 
ATOM     10  C   UNL A   1      33.125  24.753  26.030  1.00  0.00     0.004 C 
ENDBRANCH   8   9
ENDBRANCH   7   8
BRANCH   7  11
ATOM     11  C   UNL A   1      31.763  26.337  22.704  1.00  0.00     0.073 C 
BRANCH  11  12
ATOM     12  C   UNL A   1      30.507  27.129  22.837  1.00  0.00     0.064 A 
ATOM     13  C   UNL A   1      29.357  26.802  23.586  1.00  0.00     0.046 A 
ATOM     14  N   UNL A   1      30.386  28.319  22.244  1.00  0.00    -0.173 NA
ATOM     15  C   UNL A   1      28.557  27.915  23.501  1.00  0.00     0.115 A 
ATOM     16  N   UNL A   1      29.230  28.834  22.729  1.00  0.00    -0.241 N 
BRANCH  16  17
ATOM     17  C   UNL A   1      28.834  30.156  22.423  1.00  0.00     0.065 A 
ATOM     18  C   UNL A   1      28.579  30.527  21.098  1.00  0.00     0.028 A 
ATOM     19  C   UNL A   1      28.691  31.091  23.458  1.00  0.00     0.028 A 
ATOM     20  C   UNL A   1      28.189  31.836  20.812  1.00  0.00     0.002 A 
ATOM     21  C   UNL A   1      28.341  32.406  23.158  1.00  0.00     0.002 A 
ATOM     22  C   UNL A   1      28.086  32.776  21.838  1.00  0.00     0.000 A 
ENDBRANCH  16  17
ENDBRANCH  11  12
ENDBRANCH   7  11
ENDBRANCH   5   7
ENDBRANCH   4   5
ENDBRANCH   3   4
ENDBRANCH   2   3
ENDBRANCH   1   2
BRANCH   1  23
ATOM     23  C   UNL A   1      33.911  31.894  27.810  1.00  0.00     0.202 C 
BRANCH  23  24
ATOM     24  C   UNL A   1      34.925  32.661  28.645  1.00  0.00     0.261 C 
BRANCH  24  25
ATOM     25  O   UNL A   1      36.219  32.589  28.066  1.00  0.00    -0.460 OA
BRANCH  25  26
ATOM     26  C   UNL A   1      37.206  33.109  28.824  1.00  0.00     0.338 C 
ATOM     27  O   UNL A   1      37.545  34.284  28.889  1.00  0.00    -0.246 OA
BRANCH  26  28
ATOM     28  C   UNL A   1      37.930  32.009  29.461  1.00  0.00     0.060 A 
ATOM     29  C   UNL A   1      39.051  32.382  30.199  1.00  0.00     0.016 A 
ATOM     30  C   UNL A   1      37.701  30.683  29.057  1.00  0.00     0.016 A 
ATOM     31  C   UNL A   1      40.082  31.483  30.286  1.00  0.00     0.010 A 
ATOM     32  C   UNL A   1      38.736  29.787  29.139  1.00  0.00     0.010 A 
ATOM     33  C   UNL A   1      39.943  30.238  29.660  1.00  0.00    -0.014 A 
BRANCH  33  34
ATOM     34  C   UNL A   1      41.089  29.361  29.691  1.00  0.00     0.031 A 
ATOM     35  C   UNL A   1      41.485  29.070  31.079  1.00  0.00     0.074 A 
ATOM     36  C   UNL A   1      41.669  28.875  28.579  1.00  0.00     0.049 A 
ATOM     37  N   UNL A   1      42.452  29.615  31.738  1.00  0.00    -0.248 NA
ATOM     38  C   UNL A   1      40.553  28.289  31.906  1.00  0.00     0.031 C 
ATOM     39  C   UNL A   1      41.134  28.897  27.213  1.00  0.00     0.029 A 
ATOM     40  N   UNL A   1      42.808  28.141  28.452  1.00  0.00    -0.354 N 
ATOM     41  C   UNL A   1      42.418  28.991  32.979  1.00  0.00     0.074 A 
ATOM     42  C   UNL A   1      41.104  28.425  33.113  1.00  0.00     0.031 C 
ATOM     43  C   UNL A   1      41.803  27.989  26.463  1.00  0.00     0.029 A 
ATOM     44  C   UNL A   1      42.897  27.446  27.250  1.00  0.00     0.049 A 
ATOM     45  H   UNL A   1      43.504  28.103  29.147  1.00  0.00     0.167 HD
ATOM     46  C   UNL A   1      43.581  28.662  33.599  1.00  0.00     0.034 A 
ATOM     47  C   UNL A   1      43.767  26.444  26.973  1.00  0.00     0.034 A 
ATOM     48  C   UNL A   1      44.697  29.323  32.976  1.00  0.00     0.049 A 
ATOM     49  C   UNL A   1      44.900  26.569  27.916  1.00  0.00     0.074 A 
ATOM     50  C   UNL A   1      45.237  30.588  32.945  1.00  0.00     0.029 A 
ATOM     51  N   UNL A   1      45.189  28.635  31.897  1.00  0.00    -0.354 N 
ATOM     52  N   UNL A   1      45.738  27.568  27.894  1.00  0.00    -0.248 NA
ATOM     53  C   UNL A   1      44.917  25.760  29.129  1.00  0.00     0.031 C 
ATOM     54  C   UNL A   1      45.973  30.675  31.726  1.00  0.00     0.029 A 
ATOM     55  C   UNL A   1      45.898  29.451  31.063  1.00  0.00     0.049 A 
ATOM     56  H   UNL A   1      45.047  27.673  31.743  1.00  0.00     0.167 HD
ATOM     57  C   UNL A   1      46.030  27.780  29.229  1.00  0.00     0.074 A 
ATOM     58  C   UNL A   1      45.665  26.545  29.909  1.00  0.00     0.031 C 
ATOM     59  C   UNL A   1      46.210  29.041  29.711  1.00  0.00     0.034 A 
BRANCH  46  60
ATOM     60  C   UNL A   1      43.807  27.386  34.384  1.00  0.00     0.023 A 
ATOM     61  C   UNL A   1      44.280  27.529  35.707  1.00  0.00     0.012 A 
ATOM     62  C   UNL A   1      43.872  26.090  33.821  1.00  0.00     0.148 A 
ATOM     63  C   UNL A   1      44.821  26.450  36.415  1.00  0.00     0.002 A 
ATOM     64  C   UNL A   1      44.335  25.005  34.554  1.00  0.00     0.091 A 
ATOM     65  F   UNL A   1      43.623  25.906  32.523  1.00  0.00    -0.205 F 
ATOM     66  C   UNL A   1      44.839  25.185  35.842  1.00  0.00     0.022 A 
BRANCH  64  67
ATOM     67  S   UNL A   1      44.346  23.342  33.869  1.00  0.00     0.127 S 
ATOM     68  O   UNL A   1      45.260  22.656  34.776  1.00  0.00    -0.237 OA
ATOM     69  O   UNL A   1      42.938  22.963  33.997  1.00  0.00    -0.237 OA
ATOM     70  O   UNL A   1      44.800  23.486  32.490  1.00  0.00    -0.744 OA
ENDBRANCH  64  67
ENDBRANCH  46  60
BRANCH  47  71
ATOM     71  C   UNL A   1      43.602  25.239  26.129  1.00  0.00     0.023 A 
ATOM     72  C   UNL A   1      44.551  24.959  25.125  1.00  0.00     0.012 A 
ATOM     73  C   UNL A   1      42.709  24.213  26.511  1.00  0.00     0.148 A 
ATOM     74  C   UNL A   1      44.641  23.684  24.553  1.00  0.00     0.002 A 
ATOM     75  C   UNL A   1      42.805  22.947  25.941  1.00  0.00     0.091 A 
ATOM     76  F   UNL A   1      41.836  24.456  27.496  1.00  0.00    -0.205 F 
ATOM     77  C   UNL A   1      43.779  22.675  24.971  1.00  0.00     0.022 A 
BRANCH  75  78
ATOM     78  S   UNL A   1      41.759  21.578  26.457  1.00  0.00     0.127 S 
ATOM     79  O   UNL A   1      42.239  20.493  25.600  1.00  0.00    -0.237 OA
ATOM     80  O   UNL A   1      42.112  21.445  27.868  1.00  0.00    -0.237 OA
ATOM     81  O   UNL A   1      40.390  21.996  26.188  1.00  0.00    -0.744 OA
ENDBRANCH  75  78
ENDBRANCH  47  71
BRANCH  59  82
ATOM     82  C   UNL A   1      46.625  30.104  28.741  1.00  0.00     0.023 A 
ATOM     83  C   UNL A   1      47.949  30.276  28.294  1.00  0.00     0.012 A 
ATOM     84  C   UNL A   1      45.603  30.890  28.187  1.00  0.00     0.148 A 
ATOM     85  C   UNL A   1      48.244  31.229  27.316  1.00  0.00     0.002 A 
ATOM     86  C   UNL A   1      45.892  31.800  27.182  1.00  0.00     0.091 A 
ATOM     87  F   UNL A   1      44.354  30.716  28.644  1.00  0.00    -0.205 F 
ATOM     88  C   UNL A   1      47.213  31.981  26.749  1.00  0.00     0.022 A 
BRANCH  86  89
ATOM     89  S   UNL A   1      44.588  32.699  26.345  1.00  0.00     0.127 S 
ATOM     90  O   UNL A   1      44.032  33.510  27.427  1.00  0.00    -0.237 OA
ATOM     91  O   UNL A   1      45.328  33.452  25.331  1.00  0.00    -0.237 OA
ATOM     92  O   UNL A   1      43.692  31.688  25.796  1.00  0.00    -0.744 OA
ENDBRANCH  86  89
ENDBRANCH  59  82
ENDBRANCH  33  34
ENDBRANCH  26  28
ENDBRANCH  25  26
ENDBRANCH  24  25
ENDBRANCH  23  24
ENDBRANCH   1  23
TORSDOF 22
ENDMDL
MODEL 2
REMARK VINA RESULT:     -10.0      1.825      3.952
REMARK SMILES CCC[C@H](Cc1ccn(-c2ccccc2)n1)C(=O)OCCOCCOC(=O)c1ccc(-c2c3nc(c(-c4cccc(S(=O)(=O)[O-])c4F)c4ccc([nH]4)c(-c4cccc(S(=O)(=O)[O-])c4F)c4nc(c(-c5cccc(S(=O)(=O)[O-])c5F)c5ccc2[nH]5)C=C4)C=C3)cc1
REMARK SMILES IDX 22 1 21 2 20 3 19 4 17 5 18 6 4 7 3 8 2 9 1 10 5 11 6 12
REMARK SMILES IDX 7 13 16 14 8 15 9 16 10 17 11 18 15 19 12 20 14 21 13 22
REMARK SMILES IDX 23 23 24 24 25 25 26 26 27 27 28 28 29 29 90 30 30 31 89 32
REMARK SMILES IDX 31 33 32 34 33 35 83 36 34 37 88 38 82 39 84 40 35 41 87 42
REMARK SMILES IDX 81 43 80 44 36 46 68 47 48 48 67 49 49 50 52 51 66 52 85 53
REMARK SMILES IDX 50 54 51 55 65 57 86 58 53 59 37 60 38 61 46 62 39 63 41 64
REMARK SMILES IDX 47 65 40 66 42 67 43 68 44 69 45 70 69 71 70 72 78 73 71 74
REMARK SMILES IDX 73 75 79 76 72 77 74 78 75 79 76 80 77 81 54 82 55 83 63 84
REMARK SMILES IDX 56 85 58 86 64 87 57 88 59 89 60 90 61 91 62 92
REMARK H PARENT 84 45 52 56
REMARK Flexibility Score: inf
ROOT
ATOM      1  O   UNL A   1      33.365  31.589  27.817  1.00  0.00    -0.374 OA
ENDROOT
BRANCH   1   2
ATOM      2  C   UNL A   1      33.509  30.438  26.985  1.00  0.00     0.202 C 
BRANCH   2   3
ATOM      3  C   UNL A   1      32.257  29.924  26.277  1.00  0.00     0.261 C 
BRANCH   3   4
ATOM      4  O   UNL A   1      32.462  28.617  25.728  1.00  0.00    -0.463 OA
BRANCH   4   5
ATOM      5  C   UNL A   1      31.489  28.159  24.913  1.00  0.00     0.309 C 
ATOM      6  O   UNL A   1      30.547  27.465  25.287  1.00  0.00    -0.252 OA
BRANCH   5   7
ATOM      7  C   UNL A   1      31.620  28.615  23.469  1.00  0.00     0.105 C 
BRANCH   7   8
ATOM      8  C   UNL A   1      30.293  28.401  22.731  1.00  0.00     0.015 C 
BRANCH   8   9
ATOM      9  C   UNL A   1      29.582  29.696  22.317  1.00  0.00    -0.003 C 
ATOM     10  C   UNL A   1      29.260  30.606  23.493  1.00  0.00     0.004 C 
ENDBRANCH   8   9
ENDBRANCH   7   8
BRANCH   7  11
ATOM     11  C   UNL A   1      32.847  28.100  22.701  1.00  0.00     0.073 C 
BRANCH  11  12
ATOM     12  C   UNL A   1      33.128  26.639  22.788  1.00  0.00     0.064 A 
ATOM     13  C   UNL A   1      32.590  25.608  21.988  1.00  0.00     0.046 A 
ATOM     14  N   UNL A   1      34.010  26.166  23.672  1.00  0.00    -0.173 NA
ATOM     15  C   UNL A   1      33.275  24.480  22.366  1.00  0.00     0.115 A 
ATOM     16  N   UNL A   1      34.164  24.859  23.346  1.00  0.00    -0.241 N 
BRANCH  16  17
ATOM     17  C   UNL A   1      35.132  24.055  23.989  1.00  0.00     0.065 A 
ATOM     18  C   UNL A   1      35.388  24.215  25.356  1.00  0.00     0.028 A 
ATOM     19  C   UNL A   1      35.828  23.089  23.249  1.00  0.00     0.028 A 
ATOM     20  C   UNL A   1      36.347  23.413  25.976  1.00  0.00     0.002 A 
ATOM     21  C   UNL A   1      36.813  22.321  23.868  1.00  0.00     0.002 A 
ATOM     22  C   UNL A   1      37.067  22.480  25.231  1.00  0.00     0.000 A 
ENDBRANCH  16  17
ENDBRANCH  11  12
ENDBRANCH   7  11
ENDBRANCH   5   7
ENDBRANCH   4   5
ENDBRANCH   3   4
ENDBRANCH   2   3
ENDBRANCH   1   2
BRANCH   1  23
ATOM     23  C   UNL A   1      34.432  32.533  27.894  1.00  0.00     0.202 C 
BRANCH  23  24
ATOM     24  C   UNL A   1      35.007  32.838  29.269  1.00  0.00     0.261 C 
BRANCH  24  25
ATOM     25  O   UNL A   1      35.449  31.651  29.910  1.00  0.00    -0.460 OA
BRANCH  25  26
ATOM     26  C   UNL A   1      36.527  31.807  30.705  1.00  0.00     0.338 C 
ATOM     27  O   UNL A   1      36.617  32.524  31.694  1.00  0.00    -0.246 OA
BRANCH  26  28
ATOM     28  C   UNL A   1      37.651  31.087  30.108  1.00  0.00     0.060 A 
ATOM     29  C   UNL A   1      37.500  29.704  30.031  1.00  0.00     0.016 A 
ATOM     30  C   UNL A   1      38.898  31.717  29.964  1.00  0.00     0.016 A 
ATOM     31  C   UNL A   1      38.634  28.937  30.094  1.00  0.00     0.010 A 
ATOM     32  C   UNL A   1      40.032  30.948  30.034  1.00  0.00     0.010 A 
ATOM     33  C   UNL A   1      39.875  29.577  30.201  1.00  0.00    -0.014 A 
BRANCH  33  34
ATOM     34  C   UNL A   1      41.033  28.732  30.365  1.00  0.00     0.031 A 
ATOM     35  C   UNL A   1      41.446  28.682  31.777  1.00  0.00     0.074 A 
ATOM     36  C   UNL A   1      41.611  28.076  29.342  1.00  0.00     0.049 A 
ATOM     37  N   UNL A   1      42.410  29.342  32.326  1.00  0.00    -0.248 NA
ATOM     38  C   UNL A   1      40.532  28.038  32.733  1.00  0.00     0.031 C 
ATOM     39  C   UNL A   1      41.063  27.862  27.998  1.00  0.00     0.029 A 
ATOM     40  N   UNL A   1      42.759  27.344  29.327  1.00  0.00    -0.354 N 
ATOM     41  C   UNL A   1      42.396  28.933  33.653  1.00  0.00     0.074 A 
ATOM     42  C   UNL A   1      41.092  28.381  33.894  1.00  0.00     0.031 C 
ATOM     43  C   UNL A   1      41.739  26.851  27.403  1.00  0.00     0.029 A 
ATOM     44  C   UNL A   1      42.848  26.460  28.257  1.00  0.00     0.049 A 
ATOM     45  H   UNL A   1      43.461  27.433  30.011  1.00  0.00     0.167 HD
ATOM     46  C   UNL A   1      43.570  28.728  34.307  1.00  0.00     0.034 A 
ATOM     47  C   UNL A   1      43.729  25.438  28.142  1.00  0.00     0.034 A 
ATOM     48  C   UNL A   1      44.671  29.289  33.570  1.00  0.00     0.049 A 
ATOM     49  C   UNL A   1      44.869  25.732  29.038  1.00  0.00     0.074 A 
ATOM     50  C   UNL A   1      45.192  30.538  33.322  1.00  0.00     0.029 A 
ATOM     51  N   UNL A   1      45.162  28.437  32.615  1.00  0.00    -0.354 N 
ATOM     52  N   UNL A   1      45.692  26.724  28.840  1.00  0.00    -0.248 NA
ATOM     53  C   UNL A   1      44.908  25.137  30.368  1.00  0.00     0.031 C 
ATOM     54  C   UNL A   1      45.916  30.429  32.099  1.00  0.00     0.029 A 
ATOM     55  C   UNL A   1      45.853  29.111  31.649  1.00  0.00     0.049 A 
ATOM     56  H   UNL A   1      45.034  27.461  32.626  1.00  0.00     0.167 HD
ATOM     57  C   UNL A   1      45.993  27.159  30.118  1.00  0.00     0.074 A 
ATOM     58  C   UNL A   1      45.651  26.051  30.998  1.00  0.00     0.031 C 
ATOM     59  C   UNL A   1      46.159  28.486  30.381  1.00  0.00     0.034 A 
BRANCH  46  60
ATOM     60  C   UNL A   1      43.820  27.603  35.291  1.00  0.00     0.023 A 
ATOM     61  C   UNL A   1      44.292  27.972  36.570  1.00  0.00     0.012 A 
ATOM     62  C   UNL A   1      43.911  26.233  34.949  1.00  0.00     0.148 A 
ATOM     63  C   UNL A   1      44.854  27.035  37.444  1.00  0.00     0.002 A 
ATOM     64  C   UNL A   1      44.395  25.293  35.851  1.00  0.00     0.091 A 
ATOM     65  F   UNL A   1      43.664  25.832  33.701  1.00  0.00    -0.205 F 
ATOM     66  C   UNL A   1      44.896  25.693  37.089  1.00  0.00     0.022 A 
BRANCH  64  67
ATOM     67  S   UNL A   1      44.437  23.541  35.449  1.00  0.00     0.127 S 
ATOM     68  O   UNL A   1      43.029  23.267  35.180  1.00  0.00    -0.237 OA
ATOM     69  O   UNL A   1      45.309  23.530  34.274  1.00  0.00    -0.237 OA
ATOM     70  O   UNL A   1      45.005  22.881  36.619  1.00  0.00    -0.744 OA
ENDBRANCH  64  67
ENDBRANCH  46  60
BRANCH  47  71
ATOM     71  C   UNL A   1      43.574  24.106  27.512  1.00  0.00     0.023 A 
ATOM     72  C   UNL A   1      42.338  23.434  27.604  1.00  0.00     0.012 A 
ATOM     73  C   UNL A   1      44.517  23.646  26.568  1.00  0.00     0.148 A 
ATOM     74  C   UNL A   1      42.031  22.368  26.750  1.00  0.00     0.002 A 
ATOM     75  C   UNL A   1      44.206  22.587  25.719  1.00  0.00     0.091 A 
ATOM     76  F   UNL A   1      45.675  24.307  26.441  1.00  0.00    -0.205 F 
ATOM     77  C   UNL A   1      42.959  21.955  25.799  1.00  0.00     0.022 A 
BRANCH  75  78
ATOM     78  S   UNL A   1      45.331  22.022  24.434  1.00  0.00     0.127 S 
ATOM     79  O   UNL A   1      44.480  21.107  23.672  1.00  0.00    -0.237 OA
ATOM     80  O   UNL A   1      45.656  23.270  23.750  1.00  0.00    -0.237 OA
ATOM     81  O   UNL A   1      46.438  21.376  25.127  1.00  0.00    -0.744 OA
ENDBRANCH  75  78
ENDBRANCH  47  71
BRANCH  59  82
ATOM     82  C   UNL A   1      46.550  29.377  29.243  1.00  0.00     0.023 A 
ATOM     83  C   UNL A   1      47.852  29.433  28.710  1.00  0.00     0.012 A 
ATOM     84  C   UNL A   1      45.522  30.108  28.629  1.00  0.00     0.148 A 
ATOM     85  C   UNL A   1      48.120  30.219  27.586  1.00  0.00     0.002 A 
ATOM     86  C   UNL A   1      45.781  30.848  27.486  1.00  0.00     0.091 A 
ATOM     87  F   UNL A   1      44.295  30.050  29.168  1.00  0.00    -0.205 F 
ATOM     88  C   UNL A   1      47.081  30.915  26.964  1.00  0.00     0.022 A 
BRANCH  86  89
ATOM     89  S   UNL A   1      44.459  31.659  26.589  1.00  0.00     0.127 S 
ATOM     90  O   UNL A   1      44.023  32.679  27.542  1.00  0.00    -0.237 OA
ATOM     91  O   UNL A   1      45.154  32.179  25.410  1.00  0.00    -0.237 OA
ATOM     92  O   UNL A   1      43.480  30.621  26.291  1.00  0.00    -0.744 OA
ENDBRANCH  86  89
ENDBRANCH  59  82
ENDBRANCH  33  34
ENDBRANCH  26  28
ENDBRANCH  25  26
ENDBRANCH  24  25
ENDBRANCH  23  24
ENDBRANCH   1  23
TORSDOF 22
ENDMDL
MODEL 3
REMARK VINA RESULT:     -10.0      3.144      8.983
REMARK SMILES CCC[C@H](Cc1ccn(-c2ccccc2)n1)C(=O)OCCOCCOC(=O)c1ccc(-c2c3nc(c(-c4cccc(S(=O)(=O)[O-])c4F)c4ccc([nH]4)c(-c4cccc(S(=O)(=O)[O-])c4F)c4nc(c(-c5cccc(S(=O)(=O)[O-])c5F)c5ccc2[nH]5)C=C4)C=C3)cc1
REMARK SMILES IDX 22 1 21 2 20 3 19 4 17 5 18 6 4 7 3 8 2 9 1 10 5 11 6 12
REMARK SMILES IDX 7 13 16 14 8 15 9 16 10 17 11 18 15 19 12 20 14 21 13 22
REMARK SMILES IDX 23 23 24 24 25 25 26 26 27 27 28 28 29 29 90 30 30 31 89 32
REMARK SMILES IDX 31 33 32 34 33 35 83 36 34 37 88 38 82 39 84 40 35 41 87 42
REMARK SMILES IDX 81 43 80 44 36 46 68 47 48 48 67 49 49 50 52 51 66 52 85 53
REMARK SMILES IDX 50 54 51 55 65 57 86 58 53 59 37 60 38 61 46 62 39 63 41 64
REMARK SMILES IDX 47 65 40 66 42 67 43 68 44 69 45 70 69 71 70 72 78 73 71 74
REMARK SMILES IDX 73 75 79 76 72 77 74 78 75 79 76 80 77 81 54 82 55 83 63 84
REMARK SMILES IDX 56 85 58 86 64 87 57 88 59 89 60 90 61 91 62 92
REMARK H PARENT 84 45 52 56
REMARK Flexibility Score: inf
ROOT
ATOM      1  O   UNL A   1      39.142  20.743  25.656  1.00  0.00    -0.374 OA
ENDROOT
BRANCH   1   2
ATOM      2  C   UNL A   1      37.864  21.318  25.382  1.00  0.00     0.202 C 
BRANCH   2   3
ATOM      3  C   UNL A   1      36.734  20.364  24.999  1.00  0.00     0.261 C 
BRANCH   3   4
ATOM      4  O   UNL A   1      35.513  20.699  25.669  1.00  0.00    -0.463 OA
BRANCH   4   5
ATOM      5  C   UNL A   1      34.383  20.556  24.945  1.00  0.00     0.309 C 
ATOM      6  O   UNL A   1      33.926  19.474  24.588  1.00  0.00    -0.252 OA
BRANCH   5   7
ATOM      7  C   UNL A   1      33.673  21.864  24.636  1.00  0.00     0.105 C 
BRANCH   7   8
ATOM      8  C   UNL A   1      34.088  22.937  25.650  1.00  0.00     0.015 C 
BRANCH   8   9
ATOM      9  C   UNL A   1      34.926  24.078  25.059  1.00  0.00    -0.003 C 
ATOM     10  C   UNL A   1      36.278  24.243  25.737  1.00  0.00     0.004 C 
ENDBRANCH   8   9
ENDBRANCH   7   8
BRANCH   7  11
ATOM     11  C   UNL A   1      32.156  21.777  24.411  1.00  0.00     0.073 C 
BRANCH  11  12
ATOM     12  C   UNL A   1      31.356  22.987  24.753  1.00  0.00     0.064 A 
ATOM     13  C   UNL A   1      30.783  23.319  26.000  1.00  0.00     0.046 A 
ATOM     14  N   UNL A   1      31.142  23.942  23.845  1.00  0.00    -0.173 NA
ATOM     15  C   UNL A   1      30.289  24.588  25.831  1.00  0.00     0.115 A 
ATOM     16  N   UNL A   1      30.570  24.958  24.535  1.00  0.00    -0.241 N 
BRANCH  16  17
ATOM     17  C   UNL A   1      30.316  26.206  23.923  1.00  0.00     0.065 A 
ATOM     18  C   UNL A   1      29.014  26.716  23.871  1.00  0.00     0.028 A 
ATOM     19  C   UNL A   1      31.381  26.934  23.373  1.00  0.00     0.028 A 
ATOM     20  C   UNL A   1      28.780  27.949  23.262  1.00  0.00     0.002 A 
ATOM     21  C   UNL A   1      31.133  28.146  22.731  1.00  0.00     0.002 A 
ATOM     22  C   UNL A   1      29.834  28.654  22.681  1.00  0.00     0.000 A 
ENDBRANCH  16  17
ENDBRANCH  11  12
ENDBRANCH   7  11
ENDBRANCH   5   7
ENDBRANCH   4   5
ENDBRANCH   3   4
ENDBRANCH   2   3
ENDBRANCH   1   2
BRANCH   1  23
ATOM     23  C   UNL A   1      40.031  21.409  26.551  1.00  0.00     0.202 C 
BRANCH  23  24
ATOM     24  C   UNL A   1      41.525  21.246  26.315  1.00  0.00     0.261 C 
BRANCH  24  25
ATOM     25  O   UNL A   1      42.264  22.209  27.051  1.00  0.00    -0.460 OA
BRANCH  25  26
ATOM     26  C   UNL A   1      42.236  23.455  26.538  1.00  0.00     0.338 C 
ATOM     27  O   UNL A   1      42.633  23.808  25.434  1.00  0.00    -0.246 OA
BRANCH  26  28
ATOM     28  C   UNL A   1      41.785  24.376  27.581  1.00  0.00     0.060 A 
ATOM     29  C   UNL A   1      40.583  25.030  27.321  1.00  0.00     0.016 A 
ATOM     30  C   UNL A   1      42.678  24.810  28.576  1.00  0.00     0.016 A 
ATOM     31  C   UNL A   1      40.409  26.278  27.860  1.00  0.00     0.010 A 
ATOM     32  C   UNL A   1      42.506  26.062  29.109  1.00  0.00     0.010 A 
ATOM     33  C   UNL A   1      41.426  26.813  28.660  1.00  0.00    -0.014 A 
BRANCH  33  34
ATOM     34  C   UNL A   1      41.246  28.167  29.125  1.00  0.00     0.031 A 
ATOM     35  C   UNL A   1      42.232  29.067  28.504  1.00  0.00     0.074 A 
ATOM     36  C   UNL A   1      40.278  28.523  29.989  1.00  0.00     0.049 A 
ATOM     37  N   UNL A   1      43.322  29.508  29.037  1.00  0.00    -0.248 NA
ATOM     38  C   UNL A   1      42.136  29.288  27.052  1.00  0.00     0.031 C 
ATOM     39  C   UNL A   1      39.110  27.732  30.392  1.00  0.00     0.029 A 
ATOM     40  N   UNL A   1      40.061  29.722  30.594  1.00  0.00    -0.354 N 
ATOM     41  C   UNL A   1      43.880  30.321  28.059  1.00  0.00     0.074 A 
ATOM     42  C   UNL A   1      43.282  29.928  26.814  1.00  0.00     0.031 C 
ATOM     43  C   UNL A   1      38.190  28.556  30.947  1.00  0.00     0.029 A 
ATOM     44  C   UNL A   1      38.766  29.884  31.073  1.00  0.00     0.049 A 
ATOM     45  H   UNL A   1      40.757  30.412  30.684  1.00  0.00     0.167 HD
ATOM     46  C   UNL A   1      44.476  31.490  28.415  1.00  0.00     0.034 A 
ATOM     47  C   UNL A   1      38.203  31.052  31.466  1.00  0.00     0.034 A 
ATOM     48  C   UNL A   1      44.706  31.535  29.835  1.00  0.00     0.049 A 
ATOM     49  C   UNL A   1      39.303  31.986  31.794  1.00  0.00     0.074 A 
ATOM     50  C   UNL A   1      45.582  30.978  30.737  1.00  0.00     0.029 A 
ATOM     51  N   UNL A   1      43.618  31.987  30.535  1.00  0.00    -0.354 N 
ATOM     52  N   UNL A   1      40.111  31.808  32.801  1.00  0.00    -0.248 NA
ATOM     53  C   UNL A   1      39.744  32.952  30.796  1.00  0.00     0.031 C 
ATOM     54  C   UNL A   1      44.916  30.996  31.998  1.00  0.00     0.029 A 
ATOM     55  C   UNL A   1      43.668  31.598  31.843  1.00  0.00     0.049 A 
ATOM     56  H   UNL A   1      42.892  32.524  30.144  1.00  0.00     0.167 HD
ATOM     57  C   UNL A   1      41.327  32.272  32.332  1.00  0.00     0.074 A 
ATOM     58  C   UNL A   1      41.007  33.124  31.196  1.00  0.00     0.031 C 
ATOM     59  C   UNL A   1      42.489  31.652  32.680  1.00  0.00     0.034 A 
BRANCH  46  60
ATOM     60  C   UNL A   1      44.374  32.781  27.628  1.00  0.00     0.023 A 
ATOM     61  C   UNL A   1      45.428  33.062  26.730  1.00  0.00     0.012 A 
ATOM     62  C   UNL A   1      43.493  33.846  27.930  1.00  0.00     0.148 A 
ATOM     63  C   UNL A   1      45.613  34.340  26.192  1.00  0.00     0.002 A 
ATOM     64  C   UNL A   1      43.633  35.092  27.332  1.00  0.00     0.091 A 
ATOM     65  F   UNL A   1      42.592  33.719  28.905  1.00  0.00    -0.205 F 
ATOM     66  C   UNL A   1      44.709  35.354  26.485  1.00  0.00     0.022 A 
BRANCH  64  67
ATOM     67  S   UNL A   1      42.468  36.424  27.653  1.00  0.00     0.127 S 
ATOM     68  O   UNL A   1      41.189  35.747  27.465  1.00  0.00    -0.237 OA
ATOM     69  O   UNL A   1      42.793  36.770  29.037  1.00  0.00    -0.237 OA
ATOM     70  O   UNL A   1      42.788  37.469  26.687  1.00  0.00    -0.744 OA
ENDBRANCH  64  67
ENDBRANCH  46  60
BRANCH  47  71
ATOM     71  C   UNL A   1      36.804  31.526  31.357  1.00  0.00     0.023 A 
ATOM     72  C   UNL A   1      36.148  32.025  32.501  1.00  0.00     0.012 A 
ATOM     73  C   UNL A   1      36.230  31.781  30.092  1.00  0.00     0.148 A 
ATOM     74  C   UNL A   1      34.986  32.796  32.387  1.00  0.00     0.002 A 
ATOM     75  C   UNL A   1      35.074  32.550  29.984  1.00  0.00     0.091 A 
ATOM     76  F   UNL A   1      36.870  31.351  28.998  1.00  0.00    -0.205 F 
ATOM     77  C   UNL A   1      34.458  33.071  31.129  1.00  0.00     0.022 A 
BRANCH  75  78
ATOM     78  S   UNL A   1      34.355  32.987  28.395  1.00  0.00     0.127 S 
ATOM     79  O   UNL A   1      33.910  31.684  27.899  1.00  0.00    -0.237 OA
ATOM     80  O   UNL A   1      33.279  33.892  28.791  1.00  0.00    -0.237 OA
ATOM     81  O   UNL A   1      35.431  33.590  27.620  1.00  0.00    -0.744 OA
ENDBRANCH  75  78
ENDBRANCH  47  71
BRANCH  59  82
ATOM     82  C   UNL A   1      42.501  30.859  33.951  1.00  0.00     0.023 A 
ATOM     83  C   UNL A   1      42.676  31.433  35.225  1.00  0.00     0.012 A 
ATOM     84  C   UNL A   1      42.219  29.489  33.844  1.00  0.00     0.148 A 
ATOM     85  C   UNL A   1      42.581  30.640  36.372  1.00  0.00     0.002 A 
ATOM     86  C   UNL A   1      42.077  28.716  34.986  1.00  0.00     0.091 A 
ATOM     87  F   UNL A   1      42.073  28.967  32.617  1.00  0.00    -0.205 F 
ATOM     88  C   UNL A   1      42.267  29.285  36.254  1.00  0.00     0.022 A 
BRANCH  86  89
ATOM     89  S   UNL A   1      41.559  27.004  34.887  1.00  0.00     0.127 S 
ATOM     90  O   UNL A   1      41.233  26.703  36.280  1.00  0.00    -0.237 OA
ATOM     91  O   UNL A   1      40.406  27.078  33.989  1.00  0.00    -0.237 OA
ATOM     92  O   UNL A   1      42.694  26.273  34.336  1.00  0.00    -0.744 OA
ENDBRANCH  86  89
ENDBRANCH  59  82
ENDBRANCH  33  34
ENDBRANCH  26  28
ENDBRANCH  25  26
ENDBRANCH  24  25
ENDBRANCH  23  24
ENDBRANCH   1  23
TORSDOF 22
ENDMDL
