MODEL 1
REMARK VINA RESULT:     -12.2      0.000      0.000
REMARK SMILES COc1ccccc1[C@@H]1C[N@@H+](Cc2cc3c(cc2C)OCO3)C[C@H]1C(=O)OCCOCCOC(=O)c1ccc(-c2c3nc(c(-c4cccc(S(=O)(=O)[O-])c4F)c4ccc([nH]4)c(-c4cccc(S(=O)(=O)[O-])c4F)c4nc(c(-c5cccc(S(=O)(=O)[O-])c5F)c5ccc2[nH]5)C=C4)C=C3)cc1
REMARK SMILES IDX 31 1 30 2 29 3 28 4 27 5 25 6 26 7 24 8 9 9 10 10 11 11
REMARK SMILES IDX 23 12 8 14 3 15 4 16 5 17 7 18 6 19 2 20 1 21 12 22 13 23
REMARK SMILES IDX 14 24 18 25 15 26 17 27 19 28 16 29 22 30 20 31 21 32 32 33
REMARK SMILES IDX 33 34 34 35 35 36 36 37 37 38 98 39 38 40 97 41 39 42 40 43
REMARK SMILES IDX 41 44 91 45 42 46 96 47 90 48 92 49 43 50 95 51 89 52 88 53
REMARK SMILES IDX 44 55 76 56 56 57 75 58 57 59 60 60 74 61 93 62 58 63 59 64
REMARK SMILES IDX 73 66 94 67 61 68 45 69 46 70 54 71 47 72 49 73 55 74 48 75
REMARK SMILES IDX 50 76 51 77 52 78 53 79 77 80 78 81 86 82 79 83 81 84 87 85
REMARK SMILES IDX 80 86 82 87 83 88 84 89 85 90 62 91 63 92 71 93 64 94 66 95
REMARK SMILES IDX 72 96 65 97 67 98 68 99 69 100 70 101
REMARK H PARENT 11 13 92 54 60 65
REMARK Flexibility Score: inf
ROOT
ATOM      1  C   UNL A   1      36.550  20.246  24.968  1.00  0.00     0.202 C 
ENDROOT
BRANCH   1   2
ATOM      2  O   UNL A   1      35.921  21.527  24.971  1.00  0.00    -0.374 OA
BRANCH   2   3
ATOM      3  C   UNL A   1      36.193  22.350  23.831  1.00  0.00     0.202 C 
BRANCH   3   4
ATOM      4  C   UNL A   1      35.096  23.381  23.528  1.00  0.00     0.261 C 
BRANCH   4   5
ATOM      5  O   UNL A   1      35.102  24.481  24.465  1.00  0.00    -0.463 OA
BRANCH   5   6
ATOM      6  C   UNL A   1      34.044  25.320  24.324  1.00  0.00     0.315 C 
ATOM      7  O   UNL A   1      33.622  25.695  23.231  1.00  0.00    -0.252 OA
BRANCH   6   8
ATOM      8  C   UNL A   1      33.307  25.655  25.610  1.00  0.00     0.167 C 
ATOM      9  C   UNL A   1      31.906  26.285  25.578  1.00  0.00     0.098 C 
ATOM     10  C   UNL A   1      31.138  25.550  26.690  1.00  0.00     0.272 C 
ATOM     11  N   UNL A   1      31.751  24.235  26.845  1.00  0.00    -0.330 N 
ATOM     12  C   UNL A   1      33.146  24.362  26.425  1.00  0.00     0.278 C 
ATOM     13  H   UNL A   1      31.716  23.966  27.828  1.00  0.00     0.348 HD
BRANCH   9  14
ATOM     14  C   UNL A   1      31.813  27.798  25.766  1.00  0.00     0.004 A 
ATOM     15  C   UNL A   1      31.395  28.695  24.764  1.00  0.00     0.122 A 
ATOM     16  C   UNL A   1      31.325  30.074  25.007  1.00  0.00     0.047 A 
ATOM     17  C   UNL A   1      31.735  30.588  26.237  1.00  0.00     0.004 A 
ATOM     18  C   UNL A   1      32.262  28.347  26.982  1.00  0.00     0.008 A 
ATOM     19  C   UNL A   1      32.236  29.727  27.209  1.00  0.00     0.001 A 
BRANCH  15  20
ATOM     20  O   UNL A   1      31.303  28.258  23.469  1.00  0.00    -0.496 OA
ATOM     21  C   UNL A   1      30.049  27.688  23.118  1.00  0.00     0.278 C 
ENDBRANCH  15  20
ENDBRANCH   9  14
BRANCH  11  22
ATOM     22  C   UNL A   1      31.006  23.087  26.303  1.00  0.00     0.299 C 
BRANCH  22  23
ATOM     23  C   UNL A   1      31.638  22.357  25.136  1.00  0.00     0.013 A 
ATOM     24  C   UNL A   1      32.372  21.200  25.448  1.00  0.00     0.060 A 
ATOM     25  C   UNL A   1      31.430  22.717  23.766  1.00  0.00    -0.038 A 
ATOM     26  C   UNL A   1      32.615  20.328  24.428  1.00  0.00     0.166 A 
ATOM     27  C   UNL A   1      31.849  21.857  22.743  1.00  0.00     0.054 A 
ATOM     28  C   UNL A   1      30.630  23.900  23.301  1.00  0.00     0.045 C 
ATOM     29  C   UNL A   1      32.334  20.642  23.119  1.00  0.00     0.166 A 
ATOM     30  O   UNL A   1      32.870  19.001  24.592  1.00  0.00    -0.454 OA
ATOM     31  O   UNL A   1      32.341  19.546  22.318  1.00  0.00    -0.454 OA
ATOM     32  C   UNL A   1      32.284  18.567  23.359  1.00  0.00     0.468 C 
ENDBRANCH  22  23
ENDBRANCH  11  22
ENDBRANCH   6   8
ENDBRANCH   5   6
ENDBRANCH   4   5
ENDBRANCH   3   4
ENDBRANCH   2   3
ENDBRANCH   1   2
BRANCH   1  33
ATOM     33  C   UNL A   1      38.082  20.287  25.020  1.00  0.00     0.261 C 
BRANCH  33  34
ATOM     34  O   UNL A   1      38.586  21.491  25.621  1.00  0.00    -0.460 OA
BRANCH  34  35
ATOM     35  C   UNL A   1      39.693  21.327  26.399  1.00  0.00     0.338 C 
ATOM     36  O   UNL A   1      40.317  20.313  26.602  1.00  0.00    -0.246 OA
BRANCH  35  37
ATOM     37  C   UNL A   1      40.108  22.658  26.888  1.00  0.00     0.060 A 
ATOM     38  C   UNL A   1      39.403  23.780  26.439  1.00  0.00     0.016 A 
ATOM     39  C   UNL A   1      41.137  22.791  27.826  1.00  0.00     0.016 A 
ATOM     40  C   UNL A   1      39.709  25.049  26.946  1.00  0.00     0.010 A 
ATOM     41  C   UNL A   1      41.416  24.059  28.357  1.00  0.00     0.010 A 
ATOM     42  C   UNL A   1      40.716  25.202  27.909  1.00  0.00    -0.014 A 
BRANCH  42  43
ATOM     43  C   UNL A   1      41.201  26.558  28.291  1.00  0.00     0.031 A 
ATOM     44  C   UNL A   1      42.654  26.858  28.032  1.00  0.00     0.074 A 
ATOM     45  C   UNL A   1      40.418  27.503  28.855  1.00  0.00     0.049 A 
ATOM     46  N   UNL A   1      43.333  27.950  28.262  1.00  0.00    -0.248 NA
ATOM     47  C   UNL A   1      43.455  25.765  27.450  1.00  0.00     0.031 C 
ATOM     48  C   UNL A   1      39.006  27.356  29.206  1.00  0.00     0.029 A 
ATOM     49  N   UNL A   1      40.721  28.784  29.257  1.00  0.00    -0.354 N 
ATOM     50  C   UNL A   1      44.633  27.665  27.869  1.00  0.00     0.074 A 
ATOM     51  C   UNL A   1      44.670  26.281  27.462  1.00  0.00     0.031 C 
ATOM     52  C   UNL A   1      38.574  28.488  29.795  1.00  0.00     0.029 A 
ATOM     53  C   UNL A   1      39.674  29.450  29.856  1.00  0.00     0.049 A 
ATOM     54  H   UNL A   1      41.609  29.190  29.129  1.00  0.00     0.167 HD
ATOM     55  C   UNL A   1      45.700  28.490  27.785  1.00  0.00     0.034 A 
ATOM     56  C   UNL A   1      39.611  30.693  30.382  1.00  0.00     0.034 A 
ATOM     57  C   UNL A   1      45.675  29.875  28.140  1.00  0.00     0.049 A 
ATOM     58  C   UNL A   1      40.819  31.600  30.287  1.00  0.00     0.074 A 
ATOM     59  C   UNL A   1      46.694  30.803  28.048  1.00  0.00     0.029 A 
ATOM     60  N   UNL A   1      44.572  30.531  28.658  1.00  0.00    -0.354 N 
ATOM     61  N   UNL A   1      41.991  31.363  29.747  1.00  0.00    -0.248 NA
ATOM     62  C   UNL A   1      40.679  32.963  30.826  1.00  0.00     0.031 C 
ATOM     63  C   UNL A   1      46.206  32.026  28.519  1.00  0.00     0.029 A 
ATOM     64  C   UNL A   1      44.882  31.856  28.891  1.00  0.00     0.049 A 
ATOM     65  H   UNL A   1      43.697  30.115  28.834  1.00  0.00     0.167 HD
ATOM     66  C   UNL A   1      42.703  32.557  29.834  1.00  0.00     0.074 A 
ATOM     67  C   UNL A   1      41.828  33.520  30.467  1.00  0.00     0.031 C 
ATOM     68  C   UNL A   1      43.972  32.827  29.441  1.00  0.00     0.034 A 
BRANCH  55  69
ATOM     69  C   UNL A   1      46.956  27.902  27.210  1.00  0.00     0.023 A 
ATOM     70  C   UNL A   1      47.976  27.478  28.088  1.00  0.00     0.012 A 
ATOM     71  C   UNL A   1      47.143  27.799  25.822  1.00  0.00     0.148 A 
ATOM     72  C   UNL A   1      49.184  26.998  27.589  1.00  0.00     0.002 A 
ATOM     73  C   UNL A   1      48.334  27.279  25.333  1.00  0.00     0.091 A 
ATOM     74  F   UNL A   1      46.172  28.242  25.010  1.00  0.00    -0.205 F 
ATOM     75  C   UNL A   1      49.360  26.891  26.213  1.00  0.00     0.022 A 
BRANCH  73  76
ATOM     76  S   UNL A   1      48.638  27.047  23.579  1.00  0.00     0.127 S 
ATOM     77  O   UNL A   1      47.915  25.804  23.316  1.00  0.00    -0.237 OA
ATOM     78  O   UNL A   1      48.025  28.244  23.002  1.00  0.00    -0.237 OA
ATOM     79  O   UNL A   1      50.084  26.974  23.429  1.00  0.00    -0.744 OA
ENDBRANCH  73  76
ENDBRANCH  55  69
BRANCH  56  80
ATOM     80  C   UNL A   1      38.341  31.214  30.979  1.00  0.00     0.023 A 
ATOM     81  C   UNL A   1      38.122  31.069  32.364  1.00  0.00     0.012 A 
ATOM     82  C   UNL A   1      37.336  31.801  30.186  1.00  0.00     0.148 A 
ATOM     83  C   UNL A   1      36.910  31.455  32.941  1.00  0.00     0.002 A 
ATOM     84  C   UNL A   1      36.147  32.224  30.776  1.00  0.00     0.091 A 
ATOM     85  F   UNL A   1      37.550  31.912  28.868  1.00  0.00    -0.205 F 
ATOM     86  C   UNL A   1      35.926  32.036  32.149  1.00  0.00     0.022 A 
BRANCH  84  87
ATOM     87  S   UNL A   1      34.853  33.067  29.855  1.00  0.00     0.127 S 
ATOM     88  O   UNL A   1      33.979  33.537  30.928  1.00  0.00    -0.237 OA
ATOM     89  O   UNL A   1      35.605  34.118  29.169  1.00  0.00    -0.237 OA
ATOM     90  O   UNL A   1      34.284  32.060  28.970  1.00  0.00    -0.744 OA
ENDBRANCH  84  87
ENDBRANCH  56  80
BRANCH  68  91
ATOM     91  C   UNL A   1      44.498  34.227  29.622  1.00  0.00     0.023 A 
ATOM     92  C   UNL A   1      45.142  34.581  30.822  1.00  0.00     0.012 A 
ATOM     93  C   UNL A   1      44.467  35.147  28.554  1.00  0.00     0.148 A 
ATOM     94  C   UNL A   1      45.732  35.836  30.966  1.00  0.00     0.002 A 
ATOM     95  C   UNL A   1      45.097  36.378  28.687  1.00  0.00     0.091 A 
ATOM     96  F   UNL A   1      43.833  34.798  27.425  1.00  0.00    -0.205 F 
ATOM     97  C   UNL A   1      45.723  36.727  29.896  1.00  0.00     0.022 A 
BRANCH  95  98
ATOM     98  S   UNL A   1      45.226  37.542  27.324  1.00  0.00     0.127 S 
ATOM     99  O   UNL A   1      46.100  36.824  26.400  1.00  0.00    -0.237 OA
ATOM    100  O   UNL A   1      43.836  37.661  26.881  1.00  0.00    -0.237 OA
ATOM    101  O   UNL A   1      45.782  38.763  27.894  1.00  0.00    -0.744 OA
ENDBRANCH  95  98
ENDBRANCH  68  91
ENDBRANCH  42  43
ENDBRANCH  35  37
ENDBRANCH  34  35
ENDBRANCH  33  34
ENDBRANCH   1  33
TORSDOF 21
ENDMDL
MODEL 2
REMARK VINA RESULT:     -12.0      4.759     10.234
REMARK SMILES COc1ccccc1[C@@H]1C[N@@H+](Cc2cc3c(cc2C)OCO3)C[C@H]1C(=O)OCCOCCOC(=O)c1ccc(-c2c3nc(c(-c4cccc(S(=O)(=O)[O-])c4F)c4ccc([nH]4)c(-c4cccc(S(=O)(=O)[O-])c4F)c4nc(c(-c5cccc(S(=O)(=O)[O-])c5F)c5ccc2[nH]5)C=C4)C=C3)cc1
REMARK SMILES IDX 31 1 30 2 29 3 28 4 27 5 25 6 26 7 24 8 9 9 10 10 11 11
REMARK SMILES IDX 23 12 8 14 3 15 4 16 5 17 7 18 6 19 2 20 1 21 12 22 13 23
REMARK SMILES IDX 14 24 18 25 15 26 17 27 19 28 16 29 22 30 20 31 21 32 32 33
REMARK SMILES IDX 33 34 34 35 35 36 36 37 37 38 98 39 38 40 97 41 39 42 40 43
REMARK SMILES IDX 41 44 91 45 42 46 96 47 90 48 92 49 43 50 95 51 89 52 88 53
REMARK SMILES IDX 44 55 76 56 56 57 75 58 57 59 60 60 74 61 93 62 58 63 59 64
REMARK SMILES IDX 73 66 94 67 61 68 45 69 46 70 54 71 47 72 49 73 55 74 48 75
REMARK SMILES IDX 50 76 51 77 52 78 53 79 77 80 78 81 86 82 79 83 81 84 87 85
REMARK SMILES IDX 80 86 82 87 83 88 84 89 85 90 62 91 63 92 71 93 64 94 66 95
REMARK SMILES IDX 72 96 65 97 67 98 68 99 69 100 70 101
REMARK H PARENT 11 13 92 54 60 65
REMARK Flexibility Score: inf
ROOT
ATOM      1  C   UNL A   1      31.750  30.587  26.130  1.00  0.00     0.202 C 
ENDROOT
BRANCH   1   2
ATOM      2  O   UNL A   1      32.476  29.575  26.825  1.00  0.00    -0.374 OA
BRANCH   2   3
ATOM      3  C   UNL A   1      31.679  28.560  27.446  1.00  0.00     0.202 C 
BRANCH   3   4
ATOM      4  C   UNL A   1      31.636  27.236  26.670  1.00  0.00     0.261 C 
BRANCH   4   5
ATOM      5  O   UNL A   1      32.942  26.833  26.198  1.00  0.00    -0.463 OA
BRANCH   5   6
ATOM      6  C   UNL A   1      33.002  25.533  25.812  1.00  0.00     0.315 C 
ATOM      7  O   UNL A   1      32.258  24.661  26.259  1.00  0.00    -0.252 OA
BRANCH   6   8
ATOM      8  C   UNL A   1      33.957  25.242  24.667  1.00  0.00     0.167 C 
ATOM      9  C   UNL A   1      33.874  23.924  23.883  1.00  0.00     0.098 C 
ATOM     10  C   UNL A   1      34.078  24.345  22.416  1.00  0.00     0.272 C 
ATOM     11  N   UNL A   1      33.631  25.728  22.297  1.00  0.00    -0.330 N 
ATOM     12  C   UNL A   1      33.798  26.347  23.611  1.00  0.00     0.278 C 
ATOM     13  H   UNL A   1      34.220  26.210  21.618  1.00  0.00     0.348 HD
BRANCH   9  14
ATOM     14  C   UNL A   1      34.853  22.815  24.267  1.00  0.00     0.004 A 
ATOM     15  C   UNL A   1      34.482  21.627  24.926  1.00  0.00     0.122 A 
ATOM     16  C   UNL A   1      35.431  20.646  25.244  1.00  0.00     0.047 A 
ATOM     17  C   UNL A   1      36.781  20.864  24.966  1.00  0.00     0.004 A 
ATOM     18  C   UNL A   1      36.225  23.029  24.039  1.00  0.00     0.008 A 
ATOM     19  C   UNL A   1      37.179  22.071  24.397  1.00  0.00     0.001 A 
BRANCH  15  20
ATOM     20  O   UNL A   1      33.238  21.535  25.494  1.00  0.00    -0.496 OA
ATOM     21  C   UNL A   1      32.312  20.731  24.775  1.00  0.00     0.278 C 
ENDBRANCH  15  20
ENDBRANCH   9  14
BRANCH  11  22
ATOM     22  C   UNL A   1      32.340  25.952  21.626  1.00  0.00     0.299 C 
BRANCH  22  23
ATOM     23  C   UNL A   1      31.225  26.527  22.476  1.00  0.00     0.013 A 
ATOM     24  C   UNL A   1      31.033  27.917  22.396  1.00  0.00     0.060 A 
ATOM     25  C   UNL A   1      30.314  25.728  23.239  1.00  0.00    -0.038 A 
ATOM     26  C   UNL A   1      29.832  28.401  22.824  1.00  0.00     0.166 A 
ATOM     27  C   UNL A   1      29.171  26.311  23.802  1.00  0.00     0.054 A 
ATOM     28  C   UNL A   1      30.383  24.234  23.366  1.00  0.00     0.045 C 
ATOM     29  C   UNL A   1      28.920  27.610  23.482  1.00  0.00     0.166 A 
ATOM     30  O   UNL A   1      29.286  29.579  22.414  1.00  0.00    -0.454 OA
ATOM     31  O   UNL A   1      27.689  28.179  23.528  1.00  0.00    -0.454 OA
ATOM     32  C   UNL A   1      27.916  29.172  22.524  1.00  0.00     0.468 C 
ENDBRANCH  22  23
ENDBRANCH  11  22
ENDBRANCH   6   8
ENDBRANCH   5   6
ENDBRANCH   4   5
ENDBRANCH   3   4
ENDBRANCH   2   3
ENDBRANCH   1   2
BRANCH   1  33
ATOM     33  C   UNL A   1      32.058  32.019  26.583  1.00  0.00     0.261 C 
BRANCH  33  34
ATOM     34  O   UNL A   1      32.899  32.065  27.747  1.00  0.00    -0.460 OA
BRANCH  34  35
ATOM     35  C   UNL A   1      33.931  32.953  27.679  1.00  0.00     0.338 C 
ATOM     36  O   UNL A   1      33.909  34.089  27.268  1.00  0.00    -0.246 OA
BRANCH  35  37
ATOM     37  C   UNL A   1      35.109  32.333  28.318  1.00  0.00     0.060 A 
ATOM     38  C   UNL A   1      36.326  33.025  28.282  1.00  0.00     0.016 A 
ATOM     39  C   UNL A   1      35.001  31.117  29.000  1.00  0.00     0.016 A 
ATOM     40  C   UNL A   1      37.443  32.512  28.952  1.00  0.00     0.010 A 
ATOM     41  C   UNL A   1      36.113  30.625  29.699  1.00  0.00     0.010 A 
ATOM     42  C   UNL A   1      37.350  31.309  29.667  1.00  0.00    -0.014 A 
BRANCH  42  43
ATOM     43  C   UNL A   1      38.573  30.643  30.194  1.00  0.00     0.031 A 
ATOM     44  C   UNL A   1      39.045  31.071  31.559  1.00  0.00     0.074 A 
ATOM     45  C   UNL A   1      39.266  29.703  29.516  1.00  0.00     0.049 A 
ATOM     46  N   UNL A   1      40.071  30.657  32.253  1.00  0.00    -0.248 NA
ATOM     47  C   UNL A   1      38.260  32.129  32.221  1.00  0.00     0.031 C 
ATOM     48  C   UNL A   1      38.964  29.209  28.174  1.00  0.00     0.029 A 
ATOM     49  N   UNL A   1      40.401  29.007  29.870  1.00  0.00    -0.354 N 
ATOM     50  C   UNL A   1      40.058  31.413  33.417  1.00  0.00     0.074 A 
ATOM     51  C   UNL A   1      38.978  32.363  33.305  1.00  0.00     0.031 C 
ATOM     52  C   UNL A   1      39.903  28.315  27.807  1.00  0.00     0.029 A 
ATOM     53  C   UNL A   1      40.871  28.160  28.891  1.00  0.00     0.049 A 
ATOM     54  H   UNL A   1      40.838  29.107  30.746  1.00  0.00     0.167 HD
ATOM     55  C   UNL A   1      40.828  31.296  34.520  1.00  0.00     0.034 A 
ATOM     56  C   UNL A   1      41.952  27.348  28.879  1.00  0.00     0.034 A 
ATOM     57  C   UNL A   1      41.875  30.333  34.671  1.00  0.00     0.049 A 
ATOM     58  C   UNL A   1      42.808  27.237  30.121  1.00  0.00     0.074 A 
ATOM     59  C   UNL A   1      42.682  30.107  35.770  1.00  0.00     0.029 A 
ATOM     60  N   UNL A   1      42.260  29.435  33.691  1.00  0.00    -0.354 N 
ATOM     61  N   UNL A   1      42.669  27.837  31.279  1.00  0.00    -0.248 NA
ATOM     62  C   UNL A   1      43.941  26.296  30.072  1.00  0.00     0.031 C 
ATOM     63  C   UNL A   1      43.565  29.071  35.449  1.00  0.00     0.029 A 
ATOM     64  C   UNL A   1      43.295  28.648  34.157  1.00  0.00     0.049 A 
ATOM     65  H   UNL A   1      41.857  29.367  32.796  1.00  0.00     0.167 HD
ATOM     66  C   UNL A   1      43.657  27.309  32.106  1.00  0.00     0.074 A 
ATOM     67  C   UNL A   1      44.382  26.332  31.324  1.00  0.00     0.031 C 
ATOM     68  C   UNL A   1      43.950  27.618  33.394  1.00  0.00     0.034 A 
BRANCH  55  69
ATOM     69  C   UNL A   1      40.491  32.200  35.671  1.00  0.00     0.023 A 
ATOM     70  C   UNL A   1      41.356  33.273  35.973  1.00  0.00     0.012 A 
ATOM     71  C   UNL A   1      39.355  31.975  36.465  1.00  0.00     0.148 A 
ATOM     72  C   UNL A   1      41.116  34.086  37.077  1.00  0.00     0.002 A 
ATOM     73  C   UNL A   1      39.099  32.817  37.539  1.00  0.00     0.091 A 
ATOM     74  F   UNL A   1      38.569  30.927  36.178  1.00  0.00    -0.205 F 
ATOM     75  C   UNL A   1      39.984  33.863  37.855  1.00  0.00     0.022 A 
BRANCH  73  76
ATOM     76  S   UNL A   1      37.639  32.649  38.570  1.00  0.00     0.127 S 
ATOM     77  O   UNL A   1      37.723  31.247  38.975  1.00  0.00    -0.237 OA
ATOM     78  O   UNL A   1      37.908  33.612  39.639  1.00  0.00    -0.237 OA
ATOM     79  O   UNL A   1      36.507  32.988  37.719  1.00  0.00    -0.744 OA
ENDBRANCH  73  76
ENDBRANCH  55  69
BRANCH  56  80
ATOM     80  C   UNL A   1      42.262  26.497  27.687  1.00  0.00     0.023 A 
ATOM     81  C   UNL A   1      42.882  27.084  26.565  1.00  0.00     0.012 A 
ATOM     82  C   UNL A   1      41.906  25.135  27.636  1.00  0.00     0.148 A 
ATOM     83  C   UNL A   1      43.100  26.345  25.400  1.00  0.00     0.002 A 
ATOM     84  C   UNL A   1      42.166  24.393  26.487  1.00  0.00     0.091 A 
ATOM     85  F   UNL A   1      41.298  24.597  28.702  1.00  0.00    -0.205 F 
ATOM     86  C   UNL A   1      42.747  25.001  25.363  1.00  0.00     0.022 A 
BRANCH  84  87
ATOM     87  S   UNL A   1      41.832  22.631  26.372  1.00  0.00     0.127 S 
ATOM     88  O   UNL A   1      42.466  22.287  25.101  1.00  0.00    -0.237 OA
ATOM     89  O   UNL A   1      42.513  22.114  27.560  1.00  0.00    -0.237 OA
ATOM     90  O   UNL A   1      40.381  22.505  26.410  1.00  0.00    -0.744 OA
ENDBRANCH  84  87
ENDBRANCH  56  80
BRANCH  68  91
ATOM     91  C   UNL A   1      45.062  26.867  34.078  1.00  0.00     0.023 A 
ATOM     92  C   UNL A   1      46.382  27.349  33.998  1.00  0.00     0.012 A 
ATOM     93  C   UNL A   1      44.777  25.761  34.904  1.00  0.00     0.148 A 
ATOM     94  C   UNL A   1      47.406  26.731  34.715  1.00  0.00     0.002 A 
ATOM     95  C   UNL A   1      45.794  25.179  35.652  1.00  0.00     0.091 A 
ATOM     96  F   UNL A   1      43.517  25.306  34.954  1.00  0.00    -0.205 F 
ATOM     97  C   UNL A   1      47.110  25.658  35.552  1.00  0.00     0.022 A 
BRANCH  95  98
ATOM     98  S   UNL A   1      45.482  23.863  36.835  1.00  0.00     0.127 S 
ATOM     99  O   UNL A   1      46.825  23.596  37.346  1.00  0.00    -0.237 OA
ATOM    100  O   UNL A   1      44.583  24.509  37.793  1.00  0.00    -0.237 OA
ATOM    101  O   UNL A   1      44.872  22.780  36.075  1.00  0.00    -0.744 OA
ENDBRANCH  95  98
ENDBRANCH  68  91
ENDBRANCH  42  43
ENDBRANCH  35  37
ENDBRANCH  34  35
ENDBRANCH  33  34
ENDBRANCH   1  33
TORSDOF 21
ENDMDL
MODEL 3
REMARK VINA RESULT:     -12.0      1.620      1.936
REMARK SMILES COc1ccccc1[C@@H]1C[N@@H+](Cc2cc3c(cc2C)OCO3)C[C@H]1C(=O)OCCOCCOC(=O)c1ccc(-c2c3nc(c(-c4cccc(S(=O)(=O)[O-])c4F)c4ccc([nH]4)c(-c4cccc(S(=O)(=O)[O-])c4F)c4nc(c(-c5cccc(S(=O)(=O)[O-])c5F)c5ccc2[nH]5)C=C4)C=C3)cc1
REMARK SMILES IDX 31 1 30 2 29 3 28 4 27 5 25 6 26 7 24 8 9 9 10 10 11 11
REMARK SMILES IDX 23 12 8 14 3 15 4 16 5 17 7 18 6 19 2 20 1 21 12 22 13 23
REMARK SMILES IDX 14 24 18 25 15 26 17 27 19 28 16 29 22 30 20 31 21 32 32 33
REMARK SMILES IDX 33 34 34 35 35 36 36 37 37 38 98 39 38 40 97 41 39 42 40 43
REMARK SMILES IDX 41 44 91 45 42 46 96 47 90 48 92 49 43 50 95 51 89 52 88 53
REMARK SMILES IDX 44 55 76 56 56 57 75 58 57 59 60 60 74 61 93 62 58 63 59 64
REMARK SMILES IDX 73 66 94 67 61 68 45 69 46 70 54 71 47 72 49 73 55 74 48 75
REMARK SMILES IDX 50 76 51 77 52 78 53 79 77 80 78 81 86 82 79 83 81 84 87 85
REMARK SMILES IDX 80 86 82 87 83 88 84 89 85 90 62 91 63 92 71 93 64 94 66 95
REMARK SMILES IDX 72 96 65 97 67 98 68 99 69 100 70 101
REMARK H PARENT 11 13 92 54 60 65
REMARK Flexibility Score: inf
ROOT
ATOM      1  C   UNL A   1      36.182  20.357  25.091  1.00  0.00     0.202 C 
ENDROOT
BRANCH   1   2
ATOM      2  O   UNL A   1      35.643  21.669  24.931  1.00  0.00    -0.374 OA
BRANCH   2   3
ATOM      3  C   UNL A   1      35.951  22.315  23.690  1.00  0.00     0.202 C 
BRANCH   3   4
ATOM      4  C   UNL A   1      35.150  23.601  23.439  1.00  0.00     0.261 C 
BRANCH   4   5
ATOM      5  O   UNL A   1      34.922  24.352  24.653  1.00  0.00    -0.463 OA
BRANCH   5   6
ATOM      6  C   UNL A   1      34.042  25.375  24.501  1.00  0.00     0.315 C 
ATOM      7  O   UNL A   1      33.809  25.908  23.417  1.00  0.00    -0.252 OA
BRANCH   6   8
ATOM      8  C   UNL A   1      33.238  25.726  25.741  1.00  0.00     0.167 C 
ATOM      9  C   UNL A   1      31.862  26.399  25.628  1.00  0.00     0.098 C 
ATOM     10  C   UNL A   1      31.004  25.684  26.686  1.00  0.00     0.272 C 
ATOM     11  N   UNL A   1      31.567  24.350  26.870  1.00  0.00    -0.330 N 
ATOM     12  C   UNL A   1      32.988  24.436  26.537  1.00  0.00     0.278 C 
ATOM     13  H   UNL A   1      31.463  24.078  27.848  1.00  0.00     0.348 HD
BRANCH   9  14
ATOM     14  C   UNL A   1      31.804  27.914  25.819  1.00  0.00     0.004 A 
ATOM     15  C   UNL A   1      31.315  28.815  24.853  1.00  0.00     0.122 A 
ATOM     16  C   UNL A   1      31.283  30.195  25.097  1.00  0.00     0.047 A 
ATOM     17  C   UNL A   1      31.800  30.705  26.288  1.00  0.00     0.004 A 
ATOM     18  C   UNL A   1      32.359  28.459  26.993  1.00  0.00     0.008 A 
ATOM     19  C   UNL A   1      32.370  29.839  27.218  1.00  0.00     0.001 A 
BRANCH  15  20
ATOM     20  O   UNL A   1      31.111  28.377  23.571  1.00  0.00    -0.496 OA
ATOM     21  C   UNL A   1      30.341  29.251  22.757  1.00  0.00     0.278 C 
ENDBRANCH  15  20
ENDBRANCH   9  14
BRANCH  11  22
ATOM     22  C   UNL A   1      30.821  23.228  26.277  1.00  0.00     0.299 C 
BRANCH  22  23
ATOM     23  C   UNL A   1      31.518  22.458  25.173  1.00  0.00     0.013 A 
ATOM     24  C   UNL A   1      32.184  21.282  25.558  1.00  0.00     0.060 A 
ATOM     25  C   UNL A   1      31.431  22.802  23.787  1.00  0.00    -0.038 A 
ATOM     26  C   UNL A   1      32.476  20.386  24.572  1.00  0.00     0.166 A 
ATOM     27  C   UNL A   1      31.899  21.912  22.811  1.00  0.00     0.054 A 
ATOM     28  C   UNL A   1      30.711  24.004  23.244  1.00  0.00     0.045 C 
ATOM     29  C   UNL A   1      32.311  20.688  23.241  1.00  0.00     0.166 A 
ATOM     30  O   UNL A   1      32.671  19.054  24.775  1.00  0.00    -0.454 OA
ATOM     31  O   UNL A   1      32.342  19.579  22.458  1.00  0.00    -0.454 OA
ATOM     32  C   UNL A   1      32.169  18.620  23.505  1.00  0.00     0.468 C 
ENDBRANCH  22  23
ENDBRANCH  11  22
ENDBRANCH   6   8
ENDBRANCH   5   6
ENDBRANCH   4   5
ENDBRANCH   3   4
ENDBRANCH   2   3
ENDBRANCH   1   2
BRANCH   1  33
ATOM     33  C   UNL A   1      37.708  20.276  24.976  1.00  0.00     0.261 C 
BRANCH  33  34
ATOM     34  O   UNL A   1      38.365  21.469  25.436  1.00  0.00    -0.460 OA
BRANCH  34  35
ATOM     35  C   UNL A   1      39.481  21.259  26.191  1.00  0.00     0.338 C 
ATOM     36  O   UNL A   1      40.071  20.221  26.373  1.00  0.00    -0.246 OA
BRANCH  35  37
ATOM     37  C   UNL A   1      39.952  22.569  26.683  1.00  0.00     0.060 A 
ATOM     38  C   UNL A   1      39.347  23.726  26.178  1.00  0.00     0.016 A 
ATOM     39  C   UNL A   1      40.932  22.654  27.676  1.00  0.00     0.016 A 
ATOM     40  C   UNL A   1      39.704  24.982  26.683  1.00  0.00     0.010 A 
ATOM     41  C   UNL A   1      41.262  23.911  28.204  1.00  0.00     0.010 A 
ATOM     42  C   UNL A   1      40.664  25.089  27.700  1.00  0.00    -0.014 A 
BRANCH  42  43
ATOM     43  C   UNL A   1      41.212  26.417  28.089  1.00  0.00     0.031 A 
ATOM     44  C   UNL A   1      42.627  26.718  27.670  1.00  0.00     0.074 A 
ATOM     45  C   UNL A   1      40.518  27.338  28.793  1.00  0.00     0.049 A 
ATOM     46  N   UNL A   1      43.345  27.790  27.872  1.00  0.00    -0.248 NA
ATOM     47  C   UNL A   1      43.334  25.650  26.939  1.00  0.00     0.031 C 
ATOM     48  C   UNL A   1      39.157  27.186  29.305  1.00  0.00     0.029 A 
ATOM     49  N   UNL A   1      40.888  28.594  29.220  1.00  0.00    -0.354 N 
ATOM     50  C   UNL A   1      44.584  27.515  27.308  1.00  0.00     0.074 A 
ATOM     51  C   UNL A   1      44.550  26.154  26.829  1.00  0.00     0.031 C 
ATOM     52  C   UNL A   1      38.818  28.289  30.001  1.00  0.00     0.029 A 
ATOM     53  C   UNL A   1      39.932  29.236  29.976  1.00  0.00     0.049 A 
ATOM     54  H   UNL A   1      41.759  28.997  29.005  1.00  0.00     0.167 HD
ATOM     55  C   UNL A   1      45.645  28.333  27.136  1.00  0.00     0.034 A 
ATOM     56  C   UNL A   1      39.952  30.450  30.570  1.00  0.00     0.034 A 
ATOM     57  C   UNL A   1      45.685  29.698  27.563  1.00  0.00     0.049 A 
ATOM     58  C   UNL A   1      41.154  31.349  30.374  1.00  0.00     0.074 A 
ATOM     59  C   UNL A   1      46.699  30.620  27.394  1.00  0.00     0.029 A 
ATOM     60  N   UNL A   1      44.663  30.335  28.246  1.00  0.00    -0.354 N 
ATOM     61  N   UNL A   1      42.247  31.131  29.684  1.00  0.00    -0.248 NA
ATOM     62  C   UNL A   1      41.101  32.684  30.996  1.00  0.00     0.031 C 
ATOM     63  C   UNL A   1      46.291  31.821  27.984  1.00  0.00     0.029 A 
ATOM     64  C   UNL A   1      45.020  31.643  28.506  1.00  0.00     0.049 A 
ATOM     65  H   UNL A   1      43.810  29.918  28.505  1.00  0.00     0.167 HD
ATOM     66  C   UNL A   1      42.982  32.312  29.744  1.00  0.00     0.074 A 
ATOM     67  C   UNL A   1      42.207  33.249  30.528  1.00  0.00     0.031 C 
ATOM     68  C   UNL A   1      44.198  32.592  29.213  1.00  0.00     0.034 A 
BRANCH  55  69
ATOM     69  C   UNL A   1      46.813  27.765  26.382  1.00  0.00     0.023 A 
ATOM     70  C   UNL A   1      46.875  27.945  24.984  1.00  0.00     0.012 A 
ATOM     71  C   UNL A   1      47.819  27.036  27.038  1.00  0.00     0.148 A 
ATOM     72  C   UNL A   1      47.903  27.369  24.242  1.00  0.00     0.002 A 
ATOM     73  C   UNL A   1      48.864  26.502  26.296  1.00  0.00     0.091 A 
ATOM     74  F   UNL A   1      47.716  26.850  28.362  1.00  0.00    -0.205 F 
ATOM     75  C   UNL A   1      48.901  26.655  24.899  1.00  0.00     0.022 A 
BRANCH  73  76
ATOM     76  S   UNL A   1      50.227  25.613  27.052  1.00  0.00     0.127 S 
ATOM     77  O   UNL A   1      51.127  25.430  25.914  1.00  0.00    -0.237 OA
ATOM     78  O   UNL A   1      50.697  26.569  28.055  1.00  0.00    -0.237 OA
ATOM     79  O   UNL A   1      49.655  24.392  27.600  1.00  0.00    -0.744 OA
ENDBRANCH  73  76
ENDBRANCH  55  69
BRANCH  56  80
ATOM     80  C   UNL A   1      38.773  30.950  31.343  1.00  0.00     0.023 A 
ATOM     81  C   UNL A   1      38.750  30.789  32.744  1.00  0.00     0.012 A 
ATOM     82  C   UNL A   1      37.660  31.532  30.705  1.00  0.00     0.148 A 
ATOM     83  C   UNL A   1      37.627  31.155  33.489  1.00  0.00     0.002 A 
ATOM     84  C   UNL A   1      36.561  31.935  31.459  1.00  0.00     0.091 A 
ATOM     85  F   UNL A   1      37.687  31.659  29.371  1.00  0.00    -0.205 F 
ATOM     86  C   UNL A   1      36.536  31.732  32.848  1.00  0.00     0.022 A 
BRANCH  84  87
ATOM     87  S   UNL A   1      35.142  32.772  30.738  1.00  0.00     0.127 S 
ATOM     88  O   UNL A   1      35.724  34.046  30.323  1.00  0.00    -0.237 OA
ATOM     89  O   UNL A   1      34.786  31.871  29.640  1.00  0.00    -0.237 OA
ATOM     90  O   UNL A   1      34.149  32.844  31.801  1.00  0.00    -0.744 OA
ENDBRANCH  84  87
ENDBRANCH  56  80
BRANCH  68  91
ATOM     91  C   UNL A   1      44.764  33.975  29.400  1.00  0.00     0.023 A 
ATOM     92  C   UNL A   1      44.461  34.985  28.467  1.00  0.00     0.012 A 
ATOM     93  C   UNL A   1      45.486  34.302  30.566  1.00  0.00     0.148 A 
ATOM     94  C   UNL A   1      44.883  36.297  28.682  1.00  0.00     0.002 A 
ATOM     95  C   UNL A   1      45.863  35.620  30.796  1.00  0.00     0.091 A 
ATOM     96  F   UNL A   1      45.780  33.323  31.433  1.00  0.00    -0.205 F 
ATOM     97  C   UNL A   1      45.569  36.616  29.851  1.00  0.00     0.022 A 
BRANCH  95  98
ATOM     98  S   UNL A   1      46.655  36.138  32.323  1.00  0.00     0.127 S 
ATOM     99  O   UNL A   1      46.811  37.574  32.107  1.00  0.00    -0.237 OA
ATOM    100  O   UNL A   1      45.656  35.778  33.332  1.00  0.00    -0.237 OA
ATOM    101  O   UNL A   1      47.895  35.377  32.408  1.00  0.00    -0.744 OA
ENDBRANCH  95  98
ENDBRANCH  68  91
ENDBRANCH  42  43
ENDBRANCH  35  37
ENDBRANCH  34  35
ENDBRANCH  33  34
ENDBRANCH   1  33
TORSDOF 21
ENDMDL
