MODEL 1
REMARK VINA RESULT:     -10.4      0.000      0.000
REMARK SMILES CNC(=O)NC(=O)CCSc1csc(C(=O)OCCOCCOC(=O)c2ccc(-c3c4nc(c(-c5cccc(S(=O)(=O)[O-])c5F)c5ccc([nH]5)c(-c5cccc(S(=O)(=O)[O-])c5F)c5nc(c(-c6cccc(S(=O)(=O)[O-])c6F)c6ccc3[nH]6)C=C5)C=C4)cc2)c1
REMARK SMILES IDX 19 1 18 2 17 3 15 4 16 5 14 6 11 7 12 8 89 9 13 10 10 11
REMARK SMILES IDX 9 12 8 13 6 14 1 15 2 16 3 17 4 19 5 20 7 22 20 23 21 24
REMARK SMILES IDX 22 25 23 26 24 27 25 28 26 29 27 30 88 31 28 32 87 33 29 34
REMARK SMILES IDX 30 35 31 36 81 37 32 38 86 39 80 40 82 41 33 42 85 43 79 44
REMARK SMILES IDX 78 45 34 47 66 48 46 49 65 50 47 51 50 52 64 53 83 54 48 55
REMARK SMILES IDX 49 56 63 58 84 59 51 60 35 61 36 62 44 63 37 64 39 65 45 66
REMARK SMILES IDX 38 67 40 68 41 69 42 70 43 71 67 72 68 73 76 74 69 75 71 76
REMARK SMILES IDX 77 77 70 78 72 79 73 80 74 81 75 82 52 83 53 84 61 85 54 86
REMARK SMILES IDX 56 87 62 88 55 89 57 90 58 91 59 92 60 93
REMARK H PARENT 2 18 5 21 82 46 50 57
REMARK Flexibility Score: inf
ROOT
ATOM      1  C   UNL A   1      33.918  19.088  24.823  1.00  0.00     0.202 C 
ENDROOT
BRANCH   1   2
ATOM      2  C   UNL A   1      32.803  19.418  23.827  1.00  0.00     0.261 C 
BRANCH   2   3
ATOM      3  O   UNL A   1      32.097  20.603  24.221  1.00  0.00    -0.459 OA
BRANCH   3   4
ATOM      4  C   UNL A   1      32.387  21.747  23.539  1.00  0.00     0.348 C 
ATOM      5  O   UNL A   1      32.528  21.825  22.324  1.00  0.00    -0.245 OA
BRANCH   4   6
ATOM      6  C   UNL A   1      32.417  22.850  24.475  1.00  0.00     0.113 A 
ATOM      7  C   UNL A   1      32.956  24.866  25.522  1.00  0.00     0.019 A 
ATOM      8  C   UNL A   1      32.292  24.202  26.528  1.00  0.00     0.080 A 
ATOM      9  C   UNL A   1      33.000  24.095  24.329  1.00  0.00     0.042 A 
ATOM     10  S   UNL A   1      31.718  22.669  26.026  1.00  0.00    -0.136 S 
BRANCH   7  11
ATOM     11  S   UNL A   1      33.642  26.469  25.751  1.00  0.00    -0.125 SA
BRANCH  11  12
ATOM     12  C   UNL A   1      33.403  27.310  24.157  1.00  0.00     0.085 C 
BRANCH  12  13
ATOM     13  C   UNL A   1      33.183  28.817  24.202  1.00  0.00     0.112 C 
BRANCH  13  14
ATOM     14  C   UNL A   1      31.870  29.297  24.768  1.00  0.00     0.228 C 
ATOM     15  C   UNL A   1      34.580  29.543  27.128  1.00  0.00     0.144 C 
ATOM     16  N   UNL A   1      33.712  30.689  27.018  1.00  0.00    -0.341 N 
ATOM     17  C   UNL A   1      32.421  30.779  26.636  1.00  0.00     0.321 C 
ATOM     18  H   UNL A   1      34.130  31.547  27.262  1.00  0.00     0.165 HD
ATOM     19  O   UNL A   1      31.802  31.816  26.876  1.00  0.00    -0.248 OA
ATOM     20  N   UNL A   1      31.782  29.719  26.075  1.00  0.00    -0.278 N 
ATOM     21  H   UNL A   1      31.192  29.197  26.666  1.00  0.00     0.174 HD
ATOM     22  O   UNL A   1      30.842  29.274  24.085  1.00  0.00    -0.275 OA
ENDBRANCH  13  14
ENDBRANCH  12  13
ENDBRANCH  11  12
ENDBRANCH   7  11
ENDBRANCH   4   6
ENDBRANCH   3   4
ENDBRANCH   2   3
ENDBRANCH   1   2
BRANCH   1  23
ATOM     23  O   UNL A   1      35.061  19.936  24.691  1.00  0.00    -0.374 OA
BRANCH  23  24
ATOM     24  C   UNL A   1      36.313  19.312  25.001  1.00  0.00     0.202 C 
BRANCH  24  25
ATOM     25  C   UNL A   1      37.527  20.160  24.613  1.00  0.00     0.261 C 
BRANCH  25  26
ATOM     26  O   UNL A   1      37.902  21.038  25.693  1.00  0.00    -0.460 OA
BRANCH  26  27
ATOM     27  C   UNL A   1      39.186  20.923  26.109  1.00  0.00     0.338 C 
ATOM     28  O   UNL A   1      39.924  19.961  25.969  1.00  0.00    -0.246 OA
BRANCH  27  29
ATOM     29  C   UNL A   1      39.652  22.218  26.646  1.00  0.00     0.060 A 
ATOM     30  C   UNL A   1      39.051  23.378  26.144  1.00  0.00     0.016 A 
ATOM     31  C   UNL A   1      40.682  22.305  27.586  1.00  0.00     0.016 A 
ATOM     32  C   UNL A   1      39.507  24.632  26.547  1.00  0.00     0.010 A 
ATOM     33  C   UNL A   1      41.140  23.564  27.989  1.00  0.00     0.010 A 
ATOM     34  C   UNL A   1      40.576  24.733  27.447  1.00  0.00    -0.014 A 
BRANCH  34  35
ATOM     35  C   UNL A   1      41.181  26.058  27.726  1.00  0.00     0.031 A 
ATOM     36  C   UNL A   1      42.581  26.342  27.255  1.00  0.00     0.074 A 
ATOM     37  C   UNL A   1      40.492  26.999  28.397  1.00  0.00     0.049 A 
ATOM     38  N   UNL A   1      43.301  27.423  27.404  1.00  0.00    -0.248 NA
ATOM     39  C   UNL A   1      43.262  25.260  26.523  1.00  0.00     0.031 C 
ATOM     40  C   UNL A   1      39.133  26.842  28.912  1.00  0.00     0.029 A 
ATOM     41  N   UNL A   1      40.854  28.266  28.779  1.00  0.00    -0.354 N 
ATOM     42  C   UNL A   1      44.526  27.147  26.807  1.00  0.00     0.074 A 
ATOM     43  C   UNL A   1      44.458  25.791  26.307  1.00  0.00     0.031 C 
ATOM     44  C   UNL A   1      38.785  27.964  29.567  1.00  0.00     0.029 A 
ATOM     45  C   UNL A   1      39.901  28.907  29.534  1.00  0.00     0.049 A 
ATOM     46  H   UNL A   1      41.715  28.678  28.536  1.00  0.00     0.167 HD
ATOM     47  C   UNL A   1      45.603  27.956  26.670  1.00  0.00     0.034 A 
ATOM     48  C   UNL A   1      39.931  30.109  30.143  1.00  0.00     0.034 A 
ATOM     49  C   UNL A   1      45.661  29.312  27.142  1.00  0.00     0.049 A 
ATOM     50  C   UNL A   1      41.148  30.985  29.988  1.00  0.00     0.074 A 
ATOM     51  C   UNL A   1      46.687  30.230  26.996  1.00  0.00     0.029 A 
ATOM     52  N   UNL A   1      44.659  29.944  27.861  1.00  0.00    -0.354 N 
ATOM     53  N   UNL A   1      42.245  30.762  29.303  1.00  0.00    -0.248 NA
ATOM     54  C   UNL A   1      41.119  32.293  30.660  1.00  0.00     0.031 C 
ATOM     55  C   UNL A   1      46.314  31.410  27.648  1.00  0.00     0.029 A 
ATOM     56  C   UNL A   1      45.046  31.234  28.181  1.00  0.00     0.049 A 
ATOM     57  H   UNL A   1      43.798  29.535  28.108  1.00  0.00     0.167 HD
ATOM     58  C   UNL A   1      43.020  31.908  29.437  1.00  0.00     0.074 A 
ATOM     59  C   UNL A   1      42.259  32.834  30.249  1.00  0.00     0.031 C 
ATOM     60  C   UNL A   1      44.258  32.166  28.945  1.00  0.00     0.034 A 
BRANCH  47  61
ATOM     61  C   UNL A   1      46.801  27.404  25.945  1.00  0.00     0.023 A 
ATOM     62  C   UNL A   1      47.653  26.493  26.603  1.00  0.00     0.012 A 
ATOM     63  C   UNL A   1      47.052  27.739  24.600  1.00  0.00     0.148 A 
ATOM     64  C   UNL A   1      48.753  25.947  25.943  1.00  0.00     0.002 A 
ATOM     65  C   UNL A   1      48.128  27.160  23.937  1.00  0.00     0.091 A 
ATOM     66  F   UNL A   1      46.245  28.626  24.001  1.00  0.00    -0.205 F 
ATOM     67  C   UNL A   1      48.983  26.271  24.609  1.00  0.00     0.022 A 
BRANCH  65  68
ATOM     68  S   UNL A   1      48.465  27.462  22.198  1.00  0.00     0.127 S 
ATOM     69  O   UNL A   1      49.676  28.278  22.270  1.00  0.00    -0.237 OA
ATOM     70  O   UNL A   1      48.673  26.107  21.684  1.00  0.00    -0.237 OA
ATOM     71  O   UNL A   1      47.285  28.135  21.674  1.00  0.00    -0.744 OA
ENDBRANCH  65  68
ENDBRANCH  47  61
BRANCH  48  72
ATOM     72  C   UNL A   1      38.753  30.574  30.926  1.00  0.00     0.023 A 
ATOM     73  C   UNL A   1      38.688  30.311  32.309  1.00  0.00     0.012 A 
ATOM     74  C   UNL A   1      37.708  31.295  30.315  1.00  0.00     0.148 A 
ATOM     75  C   UNL A   1      37.593  30.734  33.063  1.00  0.00     0.002 A 
ATOM     76  C   UNL A   1      36.646  31.761  31.082  1.00  0.00     0.091 A 
ATOM     77  F   UNL A   1      37.776  31.516  28.995  1.00  0.00    -0.205 F 
ATOM     78  C   UNL A   1      36.579  31.468  32.453  1.00  0.00     0.022 A 
BRANCH  76  79
ATOM     79  S   UNL A   1      35.366  32.823  30.402  1.00  0.00     0.127 S 
ATOM     80  O   UNL A   1      34.550  33.101  31.580  1.00  0.00    -0.237 OA
ATOM     81  O   UNL A   1      36.144  33.959  29.908  1.00  0.00    -0.237 OA
ATOM     82  O   UNL A   1      34.723  32.040  29.355  1.00  0.00    -0.744 OA
ENDBRANCH  76  79
ENDBRANCH  48  72
BRANCH  60  83
ATOM     83  C   UNL A   1      44.869  33.511  29.246  1.00  0.00     0.023 A 
ATOM     84  C   UNL A   1      45.583  33.697  30.446  1.00  0.00     0.012 A 
ATOM     85  C   UNL A   1      44.812  34.557  28.305  1.00  0.00     0.148 A 
ATOM     86  C   UNL A   1      46.209  34.914  30.716  1.00  0.00     0.002 A 
ATOM     87  C   UNL A   1      45.476  35.752  28.561  1.00  0.00     0.091 A 
ATOM     88  F   UNL A   1      44.112  34.366  27.176  1.00  0.00    -0.205 F 
ATOM     89  C   UNL A   1      46.166  35.935  29.769  1.00  0.00     0.022 A 
BRANCH  87  90
ATOM     90  S   UNL A   1      45.553  37.087  27.361  1.00  0.00     0.127 S 
ATOM     91  O   UNL A   1      46.091  36.403  26.188  1.00  0.00    -0.237 OA
ATOM     92  O   UNL A   1      44.148  37.484  27.246  1.00  0.00    -0.237 OA
ATOM     93  O   UNL A   1      46.418  38.103  27.946  1.00  0.00    -0.744 OA
ENDBRANCH  87  90
ENDBRANCH  60  83
ENDBRANCH  34  35
ENDBRANCH  27  29
ENDBRANCH  26  27
ENDBRANCH  25  26
ENDBRANCH  24  25
ENDBRANCH  23  24
ENDBRANCH   1  23
TORSDOF 21
ENDMDL
MODEL 2
REMARK VINA RESULT:     -10.3      5.234      8.054
REMARK SMILES CNC(=O)NC(=O)CCSc1csc(C(=O)OCCOCCOC(=O)c2ccc(-c3c4nc(c(-c5cccc(S(=O)(=O)[O-])c5F)c5ccc([nH]5)c(-c5cccc(S(=O)(=O)[O-])c5F)c5nc(c(-c6cccc(S(=O)(=O)[O-])c6F)c6ccc3[nH]6)C=C5)C=C4)cc2)c1
REMARK SMILES IDX 19 1 18 2 17 3 15 4 16 5 14 6 11 7 12 8 89 9 13 10 10 11
REMARK SMILES IDX 9 12 8 13 6 14 1 15 2 16 3 17 4 19 5 20 7 22 20 23 21 24
REMARK SMILES IDX 22 25 23 26 24 27 25 28 26 29 27 30 88 31 28 32 87 33 29 34
REMARK SMILES IDX 30 35 31 36 81 37 32 38 86 39 80 40 82 41 33 42 85 43 79 44
REMARK SMILES IDX 78 45 34 47 66 48 46 49 65 50 47 51 50 52 64 53 83 54 48 55
REMARK SMILES IDX 49 56 63 58 84 59 51 60 35 61 36 62 44 63 37 64 39 65 45 66
REMARK SMILES IDX 38 67 40 68 41 69 42 70 43 71 67 72 68 73 76 74 69 75 71 76
REMARK SMILES IDX 77 77 70 78 72 79 73 80 74 81 75 82 52 83 53 84 61 85 54 86
REMARK SMILES IDX 56 87 62 88 55 89 57 90 58 91 59 92 60 93
REMARK H PARENT 2 18 5 21 82 46 50 57
REMARK Flexibility Score: inf
ROOT
ATOM      1  C   UNL A   1      32.278  27.961  24.069  1.00  0.00     0.202 C 
ENDROOT
BRANCH   1   2
ATOM      2  C   UNL A   1      32.861  27.529  22.720  1.00  0.00     0.261 C 
BRANCH   2   3
ATOM      3  O   UNL A   1      31.964  26.645  22.033  1.00  0.00    -0.459 OA
BRANCH   3   4
ATOM      4  C   UNL A   1      32.524  25.582  21.388  1.00  0.00     0.348 C 
ATOM      5  O   UNL A   1      33.039  25.624  20.278  1.00  0.00    -0.245 OA
BRANCH   4   6
ATOM      6  C   UNL A   1      32.476  24.432  22.266  1.00  0.00     0.113 A 
ATOM      7  C   UNL A   1      32.232  23.085  24.157  1.00  0.00     0.019 A 
ATOM      8  C   UNL A   1      32.890  22.236  23.296  1.00  0.00     0.080 A 
ATOM      9  C   UNL A   1      31.967  24.342  23.549  1.00  0.00     0.042 A 
ATOM     10  S   UNL A   1      33.170  22.950  21.766  1.00  0.00    -0.136 S 
BRANCH   7  11
ATOM     11  S   UNL A   1      31.802  22.610  25.795  1.00  0.00    -0.125 SA
BRANCH  11  12
ATOM     12  C   UNL A   1      33.104  23.324  26.844  1.00  0.00     0.085 C 
BRANCH  12  13
ATOM     13  C   UNL A   1      34.544  23.089  26.405  1.00  0.00     0.112 C 
BRANCH  13  14
ATOM     14  C   UNL A   1      35.172  24.149  25.535  1.00  0.00     0.228 C 
ATOM     15  C   UNL A   1      36.958  21.022  25.436  1.00  0.00     0.144 C 
ATOM     16  N   UNL A   1      36.710  21.665  24.170  1.00  0.00    -0.341 N 
ATOM     17  C   UNL A   1      36.520  22.967  23.869  1.00  0.00     0.321 C 
ATOM     18  H   UNL A   1      36.673  21.055  23.398  1.00  0.00     0.165 HD
ATOM     19  O   UNL A   1      36.596  23.321  22.692  1.00  0.00    -0.248 OA
ATOM     20  N   UNL A   1      36.336  23.892  24.847  1.00  0.00    -0.278 N 
ATOM     21  H   UNL A   1      37.119  24.437  25.090  1.00  0.00     0.174 HD
ATOM     22  O   UNL A   1      34.681  25.279  25.462  1.00  0.00    -0.275 OA
ENDBRANCH  13  14
ENDBRANCH  12  13
ENDBRANCH  11  12
ENDBRANCH   7  11
ENDBRANCH   4   6
ENDBRANCH   3   4
ENDBRANCH   2   3
ENDBRANCH   1   2
BRANCH   1  23
ATOM     23  O   UNL A   1      32.218  29.380  24.229  1.00  0.00    -0.374 OA
BRANCH  23  24
ATOM     24  C   UNL A   1      31.078  29.857  24.953  1.00  0.00     0.202 C 
BRANCH  24  25
ATOM     25  C   UNL A   1      31.439  30.810  26.096  1.00  0.00     0.261 C 
BRANCH  25  26
ATOM     26  O   UNL A   1      32.866  30.849  26.295  1.00  0.00    -0.460 OA
BRANCH  26  27
ATOM     27  C   UNL A   1      33.305  31.829  27.120  1.00  0.00     0.338 C 
ATOM     28  O   UNL A   1      32.698  32.828  27.469  1.00  0.00    -0.246 OA
BRANCH  27  29
ATOM     29  C   UNL A   1      34.615  31.449  27.689  1.00  0.00     0.060 A 
ATOM     30  C   UNL A   1      34.790  30.113  28.069  1.00  0.00     0.016 A 
ATOM     31  C   UNL A   1      35.636  32.381  27.891  1.00  0.00     0.016 A 
ATOM     32  C   UNL A   1      35.970  29.712  28.691  1.00  0.00     0.010 A 
ATOM     33  C   UNL A   1      36.820  31.977  28.518  1.00  0.00     0.010 A 
ATOM     34  C   UNL A   1      36.980  30.648  28.950  1.00  0.00    -0.014 A 
BRANCH  34  35
ATOM     35  C   UNL A   1      38.148  30.262  29.778  1.00  0.00     0.031 A 
ATOM     36  C   UNL A   1      39.154  29.291  29.224  1.00  0.00     0.074 A 
ATOM     37  C   UNL A   1      38.309  30.768  31.014  1.00  0.00     0.049 A 
ATOM     38  N   UNL A   1      40.235  28.811  29.781  1.00  0.00    -0.248 NA
ATOM     39  C   UNL A   1      38.906  28.791  27.860  1.00  0.00     0.031 C 
ATOM     40  C   UNL A   1      37.399  31.709  31.666  1.00  0.00     0.029 A 
ATOM     41  N   UNL A   1      39.286  30.539  31.950  1.00  0.00    -0.354 N 
ATOM     42  C   UNL A   1      40.784  27.937  28.851  1.00  0.00     0.074 A 
ATOM     43  C   UNL A   1      39.909  27.940  27.699  1.00  0.00     0.031 C 
ATOM     44  C   UNL A   1      37.849  31.958  32.908  1.00  0.00     0.029 A 
ATOM     45  C   UNL A   1      39.063  31.180  33.146  1.00  0.00     0.049 A 
ATOM     46  H   UNL A   1      40.071  29.969  31.782  1.00  0.00     0.167 HD
ATOM     47  C   UNL A   1      41.924  27.210  28.940  1.00  0.00     0.034 A 
ATOM     48  C   UNL A   1      39.751  31.132  34.304  1.00  0.00     0.034 A 
ATOM     49  C   UNL A   1      42.808  27.229  30.073  1.00  0.00     0.049 A 
ATOM     50  C   UNL A   1      41.009  30.305  34.382  1.00  0.00     0.074 A 
ATOM     51  C   UNL A   1      44.017  26.574  30.230  1.00  0.00     0.029 A 
ATOM     52  N   UNL A   1      42.575  27.927  31.247  1.00  0.00    -0.354 N 
ATOM     53  N   UNL A   1      41.588  29.591  33.446  1.00  0.00    -0.248 NA
ATOM     54  C   UNL A   1      41.728  30.303  35.665  1.00  0.00     0.031 C 
ATOM     55  C   UNL A   1      44.504  26.859  31.511  1.00  0.00     0.029 A 
ATOM     56  C   UNL A   1      43.608  27.707  32.142  1.00  0.00     0.049 A 
ATOM     57  H   UNL A   1      41.790  28.495  31.420  1.00  0.00     0.167 HD
ATOM     58  C   UNL A   1      42.750  29.082  34.015  1.00  0.00     0.074 A 
ATOM     59  C   UNL A   1      42.806  29.587  35.372  1.00  0.00     0.031 C 
ATOM     60  C   UNL A   1      43.679  28.258  33.471  1.00  0.00     0.034 A 
BRANCH  47  61
ATOM     61  C   UNL A   1      42.302  26.359  27.758  1.00  0.00     0.023 A 
ATOM     62  C   UNL A   1      43.114  26.903  26.741  1.00  0.00     0.012 A 
ATOM     63  C   UNL A   1      41.904  25.010  27.679  1.00  0.00     0.148 A 
ATOM     64  C   UNL A   1      43.500  26.127  25.650  1.00  0.00     0.002 A 
ATOM     65  C   UNL A   1      42.326  24.231  26.608  1.00  0.00     0.091 A 
ATOM     66  F   UNL A   1      41.113  24.520  28.643  1.00  0.00    -0.205 F 
ATOM     67  C   UNL A   1      43.116  24.789  25.589  1.00  0.00     0.022 A 
BRANCH  65  68
ATOM     68  S   UNL A   1      41.943  22.481  26.478  1.00  0.00     0.127 S 
ATOM     69  O   UNL A   1      42.572  22.136  25.204  1.00  0.00    -0.237 OA
ATOM     70  O   UNL A   1      42.610  21.928  27.657  1.00  0.00    -0.237 OA
ATOM     71  O   UNL A   1      40.489  22.388  26.504  1.00  0.00    -0.744 OA
ENDBRANCH  65  68
ENDBRANCH  47  61
BRANCH  48  72
ATOM     72  C   UNL A   1      39.286  31.924  35.477  1.00  0.00     0.023 A 
ATOM     73  C   UNL A   1      38.389  31.345  36.395  1.00  0.00     0.012 A 
ATOM     74  C   UNL A   1      39.744  33.237  35.700  1.00  0.00     0.148 A 
ATOM     75  C   UNL A   1      37.937  32.068  37.500  1.00  0.00     0.002 A 
ATOM     76  C   UNL A   1      39.333  33.932  36.831  1.00  0.00     0.091 A 
ATOM     77  F   UNL A   1      40.580  33.779  34.803  1.00  0.00    -0.205 F 
ATOM     78  C   UNL A   1      38.416  33.355  37.723  1.00  0.00     0.022 A 
BRANCH  76  79
ATOM     79  S   UNL A   1      40.002  35.543  37.262  1.00  0.00     0.127 S 
ATOM     80  O   UNL A   1      39.606  36.350  36.113  1.00  0.00    -0.237 OA
ATOM     81  O   UNL A   1      39.288  35.846  38.503  1.00  0.00    -0.237 OA
ATOM     82  O   UNL A   1      41.434  35.340  37.433  1.00  0.00    -0.744 OA
ENDBRANCH  76  79
ENDBRANCH  48  72
BRANCH  60  83
ATOM     83  C   UNL A   1      44.856  27.861  34.326  1.00  0.00     0.023 A 
ATOM     84  C   UNL A   1      46.006  28.674  34.347  1.00  0.00     0.012 A 
ATOM     85  C   UNL A   1      44.787  26.737  35.173  1.00  0.00     0.148 A 
ATOM     86  C   UNL A   1      47.081  28.359  35.178  1.00  0.00     0.002 A 
ATOM     87  C   UNL A   1      45.844  26.455  36.031  1.00  0.00     0.091 A 
ATOM     88  F   UNL A   1      43.690  25.966  35.125  1.00  0.00    -0.205 F 
ATOM     89  C   UNL A   1      46.995  27.259  36.028  1.00  0.00     0.022 A 
BRANCH  87  90
ATOM     90  S   UNL A   1      45.783  25.113  37.225  1.00  0.00     0.127 S 
ATOM     91  O   UNL A   1      45.368  23.989  36.389  1.00  0.00    -0.237 OA
ATOM     92  O   UNL A   1      47.169  25.048  37.691  1.00  0.00    -0.237 OA
ATOM     93  O   UNL A   1      44.825  25.525  38.242  1.00  0.00    -0.744 OA
ENDBRANCH  87  90
ENDBRANCH  60  83
ENDBRANCH  34  35
ENDBRANCH  27  29
ENDBRANCH  26  27
ENDBRANCH  25  26
ENDBRANCH  24  25
ENDBRANCH  23  24
ENDBRANCH   1  23
TORSDOF 21
ENDMDL
MODEL 3
REMARK VINA RESULT:     -10.3      1.777      7.854
REMARK SMILES CNC(=O)NC(=O)CCSc1csc(C(=O)OCCOCCOC(=O)c2ccc(-c3c4nc(c(-c5cccc(S(=O)(=O)[O-])c5F)c5ccc([nH]5)c(-c5cccc(S(=O)(=O)[O-])c5F)c5nc(c(-c6cccc(S(=O)(=O)[O-])c6F)c6ccc3[nH]6)C=C5)C=C4)cc2)c1
REMARK SMILES IDX 19 1 18 2 17 3 15 4 16 5 14 6 11 7 12 8 89 9 13 10 10 11
REMARK SMILES IDX 9 12 8 13 6 14 1 15 2 16 3 17 4 19 5 20 7 22 20 23 21 24
REMARK SMILES IDX 22 25 23 26 24 27 25 28 26 29 27 30 88 31 28 32 87 33 29 34
REMARK SMILES IDX 30 35 31 36 81 37 32 38 86 39 80 40 82 41 33 42 85 43 79 44
REMARK SMILES IDX 78 45 34 47 66 48 46 49 65 50 47 51 50 52 64 53 83 54 48 55
REMARK SMILES IDX 49 56 63 58 84 59 51 60 35 61 36 62 44 63 37 64 39 65 45 66
REMARK SMILES IDX 38 67 40 68 41 69 42 70 43 71 67 72 68 73 76 74 69 75 71 76
REMARK SMILES IDX 77 77 70 78 72 79 73 80 74 81 75 82 52 83 53 84 61 85 54 86
REMARK SMILES IDX 56 87 62 88 55 89 57 90 58 91 59 92 60 93
REMARK H PARENT 2 18 5 21 82 46 50 57
REMARK Flexibility Score: inf
ROOT
ATOM      1  C   UNL A   1      33.581  20.273  24.630  1.00  0.00     0.202 C 
ENDROOT
BRANCH   1   2
ATOM      2  C   UNL A   1      32.717  20.902  23.533  1.00  0.00     0.261 C 
BRANCH   2   3
ATOM      3  O   UNL A   1      31.975  22.020  24.041  1.00  0.00    -0.459 OA
BRANCH   3   4
ATOM      4  C   UNL A   1      32.300  23.248  23.549  1.00  0.00     0.348 C 
ATOM      5  O   UNL A   1      32.832  23.453  22.464  1.00  0.00    -0.245 OA
BRANCH   4   6
ATOM      6  C   UNL A   1      31.841  24.257  24.480  1.00  0.00     0.113 A 
ATOM      7  C   UNL A   1      31.544  26.288  25.591  1.00  0.00     0.019 A 
ATOM      8  C   UNL A   1      31.007  25.398  26.494  1.00  0.00     0.080 A 
ATOM      9  C   UNL A   1      31.997  25.629  24.417  1.00  0.00     0.042 A 
ATOM     10  S   UNL A   1      31.040  23.787  25.916  1.00  0.00    -0.136 S 
BRANCH   7  11
ATOM     11  S   UNL A   1      31.628  28.015  25.915  1.00  0.00    -0.125 SA
BRANCH  11  12
ATOM     12  C   UNL A   1      31.787  28.788  24.277  1.00  0.00     0.085 C 
BRANCH  12  13
ATOM     13  C   UNL A   1      30.538  29.446  23.705  1.00  0.00     0.112 C 
BRANCH  13  14
ATOM     14  C   UNL A   1      29.821  28.706  22.604  1.00  0.00     0.228 C 
ATOM     15  C   UNL A   1      27.932  31.500  23.867  1.00  0.00     0.144 C 
ATOM     16  N   UNL A   1      28.004  31.364  22.433  1.00  0.00    -0.341 N 
ATOM     17  C   UNL A   1      28.191  30.271  21.664  1.00  0.00     0.321 C 
ATOM     18  H   UNL A   1      27.900  32.206  21.933  1.00  0.00     0.165 HD
ATOM     19  O   UNL A   1      27.948  30.344  20.460  1.00  0.00    -0.248 OA
ATOM     20  N   UNL A   1      28.557  29.083  22.214  1.00  0.00    -0.278 N 
ATOM     21  H   UNL A   1      27.840  28.420  22.346  1.00  0.00     0.174 HD
ATOM     22  O   UNL A   1      30.335  27.720  22.068  1.00  0.00    -0.275 OA
ENDBRANCH  13  14
ENDBRANCH  12  13
ENDBRANCH  11  12
ENDBRANCH   7  11
ENDBRANCH   4   6
ENDBRANCH   3   4
ENDBRANCH   2   3
ENDBRANCH   1   2
BRANCH   1  23
ATOM     23  O   UNL A   1      34.909  20.799  24.672  1.00  0.00    -0.374 OA
BRANCH  23  24
ATOM     24  C   UNL A   1      35.928  19.839  24.976  1.00  0.00     0.202 C 
BRANCH  24  25
ATOM     25  C   UNL A   1      37.340  20.322  24.634  1.00  0.00     0.261 C 
BRANCH  25  26
ATOM     26  O   UNL A   1      37.788  21.303  25.589  1.00  0.00    -0.460 OA
BRANCH  26  27
ATOM     27  C   UNL A   1      39.025  21.090  26.097  1.00  0.00     0.338 C 
ATOM     28  O   UNL A   1      39.675  20.059  26.049  1.00  0.00    -0.246 OA
BRANCH  27  29
ATOM     29  C   UNL A   1      39.576  22.360  26.613  1.00  0.00     0.060 A 
ATOM     30  C   UNL A   1      39.031  23.549  26.116  1.00  0.00     0.016 A 
ATOM     31  C   UNL A   1      40.633  22.394  27.528  1.00  0.00     0.016 A 
ATOM     32  C   UNL A   1      39.567  24.777  26.498  1.00  0.00     0.010 A 
ATOM     33  C   UNL A   1      41.171  23.628  27.909  1.00  0.00     0.010 A 
ATOM     34  C   UNL A   1      40.661  24.824  27.371  1.00  0.00    -0.014 A 
BRANCH  34  35
ATOM     35  C   UNL A   1      41.347  26.114  27.625  1.00  0.00     0.031 A 
ATOM     36  C   UNL A   1      40.644  27.175  28.426  1.00  0.00     0.074 A 
ATOM     37  C   UNL A   1      42.582  26.341  27.141  1.00  0.00     0.049 A 
ATOM     38  N   UNL A   1      41.055  28.373  28.752  1.00  0.00    -0.248 NA
ATOM     39  C   UNL A   1      39.299  26.843  28.924  1.00  0.00     0.031 C 
ATOM     40  C   UNL A   1      43.362  25.396  26.343  1.00  0.00     0.029 A 
ATOM     41  N   UNL A   1      43.385  27.450  27.233  1.00  0.00    -0.354 N 
ATOM     42  C   UNL A   1      40.012  28.948  29.470  1.00  0.00     0.074 A 
ATOM     43  C   UNL A   1      38.945  27.973  29.520  1.00  0.00     0.031 C 
ATOM     44  C   UNL A   1      44.524  25.977  25.996  1.00  0.00     0.029 A 
ATOM     45  C   UNL A   1      44.560  27.338  26.529  1.00  0.00     0.049 A 
ATOM     46  H   UNL A   1      43.142  28.250  27.753  1.00  0.00     0.167 HD
ATOM     47  C   UNL A   1      39.956  30.169  30.052  1.00  0.00     0.034 A 
ATOM     48  C   UNL A   1      45.545  28.236  26.324  1.00  0.00     0.034 A 
ATOM     49  C   UNL A   1      41.027  31.127  30.027  1.00  0.00     0.049 A 
ATOM     50  C   UNL A   1      45.452  29.594  26.971  1.00  0.00     0.074 A 
ATOM     51  C   UNL A   1      41.087  32.367  30.639  1.00  0.00     0.029 A 
ATOM     52  N   UNL A   1      42.222  30.961  29.344  1.00  0.00    -0.354 N 
ATOM     53  N   UNL A   1      44.520  30.071  27.761  1.00  0.00    -0.248 NA
ATOM     54  C   UNL A   1      46.563  30.527  26.726  1.00  0.00     0.031 C 
ATOM     55  C   UNL A   1      42.310  32.960  30.308  1.00  0.00     0.029 A 
ATOM     56  C   UNL A   1      43.020  32.080  29.506  1.00  0.00     0.049 A 
ATOM     57  H   UNL A   1      42.467  30.163  28.821  1.00  0.00     0.167 HD
ATOM     58  C   UNL A   1      44.945  31.342  28.132  1.00  0.00     0.074 A 
ATOM     59  C   UNL A   1      46.229  31.554  27.497  1.00  0.00     0.031 C 
ATOM     60  C   UNL A   1      44.321  32.258  28.913  1.00  0.00     0.034 A 
BRANCH  47  61
ATOM     61  C   UNL A   1      38.702  30.526  30.803  1.00  0.00     0.023 A 
ATOM     62  C   UNL A   1      38.586  30.184  32.166  1.00  0.00     0.012 A 
ATOM     63  C   UNL A   1      37.664  31.247  30.180  1.00  0.00     0.148 A 
ATOM     64  C   UNL A   1      37.446  30.529  32.890  1.00  0.00     0.002 A 
ATOM     65  C   UNL A   1      36.548  31.622  30.918  1.00  0.00     0.091 A 
ATOM     66  F   UNL A   1      37.783  31.541  28.878  1.00  0.00    -0.205 F 
ATOM     67  C   UNL A   1      36.433  31.256  32.269  1.00  0.00     0.022 A 
BRANCH  65  68
ATOM     68  S   UNL A   1      35.223  32.620  30.227  1.00  0.00     0.127 S 
ATOM     69  O   UNL A   1      34.731  31.756  29.156  1.00  0.00    -0.237 OA
ATOM     70  O   UNL A   1      34.314  32.758  31.365  1.00  0.00    -0.237 OA
ATOM     71  O   UNL A   1      35.846  33.863  29.794  1.00  0.00    -0.744 OA
ENDBRANCH  65  68
ENDBRANCH  47  61
BRANCH  48  72
ATOM     72  C   UNL A   1      46.727  27.864  25.497  1.00  0.00     0.023 A 
ATOM     73  C   UNL A   1      46.694  28.072  24.104  1.00  0.00     0.012 A 
ATOM     74  C   UNL A   1      47.891  27.330  26.084  1.00  0.00     0.148 A 
ATOM     75  C   UNL A   1      47.788  27.729  23.308  1.00  0.00     0.002 A 
ATOM     76  C   UNL A   1      48.997  27.042  25.294  1.00  0.00     0.091 A 
ATOM     77  F   UNL A   1      47.895  27.119  27.408  1.00  0.00    -0.205 F 
ATOM     78  C   UNL A   1      48.942  27.226  23.903  1.00  0.00     0.022 A 
BRANCH  76  79
ATOM     79  S   UNL A   1      50.565  26.513  25.994  1.00  0.00     0.127 S 
ATOM     80  O   UNL A   1      50.169  25.335  26.760  1.00  0.00    -0.237 OA
ATOM     81  O   UNL A   1      51.354  26.233  24.794  1.00  0.00    -0.237 OA
ATOM     82  O   UNL A   1      51.047  27.646  26.774  1.00  0.00    -0.744 OA
ENDBRANCH  76  79
ENDBRANCH  48  72
BRANCH  60  83
ATOM     83  C   UNL A   1      45.020  33.572  29.153  1.00  0.00     0.023 A 
ATOM     84  C   UNL A   1      45.900  33.702  30.246  1.00  0.00     0.012 A 
ATOM     85  C   UNL A   1      44.877  34.643  28.249  1.00  0.00     0.148 A 
ATOM     86  C   UNL A   1      46.604  34.888  30.451  1.00  0.00     0.002 A 
ATOM     87  C   UNL A   1      45.617  35.805  28.434  1.00  0.00     0.091 A 
ATOM     88  F   UNL A   1      44.022  34.505  27.224  1.00  0.00    -0.205 F 
ATOM     89  C   UNL A   1      46.473  35.933  29.539  1.00  0.00     0.022 A 
BRANCH  87  90
ATOM     90  S   UNL A   1      45.582  37.167  27.262  1.00  0.00     0.127 S 
ATOM     91  O   UNL A   1      46.315  36.604  26.130  1.00  0.00    -0.237 OA
ATOM     92  O   UNL A   1      44.146  37.343  27.032  1.00  0.00    -0.237 OA
ATOM     93  O   UNL A   1      46.226  38.289  27.931  1.00  0.00    -0.744 OA
ENDBRANCH  87  90
ENDBRANCH  60  83
ENDBRANCH  34  35
ENDBRANCH  27  29
ENDBRANCH  26  27
ENDBRANCH  25  26
ENDBRANCH  24  25
ENDBRANCH  23  24
ENDBRANCH   1  23
TORSDOF 21
ENDMDL
