MODEL 1
REMARK VINA RESULT:     -11.3      0.000      0.000
REMARK SMILES Nc1c(Nc2ccc(I)cc2)ncnc1Nc1ccc(C(=O)OCCOCCOC(=O)c2ccc(-c3c4nc(c(-c5cccc(S(=O)(=O)[O-])c5F)c5ccc([nH]5)c(-c5cccc(S(=O)(=O)[O-])c5F)c5nc(c(-c6cccc(S(=O)(=O)[O-])c6F)c6ccc3[nH]6)C=C5)C=C4)cc2)cc1
REMARK SMILES IDX 25 1 24 2 23 3 21 4 22 5 20 6 17 7 18 8 96 9 19 10 95 11
REMARK SMILES IDX 16 12 15 14 2 15 3 16 12 17 14 18 13 19 1 20 4 23 5 25 6 26
REMARK SMILES IDX 11 27 7 28 10 29 8 30 9 31 26 32 27 33 28 34 29 35 30 36
REMARK SMILES IDX 31 37 32 38 33 39 94 40 34 41 93 42 35 43 36 44 37 45 87 46
REMARK SMILES IDX 38 47 92 48 86 49 88 50 39 51 91 52 85 53 84 54 40 56 72 57
REMARK SMILES IDX 52 58 71 59 53 60 56 61 70 62 89 63 54 64 55 65 69 67 90 68
REMARK SMILES IDX 57 69 41 70 42 71 50 72 43 73 45 74 51 75 44 76 46 77 47 78
REMARK SMILES IDX 48 79 49 80 73 81 74 82 82 83 75 84 77 85 83 86 76 87 78 88
REMARK SMILES IDX 79 89 80 90 81 91 58 92 59 93 67 94 60 95 62 96 68 97 61 98
REMARK SMILES IDX 63 99 64 100 65 101 66 102
REMARK H PARENT 16 13 1 21 1 22 4 24 88 55 56 66
REMARK Flexibility Score: inf
ROOT
ATOM      1  C   UNL A   1      32.896  36.058  29.847  1.00  0.00     0.202 C 
ENDROOT
BRANCH   1   2
ATOM      2  C   UNL A   1      33.827  35.499  28.766  1.00  0.00     0.261 C 
BRANCH   2   3
ATOM      3  O   UNL A   1      33.220  34.417  28.051  1.00  0.00    -0.460 OA
BRANCH   3   4
ATOM      4  C   UNL A   1      34.081  33.441  27.676  1.00  0.00     0.338 C 
ATOM      5  O   UNL A   1      35.300  33.514  27.631  1.00  0.00    -0.246 OA
BRANCH   4   6
ATOM      6  C   UNL A   1      33.356  32.165  27.495  1.00  0.00     0.060 A 
ATOM      7  C   UNL A   1      32.197  29.673  26.967  1.00  0.00     0.040 A 
ATOM      8  C   UNL A   1      33.498  29.747  27.474  1.00  0.00     0.027 A 
ATOM      9  C   UNL A   1      31.451  30.856  26.821  1.00  0.00     0.027 A 
ATOM     10  C   UNL A   1      34.079  30.987  27.727  1.00  0.00     0.018 A 
ATOM     11  C   UNL A   1      32.022  32.102  27.092  1.00  0.00     0.018 A 
BRANCH   7  12
ATOM     12  N   UNL A   1      31.761  28.463  26.387  1.00  0.00    -0.338 N 
ATOM     13  H   UNL A   1      31.260  27.825  26.944  1.00  0.00     0.168 HD
BRANCH  12  14
ATOM     14  C   UNL A   1      32.019  28.130  25.028  1.00  0.00     0.159 A 
ATOM     15  C   UNL A   1      32.942  27.116  24.743  1.00  0.00     0.118 A 
ATOM     16  C   UNL A   1      33.160  26.885  23.377  1.00  0.00     0.159 A 
ATOM     17  N   UNL A   1      32.555  27.602  22.410  1.00  0.00    -0.217 NA
ATOM     18  N   UNL A   1      31.377  28.816  24.064  1.00  0.00    -0.217 NA
ATOM     19  C   UNL A   1      31.678  28.523  22.803  1.00  0.00     0.226 A 
BRANCH  15  20
ATOM     20  N   UNL A   1      33.620  26.420  25.750  1.00  0.00    -0.393 N 
ATOM     21  H   UNL A   1      33.482  25.452  25.856  1.00  0.00     0.156 HD
ATOM     22  H   UNL A   1      34.236  26.899  26.351  1.00  0.00     0.156 HD
ENDBRANCH  15  20
BRANCH  16  23
ATOM     23  N   UNL A   1      34.022  25.824  22.995  1.00  0.00    -0.338 N 
ATOM     24  H   UNL A   1      34.851  26.063  22.523  1.00  0.00     0.168 HD
BRANCH  23  25
ATOM     25  C   UNL A   1      33.789  24.456  23.237  1.00  0.00     0.040 A 
ATOM     26  C   UNL A   1      34.797  23.680  23.821  1.00  0.00     0.027 A 
ATOM     27  C   UNL A   1      32.532  23.873  23.028  1.00  0.00     0.027 A 
ATOM     28  C   UNL A   1      34.551  22.360  24.208  1.00  0.00     0.017 A 
ATOM     29  C   UNL A   1      32.281  22.551  23.402  1.00  0.00     0.017 A 
ATOM     30  C   UNL A   1      33.291  21.802  24.001  1.00  0.00     0.013 A 
ATOM     31  I   UNL A   1      32.910  19.855  24.618  1.00  0.00    -0.044 I 
ENDBRANCH  23  25
ENDBRANCH  16  23
ENDBRANCH  12  14
ENDBRANCH   7  12
ENDBRANCH   4   6
ENDBRANCH   3   4
ENDBRANCH   2   3
ENDBRANCH   1   2
BRANCH   1  32
ATOM     32  O   UNL A   1      32.745  35.298  31.047  1.00  0.00    -0.374 OA
BRANCH  32  33
ATOM     33  C   UNL A   1      33.879  35.194  31.910  1.00  0.00     0.202 C 
BRANCH  33  34
ATOM     34  C   UNL A   1      34.028  33.915  32.742  1.00  0.00     0.261 C 
BRANCH  34  35
ATOM     35  O   UNL A   1      34.829  32.921  32.080  1.00  0.00    -0.460 OA
BRANCH  35  36
ATOM     36  C   UNL A   1      35.806  32.375  32.841  1.00  0.00     0.338 C 
ATOM     37  O   UNL A   1      35.859  32.339  34.064  1.00  0.00    -0.246 OA
BRANCH  36  38
ATOM     38  C   UNL A   1      36.739  31.626  31.983  1.00  0.00     0.060 A 
ATOM     39  C   UNL A   1      37.713  30.840  32.612  1.00  0.00     0.016 A 
ATOM     40  C   UNL A   1      36.705  31.737  30.592  1.00  0.00     0.016 A 
ATOM     41  C   UNL A   1      38.682  30.190  31.854  1.00  0.00     0.010 A 
ATOM     42  C   UNL A   1      37.687  31.094  29.832  1.00  0.00     0.010 A 
ATOM     43  C   UNL A   1      38.700  30.348  30.462  1.00  0.00    -0.014 A 
BRANCH  43  44
ATOM     44  C   UNL A   1      39.866  29.847  29.696  1.00  0.00     0.031 A 
ATOM     45  C   UNL A   1      41.092  30.711  29.591  1.00  0.00     0.074 A 
ATOM     46  C   UNL A   1      39.849  28.624  29.139  1.00  0.00     0.049 A 
ATOM     47  N   UNL A   1      42.236  30.456  29.012  1.00  0.00    -0.248 NA
ATOM     48  C   UNL A   1      41.026  32.039  30.226  1.00  0.00     0.031 C 
ATOM     49  C   UNL A   1      38.723  27.694  29.185  1.00  0.00     0.029 A 
ATOM     50  N   UNL A   1      40.809  27.956  28.420  1.00  0.00    -0.354 N 
ATOM     51  C   UNL A   1      43.018  31.588  29.200  1.00  0.00     0.074 A 
ATOM     52  C   UNL A   1      42.211  32.546  29.923  1.00  0.00     0.031 C 
ATOM     53  C   UNL A   1      39.053  26.576  28.516  1.00  0.00     0.029 A 
ATOM     54  C   UNL A   1      40.406  26.718  27.978  1.00  0.00     0.049 A 
ATOM     55  H   UNL A   1      41.703  28.328  28.240  1.00  0.00     0.167 HD
ATOM     56  C   UNL A   1      44.302  31.799  28.831  1.00  0.00     0.034 A 
ATOM     57  C   UNL A   1      41.052  25.808  27.220  1.00  0.00     0.034 A 
ATOM     58  C   UNL A   1      45.107  30.835  28.133  1.00  0.00     0.049 A 
ATOM     59  C   UNL A   1      42.465  26.090  26.776  1.00  0.00     0.074 A 
ATOM     60  C   UNL A   1      46.433  30.942  27.755  1.00  0.00     0.029 A 
ATOM     61  N   UNL A   1      44.664  29.595  27.702  1.00  0.00    -0.354 N 
ATOM     62  N   UNL A   1      43.232  27.113  27.067  1.00  0.00    -0.248 NA
ATOM     63  C   UNL A   1      43.113  25.082  25.923  1.00  0.00     0.031 C 
ATOM     64  C   UNL A   1      46.783  29.779  27.064  1.00  0.00     0.029 A 
ATOM     65  C   UNL A   1      45.684  28.936  27.039  1.00  0.00     0.049 A 
ATOM     66  H   UNL A   1      43.759  29.237  27.845  1.00  0.00     0.167 HD
ATOM     67  C   UNL A   1      44.457  26.862  26.455  1.00  0.00     0.074 A 
ATOM     68  C   UNL A   1      44.338  25.577  25.797  1.00  0.00     0.031 C 
ATOM     69  C   UNL A   1      45.570  27.634  26.428  1.00  0.00     0.034 A 
BRANCH  56  70
ATOM     70  C   UNL A   1      44.940  33.110  29.210  1.00  0.00     0.023 A 
ATOM     71  C   UNL A   1      45.607  33.221  30.448  1.00  0.00     0.012 A 
ATOM     72  C   UNL A   1      44.963  34.194  28.312  1.00  0.00     0.148 A 
ATOM     73  C   UNL A   1      46.265  34.399  30.796  1.00  0.00     0.002 A 
ATOM     74  C   UNL A   1      45.660  35.349  28.647  1.00  0.00     0.091 A 
ATOM     75  F   UNL A   1      44.306  34.074  27.150  1.00  0.00    -0.205 F 
ATOM     76  C   UNL A   1      46.303  35.457  29.892  1.00  0.00     0.022 A 
BRANCH  74  77
ATOM     77  S   UNL A   1      45.842  36.735  27.520  1.00  0.00     0.127 S 
ATOM     78  O   UNL A   1      44.455  36.974  27.120  1.00  0.00    -0.237 OA
ATOM     79  O   UNL A   1      46.411  37.765  28.390  1.00  0.00    -0.237 OA
ATOM     80  O   UNL A   1      46.725  36.278  26.457  1.00  0.00    -0.744 OA
ENDBRANCH  74  77
ENDBRANCH  56  70
BRANCH  57  81
ATOM     81  C   UNL A   1      40.381  24.520  26.878  1.00  0.00     0.023 A 
ATOM     82  C   UNL A   1      39.151  24.542  26.192  1.00  0.00     0.012 A 
ATOM     83  C   UNL A   1      40.971  23.279  27.187  1.00  0.00     0.148 A 
ATOM     84  C   UNL A   1      38.513  23.353  25.836  1.00  0.00     0.002 A 
ATOM     85  C   UNL A   1      40.360  22.100  26.780  1.00  0.00     0.091 A 
ATOM     86  F   UNL A   1      42.134  23.280  27.856  1.00  0.00    -0.205 F 
ATOM     87  C   UNL A   1      39.123  22.132  26.118  1.00  0.00     0.022 A 
BRANCH  85  88
ATOM     88  S   UNL A   1      41.134  20.489  26.978  1.00  0.00     0.127 S 
ATOM     89  O   UNL A   1      40.400  19.684  26.007  1.00  0.00    -0.237 OA
ATOM     90  O   UNL A   1      42.522  20.779  26.618  1.00  0.00    -0.237 OA
ATOM     91  O   UNL A   1      40.936  20.126  28.375  1.00  0.00    -0.744 OA
ENDBRANCH  85  88
ENDBRANCH  57  81
BRANCH  69  92
ATOM     92  C   UNL A   1      46.772  27.136  25.665  1.00  0.00     0.023 A 
ATOM     93  C   UNL A   1      47.497  26.035  26.159  1.00  0.00     0.012 A 
ATOM     94  C   UNL A   1      47.085  27.655  24.391  1.00  0.00     0.148 A 
ATOM     95  C   UNL A   1      48.520  25.462  25.404  1.00  0.00     0.002 A 
ATOM     96  C   UNL A   1      48.071  27.047  23.623  1.00  0.00     0.091 A 
ATOM     97  F   UNL A   1      46.388  28.710  23.943  1.00  0.00    -0.205 F 
ATOM     98  C   UNL A   1      48.795  25.957  24.131  1.00  0.00     0.022 A 
BRANCH  96  99
ATOM     99  S   UNL A   1      48.425  27.538  21.930  1.00  0.00     0.127 S 
ATOM    100  O   UNL A   1      47.390  28.541  21.688  1.00  0.00    -0.237 OA
ATOM    101  O   UNL A   1      49.781  28.074  22.043  1.00  0.00    -0.237 OA
ATOM    102  O   UNL A   1      48.312  26.329  21.126  1.00  0.00    -0.744 OA
ENDBRANCH  96  99
ENDBRANCH  69  92
ENDBRANCH  43  44
ENDBRANCH  36  38
ENDBRANCH  35  36
ENDBRANCH  34  35
ENDBRANCH  33  34
ENDBRANCH  32  33
ENDBRANCH   1  32
TORSDOF 22
ENDMDL
MODEL 2
REMARK VINA RESULT:     -11.0      5.572      7.279
REMARK SMILES Nc1c(Nc2ccc(I)cc2)ncnc1Nc1ccc(C(=O)OCCOCCOC(=O)c2ccc(-c3c4nc(c(-c5cccc(S(=O)(=O)[O-])c5F)c5ccc([nH]5)c(-c5cccc(S(=O)(=O)[O-])c5F)c5nc(c(-c6cccc(S(=O)(=O)[O-])c6F)c6ccc3[nH]6)C=C5)C=C4)cc2)cc1
REMARK SMILES IDX 25 1 24 2 23 3 21 4 22 5 20 6 17 7 18 8 96 9 19 10 95 11
REMARK SMILES IDX 16 12 15 14 2 15 3 16 12 17 14 18 13 19 1 20 4 23 5 25 6 26
REMARK SMILES IDX 11 27 7 28 10 29 8 30 9 31 26 32 27 33 28 34 29 35 30 36
REMARK SMILES IDX 31 37 32 38 33 39 94 40 34 41 93 42 35 43 36 44 37 45 87 46
REMARK SMILES IDX 38 47 92 48 86 49 88 50 39 51 91 52 85 53 84 54 40 56 72 57
REMARK SMILES IDX 52 58 71 59 53 60 56 61 70 62 89 63 54 64 55 65 69 67 90 68
REMARK SMILES IDX 57 69 41 70 42 71 50 72 43 73 45 74 51 75 44 76 46 77 47 78
REMARK SMILES IDX 48 79 49 80 73 81 74 82 82 83 75 84 77 85 83 86 76 87 78 88
REMARK SMILES IDX 79 89 80 90 81 91 58 92 59 93 67 94 60 95 62 96 68 97 61 98
REMARK SMILES IDX 63 99 64 100 65 101 66 102
REMARK H PARENT 16 13 1 21 1 22 4 24 88 55 56 66
REMARK Flexibility Score: inf
ROOT
ATOM      1  C   UNL A   1      33.939  34.871  28.542  1.00  0.00     0.202 C 
ENDROOT
BRANCH   1   2
ATOM      2  C   UNL A   1      34.239  33.397  28.832  1.00  0.00     0.261 C 
BRANCH   2   3
ATOM      3  O   UNL A   1      33.878  32.555  27.730  1.00  0.00    -0.460 OA
BRANCH   3   4
ATOM      4  C   UNL A   1      34.611  31.421  27.629  1.00  0.00     0.338 C 
ATOM      5  O   UNL A   1      35.774  31.264  27.968  1.00  0.00    -0.246 OA
BRANCH   4   6
ATOM      6  C   UNL A   1      33.748  30.294  27.213  1.00  0.00     0.060 A 
ATOM      7  C   UNL A   1      32.322  28.098  26.226  1.00  0.00     0.040 A 
ATOM      8  C   UNL A   1      33.616  27.925  26.726  1.00  0.00     0.027 A 
ATOM      9  C   UNL A   1      31.717  29.363  26.318  1.00  0.00     0.027 A 
ATOM     10  C   UNL A   1      34.330  29.019  27.207  1.00  0.00     0.018 A 
ATOM     11  C   UNL A   1      32.421  30.462  26.818  1.00  0.00     0.018 A 
BRANCH   7  12
ATOM     12  N   UNL A   1      31.759  27.080  25.428  1.00  0.00    -0.338 N 
ATOM     13  H   UNL A   1      30.794  26.901  25.501  1.00  0.00     0.168 HD
BRANCH  12  14
ATOM     14  C   UNL A   1      32.533  26.302  24.522  1.00  0.00     0.159 A 
ATOM     15  C   UNL A   1      33.027  25.062  24.945  1.00  0.00     0.118 A 
ATOM     16  C   UNL A   1      33.811  24.386  23.998  1.00  0.00     0.159 A 
ATOM     17  N   UNL A   1      34.096  24.901  22.787  1.00  0.00    -0.217 NA
ATOM     18  N   UNL A   1      32.776  26.797  23.294  1.00  0.00    -0.217 NA
ATOM     19  C   UNL A   1      33.548  26.076  22.487  1.00  0.00     0.226 A 
BRANCH  15  20
ATOM     20  N   UNL A   1      32.786  24.563  26.230  1.00  0.00    -0.393 N 
ATOM     21  H   UNL A   1      32.931  25.138  27.016  1.00  0.00     0.156 HD
ATOM     22  H   UNL A   1      32.472  23.637  26.348  1.00  0.00     0.156 HD
ENDBRANCH  15  20
BRANCH  16  23
ATOM     23  N   UNL A   1      34.290  23.088  24.314  1.00  0.00    -0.338 N 
ATOM     24  H   UNL A   1      33.701  22.327  24.108  1.00  0.00     0.168 HD
BRANCH  23  25
ATOM     25  C   UNL A   1      35.538  22.798  24.899  1.00  0.00     0.040 A 
ATOM     26  C   UNL A   1      36.154  21.570  24.629  1.00  0.00     0.027 A 
ATOM     27  C   UNL A   1      36.245  23.754  25.641  1.00  0.00     0.027 A 
ATOM     28  C   UNL A   1      37.455  21.310  25.072  1.00  0.00     0.017 A 
ATOM     29  C   UNL A   1      37.540  23.496  26.097  1.00  0.00     0.017 A 
ATOM     30  C   UNL A   1      38.144  22.277  25.801  1.00  0.00     0.013 A 
ATOM     31  I   UNL A   1      40.093  21.908  26.420  1.00  0.00    -0.044 I 
ENDBRANCH  23  25
ENDBRANCH  16  23
ENDBRANCH  12  14
ENDBRANCH   7  12
ENDBRANCH   4   6
ENDBRANCH   3   4
ENDBRANCH   2   3
ENDBRANCH   1   2
BRANCH   1  32
ATOM     32  O   UNL A   1      32.780  35.442  29.149  1.00  0.00    -0.374 OA
BRANCH  32  33
ATOM     33  C   UNL A   1      32.978  36.294  30.279  1.00  0.00     0.202 C 
BRANCH  33  34
ATOM     34  C   UNL A   1      32.285  35.911  31.591  1.00  0.00     0.261 C 
BRANCH  34  35
ATOM     35  O   UNL A   1      33.085  35.026  32.394  1.00  0.00    -0.460 OA
BRANCH  35  36
ATOM     36  C   UNL A   1      34.179  35.593  32.954  1.00  0.00     0.338 C 
ATOM     37  O   UNL A   1      34.225  36.634  33.598  1.00  0.00    -0.246 OA
BRANCH  36  38
ATOM     38  C   UNL A   1      35.319  34.666  32.858  1.00  0.00     0.060 A 
ATOM     39  C   UNL A   1      35.258  33.481  33.602  1.00  0.00     0.016 A 
ATOM     40  C   UNL A   1      36.453  34.976  32.106  1.00  0.00     0.016 A 
ATOM     41  C   UNL A   1      36.348  32.616  33.627  1.00  0.00     0.010 A 
ATOM     42  C   UNL A   1      37.553  34.113  32.143  1.00  0.00     0.010 A 
ATOM     43  C   UNL A   1      37.518  32.948  32.931  1.00  0.00    -0.014 A 
BRANCH  43  44
ATOM     44  C   UNL A   1      38.742  32.143  33.156  1.00  0.00     0.031 A 
ATOM     45  C   UNL A   1      39.562  32.396  34.391  1.00  0.00     0.074 A 
ATOM     46  C   UNL A   1      39.093  31.171  32.295  1.00  0.00     0.049 A 
ATOM     47  N   UNL A   1      40.638  31.782  34.807  1.00  0.00    -0.248 NA
ATOM     48  C   UNL A   1      39.109  33.480  35.278  1.00  0.00     0.031 C 
ATOM     49  C   UNL A   1      38.370  30.828  31.073  1.00  0.00     0.029 A 
ATOM     50  N   UNL A   1      40.152  30.299  32.317  1.00  0.00    -0.354 N 
ATOM     51  C   UNL A   1      40.998  32.410  35.992  1.00  0.00     0.074 A 
ATOM     52  C   UNL A   1      40.043  33.472  36.218  1.00  0.00     0.031 C 
ATOM     53  C   UNL A   1      39.011  29.821  30.456  1.00  0.00     0.029 A 
ATOM     54  C   UNL A   1      40.200  29.461  31.228  1.00  0.00     0.049 A 
ATOM     55  H   UNL A   1      40.815  30.274  33.045  1.00  0.00     0.167 HD
ATOM     56  C   UNL A   1      42.014  32.110  36.833  1.00  0.00     0.034 A 
ATOM     57  C   UNL A   1      41.103  28.517  30.890  1.00  0.00     0.034 A 
ATOM     58  C   UNL A   1      42.947  31.038  36.617  1.00  0.00     0.049 A 
ATOM     59  C   UNL A   1      42.257  28.237  31.819  1.00  0.00     0.074 A 
ATOM     60  C   UNL A   1      43.984  30.629  37.436  1.00  0.00     0.029 A 
ATOM     61  N   UNL A   1      42.964  30.213  35.504  1.00  0.00    -0.354 N 
ATOM     62  N   UNL A   1      42.513  28.756  32.996  1.00  0.00    -0.248 NA
ATOM     63  C   UNL A   1      43.232  27.223  31.389  1.00  0.00     0.031 C 
ATOM     64  C   UNL A   1      44.651  29.578  36.801  1.00  0.00     0.029 A 
ATOM     65  C   UNL A   1      44.009  29.312  35.601  1.00  0.00     0.049 A 
ATOM     66  H   UNL A   1      42.327  30.262  34.754  1.00  0.00     0.167 HD
ATOM     67  C   UNL A   1      43.660  28.117  33.457  1.00  0.00     0.074 A 
ATOM     68  C   UNL A   1      44.037  27.155  32.442  1.00  0.00     0.031 C 
ATOM     69  C   UNL A   1      44.347  28.323  34.607  1.00  0.00     0.034 A 
BRANCH  56  70
ATOM     70  C   UNL A   1      42.152  32.921  38.094  1.00  0.00     0.023 A 
ATOM     71  C   UNL A   1      41.577  32.444  39.290  1.00  0.00     0.012 A 
ATOM     72  C   UNL A   1      42.923  34.100  38.119  1.00  0.00     0.148 A 
ATOM     73  C   UNL A   1      41.746  33.139  40.486  1.00  0.00     0.002 A 
ATOM     74  C   UNL A   1      43.126  34.763  39.324  1.00  0.00     0.091 A 
ATOM     75  F   UNL A   1      43.445  34.546  36.968  1.00  0.00    -0.205 F 
ATOM     76  C   UNL A   1      42.530  34.290  40.505  1.00  0.00     0.022 A 
BRANCH  74  77
ATOM     77  S   UNL A   1      44.187  36.203  39.474  1.00  0.00     0.127 S 
ATOM     78  O   UNL A   1      43.551  37.136  38.543  1.00  0.00    -0.237 OA
ATOM     79  O   UNL A   1      44.033  36.552  40.886  1.00  0.00    -0.237 OA
ATOM     80  O   UNL A   1      45.522  35.763  39.095  1.00  0.00    -0.744 OA
ENDBRANCH  74  77
ENDBRANCH  56  70
BRANCH  57  81
ATOM     81  C   UNL A   1      40.917  27.732  29.635  1.00  0.00     0.023 A 
ATOM     82  C   UNL A   1      39.872  26.792  29.556  1.00  0.00     0.012 A 
ATOM     83  C   UNL A   1      41.738  27.942  28.510  1.00  0.00     0.148 A 
ATOM     84  C   UNL A   1      39.659  26.062  28.385  1.00  0.00     0.002 A 
ATOM     85  C   UNL A   1      41.485  27.254  27.329  1.00  0.00     0.091 A 
ATOM     86  F   UNL A   1      42.739  28.829  28.611  1.00  0.00    -0.205 F 
ATOM     87  C   UNL A   1      40.456  26.302  27.268  1.00  0.00     0.022 A 
BRANCH  85  88
ATOM     88  S   UNL A   1      42.371  27.592  25.802  1.00  0.00     0.127 S 
ATOM     89  O   UNL A   1      43.756  27.362  26.203  1.00  0.00    -0.237 OA
ATOM     90  O   UNL A   1      41.812  26.583  24.902  1.00  0.00    -0.237 OA
ATOM     91  O   UNL A   1      42.038  28.965  25.449  1.00  0.00    -0.744 OA
ENDBRANCH  85  88
ENDBRANCH  57  81
BRANCH  69  92
ATOM     92  C   UNL A   1      45.588  27.504  34.859  1.00  0.00     0.023 A 
ATOM     93  C   UNL A   1      46.849  28.041  34.535  1.00  0.00     0.012 A 
ATOM     94  C   UNL A   1      45.515  26.279  35.555  1.00  0.00     0.148 A 
ATOM     95  C   UNL A   1      48.018  27.369  34.890  1.00  0.00     0.002 A 
ATOM     96  C   UNL A   1      46.686  25.642  35.951  1.00  0.00     0.091 A 
ATOM     97  F   UNL A   1      44.305  25.782  35.846  1.00  0.00    -0.205 F 
ATOM     98  C   UNL A   1      47.937  26.180  35.611  1.00  0.00     0.022 A 
BRANCH  96  99
ATOM     99  S   UNL A   1      46.689  24.166  36.978  1.00  0.00     0.127 S 
ATOM    100  O   UNL A   1      46.064  23.185  36.091  1.00  0.00    -0.237 OA
ATOM    101  O   UNL A   1      48.118  23.956  37.210  1.00  0.00    -0.237 OA
ATOM    102  O   UNL A   1      45.920  24.499  38.168  1.00  0.00    -0.744 OA
ENDBRANCH  96  99
ENDBRANCH  69  92
ENDBRANCH  43  44
ENDBRANCH  36  38
ENDBRANCH  35  36
ENDBRANCH  34  35
ENDBRANCH  33  34
ENDBRANCH  32  33
ENDBRANCH   1  32
TORSDOF 22
ENDMDL
MODEL 3
REMARK VINA RESULT:     -11.0      5.651      7.935
REMARK SMILES Nc1c(Nc2ccc(I)cc2)ncnc1Nc1ccc(C(=O)OCCOCCOC(=O)c2ccc(-c3c4nc(c(-c5cccc(S(=O)(=O)[O-])c5F)c5ccc([nH]5)c(-c5cccc(S(=O)(=O)[O-])c5F)c5nc(c(-c6cccc(S(=O)(=O)[O-])c6F)c6ccc3[nH]6)C=C5)C=C4)cc2)cc1
REMARK SMILES IDX 25 1 24 2 23 3 21 4 22 5 20 6 17 7 18 8 96 9 19 10 95 11
REMARK SMILES IDX 16 12 15 14 2 15 3 16 12 17 14 18 13 19 1 20 4 23 5 25 6 26
REMARK SMILES IDX 11 27 7 28 10 29 8 30 9 31 26 32 27 33 28 34 29 35 30 36
REMARK SMILES IDX 31 37 32 38 33 39 94 40 34 41 93 42 35 43 36 44 37 45 87 46
REMARK SMILES IDX 38 47 92 48 86 49 88 50 39 51 91 52 85 53 84 54 40 56 72 57
REMARK SMILES IDX 52 58 71 59 53 60 56 61 70 62 89 63 54 64 55 65 69 67 90 68
REMARK SMILES IDX 57 69 41 70 42 71 50 72 43 73 45 74 51 75 44 76 46 77 47 78
REMARK SMILES IDX 48 79 49 80 73 81 74 82 82 83 75 84 77 85 83 86 76 87 78 88
REMARK SMILES IDX 79 89 80 90 81 91 58 92 59 93 67 94 60 95 62 96 68 97 61 98
REMARK SMILES IDX 63 99 64 100 65 101 66 102
REMARK H PARENT 16 13 1 21 1 22 4 24 88 55 56 66
REMARK Flexibility Score: inf
ROOT
ATOM      1  C   UNL A   1      34.212  34.278  28.505  1.00  0.00     0.202 C 
ENDROOT
BRANCH   1   2
ATOM      2  C   UNL A   1      34.935  33.110  29.184  1.00  0.00     0.261 C 
BRANCH   2   3
ATOM      3  O   UNL A   1      34.278  31.862  28.934  1.00  0.00    -0.460 OA
BRANCH   3   4
ATOM      4  C   UNL A   1      34.903  31.071  28.031  1.00  0.00     0.338 C 
ATOM      5  O   UNL A   1      36.104  30.864  27.941  1.00  0.00    -0.246 OA
BRANCH   4   6
ATOM      6  C   UNL A   1      33.907  30.309  27.247  1.00  0.00     0.060 A 
ATOM      7  C   UNL A   1      32.224  28.853  25.550  1.00  0.00     0.040 A 
ATOM      8  C   UNL A   1      33.465  28.328  25.925  1.00  0.00     0.027 A 
ATOM      9  C   UNL A   1      31.798  30.068  26.113  1.00  0.00     0.027 A 
ATOM     10  C   UNL A   1      34.307  29.057  26.760  1.00  0.00     0.018 A 
ATOM     11  C   UNL A   1      32.630  30.795  26.968  1.00  0.00     0.018 A 
BRANCH   7  12
ATOM     12  N   UNL A   1      31.553  28.289  24.445  1.00  0.00    -0.338 N 
ATOM     13  H   UNL A   1      30.667  28.640  24.200  1.00  0.00     0.168 HD
BRANCH  12  14
ATOM     14  C   UNL A   1      32.108  27.232  23.671  1.00  0.00     0.159 A 
ATOM     15  C   UNL A   1      31.430  26.009  23.609  1.00  0.00     0.118 A 
ATOM     16  C   UNL A   1      32.072  25.016  22.855  1.00  0.00     0.159 A 
ATOM     17  N   UNL A   1      33.265  25.209  22.261  1.00  0.00    -0.217 NA
ATOM     18  N   UNL A   1      33.277  27.444  23.037  1.00  0.00    -0.217 NA
ATOM     19  C   UNL A   1      33.802  26.422  22.367  1.00  0.00     0.226 A 
BRANCH  15  20
ATOM     20  N   UNL A   1      30.224  25.791  24.286  1.00  0.00    -0.393 N 
ATOM     21  H   UNL A   1      30.079  24.947  24.771  1.00  0.00     0.156 HD
ATOM     22  H   UNL A   1      29.522  26.480  24.277  1.00  0.00     0.156 HD
ENDBRANCH  15  20
BRANCH  16  23
ATOM     23  N   UNL A   1      31.418  23.769  22.676  1.00  0.00    -0.338 N 
ATOM     24  H   UNL A   1      30.574  23.769  22.171  1.00  0.00     0.168 HD
BRANCH  23  25
ATOM     25  C   UNL A   1      31.878  22.530  23.163  1.00  0.00     0.040 A 
ATOM     26  C   UNL A   1      32.186  22.396  24.522  1.00  0.00     0.027 A 
ATOM     27  C   UNL A   1      31.916  21.386  22.353  1.00  0.00     0.027 A 
ATOM     28  C   UNL A   1      32.503  21.148  25.065  1.00  0.00     0.017 A 
ATOM     29  C   UNL A   1      32.243  20.137  22.886  1.00  0.00     0.017 A 
ATOM     30  C   UNL A   1      32.526  20.022  24.244  1.00  0.00     0.013 A 
ATOM     31  I   UNL A   1      32.952  18.159  25.060  1.00  0.00    -0.044 I 
ENDBRANCH  23  25
ENDBRANCH  16  23
ENDBRANCH  12  14
ENDBRANCH   7  12
ENDBRANCH   4   6
ENDBRANCH   3   4
ENDBRANCH   2   3
ENDBRANCH   1   2
BRANCH   1  32
ATOM     32  O   UNL A   1      32.979  34.714  29.077  1.00  0.00    -0.374 OA
BRANCH  32  33
ATOM     33  C   UNL A   1      32.991  35.934  29.821  1.00  0.00     0.202 C 
BRANCH  33  34
ATOM     34  C   UNL A   1      32.001  36.070  30.983  1.00  0.00     0.261 C 
BRANCH  34  35
ATOM     35  O   UNL A   1      32.404  35.314  32.138  1.00  0.00    -0.460 OA
BRANCH  35  36
ATOM     36  C   UNL A   1      33.406  35.867  32.862  1.00  0.00     0.338 C 
ATOM     37  O   UNL A   1      33.340  36.853  33.585  1.00  0.00    -0.246 OA
BRANCH  36  38
ATOM     38  C   UNL A   1      34.585  34.985  32.826  1.00  0.00     0.060 A 
ATOM     39  C   UNL A   1      34.506  33.766  33.511  1.00  0.00     0.016 A 
ATOM     40  C   UNL A   1      35.766  35.367  32.188  1.00  0.00     0.016 A 
ATOM     41  C   UNL A   1      35.622  32.939  33.594  1.00  0.00     0.010 A 
ATOM     42  C   UNL A   1      36.891  34.541  32.284  1.00  0.00     0.010 A 
ATOM     43  C   UNL A   1      36.833  33.342  33.017  1.00  0.00    -0.014 A 
BRANCH  43  44
ATOM     44  C   UNL A   1      38.063  32.569  33.312  1.00  0.00     0.031 A 
ATOM     45  C   UNL A   1      38.852  32.903  34.549  1.00  0.00     0.074 A 
ATOM     46  C   UNL A   1      38.449  31.558  32.515  1.00  0.00     0.049 A 
ATOM     47  N   UNL A   1      39.927  32.331  35.022  1.00  0.00    -0.248 NA
ATOM     48  C   UNL A   1      38.363  34.028  35.365  1.00  0.00     0.031 C 
ATOM     49  C   UNL A   1      37.758  31.136  31.298  1.00  0.00     0.029 A 
ATOM     50  N   UNL A   1      39.519  30.704  32.609  1.00  0.00    -0.354 N 
ATOM     51  C   UNL A   1      40.251  33.029  36.178  1.00  0.00     0.074 A 
ATOM     52  C   UNL A   1      39.276  34.087  36.323  1.00  0.00     0.031 C 
ATOM     53  C   UNL A   1      38.427  30.106  30.752  1.00  0.00     0.029 A 
ATOM     54  C   UNL A   1      39.604  29.808  31.569  1.00  0.00     0.049 A 
ATOM     55  H   UNL A   1      40.166  30.731  33.351  1.00  0.00     0.167 HD
ATOM     56  C   UNL A   1      41.252  32.792  37.056  1.00  0.00     0.034 A 
ATOM     57  C   UNL A   1      40.527  28.862  31.304  1.00  0.00     0.034 A 
ATOM     58  C   UNL A   1      42.205  31.724  36.920  1.00  0.00     0.049 A 
ATOM     59  C   UNL A   1      41.665  28.652  32.272  1.00  0.00     0.074 A 
ATOM     60  C   UNL A   1      43.229  31.378  37.783  1.00  0.00     0.029 A 
ATOM     61  N   UNL A   1      42.259  30.839  35.855  1.00  0.00    -0.354 N 
ATOM     62  N   UNL A   1      41.886  29.239  33.423  1.00  0.00    -0.248 NA
ATOM     63  C   UNL A   1      42.664  27.631  31.920  1.00  0.00     0.031 C 
ATOM     64  C   UNL A   1      43.925  30.304  37.222  1.00  0.00     0.029 A 
ATOM     65  C   UNL A   1      43.315  29.962  36.026  1.00  0.00     0.049 A 
ATOM     66  H   UNL A   1      41.639  30.837  35.091  1.00  0.00     0.167 HD
ATOM     67  C   UNL A   1      43.032  28.645  33.944  1.00  0.00     0.074 A 
ATOM     68  C   UNL A   1      43.446  27.634  32.993  1.00  0.00     0.031 C 
ATOM     69  C   UNL A   1      43.690  28.925  35.095  1.00  0.00     0.034 A 
BRANCH  56  70
ATOM     70  C   UNL A   1      41.350  33.674  38.273  1.00  0.00     0.023 A 
ATOM     71  C   UNL A   1      42.270  34.742  38.281  1.00  0.00     0.012 A 
ATOM     72  C   UNL A   1      40.474  33.507  39.364  1.00  0.00     0.148 A 
ATOM     73  C   UNL A   1      42.334  35.616  39.364  1.00  0.00     0.002 A 
ATOM     74  C   UNL A   1      40.512  34.409  40.420  1.00  0.00     0.091 A 
ATOM     75  F   UNL A   1      39.621  32.473  39.344  1.00  0.00    -0.205 F 
ATOM     76  C   UNL A   1      41.448  35.457  40.427  1.00  0.00     0.022 A 
BRANCH  74  77
ATOM     77  S   UNL A   1      39.360  34.345  41.795  1.00  0.00     0.127 S 
ATOM     78  O   UNL A   1      39.787  35.496  42.591  1.00  0.00    -0.237 OA
ATOM     79  O   UNL A   1      38.071  34.513  41.124  1.00  0.00    -0.237 OA
ATOM     80  O   UNL A   1      39.555  33.047  42.426  1.00  0.00    -0.744 OA
ENDBRANCH  74  77
ENDBRANCH  56  70
BRANCH  57  81
ATOM     81  C   UNL A   1      40.382  28.006  30.091  1.00  0.00     0.023 A 
ATOM     82  C   UNL A   1      39.382  27.016  30.060  1.00  0.00     0.012 A 
ATOM     83  C   UNL A   1      41.196  28.195  28.957  1.00  0.00     0.148 A 
ATOM     84  C   UNL A   1      39.205  26.218  28.928  1.00  0.00     0.002 A 
ATOM     85  C   UNL A   1      40.978  27.437  27.813  1.00  0.00     0.091 A 
ATOM     86  F   UNL A   1      42.155  29.131  29.013  1.00  0.00    -0.205 F 
ATOM     87  C   UNL A   1      39.994  26.436  27.800  1.00  0.00     0.022 A 
BRANCH  85  88
ATOM     88  S   UNL A   1      41.852  27.737  26.271  1.00  0.00     0.127 S 
ATOM     89  O   UNL A   1      43.244  27.584  26.682  1.00  0.00    -0.237 OA
ATOM     90  O   UNL A   1      41.337  26.662  25.422  1.00  0.00    -0.237 OA
ATOM     91  O   UNL A   1      41.462  29.076  25.851  1.00  0.00    -0.744 OA
ENDBRANCH  85  88
ENDBRANCH  57  81
BRANCH  69  92
ATOM     92  C   UNL A   1      44.936  28.141  35.420  1.00  0.00     0.023 A 
ATOM     93  C   UNL A   1      46.196  28.674  35.083  1.00  0.00     0.012 A 
ATOM     94  C   UNL A   1      44.867  26.962  36.191  1.00  0.00     0.148 A 
ATOM     95  C   UNL A   1      47.367  28.042  35.500  1.00  0.00     0.002 A 
ATOM     96  C   UNL A   1      46.038  26.367  36.646  1.00  0.00     0.091 A 
ATOM     97  F   UNL A   1      43.658  26.467  36.493  1.00  0.00    -0.205 F 
ATOM     98  C   UNL A   1      47.288  26.900  36.294  1.00  0.00     0.022 A 
BRANCH  96  99
ATOM     99  S   UNL A   1      46.043  24.960  37.764  1.00  0.00     0.127 S 
ATOM    100  O   UNL A   1      45.275  25.477  38.897  1.00  0.00    -0.237 OA
ATOM    101  O   UNL A   1      45.354  23.938  36.976  1.00  0.00    -0.237 OA
ATOM    102  O   UNL A   1      47.442  24.672  38.048  1.00  0.00    -0.744 OA
ENDBRANCH  96  99
ENDBRANCH  69  92
ENDBRANCH  43  44
ENDBRANCH  36  38
ENDBRANCH  35  36
ENDBRANCH  34  35
ENDBRANCH  33  34
ENDBRANCH  32  33
ENDBRANCH   1  32
TORSDOF 22
ENDMDL
