MODEL 1
REMARK VINA RESULT:      -9.7      0.000      0.000
REMARK SMILES CC(C)(C)OC(=O)Nc1ccc(SCC(=O)OCCOCCOC(=O)c2ccc(-c3c4nc(c(-c5cccc(S(=O)(=O)[O-])c5F)c5ccc([nH]5)c(-c5cccc(S(=O)(=O)[O-])c5F)c5nc(c(-c6cccc(S(=O)(=O)[O-])c6F)c6ccc3[nH]6)C=C5)C=C4)cc2)cc1
REMARK SMILES IDX 19 1 18 2 17 3 15 4 16 5 14 6 13 7 12 8 9 9 10 10 90 11
REMARK SMILES IDX 11 12 89 13 8 14 6 15 7 16 5 18 2 19 1 20 3 21 4 22 20 23
REMARK SMILES IDX 21 24 22 25 23 26 24 27 25 28 26 29 27 30 88 31 28 32 87 33
REMARK SMILES IDX 29 34 30 35 31 36 81 37 32 38 86 39 80 40 82 41 33 42 85 43
REMARK SMILES IDX 79 44 78 45 34 47 66 48 46 49 65 50 47 51 50 52 64 53 83 54
REMARK SMILES IDX 48 55 49 56 63 58 84 59 51 60 35 61 36 62 44 63 37 64 39 65
REMARK SMILES IDX 45 66 38 67 40 68 41 69 42 70 43 71 67 72 68 73 76 74 69 75
REMARK SMILES IDX 71 76 77 77 70 78 72 79 73 80 74 81 75 82 52 83 53 84 61 85
REMARK SMILES IDX 54 86 56 87 62 88 55 89 57 90 58 91 59 92 60 93
REMARK H PARENT 8 17 82 46 50 57
REMARK Flexibility Score: inf
ROOT
ATOM      1  C   UNL A   1      38.676  23.695  26.491  1.00  0.00     0.202 C 
ENDROOT
BRANCH   1   2
ATOM      2  C   UNL A   1      37.388  23.882  25.666  1.00  0.00     0.261 C 
BRANCH   2   3
ATOM      3  O   UNL A   1      36.163  23.427  26.285  1.00  0.00    -0.463 OA
BRANCH   3   4
ATOM      4  C   UNL A   1      35.623  22.292  25.758  1.00  0.00     0.316 C 
ATOM      5  O   UNL A   1      35.863  21.887  24.620  1.00  0.00    -0.251 OA
BRANCH   4   6
ATOM      6  C   UNL A   1      34.653  21.529  26.634  1.00  0.00     0.197 C 
BRANCH   6   7
ATOM      7  S   UNL A   1      33.349  20.543  25.855  1.00  0.00    -0.114 SA
BRANCH   7   8
ATOM      8  C   UNL A   1      32.311  21.678  24.938  1.00  0.00     0.008 A 
ATOM      9  C   UNL A   1      31.260  23.778  23.364  1.00  0.00     0.044 A 
ATOM     10  C   UNL A   1      32.049  22.788  22.777  1.00  0.00     0.027 A 
ATOM     11  C   UNL A   1      30.860  23.624  24.692  1.00  0.00     0.027 A 
ATOM     12  C   UNL A   1      32.593  21.767  23.566  1.00  0.00     0.017 A 
ATOM     13  C   UNL A   1      31.358  22.555  25.468  1.00  0.00     0.017 A 
BRANCH   9  14
ATOM     14  N   UNL A   1      30.919  24.883  22.577  1.00  0.00    -0.291 N 
ATOM     15  C   UNL A   1      31.539  26.100  22.422  1.00  0.00     0.412 C 
ATOM     16  O   UNL A   1      30.970  26.982  21.787  1.00  0.00    -0.224 OA
ATOM     17  H   UNL A   1      30.097  24.770  22.045  1.00  0.00     0.173 HD
BRANCH  15  18
ATOM     18  O   UNL A   1      32.821  26.179  22.888  1.00  0.00    -0.444 OA
BRANCH  18  19
ATOM     19  C   UNL A   1      33.079  26.887  24.144  1.00  0.00     0.106 C 
ATOM     20  C   UNL A   1      33.861  25.937  25.071  1.00  0.00     0.056 C 
ATOM     21  C   UNL A   1      31.758  27.217  24.845  1.00  0.00     0.056 C 
ATOM     22  C   UNL A   1      33.954  28.136  23.939  1.00  0.00     0.056 C 
ENDBRANCH  18  19
ENDBRANCH  15  18
ENDBRANCH   9  14
ENDBRANCH   7   8
ENDBRANCH   6   7
ENDBRANCH   4   6
ENDBRANCH   3   4
ENDBRANCH   2   3
ENDBRANCH   1   2
BRANCH   1  23
ATOM     23  O   UNL A   1      39.162  22.373  26.713  1.00  0.00    -0.374 OA
BRANCH  23  24
ATOM     24  C   UNL A   1      38.973  21.434  25.666  1.00  0.00     0.202 C 
BRANCH  24  25
ATOM     25  C   UNL A   1      39.567  20.035  25.827  1.00  0.00     0.261 C 
BRANCH  25  26
ATOM     26  O   UNL A   1      40.701  19.946  26.667  1.00  0.00    -0.460 OA
BRANCH  26  27
ATOM     27  C   UNL A   1      41.864  19.871  25.998  1.00  0.00     0.338 C 
ATOM     28  O   UNL A   1      42.268  19.001  25.238  1.00  0.00    -0.246 OA
BRANCH  27  29
ATOM     29  C   UNL A   1      42.586  21.097  26.279  1.00  0.00     0.060 A 
ATOM     30  C   UNL A   1      42.906  21.376  27.608  1.00  0.00     0.016 A 
ATOM     31  C   UNL A   1      42.886  21.972  25.233  1.00  0.00     0.016 A 
ATOM     32  C   UNL A   1      43.481  22.597  27.910  1.00  0.00     0.010 A 
ATOM     33  C   UNL A   1      43.471  23.191  25.539  1.00  0.00     0.010 A 
ATOM     34  C   UNL A   1      43.723  23.520  26.881  1.00  0.00    -0.014 A 
BRANCH  34  35
ATOM     35  C   UNL A   1      44.100  24.896  27.236  1.00  0.00     0.031 A 
ATOM     36  C   UNL A   1      45.532  25.310  27.075  1.00  0.00     0.074 A 
ATOM     37  C   UNL A   1      43.158  25.746  27.674  1.00  0.00     0.049 A 
ATOM     38  N   UNL A   1      46.079  26.475  27.289  1.00  0.00    -0.248 NA
ATOM     39  C   UNL A   1      46.476  24.275  26.617  1.00  0.00     0.031 C 
ATOM     40  C   UNL A   1      41.748  25.410  27.873  1.00  0.00     0.029 A 
ATOM     41  N   UNL A   1      43.251  27.059  28.042  1.00  0.00    -0.354 N 
ATOM     42  C   UNL A   1      47.430  26.311  27.010  1.00  0.00     0.074 A 
ATOM     43  C   UNL A   1      47.627  24.930  26.634  1.00  0.00     0.031 C 
ATOM     44  C   UNL A   1      41.108  26.492  28.347  1.00  0.00     0.029 A 
ATOM     45  C   UNL A   1      42.066  27.584  28.495  1.00  0.00     0.049 A 
ATOM     46  H   UNL A   1      44.086  27.578  27.989  1.00  0.00     0.167 HD
ATOM     47  C   UNL A   1      48.411  27.241  27.046  1.00  0.00     0.034 A 
ATOM     48  C   UNL A   1      41.797  28.811  28.978  1.00  0.00     0.034 A 
ATOM     49  C   UNL A   1      48.187  28.613  27.405  1.00  0.00     0.049 A 
ATOM     50  C   UNL A   1      42.907  29.827  29.001  1.00  0.00     0.074 A 
ATOM     51  C   UNL A   1      49.091  29.657  27.434  1.00  0.00     0.029 A 
ATOM     52  N   UNL A   1      46.963  29.128  27.808  1.00  0.00    -0.354 N 
ATOM     53  N   UNL A   1      44.153  29.695  28.611  1.00  0.00    -0.248 NA
ATOM     54  C   UNL A   1      42.568  31.169  29.491  1.00  0.00     0.031 C 
ATOM     55  C   UNL A   1      48.416  30.801  27.874  1.00  0.00     0.029 A 
ATOM     56  C   UNL A   1      47.087  30.474  28.097  1.00  0.00     0.049 A 
ATOM     57  H   UNL A   1      46.127  28.611  27.877  1.00  0.00     0.167 HD
ATOM     58  C   UNL A   1      44.740  30.943  28.779  1.00  0.00     0.074 A 
ATOM     59  C   UNL A   1      43.704  31.823  29.285  1.00  0.00     0.031 C 
ATOM     60  C   UNL A   1      46.020  31.330  28.551  1.00  0.00     0.034 A 
BRANCH  47  61
ATOM     61  C   UNL A   1      49.799  26.809  26.656  1.00  0.00     0.023 A 
ATOM     62  C   UNL A   1      50.559  26.025  27.548  1.00  0.00     0.012 A 
ATOM     63  C   UNL A   1      50.336  27.142  25.398  1.00  0.00     0.148 A 
ATOM     64  C   UNL A   1      51.843  25.603  27.206  1.00  0.00     0.002 A 
ATOM     65  C   UNL A   1      51.602  26.685  25.048  1.00  0.00     0.091 A 
ATOM     66  F   UNL A   1      49.610  27.914  24.577  1.00  0.00    -0.205 F 
ATOM     67  C   UNL A   1      52.360  25.923  25.953  1.00  0.00     0.022 A 
BRANCH  65  68
ATOM     68  S   UNL A   1      52.328  26.988  23.433  1.00  0.00     0.127 S 
ATOM     69  O   UNL A   1      53.370  25.962  23.380  1.00  0.00    -0.237 OA
ATOM     70  O   UNL A   1      51.196  26.751  22.537  1.00  0.00    -0.237 OA
ATOM     71  O   UNL A   1      52.805  28.363  23.459  1.00  0.00    -0.744 OA
ENDBRANCH  65  68
ENDBRANCH  47  61
BRANCH  48  72
ATOM     72  C   UNL A   1      40.415  29.148  29.415  1.00  0.00     0.023 A 
ATOM     73  C   UNL A   1      39.484  29.622  28.472  1.00  0.00     0.012 A 
ATOM     74  C   UNL A   1      40.006  28.956  30.750  1.00  0.00     0.148 A 
ATOM     75  C   UNL A   1      38.176  29.924  28.856  1.00  0.00     0.002 A 
ATOM     76  C   UNL A   1      38.688  29.207  31.113  1.00  0.00     0.091 A 
ATOM     77  F   UNL A   1      40.911  28.517  31.636  1.00  0.00    -0.205 F 
ATOM     78  C   UNL A   1      37.775  29.706  30.171  1.00  0.00     0.022 A 
BRANCH  76  79
ATOM     79  S   UNL A   1      38.057  28.822  32.751  1.00  0.00     0.127 S 
ATOM     80  O   UNL A   1      36.680  29.300  32.661  1.00  0.00    -0.237 OA
ATOM     81  O   UNL A   1      38.204  27.367  32.801  1.00  0.00    -0.237 OA
ATOM     82  O   UNL A   1      38.921  29.540  33.679  1.00  0.00    -0.744 OA
ENDBRANCH  76  79
ENDBRANCH  48  72
BRANCH  60  83
ATOM     83  C   UNL A   1      46.366  32.767  28.826  1.00  0.00     0.023 A 
ATOM     84  C   UNL A   1      46.949  33.119  30.060  1.00  0.00     0.012 A 
ATOM     85  C   UNL A   1      46.188  33.751  27.835  1.00  0.00     0.148 A 
ATOM     86  C   UNL A   1      47.323  34.437  30.313  1.00  0.00     0.002 A 
ATOM     87  C   UNL A   1      46.607  35.053  28.077  1.00  0.00     0.091 A 
ATOM     88  F   UNL A   1      45.613  33.396  26.677  1.00  0.00    -0.205 F 
ATOM     89  C   UNL A   1      47.165  35.400  29.318  1.00  0.00     0.022 A 
BRANCH  87  90
ATOM     90  S   UNL A   1      46.531  36.331  26.818  1.00  0.00     0.127 S 
ATOM     91  O   UNL A   1      45.089  36.516  26.669  1.00  0.00    -0.237 OA
ATOM     92  O   UNL A   1      47.226  37.446  27.464  1.00  0.00    -0.237 OA
ATOM     93  O   UNL A   1      47.217  35.788  25.654  1.00  0.00    -0.744 OA
ENDBRANCH  87  90
ENDBRANCH  60  83
ENDBRANCH  34  35
ENDBRANCH  27  29
ENDBRANCH  26  27
ENDBRANCH  25  26
ENDBRANCH  24  25
ENDBRANCH  23  24
ENDBRANCH   1  23
TORSDOF 22
ENDMDL
MODEL 2
REMARK VINA RESULT:      -9.5      2.248      2.870
REMARK SMILES CC(C)(C)OC(=O)Nc1ccc(SCC(=O)OCCOCCOC(=O)c2ccc(-c3c4nc(c(-c5cccc(S(=O)(=O)[O-])c5F)c5ccc([nH]5)c(-c5cccc(S(=O)(=O)[O-])c5F)c5nc(c(-c6cccc(S(=O)(=O)[O-])c6F)c6ccc3[nH]6)C=C5)C=C4)cc2)cc1
REMARK SMILES IDX 19 1 18 2 17 3 15 4 16 5 14 6 13 7 12 8 9 9 10 10 90 11
REMARK SMILES IDX 11 12 89 13 8 14 6 15 7 16 5 18 2 19 1 20 3 21 4 22 20 23
REMARK SMILES IDX 21 24 22 25 23 26 24 27 25 28 26 29 27 30 88 31 28 32 87 33
REMARK SMILES IDX 29 34 30 35 31 36 81 37 32 38 86 39 80 40 82 41 33 42 85 43
REMARK SMILES IDX 79 44 78 45 34 47 66 48 46 49 65 50 47 51 50 52 64 53 83 54
REMARK SMILES IDX 48 55 49 56 63 58 84 59 51 60 35 61 36 62 44 63 37 64 39 65
REMARK SMILES IDX 45 66 38 67 40 68 41 69 42 70 43 71 67 72 68 73 76 74 69 75
REMARK SMILES IDX 71 76 77 77 70 78 72 79 73 80 74 81 75 82 52 83 53 84 61 85
REMARK SMILES IDX 54 86 56 87 62 88 55 89 57 90 58 91 59 92 60 93
REMARK H PARENT 8 17 82 46 50 57
REMARK Flexibility Score: inf
ROOT
ATOM      1  C   UNL A   1      37.881  22.488  25.387  1.00  0.00     0.202 C 
ENDROOT
BRANCH   1   2
ATOM      2  C   UNL A   1      36.536  22.347  24.651  1.00  0.00     0.261 C 
BRANCH   2   3
ATOM      3  O   UNL A   1      35.514  21.581  25.330  1.00  0.00    -0.463 OA
BRANCH   3   4
ATOM      4  C   UNL A   1      34.475  22.302  25.835  1.00  0.00     0.316 C 
ATOM      5  O   UNL A   1      34.612  23.370  26.432  1.00  0.00    -0.251 OA
BRANCH   4   6
ATOM      6  C   UNL A   1      33.091  21.715  25.662  1.00  0.00     0.197 C 
BRANCH   6   7
ATOM      7  S   UNL A   1      32.488  21.353  23.993  1.00  0.00    -0.114 SA
BRANCH   7   8
ATOM      8  C   UNL A   1      32.067  22.921  23.237  1.00  0.00     0.008 A 
ATOM      9  C   UNL A   1      31.943  25.614  22.386  1.00  0.00     0.044 A 
ATOM     10  C   UNL A   1      32.983  24.790  21.955  1.00  0.00     0.027 A 
ATOM     11  C   UNL A   1      30.883  25.049  23.097  1.00  0.00     0.027 A 
ATOM     12  C   UNL A   1      33.057  23.465  22.403  1.00  0.00     0.017 A 
ATOM     13  C   UNL A   1      30.930  23.695  23.492  1.00  0.00     0.017 A 
BRANCH   9  14
ATOM     14  N   UNL A   1      32.030  26.977  22.080  1.00  0.00    -0.291 N 
ATOM     15  C   UNL A   1      32.589  28.019  22.781  1.00  0.00     0.412 C 
ATOM     16  O   UNL A   1      32.412  29.166  22.385  1.00  0.00    -0.224 OA
ATOM     17  H   UNL A   1      31.624  27.232  21.220  1.00  0.00     0.173 HD
BRANCH  15  18
ATOM     18  O   UNL A   1      33.421  27.669  23.806  1.00  0.00    -0.444 OA
BRANCH  18  19
ATOM     19  C   UNL A   1      32.956  27.828  25.186  1.00  0.00     0.106 C 
ATOM     20  C   UNL A   1      33.608  29.101  25.761  1.00  0.00     0.056 C 
ATOM     21  C   UNL A   1      33.432  26.651  26.043  1.00  0.00     0.056 C 
ATOM     22  C   UNL A   1      31.432  28.027  25.269  1.00  0.00     0.056 C 
ENDBRANCH  18  19
ENDBRANCH  15  18
ENDBRANCH   9  14
ENDBRANCH   7   8
ENDBRANCH   6   7
ENDBRANCH   4   6
ENDBRANCH   3   4
ENDBRANCH   2   3
ENDBRANCH   1   2
BRANCH   1  23
ATOM     23  O   UNL A   1      38.415  21.352  26.064  1.00  0.00    -0.374 OA
BRANCH  23  24
ATOM     24  C   UNL A   1      38.759  20.230  25.266  1.00  0.00     0.202 C 
BRANCH  24  25
ATOM     25  C   UNL A   1      39.802  19.249  25.801  1.00  0.00     0.261 C 
BRANCH  25  26
ATOM     26  O   UNL A   1      40.699  19.774  26.760  1.00  0.00    -0.460 OA
BRANCH  26  27
ATOM     27  C   UNL A   1      41.802  20.324  26.225  1.00  0.00     0.338 C 
ATOM     28  O   UNL A   1      42.630  19.828  25.472  1.00  0.00    -0.246 OA
BRANCH  27  29
ATOM     29  C   UNL A   1      41.823  21.710  26.647  1.00  0.00     0.060 A 
ATOM     30  C   UNL A   1      41.649  22.692  25.671  1.00  0.00     0.016 A 
ATOM     31  C   UNL A   1      42.065  22.017  27.987  1.00  0.00     0.016 A 
ATOM     32  C   UNL A   1      41.791  24.020  26.032  1.00  0.00     0.010 A 
ATOM     33  C   UNL A   1      42.197  23.349  28.347  1.00  0.00     0.010 A 
ATOM     34  C   UNL A   1      42.108  24.345  27.360  1.00  0.00    -0.014 A 
BRANCH  34  35
ATOM     35  C   UNL A   1      42.498  25.726  27.679  1.00  0.00     0.031 A 
ATOM     36  C   UNL A   1      43.863  26.196  27.277  1.00  0.00     0.074 A 
ATOM     37  C   UNL A   1      41.622  26.531  28.302  1.00  0.00     0.049 A 
ATOM     38  N   UNL A   1      44.401  27.376  27.421  1.00  0.00    -0.248 NA
ATOM     39  C   UNL A   1      44.744  25.207  26.629  1.00  0.00     0.031 C 
ATOM     40  C   UNL A   1      40.283  26.138  28.741  1.00  0.00     0.029 A 
ATOM     41  N   UNL A   1      41.737  27.839  28.683  1.00  0.00    -0.354 N 
ATOM     42  C   UNL A   1      45.685  27.268  26.901  1.00  0.00     0.074 A 
ATOM     43  C   UNL A   1      45.857  25.904  26.458  1.00  0.00     0.031 C 
ATOM     44  C   UNL A   1      39.703  27.185  29.350  1.00  0.00     0.029 A 
ATOM     45  C   UNL A   1      40.635  28.309  29.354  1.00  0.00     0.049 A 
ATOM     46  H   UNL A   1      42.531  28.389  28.496  1.00  0.00     0.167 HD
ATOM     47  C   UNL A   1      46.625  28.233  26.786  1.00  0.00     0.034 A 
ATOM     48  C   UNL A   1      40.418  29.515  29.911  1.00  0.00     0.034 A 
ATOM     49  C   UNL A   1      46.424  29.588  27.217  1.00  0.00     0.049 A 
ATOM     50  C   UNL A   1      41.479  30.571  29.763  1.00  0.00     0.074 A 
ATOM     51  C   UNL A   1      47.284  30.664  27.112  1.00  0.00     0.029 A 
ATOM     52  N   UNL A   1      45.276  30.049  27.846  1.00  0.00    -0.354 N 
ATOM     53  N   UNL A   1      42.639  30.494  29.153  1.00  0.00    -0.248 NA
ATOM     54  C   UNL A   1      41.189  31.888  30.342  1.00  0.00     0.031 C 
ATOM     55  C   UNL A   1      46.661  31.773  27.696  1.00  0.00     0.029 A 
ATOM     56  C   UNL A   1      45.405  31.392  28.145  1.00  0.00     0.049 A 
ATOM     57  H   UNL A   1      44.483  29.500  28.049  1.00  0.00     0.167 HD
ATOM     58  C   UNL A   1      43.205  31.759  29.247  1.00  0.00     0.074 A 
ATOM     59  C   UNL A   1      42.248  32.589  29.954  1.00  0.00     0.031 C 
ATOM     60  C   UNL A   1      44.410  32.198  28.805  1.00  0.00     0.034 A 
BRANCH  47  61
ATOM     61  C   UNL A   1      47.934  27.861  26.143  1.00  0.00     0.023 A 
ATOM     62  C   UNL A   1      49.034  27.517  26.954  1.00  0.00     0.012 A 
ATOM     63  C   UNL A   1      48.066  27.815  24.742  1.00  0.00     0.148 A 
ATOM     64  C   UNL A   1      50.254  27.159  26.383  1.00  0.00     0.002 A 
ATOM     65  C   UNL A   1      49.274  27.418  24.179  1.00  0.00     0.091 A 
ATOM     66  F   UNL A   1      47.018  28.175  23.988  1.00  0.00    -0.205 F 
ATOM     67  C   UNL A   1      50.371  27.098  24.996  1.00  0.00     0.022 A 
BRANCH  65  68
ATOM     68  S   UNL A   1      49.504  27.245  22.406  1.00  0.00     0.127 S 
ATOM     69  O   UNL A   1      49.194  28.595  21.934  1.00  0.00    -0.237 OA
ATOM     70  O   UNL A   1      50.918  26.879  22.313  1.00  0.00    -0.237 OA
ATOM     71  O   UNL A   1      48.579  26.205  21.980  1.00  0.00    -0.744 OA
ENDBRANCH  65  68
ENDBRANCH  47  61
BRANCH  48  72
ATOM     72  C   UNL A   1      39.126  29.791  30.597  1.00  0.00     0.023 A 
ATOM     73  C   UNL A   1      38.927  29.337  31.915  1.00  0.00     0.012 A 
ATOM     74  C   UNL A   1      38.113  30.542  29.969  1.00  0.00     0.148 A 
ATOM     75  C   UNL A   1      37.732  29.602  32.585  1.00  0.00     0.002 A 
ATOM     76  C   UNL A   1      36.947  30.849  30.661  1.00  0.00     0.091 A 
ATOM     77  F   UNL A   1      38.315  30.954  28.709  1.00  0.00    -0.205 F 
ATOM     78  C   UNL A   1      36.748  30.367  31.963  1.00  0.00     0.022 A 
BRANCH  76  79
ATOM     79  S   UNL A   1      35.693  31.942  29.984  1.00  0.00     0.127 S 
ATOM     80  O   UNL A   1      34.807  32.126  31.130  1.00  0.00    -0.237 OA
ATOM     81  O   UNL A   1      36.480  33.120  29.617  1.00  0.00    -0.237 OA
ATOM     82  O   UNL A   1      35.126  31.227  28.848  1.00  0.00    -0.744 OA
ENDBRANCH  76  79
ENDBRANCH  48  72
BRANCH  60  83
ATOM     83  C   UNL A   1      44.752  33.641  29.054  1.00  0.00     0.023 A 
ATOM     84  C   UNL A   1      44.399  34.614  28.097  1.00  0.00     0.012 A 
ATOM     85  C   UNL A   1      45.346  34.040  30.266  1.00  0.00     0.148 A 
ATOM     86  C   UNL A   1      44.661  35.962  28.333  1.00  0.00     0.002 A 
ATOM     87  C   UNL A   1      45.560  35.390  30.514  1.00  0.00     0.091 A 
ATOM     88  F   UNL A   1      45.690  33.094  31.152  1.00  0.00    -0.205 F 
ATOM     89  C   UNL A   1      45.228  36.351  29.545  1.00  0.00     0.022 A 
BRANCH  87  90
ATOM     90  S   UNL A   1      46.195  35.985  32.084  1.00  0.00     0.127 S 
ATOM     91  O   UNL A   1      47.542  35.418  32.095  1.00  0.00    -0.237 OA
ATOM     92  O   UNL A   1      46.145  37.438  31.911  1.00  0.00    -0.237 OA
ATOM     93  O   UNL A   1      45.289  35.469  33.102  1.00  0.00    -0.744 OA
ENDBRANCH  87  90
ENDBRANCH  60  83
ENDBRANCH  34  35
ENDBRANCH  27  29
ENDBRANCH  26  27
ENDBRANCH  25  26
ENDBRANCH  24  25
ENDBRANCH  23  24
ENDBRANCH   1  23
TORSDOF 22
ENDMDL
MODEL 3
REMARK VINA RESULT:      -9.5      1.665      2.044
REMARK SMILES CC(C)(C)OC(=O)Nc1ccc(SCC(=O)OCCOCCOC(=O)c2ccc(-c3c4nc(c(-c5cccc(S(=O)(=O)[O-])c5F)c5ccc([nH]5)c(-c5cccc(S(=O)(=O)[O-])c5F)c5nc(c(-c6cccc(S(=O)(=O)[O-])c6F)c6ccc3[nH]6)C=C5)C=C4)cc2)cc1
REMARK SMILES IDX 19 1 18 2 17 3 15 4 16 5 14 6 13 7 12 8 9 9 10 10 90 11
REMARK SMILES IDX 11 12 89 13 8 14 6 15 7 16 5 18 2 19 1 20 3 21 4 22 20 23
REMARK SMILES IDX 21 24 22 25 23 26 24 27 25 28 26 29 27 30 88 31 28 32 87 33
REMARK SMILES IDX 29 34 30 35 31 36 81 37 32 38 86 39 80 40 82 41 33 42 85 43
REMARK SMILES IDX 79 44 78 45 34 47 66 48 46 49 65 50 47 51 50 52 64 53 83 54
REMARK SMILES IDX 48 55 49 56 63 58 84 59 51 60 35 61 36 62 44 63 37 64 39 65
REMARK SMILES IDX 45 66 38 67 40 68 41 69 42 70 43 71 67 72 68 73 76 74 69 75
REMARK SMILES IDX 71 76 77 77 70 78 72 79 73 80 74 81 75 82 52 83 53 84 61 85
REMARK SMILES IDX 54 86 56 87 62 88 55 89 57 90 58 91 59 92 60 93
REMARK H PARENT 8 17 82 46 50 57
REMARK Flexibility Score: inf
ROOT
ATOM      1  C   UNL A   1      38.390  23.668  26.211  1.00  0.00     0.202 C 
ENDROOT
BRANCH   1   2
ATOM      2  C   UNL A   1      37.087  23.829  25.407  1.00  0.00     0.261 C 
BRANCH   2   3
ATOM      3  O   UNL A   1      35.899  23.249  25.996  1.00  0.00    -0.463 OA
BRANCH   3   4
ATOM      4  C   UNL A   1      35.186  22.417  25.187  1.00  0.00     0.316 C 
ATOM      5  O   UNL A   1      35.090  22.567  23.968  1.00  0.00    -0.251 OA
BRANCH   4   6
ATOM      6  C   UNL A   1      34.457  21.274  25.859  1.00  0.00     0.197 C 
BRANCH   6   7
ATOM      7  S   UNL A   1      32.915  20.662  25.132  1.00  0.00    -0.114 SA
BRANCH   7   8
ATOM      8  C   UNL A   1      31.793  22.055  25.035  1.00  0.00     0.008 A 
ATOM      9  C   UNL A   1      30.543  24.546  24.563  1.00  0.00     0.044 A 
ATOM     10  C   UNL A   1      30.824  23.689  23.498  1.00  0.00     0.027 A 
ATOM     11  C   UNL A   1      30.730  24.086  25.867  1.00  0.00     0.027 A 
ATOM     12  C   UNL A   1      31.471  22.470  23.733  1.00  0.00     0.017 A 
ATOM     13  C   UNL A   1      31.323  22.827  26.102  1.00  0.00     0.017 A 
BRANCH   9  14
ATOM     14  N   UNL A   1      30.090  25.834  24.254  1.00  0.00    -0.291 N 
ATOM     15  C   UNL A   1      30.786  26.987  23.981  1.00  0.00     0.412 C 
ATOM     16  O   UNL A   1      30.172  28.044  23.886  1.00  0.00    -0.224 OA
ATOM     17  H   UNL A   1      29.110  25.929  24.227  1.00  0.00     0.173 HD
BRANCH  15  18
ATOM     18  O   UNL A   1      32.114  26.830  23.703  1.00  0.00    -0.444 OA
BRANCH  18  19
ATOM     19  C   UNL A   1      33.101  27.176  24.729  1.00  0.00     0.106 C 
ATOM     20  C   UNL A   1      32.336  27.602  25.997  1.00  0.00     0.056 C 
ATOM     21  C   UNL A   1      33.933  28.380  24.277  1.00  0.00     0.056 C 
ATOM     22  C   UNL A   1      33.983  25.976  25.118  1.00  0.00     0.056 C 
ENDBRANCH  18  19
ENDBRANCH  15  18
ENDBRANCH   9  14
ENDBRANCH   7   8
ENDBRANCH   6   7
ENDBRANCH   4   6
ENDBRANCH   3   4
ENDBRANCH   2   3
ENDBRANCH   1   2
BRANCH   1  23
ATOM     23  O   UNL A   1      38.848  22.354  26.521  1.00  0.00    -0.374 OA
BRANCH  23  24
ATOM     24  C   UNL A   1      38.740  21.377  25.498  1.00  0.00     0.202 C 
BRANCH  24  25
ATOM     25  C   UNL A   1      39.421  20.025  25.707  1.00  0.00     0.261 C 
BRANCH  25  26
ATOM     26  O   UNL A   1      40.462  20.007  26.664  1.00  0.00    -0.460 OA
BRANCH  26  27
ATOM     27  C   UNL A   1      41.693  20.010  26.124  1.00  0.00     0.338 C 
ATOM     28  O   UNL A   1      42.240  19.159  25.434  1.00  0.00    -0.246 OA
BRANCH  27  29
ATOM     29  C   UNL A   1      42.286  21.292  26.444  1.00  0.00     0.060 A 
ATOM     30  C   UNL A   1      42.558  21.569  27.785  1.00  0.00     0.016 A 
ATOM     31  C   UNL A   1      42.515  22.218  25.424  1.00  0.00     0.016 A 
ATOM     32  C   UNL A   1      43.006  22.833  28.125  1.00  0.00     0.010 A 
ATOM     33  C   UNL A   1      42.973  23.480  25.768  1.00  0.00     0.010 A 
ATOM     34  C   UNL A   1      43.171  23.800  27.121  1.00  0.00    -0.014 A 
BRANCH  34  35
ATOM     35  C   UNL A   1      43.407  25.197  27.514  1.00  0.00     0.031 A 
ATOM     36  C   UNL A   1      44.794  25.751  27.391  1.00  0.00     0.074 A 
ATOM     37  C   UNL A   1      42.379  25.941  27.953  1.00  0.00     0.049 A 
ATOM     38  N   UNL A   1      45.221  26.959  27.641  1.00  0.00    -0.248 NA
ATOM     39  C   UNL A   1      45.843  24.824  26.928  1.00  0.00     0.031 C 
ATOM     40  C   UNL A   1      41.005  25.465  28.117  1.00  0.00     0.029 A 
ATOM     41  N   UNL A   1      42.338  27.247  28.352  1.00  0.00    -0.354 N 
ATOM     42  C   UNL A   1      46.587  26.933  27.386  1.00  0.00     0.074 A 
ATOM     43  C   UNL A   1      46.924  25.587  26.982  1.00  0.00     0.031 C 
ATOM     44  C   UNL A   1      40.255  26.468  28.602  1.00  0.00     0.029 A 
ATOM     45  C   UNL A   1      41.099  27.644  28.793  1.00  0.00     0.049 A 
ATOM     46  H   UNL A   1      43.119  27.846  28.327  1.00  0.00     0.167 HD
ATOM     47  C   UNL A   1      47.472  27.952  27.461  1.00  0.00     0.034 A 
ATOM     48  C   UNL A   1      40.704  28.827  29.299  1.00  0.00     0.034 A 
ATOM     49  C   UNL A   1      47.108  29.287  27.847  1.00  0.00     0.049 A 
ATOM     50  C   UNL A   1      41.709  29.945  29.366  1.00  0.00     0.074 A 
ATOM     51  C   UNL A   1      47.906  30.413  27.917  1.00  0.00     0.029 A 
ATOM     52  N   UNL A   1      45.833  29.671  28.237  1.00  0.00    -0.354 N 
ATOM     53  N   UNL A   1      42.968  29.944  28.997  1.00  0.00    -0.248 NA
ATOM     54  C   UNL A   1      41.232  31.235  29.879  1.00  0.00     0.031 C 
ATOM     55  C   UNL A   1      47.116  31.475  28.368  1.00  0.00     0.029 A 
ATOM     56  C   UNL A   1      45.821  31.016  28.558  1.00  0.00     0.049 A 
ATOM     57  H   UNL A   1      45.051  29.074  28.278  1.00  0.00     0.167 HD
ATOM     58  C   UNL A   1      43.428  31.238  29.204  1.00  0.00     0.074 A 
ATOM     59  C   UNL A   1      42.302  32.001  29.710  1.00  0.00     0.031 C 
ATOM     60  C   UNL A   1      44.668  31.752  29.011  1.00  0.00     0.034 A 
BRANCH  47  61
ATOM     61  C   UNL A   1      48.901  27.666  27.089  1.00  0.00     0.023 A 
ATOM     62  C   UNL A   1      49.814  27.272  28.088  1.00  0.00     0.012 A 
ATOM     63  C   UNL A   1      49.333  27.749  25.752  1.00  0.00     0.148 A 
ATOM     64  C   UNL A   1      51.142  26.991  27.768  1.00  0.00     0.002 A 
ATOM     65  C   UNL A   1      50.648  27.429  25.433  1.00  0.00     0.091 A 
ATOM     66  F   UNL A   1      48.458  28.155  24.820  1.00  0.00    -0.205 F 
ATOM     67  C   UNL A   1      51.556  27.058  26.440  1.00  0.00     0.022 A 
BRANCH  65  68
ATOM     68  S   UNL A   1      51.261  27.421  23.744  1.00  0.00     0.127 S 
ATOM     69  O   UNL A   1      50.032  27.185  22.985  1.00  0.00    -0.237 OA
ATOM     70  O   UNL A   1      51.810  28.771  23.609  1.00  0.00    -0.237 OA
ATOM     71  O   UNL A   1      52.250  26.354  23.680  1.00  0.00    -0.744 OA
ENDBRANCH  65  68
ENDBRANCH  47  61
BRANCH  48  72
ATOM     72  C   UNL A   1      39.288  29.018  29.716  1.00  0.00     0.023 A 
ATOM     73  C   UNL A   1      38.898  28.682  31.026  1.00  0.00     0.012 A 
ATOM     74  C   UNL A   1      38.338  29.575  28.837  1.00  0.00     0.148 A 
ATOM     75  C   UNL A   1      37.580  28.872  31.445  1.00  0.00     0.002 A 
ATOM     76  C   UNL A   1      37.042  29.812  29.278  1.00  0.00     0.091 A 
ATOM     77  F   UNL A   1      38.725  29.875  27.589  1.00  0.00    -0.205 F 
ATOM     78  C   UNL A   1      36.657  29.447  30.577  1.00  0.00     0.022 A 
BRANCH  76  79
ATOM     79  S   UNL A   1      35.831  30.674  28.269  1.00  0.00     0.127 S 
ATOM     80  O   UNL A   1      35.438  29.635  27.320  1.00  0.00    -0.237 OA
ATOM     81  O   UNL A   1      34.809  31.029  29.254  1.00  0.00    -0.237 OA
ATOM     82  O   UNL A   1      36.537  31.817  27.706  1.00  0.00    -0.744 OA
ENDBRANCH  76  79
ENDBRANCH  48  72
BRANCH  60  83
ATOM     83  C   UNL A   1      44.867  33.210  29.325  1.00  0.00     0.023 A 
ATOM     84  C   UNL A   1      45.321  33.591  30.603  1.00  0.00     0.012 A 
ATOM     85  C   UNL A   1      44.683  34.190  28.331  1.00  0.00     0.148 A 
ATOM     86  C   UNL A   1      45.561  34.932  30.896  1.00  0.00     0.002 A 
ATOM     87  C   UNL A   1      44.970  35.519  28.616  1.00  0.00     0.091 A 
ATOM     88  F   UNL A   1      44.232  33.806  27.128  1.00  0.00    -0.205 F 
ATOM     89  C   UNL A   1      45.398  35.893  29.900  1.00  0.00     0.022 A 
BRANCH  87  90
ATOM     90  S   UNL A   1      44.882  36.806  27.367  1.00  0.00     0.127 S 
ATOM     91  O   UNL A   1      45.913  36.377  26.425  1.00  0.00    -0.237 OA
ATOM     92  O   UNL A   1      43.510  36.668  26.874  1.00  0.00    -0.237 OA
ATOM     93  O   UNL A   1      45.148  38.057  28.063  1.00  0.00    -0.744 OA
ENDBRANCH  87  90
ENDBRANCH  60  83
ENDBRANCH  34  35
ENDBRANCH  27  29
ENDBRANCH  26  27
ENDBRANCH  25  26
ENDBRANCH  24  25
ENDBRANCH  23  24
ENDBRANCH   1  23
TORSDOF 22
ENDMDL
