MODEL 1
REMARK VINA RESULT:     -10.9      0.000      0.000
REMARK SMILES COc1ccc(C2=NO[C@](C)(C(=O)OCCOCCOC(=O)c3ccc(-c4c5nc(c(-c6cccc(S(=O)(=O)[O-])c6F)c6ccc([nH]6)c(-c6cccc(S(=O)(=O)[O-])c6F)c6nc(c(-c7cccc(S(=O)(=O)[O-])c7F)c7ccc4[nH]7)C=C6)C=C5)cc3)C2)c(OC)c1OC
REMARK SMILES IDX 18 1 17 2 16 3 15 4 14 5 12 6 13 7 10 8 7 9 8 10 86 11 9 12
REMARK SMILES IDX 11 13 6 14 3 15 4 16 90 17 5 18 87 19 2 20 1 21 91 22 92 23
REMARK SMILES IDX 88 24 89 25 19 26 20 27 21 28 22 29 23 30 24 31 85 32 25 33
REMARK SMILES IDX 84 34 26 35 27 36 28 37 78 38 29 39 83 40 77 41 79 42 30 43
REMARK SMILES IDX 82 44 76 45 75 46 31 48 63 49 43 50 62 51 44 52 47 53 61 54
REMARK SMILES IDX 80 55 45 56 46 57 60 59 81 60 48 61 32 62 33 63 41 64 34 65
REMARK SMILES IDX 36 66 42 67 35 68 37 69 38 70 39 71 40 72 64 73 65 74 73 75
REMARK SMILES IDX 66 76 68 77 74 78 67 79 69 80 70 81 71 82 72 83 49 84 50 85
REMARK SMILES IDX 58 86 51 87 53 88 59 89 52 90 54 91 55 92 56 93 57 94
REMARK H PARENT 79 47 47 58
REMARK Flexibility Score: inf
ROOT
ATOM      1  C   UNL A   1      36.405  19.465  24.755  1.00  0.00     0.202 C 
ENDROOT
BRANCH   1   2
ATOM      2  O   UNL A   1      35.239  20.281  24.865  1.00  0.00    -0.374 OA
BRANCH   2   3
ATOM      3  C   UNL A   1      33.975  19.683  24.590  1.00  0.00     0.202 C 
BRANCH   3   4
ATOM      4  C   UNL A   1      32.771  20.129  25.426  1.00  0.00     0.261 C 
BRANCH   4   5
ATOM      5  O   UNL A   1      32.858  21.503  25.844  1.00  0.00    -0.460 OA
BRANCH   5   6
ATOM      6  C   UNL A   1      31.722  22.239  25.678  1.00  0.00     0.353 C 
ATOM      7  O   UNL A   1      30.609  21.864  26.036  1.00  0.00    -0.247 OA
BRANCH   6   8
ATOM      8  C   UNL A   1      31.976  23.614  25.047  1.00  0.00     0.236 C 
ATOM      9  C   UNL A   1      31.110  25.440  24.012  1.00  0.00     0.096 C 
ATOM     10  N   UNL A   1      31.619  24.725  23.057  1.00  0.00    -0.089 NA
ATOM     11  C   UNL A   1      30.943  24.695  25.303  1.00  0.00     0.124 C 
ATOM     12  O   UNL A   1      31.934  23.460  23.616  1.00  0.00    -0.377 OA
ATOM     13  C   UNL A   1      33.392  24.057  25.446  1.00  0.00     0.073 C 
BRANCH   9  14
ATOM     14  C   UNL A   1      30.770  26.881  23.879  1.00  0.00     0.046 A 
ATOM     15  C   UNL A   1      29.918  29.540  23.741  1.00  0.00     0.164 A 
ATOM     16  C   UNL A   1      29.085  28.515  23.288  1.00  0.00     0.051 A 
ATOM     17  C   UNL A   1      31.182  29.253  24.297  1.00  0.00     0.203 A 
ATOM     18  C   UNL A   1      29.507  27.192  23.358  1.00  0.00     0.018 A 
ATOM     19  C   UNL A   1      31.625  27.908  24.348  1.00  0.00     0.173 A 
BRANCH  15  20
ATOM     20  O   UNL A   1      29.423  30.820  23.737  1.00  0.00    -0.493 OA
ATOM     21  C   UNL A   1      28.029  30.850  23.413  1.00  0.00     0.278 C 
ENDBRANCH  15  20
BRANCH  17  22
ATOM     22  O   UNL A   1      31.964  30.210  24.897  1.00  0.00    -0.490 OA
ATOM     23  C   UNL A   1      31.720  30.490  26.271  1.00  0.00     0.278 C 
ENDBRANCH  17  22
BRANCH  19  24
ATOM     24  O   UNL A   1      32.844  27.470  24.808  1.00  0.00    -0.492 OA
ATOM     25  C   UNL A   1      33.986  27.538  23.970  1.00  0.00     0.278 C 
ENDBRANCH  19  24
ENDBRANCH   9  14
ENDBRANCH   6   8
ENDBRANCH   5   6
ENDBRANCH   4   5
ENDBRANCH   3   4
ENDBRANCH   2   3
ENDBRANCH   1   2
BRANCH   1  26
ATOM     26  C   UNL A   1      37.771  20.160  24.688  1.00  0.00     0.261 C 
BRANCH  26  27
ATOM     27  O   UNL A   1      38.034  21.017  25.811  1.00  0.00    -0.460 OA
BRANCH  27  28
ATOM     28  C   UNL A   1      39.325  21.027  26.228  1.00  0.00     0.338 C 
ATOM     29  O   UNL A   1      40.157  20.149  26.083  1.00  0.00    -0.246 OA
BRANCH  28  30
ATOM     30  C   UNL A   1      39.662  22.363  26.754  1.00  0.00     0.060 A 
ATOM     31  C   UNL A   1      38.935  23.463  26.277  1.00  0.00     0.016 A 
ATOM     32  C   UNL A   1      40.728  22.540  27.635  1.00  0.00     0.016 A 
ATOM     33  C   UNL A   1      39.301  24.755  26.648  1.00  0.00     0.010 A 
ATOM     34  C   UNL A   1      41.102  23.836  27.994  1.00  0.00     0.010 A 
ATOM     35  C   UNL A   1      40.413  24.949  27.476  1.00  0.00    -0.014 A 
BRANCH  35  36
ATOM     36  C   UNL A   1      40.981  26.302  27.675  1.00  0.00     0.031 A 
ATOM     37  C   UNL A   1      42.409  26.543  27.269  1.00  0.00     0.074 A 
ATOM     38  C   UNL A   1      40.260  27.278  28.254  1.00  0.00     0.049 A 
ATOM     39  N   UNL A   1      43.178  27.571  27.513  1.00  0.00    -0.248 NA
ATOM     40  C   UNL A   1      43.061  25.473  26.493  1.00  0.00     0.031 C 
ATOM     41  C   UNL A   1      38.861  27.167  28.665  1.00  0.00     0.029 A 
ATOM     42  N   UNL A   1      40.627  28.544  28.642  1.00  0.00    -0.354 N 
ATOM     43  C   UNL A   1      44.411  27.260  26.952  1.00  0.00     0.074 A 
ATOM     44  C   UNL A   1      44.292  25.945  26.360  1.00  0.00     0.031 C 
ATOM     45  C   UNL A   1      38.503  28.298  29.298  1.00  0.00     0.029 A 
ATOM     46  C   UNL A   1      39.656  29.193  29.369  1.00  0.00     0.049 A 
ATOM     47  H   UNL A   1      41.498  28.947  28.421  1.00  0.00     0.167 HD
ATOM     48  C   UNL A   1      45.537  28.008  26.922  1.00  0.00     0.034 A 
ATOM     49  C   UNL A   1      39.712  30.355  30.051  1.00  0.00     0.034 A 
ATOM     50  C   UNL A   1      45.643  29.319  27.500  1.00  0.00     0.049 A 
ATOM     51  C   UNL A   1      40.991  31.155  30.035  1.00  0.00     0.074 A 
ATOM     52  C   UNL A   1      46.738  30.165  27.521  1.00  0.00     0.029 A 
ATOM     53  N   UNL A   1      44.614  29.976  28.155  1.00  0.00    -0.354 N 
ATOM     54  N   UNL A   1      42.128  30.881  29.441  1.00  0.00    -0.248 NA
ATOM     55  C   UNL A   1      40.989  32.437  30.757  1.00  0.00     0.031 C 
ATOM     56  C   UNL A   1      46.374  31.329  28.203  1.00  0.00     0.029 A 
ATOM     57  C   UNL A   1      45.044  31.220  28.579  1.00  0.00     0.049 A 
ATOM     58  H   UNL A   1      43.711  29.612  28.298  1.00  0.00     0.167 HD
ATOM     59  C   UNL A   1      42.954  31.976  29.673  1.00  0.00     0.074 A 
ATOM     60  C   UNL A   1      42.186  32.921  30.457  1.00  0.00     0.031 C 
ATOM     61  C   UNL A   1      44.235  32.179  29.283  1.00  0.00     0.034 A 
BRANCH  48  62
ATOM     62  C   UNL A   1      46.740  27.444  26.214  1.00  0.00     0.023 A 
ATOM     63  C   UNL A   1      47.545  26.491  26.871  1.00  0.00     0.012 A 
ATOM     64  C   UNL A   1      47.031  27.799  24.883  1.00  0.00     0.148 A 
ATOM     65  C   UNL A   1      48.635  25.916  26.220  1.00  0.00     0.002 A 
ATOM     66  C   UNL A   1      48.093  27.188  24.226  1.00  0.00     0.091 A 
ATOM     67  F   UNL A   1      46.263  28.720  24.285  1.00  0.00    -0.205 F 
ATOM     68  C   UNL A   1      48.901  26.255  24.896  1.00  0.00     0.022 A 
BRANCH  66  69
ATOM     69  S   UNL A   1      48.474  27.498  22.498  1.00  0.00     0.127 S 
ATOM     70  O   UNL A   1      47.319  28.291  22.080  1.00  0.00    -0.237 OA
ATOM     71  O   UNL A   1      49.727  28.246  22.590  1.00  0.00    -0.237 OA
ATOM     72  O   UNL A   1      48.588  26.190  21.870  1.00  0.00    -0.744 OA
ENDBRANCH  66  69
ENDBRANCH  48  62
BRANCH  49  73
ATOM     73  C   UNL A   1      38.524  30.840  30.810  1.00  0.00     0.023 A 
ATOM     74  C   UNL A   1      38.437  30.601  32.196  1.00  0.00     0.012 A 
ATOM     75  C   UNL A   1      37.475  31.525  30.167  1.00  0.00     0.148 A 
ATOM     76  C   UNL A   1      37.308  30.995  32.916  1.00  0.00     0.002 A 
ATOM     77  C   UNL A   1      36.380  31.967  30.901  1.00  0.00     0.091 A 
ATOM     78  F   UNL A   1      37.563  31.728  28.845  1.00  0.00    -0.205 F 
ATOM     79  C   UNL A   1      36.285  31.686  32.272  1.00  0.00     0.022 A 
BRANCH  77  80
ATOM     80  S   UNL A   1      35.085  32.976  30.170  1.00  0.00     0.127 S 
ATOM     81  O   UNL A   1      35.851  34.077  29.593  1.00  0.00    -0.237 OA
ATOM     82  O   UNL A   1      34.495  32.057  29.196  1.00  0.00    -0.237 OA
ATOM     83  O   UNL A   1      34.197  33.324  31.272  1.00  0.00    -0.744 OA
ENDBRANCH  77  80
ENDBRANCH  49  73
BRANCH  61  84
ATOM     84  C   UNL A   1      44.879  33.499  29.616  1.00  0.00     0.023 A 
ATOM     85  C   UNL A   1      45.643  33.638  30.789  1.00  0.00     0.012 A 
ATOM     86  C   UNL A   1      44.821  34.565  28.695  1.00  0.00     0.148 A 
ATOM     87  C   UNL A   1      46.324  34.826  31.053  1.00  0.00     0.002 A 
ATOM     88  C   UNL A   1      45.541  35.726  28.938  1.00  0.00     0.091 A 
ATOM     89  F   UNL A   1      44.074  34.414  27.590  1.00  0.00    -0.205 F 
ATOM     90  C   UNL A   1      46.285  35.862  30.122  1.00  0.00     0.022 A 
BRANCH  88  91
ATOM     91  S   UNL A   1      45.631  37.073  27.754  1.00  0.00     0.127 S 
ATOM     92  O   UNL A   1      44.228  37.468  27.645  1.00  0.00    -0.237 OA
ATOM     93  O   UNL A   1      46.485  38.038  28.449  1.00  0.00    -0.237 OA
ATOM     94  O   UNL A   1      46.214  36.510  26.544  1.00  0.00    -0.744 OA
ENDBRANCH  88  91
ENDBRANCH  61  84
ENDBRANCH  35  36
ENDBRANCH  28  30
ENDBRANCH  27  28
ENDBRANCH  26  27
ENDBRANCH   1  26
TORSDOF 21
ENDMDL
MODEL 2
REMARK VINA RESULT:     -10.9      1.508      2.068
REMARK SMILES COc1ccc(C2=NO[C@](C)(C(=O)OCCOCCOC(=O)c3ccc(-c4c5nc(c(-c6cccc(S(=O)(=O)[O-])c6F)c6ccc([nH]6)c(-c6cccc(S(=O)(=O)[O-])c6F)c6nc(c(-c7cccc(S(=O)(=O)[O-])c7F)c7ccc4[nH]7)C=C6)C=C5)cc3)C2)c(OC)c1OC
REMARK SMILES IDX 18 1 17 2 16 3 15 4 14 5 12 6 13 7 10 8 7 9 8 10 86 11 9 12
REMARK SMILES IDX 11 13 6 14 3 15 4 16 90 17 5 18 87 19 2 20 1 21 91 22 92 23
REMARK SMILES IDX 88 24 89 25 19 26 20 27 21 28 22 29 23 30 24 31 85 32 25 33
REMARK SMILES IDX 84 34 26 35 27 36 28 37 78 38 29 39 83 40 77 41 79 42 30 43
REMARK SMILES IDX 82 44 76 45 75 46 31 48 63 49 43 50 62 51 44 52 47 53 61 54
REMARK SMILES IDX 80 55 45 56 46 57 60 59 81 60 48 61 32 62 33 63 41 64 34 65
REMARK SMILES IDX 36 66 42 67 35 68 37 69 38 70 39 71 40 72 64 73 65 74 73 75
REMARK SMILES IDX 66 76 68 77 74 78 67 79 69 80 70 81 71 82 72 83 49 84 50 85
REMARK SMILES IDX 58 86 51 87 53 88 59 89 52 90 54 91 55 92 56 93 57 94
REMARK H PARENT 79 47 47 58
REMARK Flexibility Score: inf
ROOT
ATOM      1  C   UNL A   1      37.949  19.942  24.638  1.00  0.00     0.202 C 
ENDROOT
BRANCH   1   2
ATOM      2  O   UNL A   1      37.501  21.295  24.715  1.00  0.00    -0.374 OA
BRANCH   2   3
ATOM      3  C   UNL A   1      36.444  21.600  25.620  1.00  0.00     0.202 C 
BRANCH   3   4
ATOM      4  C   UNL A   1      35.060  21.008  25.336  1.00  0.00     0.261 C 
BRANCH   4   5
ATOM      5  O   UNL A   1      34.184  21.928  24.661  1.00  0.00    -0.460 OA
BRANCH   5   6
ATOM      6  C   UNL A   1      32.851  21.724  24.861  1.00  0.00     0.353 C 
ATOM      7  O   UNL A   1      32.363  20.631  25.136  1.00  0.00    -0.247 OA
BRANCH   6   8
ATOM      8  C   UNL A   1      32.018  23.008  24.761  1.00  0.00     0.236 C 
ATOM      9  C   UNL A   1      31.504  25.036  25.644  1.00  0.00     0.096 C 
ATOM     10  N   UNL A   1      30.548  24.250  26.033  1.00  0.00    -0.089 NA
ATOM     11  C   UNL A   1      32.708  24.310  25.119  1.00  0.00     0.124 C 
ATOM     12  O   UNL A   1      30.958  22.926  25.732  1.00  0.00    -0.377 OA
ATOM     13  C   UNL A   1      31.390  23.049  23.360  1.00  0.00     0.073 C 
BRANCH   9  14
ATOM     14  C   UNL A   1      31.415  26.519  25.654  1.00  0.00     0.046 A 
ATOM     15  C   UNL A   1      31.477  29.312  25.759  1.00  0.00     0.164 A 
ATOM     16  C   UNL A   1      31.834  28.562  26.882  1.00  0.00     0.051 A 
ATOM     17  C   UNL A   1      31.108  28.680  24.554  1.00  0.00     0.203 A 
ATOM     18  C   UNL A   1      31.806  27.173  26.830  1.00  0.00     0.018 A 
ATOM     19  C   UNL A   1      31.054  27.264  24.505  1.00  0.00     0.173 A 
BRANCH  15  20
ATOM     20  O   UNL A   1      31.609  30.676  25.830  1.00  0.00    -0.493 OA
ATOM     21  C   UNL A   1      32.532  31.071  26.850  1.00  0.00     0.278 C 
ENDBRANCH  15  20
BRANCH  17  22
ATOM     22  O   UNL A   1      30.903  29.372  23.385  1.00  0.00    -0.490 OA
ATOM     23  C   UNL A   1      29.603  29.904  23.157  1.00  0.00     0.278 C 
ENDBRANCH  17  22
BRANCH  19  24
ATOM     24  O   UNL A   1      30.666  26.503  23.429  1.00  0.00    -0.492 OA
ATOM     25  C   UNL A   1      31.457  26.478  22.253  1.00  0.00     0.278 C 
ENDBRANCH  19  24
ENDBRANCH   9  14
ENDBRANCH   6   8
ENDBRANCH   5   6
ENDBRANCH   4   5
ENDBRANCH   3   4
ENDBRANCH   2   3
ENDBRANCH   1   2
BRANCH   1  26
ATOM     26  C   UNL A   1      38.950  19.449  25.691  1.00  0.00     0.261 C 
BRANCH  26  27
ATOM     27  O   UNL A   1      40.120  20.275  25.801  1.00  0.00    -0.460 OA
BRANCH  27  28
ATOM     28  C   UNL A   1      40.638  20.364  27.051  1.00  0.00     0.338 C 
ATOM     29  O   UNL A   1      41.066  19.454  27.741  1.00  0.00    -0.246 OA
BRANCH  28  30
ATOM     30  C   UNL A   1      40.785  21.782  27.426  1.00  0.00     0.060 A 
ATOM     31  C   UNL A   1      40.038  22.733  26.715  1.00  0.00     0.016 A 
ATOM     32  C   UNL A   1      41.703  22.177  28.399  1.00  0.00     0.016 A 
ATOM     33  C   UNL A   1      40.238  24.092  26.948  1.00  0.00     0.010 A 
ATOM     34  C   UNL A   1      41.912  23.539  28.618  1.00  0.00     0.010 A 
ATOM     35  C   UNL A   1      41.207  24.501  27.871  1.00  0.00    -0.014 A 
BRANCH  35  36
ATOM     36  C   UNL A   1      41.624  25.921  27.950  1.00  0.00     0.031 A 
ATOM     37  C   UNL A   1      42.992  26.290  27.446  1.00  0.00     0.074 A 
ATOM     38  C   UNL A   1      40.826  26.848  28.509  1.00  0.00     0.049 A 
ATOM     39  N   UNL A   1      43.648  27.412  27.578  1.00  0.00    -0.248 NA
ATOM     40  C   UNL A   1      43.721  25.249  26.701  1.00  0.00     0.031 C 
ATOM     41  C   UNL A   1      39.473  26.610  29.008  1.00  0.00     0.029 A 
ATOM     42  N   UNL A   1      41.064  28.170  28.793  1.00  0.00    -0.354 N 
ATOM     43  C   UNL A   1      44.878  27.202  26.965  1.00  0.00     0.074 A 
ATOM     44  C   UNL A   1      44.881  25.845  26.466  1.00  0.00     0.031 C 
ATOM     45  C   UNL A   1      39.020  27.735  29.589  1.00  0.00     0.029 A 
ATOM     46  C   UNL A   1      40.064  28.756  29.534  1.00  0.00     0.049 A 
ATOM     47  H   UNL A   1      41.870  28.652  28.496  1.00  0.00     0.167 HD
ATOM     48  C   UNL A   1      45.908  28.068  26.821  1.00  0.00     0.034 A 
ATOM     49  C   UNL A   1      40.021  29.961  30.137  1.00  0.00     0.034 A 
ATOM     50  C   UNL A   1      45.891  29.420  27.308  1.00  0.00     0.049 A 
ATOM     51  C   UNL A   1      41.197  30.896  29.995  1.00  0.00     0.074 A 
ATOM     52  C   UNL A   1      46.881  30.382  27.210  1.00  0.00     0.029 A 
ATOM     53  N   UNL A   1      44.829  30.002  27.980  1.00  0.00    -0.354 N 
ATOM     54  N   UNL A   1      42.326  30.711  29.353  1.00  0.00    -0.248 NA
ATOM     55  C   UNL A   1      41.084  32.217  30.633  1.00  0.00     0.031 C 
ATOM     56  C   UNL A   1      46.421  31.543  27.838  1.00  0.00     0.029 A 
ATOM     57  C   UNL A   1      45.134  31.312  28.299  1.00  0.00     0.049 A 
ATOM     58  H   UNL A   1      43.983  29.549  28.200  1.00  0.00     0.167 HD
ATOM     59  C   UNL A   1      43.030  31.905  29.465  1.00  0.00     0.074 A 
ATOM     60  C   UNL A   1      42.200  32.809  30.232  1.00  0.00     0.031 C 
ATOM     61  C   UNL A   1      44.257  32.222  28.987  1.00  0.00     0.034 A 
BRANCH  48  62
ATOM     62  C   UNL A   1      47.129  27.595  26.080  1.00  0.00     0.023 A 
ATOM     63  C   UNL A   1      48.076  26.793  26.749  1.00  0.00     0.012 A 
ATOM     64  C   UNL A   1      47.303  27.878  24.712  1.00  0.00     0.148 A 
ATOM     65  C   UNL A   1      49.190  26.299  26.072  1.00  0.00     0.002 A 
ATOM     66  C   UNL A   1      48.393  27.346  24.034  1.00  0.00     0.091 A 
ATOM     67  F   UNL A   1      46.400  28.658  24.101  1.00  0.00    -0.205 F 
ATOM     68  C   UNL A   1      49.342  26.565  24.714  1.00  0.00     0.022 A 
BRANCH  66  69
ATOM     69  S   UNL A   1      48.641  27.566  22.268  1.00  0.00     0.127 S 
ATOM     70  O   UNL A   1      47.462  28.348  21.901  1.00  0.00    -0.237 OA
ATOM     71  O   UNL A   1      49.901  28.307  22.225  1.00  0.00    -0.237 OA
ATOM     72  O   UNL A   1      48.699  26.228  21.699  1.00  0.00    -0.744 OA
ENDBRANCH  66  69
ENDBRANCH  48  62
BRANCH  49  73
ATOM     73  C   UNL A   1      38.826  30.362  30.934  1.00  0.00     0.023 A 
ATOM     74  C   UNL A   1      38.740  29.998  32.292  1.00  0.00     0.012 A 
ATOM     75  C   UNL A   1      37.770  31.090  30.352  1.00  0.00     0.148 A 
ATOM     76  C   UNL A   1      37.605  30.313  33.042  1.00  0.00     0.002 A 
ATOM     77  C   UNL A   1      36.669  31.451  31.120  1.00  0.00     0.091 A 
ATOM     78  F   UNL A   1      37.858  31.412  29.054  1.00  0.00    -0.205 F 
ATOM     79  C   UNL A   1      36.575  31.046  32.460  1.00  0.00     0.022 A 
BRANCH  77  80
ATOM     80  S   UNL A   1      35.363  32.507  30.479  1.00  0.00     0.127 S 
ATOM     81  O   UNL A   1      36.092  33.733  30.169  1.00  0.00    -0.237 OA
ATOM     82  O   UNL A   1      34.902  31.750  29.315  1.00  0.00    -0.237 OA
ATOM     83  O   UNL A   1      34.381  32.603  31.552  1.00  0.00    -0.744 OA
ENDBRANCH  77  80
ENDBRANCH  49  73
BRANCH  61  84
ATOM     84  C   UNL A   1      44.761  33.625  29.197  1.00  0.00     0.023 A 
ATOM     85  C   UNL A   1      44.469  34.630  28.255  1.00  0.00     0.012 A 
ATOM     86  C   UNL A   1      45.420  33.967  30.395  1.00  0.00     0.148 A 
ATOM     87  C   UNL A   1      44.845  35.951  28.492  1.00  0.00     0.002 A 
ATOM     88  C   UNL A   1      45.747  35.292  30.648  1.00  0.00     0.091 A 
ATOM     89  F   UNL A   1      45.699  32.990  31.271  1.00  0.00    -0.205 F 
ATOM     90  C   UNL A   1      45.469  36.284  29.693  1.00  0.00     0.022 A 
BRANCH  88  91
ATOM     91  S   UNL A   1      46.461  35.831  32.205  1.00  0.00     0.127 S 
ATOM     92  O   UNL A   1      46.902  37.186  31.878  1.00  0.00    -0.237 OA
ATOM     93  O   UNL A   1      45.312  35.764  33.110  1.00  0.00    -0.237 OA
ATOM     94  O   UNL A   1      47.527  34.887  32.509  1.00  0.00    -0.744 OA
ENDBRANCH  88  91
ENDBRANCH  61  84
ENDBRANCH  35  36
ENDBRANCH  28  30
ENDBRANCH  27  28
ENDBRANCH  26  27
ENDBRANCH   1  26
TORSDOF 21
ENDMDL
MODEL 3
REMARK VINA RESULT:     -10.3      5.213      9.004
REMARK SMILES COc1ccc(C2=NO[C@](C)(C(=O)OCCOCCOC(=O)c3ccc(-c4c5nc(c(-c6cccc(S(=O)(=O)[O-])c6F)c6ccc([nH]6)c(-c6cccc(S(=O)(=O)[O-])c6F)c6nc(c(-c7cccc(S(=O)(=O)[O-])c7F)c7ccc4[nH]7)C=C6)C=C5)cc3)C2)c(OC)c1OC
REMARK SMILES IDX 18 1 17 2 16 3 15 4 14 5 12 6 13 7 10 8 7 9 8 10 86 11 9 12
REMARK SMILES IDX 11 13 6 14 3 15 4 16 90 17 5 18 87 19 2 20 1 21 91 22 92 23
REMARK SMILES IDX 88 24 89 25 19 26 20 27 21 28 22 29 23 30 24 31 85 32 25 33
REMARK SMILES IDX 84 34 26 35 27 36 28 37 78 38 29 39 83 40 77 41 79 42 30 43
REMARK SMILES IDX 82 44 76 45 75 46 31 48 63 49 43 50 62 51 44 52 47 53 61 54
REMARK SMILES IDX 80 55 45 56 46 57 60 59 81 60 48 61 32 62 33 63 41 64 34 65
REMARK SMILES IDX 36 66 42 67 35 68 37 69 38 70 39 71 40 72 64 73 65 74 73 75
REMARK SMILES IDX 66 76 68 77 74 78 67 79 69 80 70 81 71 82 72 83 49 84 50 85
REMARK SMILES IDX 58 86 51 87 53 88 59 89 52 90 54 91 55 92 56 93 57 94
REMARK H PARENT 79 47 47 58
REMARK Flexibility Score: inf
ROOT
ATOM      1  C   UNL A   1      32.088  30.427  26.676  1.00  0.00     0.202 C 
ENDROOT
BRANCH   1   2
ATOM      2  O   UNL A   1      31.357  31.125  25.669  1.00  0.00    -0.374 OA
BRANCH   2   3
ATOM      3  C   UNL A   1      30.838  30.373  24.575  1.00  0.00     0.202 C 
BRANCH   3   4
ATOM      4  C   UNL A   1      30.925  28.846  24.647  1.00  0.00     0.261 C 
BRANCH   4   5
ATOM      5  O   UNL A   1      31.781  28.285  23.636  1.00  0.00    -0.460 OA
BRANCH   5   6
ATOM      6  C   UNL A   1      32.947  27.743  24.088  1.00  0.00     0.353 C 
ATOM      7  O   UNL A   1      33.807  28.382  24.689  1.00  0.00    -0.247 OA
BRANCH   6   8
ATOM      8  C   UNL A   1      33.061  26.237  23.821  1.00  0.00     0.236 C 
ATOM      9  C   UNL A   1      34.414  24.442  23.494  1.00  0.00     0.096 C 
ATOM     10  N   UNL A   1      34.028  24.790  22.306  1.00  0.00    -0.089 NA
ATOM     11  C   UNL A   1      34.165  25.487  24.542  1.00  0.00     0.124 C 
ATOM     12  O   UNL A   1      33.401  26.057  22.433  1.00  0.00    -0.377 OA
ATOM     13  C   UNL A   1      31.679  25.613  24.066  1.00  0.00     0.073 C 
BRANCH   9  14
ATOM     14  C   UNL A   1      34.995  23.114  23.822  1.00  0.00     0.046 A 
ATOM     15  C   UNL A   1      36.237  20.733  24.597  1.00  0.00     0.164 A 
ATOM     16  C   UNL A   1      37.009  21.827  24.200  1.00  0.00     0.051 A 
ATOM     17  C   UNL A   1      34.830  20.817  24.640  1.00  0.00     0.203 A 
ATOM     18  C   UNL A   1      36.393  23.013  23.817  1.00  0.00     0.018 A 
ATOM     19  C   UNL A   1      34.197  22.016  24.226  1.00  0.00     0.173 A 
BRANCH  15  20
ATOM     20  O   UNL A   1      36.892  19.617  25.054  1.00  0.00    -0.493 OA
ATOM     21  C   UNL A   1      38.306  19.825  25.136  1.00  0.00     0.278 C 
ENDBRANCH  15  20
BRANCH  17  22
ATOM     22  O   UNL A   1      34.043  19.825  25.171  1.00  0.00    -0.490 OA
ATOM     23  C   UNL A   1      33.645  18.769  24.304  1.00  0.00     0.278 C 
ENDBRANCH  17  22
BRANCH  19  24
ATOM     24  O   UNL A   1      32.843  22.239  24.159  1.00  0.00    -0.492 OA
ATOM     25  C   UNL A   1      32.110  21.822  23.019  1.00  0.00     0.278 C 
ENDBRANCH  19  24
ENDBRANCH   9  14
ENDBRANCH   6   8
ENDBRANCH   5   6
ENDBRANCH   4   5
ENDBRANCH   3   4
ENDBRANCH   2   3
ENDBRANCH   1   2
BRANCH   1  26
ATOM     26  C   UNL A   1      33.265  31.147  27.348  1.00  0.00     0.261 C 
BRANCH  26  27
ATOM     27  O   UNL A   1      33.403  32.519  26.943  1.00  0.00    -0.460 OA
BRANCH  27  28
ATOM     28  C   UNL A   1      33.402  33.416  27.961  1.00  0.00     0.338 C 
ATOM     29  O   UNL A   1      32.528  34.218  28.240  1.00  0.00    -0.246 OA
BRANCH  28  30
ATOM     30  C   UNL A   1      34.568  33.176  28.831  1.00  0.00     0.060 A 
ATOM     31  C   UNL A   1      35.805  33.711  28.440  1.00  0.00     0.016 A 
ATOM     32  C   UNL A   1      34.465  32.370  29.964  1.00  0.00     0.016 A 
ATOM     33  C   UNL A   1      36.956  33.404  29.162  1.00  0.00     0.010 A 
ATOM     34  C   UNL A   1      35.622  32.053  30.676  1.00  0.00     0.010 A 
ATOM     35  C   UNL A   1      36.876  32.539  30.259  1.00  0.00    -0.014 A 
BRANCH  35  36
ATOM     36  C   UNL A   1      38.103  31.991  30.881  1.00  0.00     0.031 A 
ATOM     37  C   UNL A   1      38.843  30.900  30.157  1.00  0.00     0.074 A 
ATOM     38  C   UNL A   1      38.518  32.415  32.088  1.00  0.00     0.049 A 
ATOM     39  N   UNL A   1      39.819  30.140  30.577  1.00  0.00    -0.248 NA
ATOM     40  C   UNL A   1      38.415  30.622  28.774  1.00  0.00     0.031 C 
ATOM     41  C   UNL A   1      37.896  33.482  32.870  1.00  0.00     0.029 A 
ATOM     42  N   UNL A   1      39.537  31.960  32.888  1.00  0.00    -0.354 N 
ATOM     43  C   UNL A   1      40.100  29.273  29.528  1.00  0.00     0.074 A 
ATOM     44  C   UNL A   1      39.188  29.595  28.452  1.00  0.00     0.031 C 
ATOM     45  C   UNL A   1      38.511  33.562  34.063  1.00  0.00     0.029 A 
ATOM     46  C   UNL A   1      39.543  32.530  34.140  1.00  0.00     0.049 A 
ATOM     47  H   UNL A   1      40.199  31.292  32.595  1.00  0.00     0.167 HD
ATOM     48  C   UNL A   1      41.042  28.305  29.462  1.00  0.00     0.034 A 
ATOM     49  C   UNL A   1      40.267  32.219  35.234  1.00  0.00     0.034 A 
ATOM     50  C   UNL A   1      41.953  28.000  30.531  1.00  0.00     0.049 A 
ATOM     51  C   UNL A   1      41.285  31.109  35.149  1.00  0.00     0.074 A 
ATOM     52  C   UNL A   1      42.949  27.041  30.566  1.00  0.00     0.029 A 
ATOM     53  N   UNL A   1      41.982  28.655  31.752  1.00  0.00    -0.354 N 
ATOM     54  N   UNL A   1      41.589  30.344  34.128  1.00  0.00    -0.248 NA
ATOM     55  C   UNL A   1      42.082  30.837  36.355  1.00  0.00     0.031 C 
ATOM     56  C   UNL A   1      43.571  27.105  31.816  1.00  0.00     0.029 A 
ATOM     57  C   UNL A   1      42.982  28.126  32.546  1.00  0.00     0.049 A 
ATOM     58  H   UNL A   1      41.379  29.387  32.015  1.00  0.00     0.167 HD
ATOM     59  C   UNL A   1      42.643  29.541  34.551  1.00  0.00     0.074 A 
ATOM     60  C   UNL A   1      42.930  29.915  35.920  1.00  0.00     0.031 C 
ATOM     61  C   UNL A   1      43.307  28.573  33.875  1.00  0.00     0.034 A 
BRANCH  48  62
ATOM     62  C   UNL A   1      41.160  27.520  28.183  1.00  0.00     0.023 A 
ATOM     63  C   UNL A   1      41.824  28.093  27.080  1.00  0.00     0.012 A 
ATOM     64  C   UNL A   1      40.683  26.198  28.096  1.00  0.00     0.148 A 
ATOM     65  C   UNL A   1      41.992  27.369  25.900  1.00  0.00     0.002 A 
ATOM     66  C   UNL A   1      40.892  25.468  26.933  1.00  0.00     0.091 A 
ATOM     67  F   UNL A   1      40.038  25.681  29.151  1.00  0.00    -0.205 F 
ATOM     68  C   UNL A   1      41.537  26.055  25.831  1.00  0.00     0.022 A 
BRANCH  66  69
ATOM     69  S   UNL A   1      40.414  23.745  26.768  1.00  0.00     0.127 S 
ATOM     70  O   UNL A   1      41.371  23.268  25.770  1.00  0.00    -0.237 OA
ATOM     71  O   UNL A   1      40.637  23.234  28.120  1.00  0.00    -0.237 OA
ATOM     72  O   UNL A   1      39.023  23.751  26.339  1.00  0.00    -0.744 OA
ENDBRANCH  66  69
ENDBRANCH  48  62
BRANCH  49  73
ATOM     73  C   UNL A   1      40.062  32.964  36.509  1.00  0.00     0.023 A 
ATOM     74  C   UNL A   1      40.830  34.116  36.774  1.00  0.00     0.012 A 
ATOM     75  C   UNL A   1      39.122  32.534  37.465  1.00  0.00     0.148 A 
ATOM     76  C   UNL A   1      40.696  34.797  37.985  1.00  0.00     0.002 A 
ATOM     77  C   UNL A   1      38.952  33.250  38.644  1.00  0.00     0.091 A 
ATOM     78  F   UNL A   1      38.413  31.426  37.207  1.00  0.00    -0.205 F 
ATOM     79  C   UNL A   1      39.751  34.371  38.915  1.00  0.00     0.022 A 
BRANCH  77  80
ATOM     80  S   UNL A   1      37.666  32.842  39.832  1.00  0.00     0.127 S 
ATOM     81  O   UNL A   1      38.154  31.580  40.381  1.00  0.00    -0.237 OA
ATOM     82  O   UNL A   1      37.725  33.979  40.750  1.00  0.00    -0.237 OA
ATOM     83  O   UNL A   1      36.433  32.766  39.058  1.00  0.00    -0.744 OA
ENDBRANCH  77  80
ENDBRANCH  49  73
BRANCH  61  84
ATOM     84  C   UNL A   1      44.466  27.897  34.557  1.00  0.00     0.023 A 
ATOM     85  C   UNL A   1      45.747  28.479  34.520  1.00  0.00     0.012 A 
ATOM     86  C   UNL A   1      44.250  26.743  35.337  1.00  0.00     0.148 A 
ATOM     87  C   UNL A   1      46.802  27.912  35.233  1.00  0.00     0.002 A 
ATOM     88  C   UNL A   1      45.293  26.211  36.084  1.00  0.00     0.091 A 
ATOM     89  F   UNL A   1      43.024  26.197  35.344  1.00  0.00    -0.205 F 
ATOM     90  C   UNL A   1      46.572  26.788  36.025  1.00  0.00     0.022 A 
BRANCH  88  91
ATOM     91  S   UNL A   1      45.068  24.829  37.208  1.00  0.00     0.127 S 
ATOM     92  O   UNL A   1      44.734  23.745  36.284  1.00  0.00    -0.237 OA
ATOM     93  O   UNL A   1      46.390  24.717  37.827  1.00  0.00    -0.237 OA
ATOM     94  O   UNL A   1      44.002  25.218  38.121  1.00  0.00    -0.744 OA
ENDBRANCH  88  91
ENDBRANCH  61  84
ENDBRANCH  35  36
ENDBRANCH  28  30
ENDBRANCH  27  28
ENDBRANCH  26  27
ENDBRANCH   1  26
TORSDOF 21
ENDMDL
