MODEL 1
REMARK VINA RESULT:     -11.5      0.000      0.000
REMARK SMILES C[C@@H]1CCC[C@H](Oc2ccc(F)cc2C(=O)OCCOCCOC(=O)c2ccc(-c3c4nc(c(-c5cccc(S(=O)(=O)[O-])c5F)c5ccc([nH]5)c(-c5cccc(S(=O)(=O)[O-])c5F)c5nc(c(-c6cccc(S(=O)(=O)[O-])c6F)c6ccc3[nH]6)C=C5)C=C4)cc2)C1
REMARK SMILES IDX 21 1 20 2 19 3 18 4 17 5 15 6 16 7 14 8 8 9 9 10 10 11 13 12
REMARK SMILES IDX 11 13 12 14 7 15 6 16 1 17 2 18 3 19 89 20 4 21 5 22 22 23
REMARK SMILES IDX 23 24 24 25 25 26 26 27 27 28 88 29 28 30 87 31 29 32 30 33
REMARK SMILES IDX 31 34 81 35 32 36 86 37 80 38 82 39 33 40 85 41 79 42 78 43
REMARK SMILES IDX 34 45 66 46 46 47 65 48 47 49 50 50 64 51 83 52 48 53 49 54
REMARK SMILES IDX 63 56 84 57 51 58 35 59 36 60 44 61 37 62 39 63 45 64 38 65
REMARK SMILES IDX 40 66 41 67 42 68 43 69 67 70 68 71 76 72 69 73 71 74 77 75
REMARK SMILES IDX 70 76 72 77 73 78 74 79 75 80 52 81 53 82 61 83 54 84 56 85
REMARK SMILES IDX 62 86 55 87 57 88 58 89 59 90 60 91
REMARK H PARENT 82 44 50 55
REMARK Flexibility Score: inf
ROOT
ATOM      1  C   UNL A   1      35.097  20.776  25.220  1.00  0.00     0.202 C 
ENDROOT
BRANCH   1   2
ATOM      2  O   UNL A   1      34.890  21.900  26.075  1.00  0.00    -0.374 OA
BRANCH   2   3
ATOM      3  C   UNL A   1      34.368  21.611  27.373  1.00  0.00     0.202 C 
BRANCH   3   4
ATOM      4  C   UNL A   1      33.196  22.472  27.844  1.00  0.00     0.261 C 
BRANCH   4   5
ATOM      5  O   UNL A   1      32.090  22.409  26.923  1.00  0.00    -0.460 OA
BRANCH   5   6
ATOM      6  C   UNL A   1      31.805  23.580  26.315  1.00  0.00     0.342 C 
ATOM      7  O   UNL A   1      31.128  24.482  26.796  1.00  0.00    -0.246 OA
BRANCH   6   8
ATOM      8  C   UNL A   1      32.487  23.777  25.011  1.00  0.00     0.104 A 
ATOM      9  C   UNL A   1      33.461  24.743  24.711  1.00  0.00     0.134 A 
ATOM     10  C   UNL A   1      34.267  24.530  23.588  1.00  0.00     0.050 A 
ATOM     11  C   UNL A   1      33.957  23.550  22.644  1.00  0.00     0.043 A 
ATOM     12  C   UNL A   1      32.160  22.803  24.046  1.00  0.00     0.058 A 
ATOM     13  C   UNL A   1      32.870  22.725  22.861  1.00  0.00     0.124 A 
ATOM     14  F   UNL A   1      32.532  21.814  21.942  1.00  0.00    -0.207 F 
BRANCH   9  15
ATOM     15  O   UNL A   1      33.730  25.783  25.543  1.00  0.00    -0.490 OA
BRANCH  15  16
ATOM     16  C   UNL A   1      33.665  27.150  25.056  1.00  0.00     0.173 C 
ATOM     17  C   UNL A   1      31.747  28.098  27.682  1.00  0.00     0.008 C 
ATOM     18  C   UNL A   1      32.493  28.902  26.623  1.00  0.00    -0.011 C 
ATOM     19  C   UNL A   1      31.568  29.281  25.463  1.00  0.00     0.003 C 
ATOM     20  C   UNL A   1      33.792  28.232  26.141  1.00  0.00     0.048 C 
ATOM     21  C   UNL A   1      31.333  28.139  24.482  1.00  0.00     0.004 C 
ATOM     22  C   UNL A   1      32.635  27.516  23.971  1.00  0.00     0.045 C 
ENDBRANCH  15  16
ENDBRANCH   9  15
ENDBRANCH   6   8
ENDBRANCH   5   6
ENDBRANCH   4   5
ENDBRANCH   3   4
ENDBRANCH   2   3
ENDBRANCH   1   2
BRANCH   1  23
ATOM     23  C   UNL A   1      36.561  20.380  24.972  1.00  0.00     0.261 C 
BRANCH  23  24
ATOM     24  O   UNL A   1      37.462  21.477  25.214  1.00  0.00    -0.460 OA
BRANCH  24  25
ATOM     25  C   UNL A   1      38.641  21.139  25.789  1.00  0.00     0.338 C 
ATOM     26  O   UNL A   1      39.252  20.088  25.647  1.00  0.00    -0.246 OA
BRANCH  25  27
ATOM     27  C   UNL A   1      39.226  22.314  26.466  1.00  0.00     0.060 A 
ATOM     28  C   UNL A   1      38.682  23.573  26.169  1.00  0.00     0.016 A 
ATOM     29  C   UNL A   1      40.311  22.201  27.336  1.00  0.00     0.016 A 
ATOM     30  C   UNL A   1      39.256  24.728  26.696  1.00  0.00     0.010 A 
ATOM     31  C   UNL A   1      40.891  23.361  27.857  1.00  0.00     0.010 A 
ATOM     32  C   UNL A   1      40.393  24.632  27.506  1.00  0.00    -0.014 A 
BRANCH  32  33
ATOM     33  C   UNL A   1      41.167  25.848  27.860  1.00  0.00     0.031 A 
ATOM     34  C   UNL A   1      40.474  26.950  28.615  1.00  0.00     0.074 A 
ATOM     35  C   UNL A   1      42.455  25.984  27.501  1.00  0.00     0.049 A 
ATOM     36  N   UNL A   1      40.905  28.147  28.912  1.00  0.00    -0.248 NA
ATOM     37  C   UNL A   1      39.111  26.664  29.093  1.00  0.00     0.031 C 
ATOM     38  C   UNL A   1      43.249  24.978  26.798  1.00  0.00     0.029 A 
ATOM     39  N   UNL A   1      43.313  27.048  27.652  1.00  0.00    -0.354 N 
ATOM     40  C   UNL A   1      39.853  28.774  29.571  1.00  0.00     0.074 A 
ATOM     41  C   UNL A   1      38.763  27.824  29.629  1.00  0.00     0.031 C 
ATOM     42  C   UNL A   1      44.467  25.485  26.546  1.00  0.00     0.029 A 
ATOM     43  C   UNL A   1      44.526  26.863  27.035  1.00  0.00     0.049 A 
ATOM     44  H   UNL A   1      43.080  27.862  28.154  1.00  0.00     0.167 HD
ATOM     45  C   UNL A   1      39.803  30.023  30.090  1.00  0.00     0.034 A 
ATOM     46  C   UNL A   1      45.553  27.718  26.851  1.00  0.00     0.034 A 
ATOM     47  C   UNL A   1      40.898  30.955  30.056  1.00  0.00     0.049 A 
ATOM     48  C   UNL A   1      45.463  29.115  27.408  1.00  0.00     0.074 A 
ATOM     49  C   UNL A   1      40.954  32.231  30.590  1.00  0.00     0.029 A 
ATOM     50  N   UNL A   1      42.125  30.720  29.455  1.00  0.00    -0.354 N 
ATOM     51  N   UNL A   1      44.492  29.671  28.093  1.00  0.00    -0.248 NA
ATOM     52  C   UNL A   1      46.621  29.996  27.191  1.00  0.00     0.031 C 
ATOM     53  C   UNL A   1      42.201  32.779  30.281  1.00  0.00     0.029 A 
ATOM     54  C   UNL A   1      42.940  31.830  29.592  1.00  0.00     0.049 A 
ATOM     55  H   UNL A   1      42.379  29.886  28.998  1.00  0.00     0.167 HD
ATOM     56  C   UNL A   1      44.933  30.952  28.414  1.00  0.00     0.074 A 
ATOM     57  C   UNL A   1      46.269  31.080  27.870  1.00  0.00     0.031 C 
ATOM     58  C   UNL A   1      44.285  31.937  29.085  1.00  0.00     0.034 A 
BRANCH  45  59
ATOM     59  C   UNL A   1      38.528  30.460  30.760  1.00  0.00     0.023 A 
ATOM     60  C   UNL A   1      38.354  30.249  32.143  1.00  0.00     0.012 A 
ATOM     61  C   UNL A   1      37.539  31.156  30.036  1.00  0.00     0.148 A 
ATOM     62  C   UNL A   1      37.208  30.708  32.791  1.00  0.00     0.002 A 
ATOM     63  C   UNL A   1      36.423  31.652  30.699  1.00  0.00     0.091 A 
ATOM     64  F   UNL A   1      37.712  31.323  28.718  1.00  0.00    -0.205 F 
ATOM     65  C   UNL A   1      36.251  31.420  32.074  1.00  0.00     0.022 A 
BRANCH  63  66
ATOM     66  S   UNL A   1      35.177  32.657  29.884  1.00  0.00     0.127 S 
ATOM     67  O   UNL A   1      34.654  31.726  28.885  1.00  0.00    -0.237 OA
ATOM     68  O   UNL A   1      34.256  32.953  30.982  1.00  0.00    -0.237 OA
ATOM     69  O   UNL A   1      35.878  33.814  29.347  1.00  0.00    -0.744 OA
ENDBRANCH  63  66
ENDBRANCH  45  59
BRANCH  46  70
ATOM     70  C   UNL A   1      46.769  27.262  26.120  1.00  0.00     0.023 A 
ATOM     71  C   UNL A   1      46.876  27.501  24.737  1.00  0.00     0.012 A 
ATOM     72  C   UNL A   1      47.836  26.634  26.793  1.00  0.00     0.148 A 
ATOM     73  C   UNL A   1      48.013  27.103  24.032  1.00  0.00     0.002 A 
ATOM     74  C   UNL A   1      48.990  26.296  26.098  1.00  0.00     0.091 A 
ATOM     75  F   UNL A   1      47.706  26.402  28.107  1.00  0.00    -0.205 F 
ATOM     76  C   UNL A   1      49.075  26.514  24.714  1.00  0.00     0.022 A 
BRANCH  74  77
ATOM     77  S   UNL A   1      50.459  25.660  26.914  1.00  0.00     0.127 S 
ATOM     78  O   UNL A   1      50.711  26.688  27.920  1.00  0.00    -0.237 OA
ATOM     79  O   UNL A   1      49.976  24.384  27.443  1.00  0.00    -0.237 OA
ATOM     80  O   UNL A   1      51.471  25.538  25.873  1.00  0.00    -0.744 OA
ENDBRANCH  74  77
ENDBRANCH  46  70
BRANCH  58  81
ATOM     81  C   UNL A   1      45.010  33.242  29.300  1.00  0.00     0.023 A 
ATOM     82  C   UNL A   1      45.788  33.431  30.460  1.00  0.00     0.012 A 
ATOM     83  C   UNL A   1      44.992  34.249  28.313  1.00  0.00     0.148 A 
ATOM     84  C   UNL A   1      46.505  34.611  30.652  1.00  0.00     0.002 A 
ATOM     85  C   UNL A   1      45.752  35.400  28.485  1.00  0.00     0.091 A 
ATOM     86  F   UNL A   1      44.235  34.062  27.222  1.00  0.00    -0.205 F 
ATOM     87  C   UNL A   1      46.498  35.589  29.659  1.00  0.00     0.022 A 
BRANCH  85  88
ATOM     88  S   UNL A   1      45.889  36.665  27.215  1.00  0.00     0.127 S 
ATOM     89  O   UNL A   1      44.536  37.221  27.202  1.00  0.00    -0.237 OA
ATOM     90  O   UNL A   1      46.908  37.555  27.772  1.00  0.00    -0.237 OA
ATOM     91  O   UNL A   1      46.292  35.971  26.000  1.00  0.00    -0.744 OA
ENDBRANCH  85  88
ENDBRANCH  58  81
ENDBRANCH  32  33
ENDBRANCH  25  27
ENDBRANCH  24  25
ENDBRANCH  23  24
ENDBRANCH   1  23
TORSDOF 19
ENDMDL
MODEL 2
REMARK VINA RESULT:     -11.2      5.126      9.960
REMARK SMILES C[C@@H]1CCC[C@H](Oc2ccc(F)cc2C(=O)OCCOCCOC(=O)c2ccc(-c3c4nc(c(-c5cccc(S(=O)(=O)[O-])c5F)c5ccc([nH]5)c(-c5cccc(S(=O)(=O)[O-])c5F)c5nc(c(-c6cccc(S(=O)(=O)[O-])c6F)c6ccc3[nH]6)C=C5)C=C4)cc2)C1
REMARK SMILES IDX 21 1 20 2 19 3 18 4 17 5 15 6 16 7 14 8 8 9 9 10 10 11 13 12
REMARK SMILES IDX 11 13 12 14 7 15 6 16 1 17 2 18 3 19 89 20 4 21 5 22 22 23
REMARK SMILES IDX 23 24 24 25 25 26 26 27 27 28 88 29 28 30 87 31 29 32 30 33
REMARK SMILES IDX 31 34 81 35 32 36 86 37 80 38 82 39 33 40 85 41 79 42 78 43
REMARK SMILES IDX 34 45 66 46 46 47 65 48 47 49 50 50 64 51 83 52 48 53 49 54
REMARK SMILES IDX 63 56 84 57 51 58 35 59 36 60 44 61 37 62 39 63 45 64 38 65
REMARK SMILES IDX 40 66 41 67 42 68 43 69 67 70 68 71 76 72 69 73 71 74 77 75
REMARK SMILES IDX 70 76 72 77 73 78 74 79 75 80 52 81 53 82 61 83 54 84 56 85
REMARK SMILES IDX 62 86 55 87 57 88 58 89 59 90 60 91
REMARK H PARENT 82 44 50 55
REMARK Flexibility Score: inf
ROOT
ATOM      1  C   UNL A   1      32.539  29.180  25.097  1.00  0.00     0.202 C 
ENDROOT
BRANCH   1   2
ATOM      2  O   UNL A   1      32.597  29.250  23.672  1.00  0.00    -0.374 OA
BRANCH   2   3
ATOM      3  C   UNL A   1      33.717  28.609  23.060  1.00  0.00     0.202 C 
BRANCH   3   4
ATOM      4  C   UNL A   1      33.405  27.461  22.099  1.00  0.00     0.261 C 
BRANCH   4   5
ATOM      5  O   UNL A   1      33.913  26.206  22.592  1.00  0.00    -0.460 OA
BRANCH   5   6
ATOM      6  C   UNL A   1      32.971  25.255  22.767  1.00  0.00     0.342 C 
ATOM      7  O   UNL A   1      32.804  24.282  22.040  1.00  0.00    -0.246 OA
BRANCH   6   8
ATOM      8  C   UNL A   1      32.181  25.394  24.016  1.00  0.00     0.104 A 
ATOM      9  C   UNL A   1      32.682  25.406  25.328  1.00  0.00     0.134 A 
ATOM     10  C   UNL A   1      31.868  25.940  26.332  1.00  0.00     0.050 A 
ATOM     11  C   UNL A   1      30.516  26.206  26.110  1.00  0.00     0.043 A 
ATOM     12  C   UNL A   1      30.811  25.640  23.798  1.00  0.00     0.058 A 
ATOM     13  C   UNL A   1      29.988  26.004  24.849  1.00  0.00     0.124 A 
ATOM     14  F   UNL A   1      28.684  26.207  24.633  1.00  0.00    -0.207 F 
BRANCH   9  15
ATOM     15  O   UNL A   1      33.961  25.052  25.618  1.00  0.00    -0.490 OA
BRANCH  15  16
ATOM     16  C   UNL A   1      34.263  23.713  26.096  1.00  0.00     0.173 C 
ATOM     17  C   UNL A   1      36.171  23.066  23.374  1.00  0.00     0.008 C 
ATOM     18  C   UNL A   1      36.006  22.331  24.700  1.00  0.00    -0.011 C 
ATOM     19  C   UNL A   1      34.978  21.203  24.583  1.00  0.00     0.003 C 
ATOM     20  C   UNL A   1      35.719  23.264  25.890  1.00  0.00     0.048 C 
ATOM     21  C   UNL A   1      33.536  21.695  24.634  1.00  0.00     0.004 C 
ATOM     22  C   UNL A   1      33.251  22.579  25.851  1.00  0.00     0.045 C 
ENDBRANCH  15  16
ENDBRANCH   9  15
ENDBRANCH   6   8
ENDBRANCH   5   6
ENDBRANCH   4   5
ENDBRANCH   3   4
ENDBRANCH   2   3
ENDBRANCH   1   2
BRANCH   1  23
ATOM     23  C   UNL A   1      31.873  30.372  25.802  1.00  0.00     0.261 C 
BRANCH  23  24
ATOM     24  O   UNL A   1      32.394  30.568  27.131  1.00  0.00    -0.460 OA
BRANCH  24  25
ATOM     25  C   UNL A   1      33.088  31.717  27.314  1.00  0.00     0.338 C 
ATOM     26  O   UNL A   1      32.639  32.855  27.307  1.00  0.00    -0.246 OA
BRANCH  25  27
ATOM     27  C   UNL A   1      34.465  31.408  27.749  1.00  0.00     0.060 A 
ATOM     28  C   UNL A   1      34.773  30.068  28.030  1.00  0.00     0.016 A 
ATOM     29  C   UNL A   1      35.425  32.405  27.925  1.00  0.00     0.016 A 
ATOM     30  C   UNL A   1      36.024  29.727  28.542  1.00  0.00     0.010 A 
ATOM     31  C   UNL A   1      36.676  32.062  28.446  1.00  0.00     0.010 A 
ATOM     32  C   UNL A   1      36.967  30.729  28.796  1.00  0.00    -0.014 A 
BRANCH  32  33
ATOM     33  C   UNL A   1      38.193  30.425  29.575  1.00  0.00     0.031 A 
ATOM     34  C   UNL A   1      39.197  29.465  28.996  1.00  0.00     0.074 A 
ATOM     35  C   UNL A   1      38.405  30.971  30.785  1.00  0.00     0.049 A 
ATOM     36  N   UNL A   1      40.264  28.950  29.547  1.00  0.00    -0.248 NA
ATOM     37  C   UNL A   1      38.961  29.023  27.611  1.00  0.00     0.031 C 
ATOM     38  C   UNL A   1      37.528  31.939  31.441  1.00  0.00     0.029 A 
ATOM     39  N   UNL A   1      39.415  30.759  31.692  1.00  0.00    -0.354 N 
ATOM     40  C   UNL A   1      40.802  28.090  28.596  1.00  0.00     0.074 A 
ATOM     41  C   UNL A   1      39.943  28.151  27.434  1.00  0.00     0.031 C 
ATOM     42  C   UNL A   1      38.019  32.210  32.662  1.00  0.00     0.029 A 
ATOM     43  C   UNL A   1      39.221  31.408  32.888  1.00  0.00     0.049 A 
ATOM     44  H   UNL A   1      40.201  30.197  31.504  1.00  0.00     0.167 HD
ATOM     45  C   UNL A   1      41.917  27.326  28.680  1.00  0.00     0.034 A 
ATOM     46  C   UNL A   1      39.911  31.334  34.044  1.00  0.00     0.034 A 
ATOM     47  C   UNL A   1      42.785  27.289  29.826  1.00  0.00     0.049 A 
ATOM     48  C   UNL A   1      41.130  30.452  34.126  1.00  0.00     0.074 A 
ATOM     49  C   UNL A   1      43.958  26.573  29.988  1.00  0.00     0.029 A 
ATOM     50  N   UNL A   1      42.577  27.987  31.005  1.00  0.00    -0.354 N 
ATOM     51  N   UNL A   1      41.670  29.700  33.197  1.00  0.00    -0.248 NA
ATOM     52  C   UNL A   1      41.850  30.427  35.408  1.00  0.00     0.031 C 
ATOM     53  C   UNL A   1      44.441  26.813  31.278  1.00  0.00     0.029 A 
ATOM     54  C   UNL A   1      43.591  27.711  31.905  1.00  0.00     0.049 A 
ATOM     55  H   UNL A   1      41.819  28.591  31.177  1.00  0.00     0.167 HD
ATOM     56  C   UNL A   1      42.808  29.139  33.770  1.00  0.00     0.074 A 
ATOM     57  C   UNL A   1      42.892  29.657  35.119  1.00  0.00     0.031 C 
ATOM     58  C   UNL A   1      43.693  28.263  33.233  1.00  0.00     0.034 A 
BRANCH  45  59
ATOM     59  C   UNL A   1      42.281  26.475  27.493  1.00  0.00     0.023 A 
ATOM     60  C   UNL A   1      43.066  27.018  26.455  1.00  0.00     0.012 A 
ATOM     61  C   UNL A   1      41.919  25.114  27.448  1.00  0.00     0.148 A 
ATOM     62  C   UNL A   1      43.468  26.224  25.382  1.00  0.00     0.002 A 
ATOM     63  C   UNL A   1      42.365  24.318  26.400  1.00  0.00     0.091 A 
ATOM     64  F   UNL A   1      41.152  24.624  28.431  1.00  0.00    -0.205 F 
ATOM     65  C   UNL A   1      43.131  24.873  25.361  1.00  0.00     0.022 A 
BRANCH  63  66
ATOM     66  S   UNL A   1      42.059  22.550  26.325  1.00  0.00     0.127 S 
ATOM     67  O   UNL A   1      42.685  22.089  27.563  1.00  0.00    -0.237 OA
ATOM     68  O   UNL A   1      40.596  22.492  26.324  1.00  0.00    -0.237 OA
ATOM     69  O   UNL A   1      42.689  22.082  25.099  1.00  0.00    -0.744 OA
ENDBRANCH  63  66
ENDBRANCH  45  59
BRANCH  46  70
ATOM     70  C   UNL A   1      39.472  32.143  35.217  1.00  0.00     0.023 A 
ATOM     71  C   UNL A   1      39.744  33.525  35.246  1.00  0.00     0.012 A 
ATOM     72  C   UNL A   1      38.754  31.562  36.280  1.00  0.00     0.148 A 
ATOM     73  C   UNL A   1      39.326  34.308  36.323  1.00  0.00     0.002 A 
ATOM     74  C   UNL A   1      38.289  32.358  37.319  1.00  0.00     0.091 A 
ATOM     75  F   UNL A   1      38.522  30.242  36.240  1.00  0.00    -0.205 F 
ATOM     76  C   UNL A   1      38.587  33.729  37.351  1.00  0.00     0.022 A 
BRANCH  74  77
ATOM     77  S   UNL A   1      37.215  31.728  38.614  1.00  0.00     0.127 S 
ATOM     78  O   UNL A   1      36.086  32.653  38.544  1.00  0.00    -0.237 OA
ATOM     79  O   UNL A   1      36.934  30.374  38.135  1.00  0.00    -0.237 OA
ATOM     80  O   UNL A   1      37.997  31.784  39.841  1.00  0.00    -0.744 OA
ENDBRANCH  74  77
ENDBRANCH  46  70
BRANCH  58  81
ATOM     81  C   UNL A   1      44.855  27.817  34.086  1.00  0.00     0.023 A 
ATOM     82  C   UNL A   1      46.005  28.625  34.184  1.00  0.00     0.012 A 
ATOM     83  C   UNL A   1      44.772  26.641  34.860  1.00  0.00     0.148 A 
ATOM     84  C   UNL A   1      47.067  28.253  35.008  1.00  0.00     0.002 A 
ATOM     85  C   UNL A   1      45.811  26.304  35.720  1.00  0.00     0.091 A 
ATOM     86  F   UNL A   1      43.678  25.874  34.745  1.00  0.00    -0.205 F 
ATOM     87  C   UNL A   1      46.965  27.101  35.785  1.00  0.00     0.022 A 
BRANCH  85  88
ATOM     88  S   UNL A   1      45.722  24.899  36.836  1.00  0.00     0.127 S 
ATOM     89  O   UNL A   1      44.440  25.127  37.501  1.00  0.00    -0.237 OA
ATOM     90  O   UNL A   1      45.735  23.765  35.910  1.00  0.00    -0.237 OA
ATOM     91  O   UNL A   1      46.897  24.992  37.692  1.00  0.00    -0.744 OA
ENDBRANCH  85  88
ENDBRANCH  58  81
ENDBRANCH  32  33
ENDBRANCH  25  27
ENDBRANCH  24  25
ENDBRANCH  23  24
ENDBRANCH   1  23
TORSDOF 19
ENDMDL
MODEL 3
REMARK VINA RESULT:     -11.1      1.336      2.437
REMARK SMILES C[C@@H]1CCC[C@H](Oc2ccc(F)cc2C(=O)OCCOCCOC(=O)c2ccc(-c3c4nc(c(-c5cccc(S(=O)(=O)[O-])c5F)c5ccc([nH]5)c(-c5cccc(S(=O)(=O)[O-])c5F)c5nc(c(-c6cccc(S(=O)(=O)[O-])c6F)c6ccc3[nH]6)C=C5)C=C4)cc2)C1
REMARK SMILES IDX 21 1 20 2 19 3 18 4 17 5 15 6 16 7 14 8 8 9 9 10 10 11 13 12
REMARK SMILES IDX 11 13 12 14 7 15 6 16 1 17 2 18 3 19 89 20 4 21 5 22 22 23
REMARK SMILES IDX 23 24 24 25 25 26 26 27 27 28 88 29 28 30 87 31 29 32 30 33
REMARK SMILES IDX 31 34 81 35 32 36 86 37 80 38 82 39 33 40 85 41 79 42 78 43
REMARK SMILES IDX 34 45 66 46 46 47 65 48 47 49 50 50 64 51 83 52 48 53 49 54
REMARK SMILES IDX 63 56 84 57 51 58 35 59 36 60 44 61 37 62 39 63 45 64 38 65
REMARK SMILES IDX 40 66 41 67 42 68 43 69 67 70 68 71 76 72 69 73 71 74 77 75
REMARK SMILES IDX 70 76 72 77 73 78 74 79 75 80 52 81 53 82 61 83 54 84 56 85
REMARK SMILES IDX 62 86 55 87 57 88 58 89 59 90 60 91
REMARK H PARENT 82 44 50 55
REMARK Flexibility Score: inf
ROOT
ATOM      1  C   UNL A   1      35.013  20.649  25.046  1.00  0.00     0.202 C 
ENDROOT
BRANCH   1   2
ATOM      2  O   UNL A   1      34.644  21.984  24.698  1.00  0.00    -0.374 OA
BRANCH   2   3
ATOM      3  C   UNL A   1      34.144  22.792  25.764  1.00  0.00     0.202 C 
BRANCH   3   4
ATOM      4  C   UNL A   1      32.981  23.726  25.424  1.00  0.00     0.261 C 
BRANCH   4   5
ATOM      5  O   UNL A   1      33.354  25.110  25.572  1.00  0.00    -0.460 OA
BRANCH   5   6
ATOM      6  C   UNL A   1      32.406  25.884  26.142  1.00  0.00     0.342 C 
ATOM      7  O   UNL A   1      31.444  25.470  26.779  1.00  0.00    -0.246 OA
BRANCH   6   8
ATOM      8  C   UNL A   1      32.667  27.342  26.052  1.00  0.00     0.104 A 
ATOM      9  C   UNL A   1      31.726  28.346  25.774  1.00  0.00     0.134 A 
ATOM     10  C   UNL A   1      32.054  29.662  26.120  1.00  0.00     0.050 A 
ATOM     11  C   UNL A   1      33.355  30.018  26.477  1.00  0.00     0.043 A 
ATOM     12  C   UNL A   1      33.986  27.706  26.389  1.00  0.00     0.058 A 
ATOM     13  C   UNL A   1      34.324  29.037  26.559  1.00  0.00     0.124 A 
ATOM     14  F   UNL A   1      35.586  29.370  26.852  1.00  0.00    -0.207 F 
BRANCH   9  15
ATOM     15  O   UNL A   1      30.477  28.063  25.320  1.00  0.00    -0.490 OA
BRANCH  15  16
ATOM     16  C   UNL A   1      30.215  27.984  23.893  1.00  0.00     0.173 C 
ATOM     17  C   UNL A   1      29.127  31.191  23.814  1.00  0.00     0.008 C 
ATOM     18  C   UNL A   1      29.492  30.211  22.704  1.00  0.00    -0.011 C 
ATOM     19  C   UNL A   1      28.250  29.492  22.170  1.00  0.00     0.003 C 
ATOM     20  C   UNL A   1      30.616  29.232  23.090  1.00  0.00     0.048 C 
ATOM     21  C   UNL A   1      27.780  28.354  23.069  1.00  0.00     0.004 C 
ATOM     22  C   UNL A   1      28.896  27.360  23.401  1.00  0.00     0.045 C 
ENDBRANCH  15  16
ENDBRANCH   9  15
ENDBRANCH   6   8
ENDBRANCH   5   6
ENDBRANCH   4   5
ENDBRANCH   3   4
ENDBRANCH   2   3
ENDBRANCH   1   2
BRANCH   1  23
ATOM     23  C   UNL A   1      36.518  20.341  25.027  1.00  0.00     0.261 C 
BRANCH  23  24
ATOM     24  O   UNL A   1      37.303  21.470  25.456  1.00  0.00    -0.460 OA
BRANCH  24  25
ATOM     25  C   UNL A   1      38.566  21.179  25.848  1.00  0.00     0.338 C 
ATOM     26  O   UNL A   1      39.215  20.183  25.556  1.00  0.00    -0.246 OA
BRANCH  25  27
ATOM     27  C   UNL A   1      39.166  22.349  26.522  1.00  0.00     0.060 A 
ATOM     28  C   UNL A   1      38.624  23.611  26.239  1.00  0.00     0.016 A 
ATOM     29  C   UNL A   1      40.263  22.227  27.375  1.00  0.00     0.016 A 
ATOM     30  C   UNL A   1      39.210  24.762  26.763  1.00  0.00     0.010 A 
ATOM     31  C   UNL A   1      40.855  23.382  27.893  1.00  0.00     0.010 A 
ATOM     32  C   UNL A   1      40.358  24.656  27.556  1.00  0.00    -0.014 A 
BRANCH  32  33
ATOM     33  C   UNL A   1      41.142  25.868  27.904  1.00  0.00     0.031 A 
ATOM     34  C   UNL A   1      40.468  26.965  28.683  1.00  0.00     0.074 A 
ATOM     35  C   UNL A   1      42.423  26.004  27.520  1.00  0.00     0.049 A 
ATOM     36  N   UNL A   1      40.908  28.159  28.981  1.00  0.00    -0.248 NA
ATOM     37  C   UNL A   1      39.114  26.677  29.186  1.00  0.00     0.031 C 
ATOM     38  C   UNL A   1      43.199  25.002  26.793  1.00  0.00     0.029 A 
ATOM     39  N   UNL A   1      43.286  27.064  27.663  1.00  0.00    -0.354 N 
ATOM     40  C   UNL A   1      39.872  28.782  29.667  1.00  0.00     0.074 A 
ATOM     41  C   UNL A   1      38.780  27.835  29.739  1.00  0.00     0.031 C 
ATOM     42  C   UNL A   1      44.414  25.508  26.520  1.00  0.00     0.029 A 
ATOM     43  C   UNL A   1      44.487  26.881  27.019  1.00  0.00     0.049 A 
ATOM     44  H   UNL A   1      43.066  27.874  28.176  1.00  0.00     0.167 HD
ATOM     45  C   UNL A   1      39.835  30.027  30.197  1.00  0.00     0.034 A 
ATOM     46  C   UNL A   1      45.512  27.735  26.822  1.00  0.00     0.034 A 
ATOM     47  C   UNL A   1      40.932  30.956  30.149  1.00  0.00     0.049 A 
ATOM     48  C   UNL A   1      45.437  29.128  27.393  1.00  0.00     0.074 A 
ATOM     49  C   UNL A   1      41.002  32.228  30.693  1.00  0.00     0.029 A 
ATOM     50  N   UNL A   1      42.145  30.724  29.521  1.00  0.00    -0.354 N 
ATOM     51  N   UNL A   1      44.481  29.681  28.102  1.00  0.00    -0.248 NA
ATOM     52  C   UNL A   1      46.592  30.008  27.159  1.00  0.00     0.031 C 
ATOM     53  C   UNL A   1      42.244  32.775  30.363  1.00  0.00     0.029 A 
ATOM     54  C   UNL A   1      42.966  31.830  29.651  1.00  0.00     0.049 A 
ATOM     55  H   UNL A   1      42.388  29.893  29.052  1.00  0.00     0.167 HD
ATOM     56  C   UNL A   1      44.932  30.958  28.425  1.00  0.00     0.074 A 
ATOM     57  C   UNL A   1      46.257  31.087  27.854  1.00  0.00     0.031 C 
ATOM     58  C   UNL A   1      44.301  31.938  29.117  1.00  0.00     0.034 A 
BRANCH  45  59
ATOM     59  C   UNL A   1      38.575  30.460  30.897  1.00  0.00     0.023 A 
ATOM     60  C   UNL A   1      38.426  30.231  32.280  1.00  0.00     0.012 A 
ATOM     61  C   UNL A   1      37.577  31.173  30.202  1.00  0.00     0.148 A 
ATOM     62  C   UNL A   1      37.295  30.686  32.956  1.00  0.00     0.002 A 
ATOM     63  C   UNL A   1      36.477  31.665  30.892  1.00  0.00     0.091 A 
ATOM     64  F   UNL A   1      37.727  31.358  28.883  1.00  0.00    -0.205 F 
ATOM     65  C   UNL A   1      36.329  31.415  32.267  1.00  0.00     0.022 A 
BRANCH  63  66
ATOM     66  S   UNL A   1      35.222  32.689  30.115  1.00  0.00     0.127 S 
ATOM     67  O   UNL A   1      34.711  31.793  29.079  1.00  0.00    -0.237 OA
ATOM     68  O   UNL A   1      34.296  32.930  31.222  1.00  0.00    -0.237 OA
ATOM     69  O   UNL A   1      35.912  33.874  29.627  1.00  0.00    -0.744 OA
ENDBRANCH  63  66
ENDBRANCH  45  59
BRANCH  46  70
ATOM     70  C   UNL A   1      46.712  27.284  26.062  1.00  0.00     0.023 A 
ATOM     71  C   UNL A   1      46.789  27.531  24.678  1.00  0.00     0.012 A 
ATOM     72  C   UNL A   1      47.791  26.649  26.708  1.00  0.00     0.148 A 
ATOM     73  C   UNL A   1      47.911  27.137  23.947  1.00  0.00     0.002 A 
ATOM     74  C   UNL A   1      48.930  26.314  25.985  1.00  0.00     0.091 A 
ATOM     75  F   UNL A   1      47.689  26.407  28.023  1.00  0.00    -0.205 F 
ATOM     76  C   UNL A   1      48.985  26.542  24.602  1.00  0.00     0.022 A 
BRANCH  74  77
ATOM     77  S   UNL A   1      50.414  25.670  26.766  1.00  0.00     0.127 S 
ATOM     78  O   UNL A   1      51.317  25.535  25.625  1.00  0.00    -0.237 OA
ATOM     79  O   UNL A   1      50.753  26.747  27.696  1.00  0.00    -0.237 OA
ATOM     80  O   UNL A   1      50.019  24.422  27.405  1.00  0.00    -0.744 OA
ENDBRANCH  74  77
ENDBRANCH  46  70
BRANCH  58  81
ATOM     81  C   UNL A   1      45.033  33.240  29.329  1.00  0.00     0.023 A 
ATOM     82  C   UNL A   1      45.789  33.439  30.502  1.00  0.00     0.012 A 
ATOM     83  C   UNL A   1      45.046  34.232  28.327  1.00  0.00     0.148 A 
ATOM     84  C   UNL A   1      46.512  34.615  30.691  1.00  0.00     0.002 A 
ATOM     85  C   UNL A   1      45.813  35.379  28.498  1.00  0.00     0.091 A 
ATOM     86  F   UNL A   1      44.311  34.036  27.222  1.00  0.00    -0.205 F 
ATOM     87  C   UNL A   1      46.536  35.578  29.685  1.00  0.00     0.022 A 
BRANCH  85  88
ATOM     88  S   UNL A   1      45.989  36.623  27.213  1.00  0.00     0.127 S 
ATOM     89  O   UNL A   1      45.924  35.809  26.000  1.00  0.00    -0.237 OA
ATOM     90  O   UNL A   1      44.818  37.472  27.441  1.00  0.00    -0.237 OA
ATOM     91  O   UNL A   1      47.266  37.277  27.461  1.00  0.00    -0.744 OA
ENDBRANCH  85  88
ENDBRANCH  58  81
ENDBRANCH  32  33
ENDBRANCH  25  27
ENDBRANCH  24  25
ENDBRANCH  23  24
ENDBRANCH   1  23
TORSDOF 19
ENDMDL
