MODEL 1
REMARK VINA RESULT:     -10.0      0.000      0.000
REMARK SMILES C[C@H](C[N@H+](C)[C@H]1CC[C@H]([NH3+])CC1)C(=O)OCCOCCOC(=O)c1ccc(-c2c3nc(c(-c4cccc(S(=O)(=O)[O-])c4F)c4ccc([nH]4)c(-c4cccc(S(=O)(=O)[O-])c4F)c4nc(c(-c5cccc(S(=O)(=O)[O-])c5F)c5ccc2[nH]5)C=C4)C=C3)cc1
REMARK SMILES IDX 17 1 16 2 15 3 13 4 14 5 2 6 1 7 3 8 4 9 5 10 6 12 7 13
REMARK SMILES IDX 12 14 8 15 11 16 9 17 10 18 18 22 19 23 20 24 21 25 22 26
REMARK SMILES IDX 23 27 24 28 25 29 86 30 26 31 85 32 27 33 28 34 29 35 79 36
REMARK SMILES IDX 30 37 84 38 78 39 80 40 31 41 83 42 77 43 76 44 32 46 64 47
REMARK SMILES IDX 44 48 63 49 45 50 48 51 62 52 81 53 46 54 47 55 61 57 82 58
REMARK SMILES IDX 49 59 33 60 34 61 42 62 35 63 37 64 43 65 36 66 38 67 39 68
REMARK SMILES IDX 40 69 41 70 65 71 66 72 74 73 67 74 69 75 75 76 68 77 70 78
REMARK SMILES IDX 71 79 72 80 73 81 50 82 51 83 59 84 52 85 54 86 60 87 53 88
REMARK SMILES IDX 55 89 56 90 57 91 58 92
REMARK H PARENT 4 11 10 19 10 20 10 21 80 45 48 56
REMARK Flexibility Score: inf
ROOT
ATOM      1  C   UNL A   1      33.446  20.278  25.253  1.00  0.00     0.202 C 
ENDROOT
BRANCH   1   2
ATOM      2  C   UNL A   1      32.166  21.111  25.191  1.00  0.00     0.261 C 
BRANCH   2   3
ATOM      3  O   UNL A   1      32.183  21.996  24.060  1.00  0.00    -0.463 OA
BRANCH   3   4
ATOM      4  C   UNL A   1      32.376  23.313  24.322  1.00  0.00     0.314 C 
ATOM      5  O   UNL A   1      32.946  23.743  25.321  1.00  0.00    -0.252 OA
BRANCH   4   6
ATOM      6  C   UNL A   1      31.877  24.237  23.211  1.00  0.00     0.151 C 
ATOM      7  C   UNL A   1      32.986  24.459  22.181  1.00  0.00     0.026 C 
BRANCH   6   8
ATOM      8  C   UNL A   1      31.051  25.482  23.642  1.00  0.00     0.277 C 
BRANCH   8   9
ATOM      9  N   UNL A   1      30.997  25.961  25.026  1.00  0.00    -0.334 N 
ATOM     10  C   UNL A   1      29.832  25.588  25.798  1.00  0.00     0.332 C 
ATOM     11  H   UNL A   1      31.650  25.330  25.491  1.00  0.00     0.348 HD
BRANCH   9  12
ATOM     12  C   UNL A   1      31.801  27.135  25.397  1.00  0.00     0.184 C 
ATOM     13  C   UNL A   1      33.102  27.314  24.576  1.00  0.00     0.071 C 
ATOM     14  C   UNL A   1      32.170  27.218  26.884  1.00  0.00     0.071 C 
ATOM     15  C   UNL A   1      33.848  28.611  24.928  1.00  0.00     0.071 C 
ATOM     16  C   UNL A   1      32.802  28.567  27.216  1.00  0.00     0.071 C 
ATOM     17  C   UNL A   1      34.099  28.753  26.434  1.00  0.00     0.181 C 
BRANCH  17  18
ATOM     18  N   UNL A   1      34.662  30.054  26.774  1.00  0.00    -0.355 N 
ATOM     19  H   UNL A   1      35.665  30.050  26.591  1.00  0.00     0.344 HD
ATOM     20  H   UNL A   1      34.497  30.247  27.763  1.00  0.00     0.344 HD
ATOM     21  H   UNL A   1      34.217  30.777  26.209  1.00  0.00     0.344 HD
ENDBRANCH  17  18
ENDBRANCH   9  12
ENDBRANCH   8   9
ENDBRANCH   6   8
ENDBRANCH   4   6
ENDBRANCH   3   4
ENDBRANCH   2   3
ENDBRANCH   1   2
BRANCH   1  22
ATOM     22  O   UNL A   1      34.593  20.832  24.608  1.00  0.00    -0.374 OA
BRANCH  22  23
ATOM     23  C   UNL A   1      35.706  21.183  25.429  1.00  0.00     0.202 C 
BRANCH  23  24
ATOM     24  C   UNL A   1      37.050  20.522  25.103  1.00  0.00     0.261 C 
BRANCH  24  25
ATOM     25  O   UNL A   1      38.150  21.449  25.087  1.00  0.00    -0.460 OA
BRANCH  25  26
ATOM     26  C   UNL A   1      39.127  21.184  25.982  1.00  0.00     0.338 C 
ATOM     27  O   UNL A   1      39.680  20.101  26.170  1.00  0.00    -0.246 OA
BRANCH  26  28
ATOM     28  C   UNL A   1      39.586  22.417  26.639  1.00  0.00     0.060 A 
ATOM     29  C   UNL A   1      39.027  23.630  26.216  1.00  0.00     0.016 A 
ATOM     30  C   UNL A   1      40.631  22.401  27.567  1.00  0.00     0.016 A 
ATOM     31  C   UNL A   1      39.548  24.837  26.675  1.00  0.00     0.010 A 
ATOM     32  C   UNL A   1      41.157  23.614  28.020  1.00  0.00     0.010 A 
ATOM     33  C   UNL A   1      40.647  24.836  27.543  1.00  0.00    -0.014 A 
BRANCH  33  34
ATOM     34  C   UNL A   1      41.352  26.104  27.848  1.00  0.00     0.031 A 
ATOM     35  C   UNL A   1      40.644  27.161  28.652  1.00  0.00     0.074 A 
ATOM     36  C   UNL A   1      42.597  26.323  27.391  1.00  0.00     0.049 A 
ATOM     37  N   UNL A   1      41.043  28.364  28.970  1.00  0.00    -0.248 NA
ATOM     38  C   UNL A   1      39.306  26.816  29.158  1.00  0.00     0.031 C 
ATOM     39  C   UNL A   1      43.384  25.376  26.605  1.00  0.00     0.029 A 
ATOM     40  N   UNL A   1      43.401  27.431  27.495  1.00  0.00    -0.354 N 
ATOM     41  C   UNL A   1      39.994  28.935  29.680  1.00  0.00     0.074 A 
ATOM     42  C   UNL A   1      38.938  27.947  29.743  1.00  0.00     0.031 C 
ATOM     43  C   UNL A   1      44.542  25.961  26.254  1.00  0.00     0.029 A 
ATOM     44  C   UNL A   1      44.563  27.330  26.767  1.00  0.00     0.049 A 
ATOM     45  H   UNL A   1      43.168  28.219  28.036  1.00  0.00     0.167 HD
ATOM     46  C   UNL A   1      39.920  30.166  30.241  1.00  0.00     0.034 A 
ATOM     47  C   UNL A   1      45.516  28.249  26.514  1.00  0.00     0.034 A 
ATOM     48  C   UNL A   1      40.981  31.135  30.201  1.00  0.00     0.049 A 
ATOM     49  C   UNL A   1      45.411  29.617  27.139  1.00  0.00     0.074 A 
ATOM     50  C   UNL A   1      41.031  32.380  30.801  1.00  0.00     0.029 A 
ATOM     51  N   UNL A   1      42.171  30.975  29.510  1.00  0.00    -0.354 N 
ATOM     52  N   UNL A   1      44.475  30.094  27.924  1.00  0.00    -0.248 NA
ATOM     53  C   UNL A   1      46.506  30.561  26.873  1.00  0.00     0.031 C 
ATOM     54  C   UNL A   1      42.242  32.986  30.449  1.00  0.00     0.029 A 
ATOM     55  C   UNL A   1      42.956  32.106  29.652  1.00  0.00     0.049 A 
ATOM     56  H   UNL A   1      42.422  30.174  28.995  1.00  0.00     0.167 HD
ATOM     57  C   UNL A   1      44.882  31.378  28.270  1.00  0.00     0.074 A 
ATOM     58  C   UNL A   1      46.158  31.600  27.621  1.00  0.00     0.031 C 
ATOM     59  C   UNL A   1      44.250  32.295  29.045  1.00  0.00     0.034 A 
BRANCH  46  60
ATOM     60  C   UNL A   1      38.651  30.528  30.966  1.00  0.00     0.023 A 
ATOM     61  C   UNL A   1      38.492  30.169  32.319  1.00  0.00     0.012 A 
ATOM     62  C   UNL A   1      37.637  31.265  30.323  1.00  0.00     0.148 A 
ATOM     63  C   UNL A   1      37.331  30.509  33.012  1.00  0.00     0.002 A 
ATOM     64  C   UNL A   1      36.502  31.637  31.031  1.00  0.00     0.091 A 
ATOM     65  F   UNL A   1      37.794  31.575  29.027  1.00  0.00    -0.205 F 
ATOM     66  C   UNL A   1      36.340  31.251  32.372  1.00  0.00     0.022 A 
BRANCH  64  67
ATOM     67  S   UNL A   1      35.209  32.655  30.310  1.00  0.00     0.127 S 
ATOM     68  O   UNL A   1      34.284  32.798  31.433  1.00  0.00    -0.237 OA
ATOM     69  O   UNL A   1      35.935  33.877  29.960  1.00  0.00    -0.237 OA
ATOM     70  O   UNL A   1      34.703  31.906  29.168  1.00  0.00    -0.744 OA
ENDBRANCH  64  67
ENDBRANCH  46  60
BRANCH  47  71
ATOM     71  C   UNL A   1      46.662  27.885  25.635  1.00  0.00     0.023 A 
ATOM     72  C   UNL A   1      46.563  28.064  24.243  1.00  0.00     0.012 A 
ATOM     73  C   UNL A   1      47.874  27.419  26.184  1.00  0.00     0.148 A 
ATOM     74  C   UNL A   1      47.644  27.767  23.412  1.00  0.00     0.002 A 
ATOM     75  C   UNL A   1      48.966  27.187  25.357  1.00  0.00     0.091 A 
ATOM     76  F   UNL A   1      47.944  27.230  27.510  1.00  0.00    -0.205 F 
ATOM     77  C   UNL A   1      48.849  27.343  23.968  1.00  0.00     0.022 A 
BRANCH  75  78
ATOM     78  S   UNL A   1      50.589  26.799  26.026  1.00  0.00     0.127 S 
ATOM     79  O   UNL A   1      50.407  25.425  26.483  1.00  0.00    -0.237 OA
ATOM     80  O   UNL A   1      51.454  26.950  24.857  1.00  0.00    -0.237 OA
ATOM     81  O   UNL A   1      50.827  27.800  27.061  1.00  0.00    -0.744 OA
ENDBRANCH  75  78
ENDBRANCH  47  71
BRANCH  59  82
ATOM     82  C   UNL A   1      44.930  33.621  29.270  1.00  0.00     0.023 A 
ATOM     83  C   UNL A   1      46.015  33.708  30.163  1.00  0.00     0.012 A 
ATOM     84  C   UNL A   1      44.560  34.754  28.517  1.00  0.00     0.148 A 
ATOM     85  C   UNL A   1      46.711  34.906  30.320  1.00  0.00     0.002 A 
ATOM     86  C   UNL A   1      45.287  35.933  28.645  1.00  0.00     0.091 A 
ATOM     87  F   UNL A   1      43.514  34.655  27.684  1.00  0.00    -0.205 F 
ATOM     88  C   UNL A   1      46.355  36.013  29.552  1.00  0.00     0.022 A 
BRANCH  86  89
ATOM     89  S   UNL A   1      44.965  37.380  27.629  1.00  0.00     0.127 S 
ATOM     90  O   UNL A   1      44.545  38.359  28.631  1.00  0.00    -0.237 OA
ATOM     91  O   UNL A   1      46.276  37.640  27.035  1.00  0.00    -0.237 OA
ATOM     92  O   UNL A   1      43.937  36.983  26.676  1.00  0.00    -0.744 OA
ENDBRANCH  86  89
ENDBRANCH  59  82
ENDBRANCH  33  34
ENDBRANCH  26  28
ENDBRANCH  25  26
ENDBRANCH  24  25
ENDBRANCH  23  24
ENDBRANCH  22  23
ENDBRANCH   1  22
TORSDOF 21
ENDMDL
MODEL 2
REMARK VINA RESULT:      -9.8      0.925      7.936
REMARK SMILES C[C@H](C[N@H+](C)[C@H]1CC[C@H]([NH3+])CC1)C(=O)OCCOCCOC(=O)c1ccc(-c2c3nc(c(-c4cccc(S(=O)(=O)[O-])c4F)c4ccc([nH]4)c(-c4cccc(S(=O)(=O)[O-])c4F)c4nc(c(-c5cccc(S(=O)(=O)[O-])c5F)c5ccc2[nH]5)C=C4)C=C3)cc1
REMARK SMILES IDX 17 1 16 2 15 3 13 4 14 5 2 6 1 7 3 8 4 9 5 10 6 12 7 13
REMARK SMILES IDX 12 14 8 15 11 16 9 17 10 18 18 22 19 23 20 24 21 25 22 26
REMARK SMILES IDX 23 27 24 28 25 29 86 30 26 31 85 32 27 33 28 34 29 35 79 36
REMARK SMILES IDX 30 37 84 38 78 39 80 40 31 41 83 42 77 43 76 44 32 46 64 47
REMARK SMILES IDX 44 48 63 49 45 50 48 51 62 52 81 53 46 54 47 55 61 57 82 58
REMARK SMILES IDX 49 59 33 60 34 61 42 62 35 63 37 64 43 65 36 66 38 67 39 68
REMARK SMILES IDX 40 69 41 70 65 71 66 72 74 73 67 74 69 75 75 76 68 77 70 78
REMARK SMILES IDX 71 79 72 80 73 81 50 82 51 83 59 84 52 85 54 86 60 87 53 88
REMARK SMILES IDX 55 89 56 90 57 91 58 92
REMARK H PARENT 4 11 10 19 10 20 10 21 80 45 48 56
REMARK Flexibility Score: inf
ROOT
ATOM      1  C   UNL A   1      34.819  20.495  24.976  1.00  0.00     0.202 C 
ENDROOT
BRANCH   1   2
ATOM      2  C   UNL A   1      33.618  21.433  24.842  1.00  0.00     0.261 C 
BRANCH   2   3
ATOM      3  O   UNL A   1      33.741  22.263  23.678  1.00  0.00    -0.463 OA
BRANCH   3   4
ATOM      4  C   UNL A   1      33.907  23.591  23.894  1.00  0.00     0.314 C 
ATOM      5  O   UNL A   1      34.929  24.095  24.355  1.00  0.00    -0.252 OA
BRANCH   4   6
ATOM      6  C   UNL A   1      32.720  24.439  23.438  1.00  0.00     0.151 C 
ATOM      7  C   UNL A   1      33.170  25.436  22.369  1.00  0.00     0.026 C 
BRANCH   6   8
ATOM      8  C   UNL A   1      31.762  24.970  24.543  1.00  0.00     0.277 C 
BRANCH   8   9
ATOM      9  N   UNL A   1      32.170  25.127  25.941  1.00  0.00    -0.334 N 
ATOM     10  C   UNL A   1      31.757  24.087  26.860  1.00  0.00     0.332 C 
ATOM     11  H   UNL A   1      33.154  24.862  25.903  1.00  0.00     0.348 HD
BRANCH   9  12
ATOM     12  C   UNL A   1      32.507  26.472  26.429  1.00  0.00     0.184 C 
ATOM     13  C   UNL A   1      31.373  27.517  26.283  1.00  0.00     0.071 C 
ATOM     14  C   UNL A   1      33.782  27.075  25.825  1.00  0.00     0.071 C 
ATOM     15  C   UNL A   1      31.738  28.874  26.906  1.00  0.00     0.071 C 
ATOM     16  C   UNL A   1      34.176  28.360  26.547  1.00  0.00     0.071 C 
ATOM     17  C   UNL A   1      33.080  29.412  26.396  1.00  0.00     0.181 C 
BRANCH  17  18
ATOM     18  N   UNL A   1      33.493  30.616  27.106  1.00  0.00    -0.355 N 
ATOM     19  H   UNL A   1      34.510  30.692  27.085  1.00  0.00     0.344 HD
ATOM     20  H   UNL A   1      33.175  30.565  28.075  1.00  0.00     0.344 HD
ATOM     21  H   UNL A   1      33.082  31.434  26.658  1.00  0.00     0.344 HD
ENDBRANCH  17  18
ENDBRANCH   9  12
ENDBRANCH   8   9
ENDBRANCH   6   8
ENDBRANCH   4   6
ENDBRANCH   3   4
ENDBRANCH   2   3
ENDBRANCH   1   2
BRANCH   1  22
ATOM     22  O   UNL A   1      36.015  20.904  24.313  1.00  0.00    -0.374 OA
BRANCH  22  23
ATOM     23  C   UNL A   1      37.152  21.196  25.126  1.00  0.00     0.202 C 
BRANCH  23  24
ATOM     24  C   UNL A   1      38.215  20.099  25.260  1.00  0.00     0.261 C 
BRANCH  24  25
ATOM     25  O   UNL A   1      39.554  20.615  25.356  1.00  0.00    -0.460 OA
BRANCH  25  26
ATOM     26  C   UNL A   1      40.089  20.573  26.596  1.00  0.00     0.338 C 
ATOM     27  O   UNL A   1      40.462  19.571  27.205  1.00  0.00    -0.246 OA
BRANCH  26  28
ATOM     28  C   UNL A   1      40.328  21.929  27.112  1.00  0.00     0.060 A 
ATOM     29  C   UNL A   1      39.635  22.988  26.510  1.00  0.00     0.016 A 
ATOM     30  C   UNL A   1      41.299  22.177  28.085  1.00  0.00     0.016 A 
ATOM     31  C   UNL A   1      39.952  24.305  26.836  1.00  0.00     0.010 A 
ATOM     32  C   UNL A   1      41.620  23.500  28.404  1.00  0.00     0.010 A 
ATOM     33  C   UNL A   1      40.979  24.568  27.750  1.00  0.00    -0.014 A 
BRANCH  33  34
ATOM     34  C   UNL A   1      41.479  25.953  27.925  1.00  0.00     0.031 A 
ATOM     35  C   UNL A   1      42.867  26.295  27.456  1.00  0.00     0.074 A 
ATOM     36  C   UNL A   1      40.716  26.887  28.518  1.00  0.00     0.049 A 
ATOM     37  N   UNL A   1      43.527  27.418  27.574  1.00  0.00    -0.248 NA
ATOM     38  C   UNL A   1      43.611  25.228  26.768  1.00  0.00     0.031 C 
ATOM     39  C   UNL A   1      39.357  26.676  29.012  1.00  0.00     0.029 A 
ATOM     40  N   UNL A   1      40.995  28.193  28.837  1.00  0.00    -0.354 N 
ATOM     41  C   UNL A   1      44.776  27.182  27.011  1.00  0.00     0.074 A 
ATOM     42  C   UNL A   1      44.783  25.809  26.555  1.00  0.00     0.031 C 
ATOM     43  C   UNL A   1      38.937  27.799  29.616  1.00  0.00     0.029 A 
ATOM     44  C   UNL A   1      40.006  28.796  29.577  1.00  0.00     0.049 A 
ATOM     45  H   UNL A   1      41.823  28.651  28.564  1.00  0.00     0.167 HD
ATOM     46  C   UNL A   1      45.818  28.036  26.875  1.00  0.00     0.034 A 
ATOM     47  C   UNL A   1      39.980  30.000  30.183  1.00  0.00     0.034 A 
ATOM     48  C   UNL A   1      45.799  29.408  27.304  1.00  0.00     0.049 A 
ATOM     49  C   UNL A   1      41.155  30.932  30.028  1.00  0.00     0.074 A 
ATOM     50  C   UNL A   1      46.776  30.373  27.143  1.00  0.00     0.029 A 
ATOM     51  N   UNL A   1      44.754  30.006  27.991  1.00  0.00    -0.354 N 
ATOM     52  N   UNL A   1      42.275  30.743  29.373  1.00  0.00    -0.248 NA
ATOM     53  C   UNL A   1      41.050  32.253  30.664  1.00  0.00     0.031 C 
ATOM     54  C   UNL A   1      46.335  31.548  27.761  1.00  0.00     0.029 A 
ATOM     55  C   UNL A   1      45.070  31.322  28.281  1.00  0.00     0.049 A 
ATOM     56  H   UNL A   1      43.912  29.560  28.236  1.00  0.00     0.167 HD
ATOM     57  C   UNL A   1      42.994  31.929  29.491  1.00  0.00     0.074 A 
ATOM     58  C   UNL A   1      42.175  32.836  30.268  1.00  0.00     0.031 C 
ATOM     59  C   UNL A   1      44.225  32.233  29.010  1.00  0.00     0.034 A 
BRANCH  46  60
ATOM     60  C   UNL A   1      47.067  27.514  26.215  1.00  0.00     0.023 A 
ATOM     61  C   UNL A   1      47.294  27.769  24.847  1.00  0.00     0.012 A 
ATOM     62  C   UNL A   1      48.038  26.814  26.957  1.00  0.00     0.148 A 
ATOM     63  C   UNL A   1      48.451  27.307  24.221  1.00  0.00     0.002 A 
ATOM     64  C   UNL A   1      49.208  26.394  26.337  1.00  0.00     0.091 A 
ATOM     65  F   UNL A   1      47.793  26.558  28.251  1.00  0.00    -0.205 F 
ATOM     66  C   UNL A   1      49.412  26.629  24.967  1.00  0.00     0.022 A 
BRANCH  64  67
ATOM     67  S   UNL A   1      50.533  25.578  27.235  1.00  0.00     0.127 S 
ATOM     68  O   UNL A   1      50.819  26.551  28.288  1.00  0.00    -0.237 OA
ATOM     69  O   UNL A   1      49.885  24.351  27.699  1.00  0.00    -0.237 OA
ATOM     70  O   UNL A   1      51.600  25.368  26.266  1.00  0.00    -0.744 OA
ENDBRANCH  64  67
ENDBRANCH  46  60
BRANCH  47  71
ATOM     71  C   UNL A   1      38.783  30.388  30.979  1.00  0.00     0.023 A 
ATOM     72  C   UNL A   1      38.732  30.100  32.355  1.00  0.00     0.012 A 
ATOM     73  C   UNL A   1      37.720  31.099  30.385  1.00  0.00     0.148 A 
ATOM     74  C   UNL A   1      37.635  30.496  33.121  1.00  0.00     0.002 A 
ATOM     75  C   UNL A   1      36.662  31.546  31.167  1.00  0.00     0.091 A 
ATOM     76  F   UNL A   1      37.773  31.344  29.068  1.00  0.00    -0.205 F 
ATOM     77  C   UNL A   1      36.608  31.231  32.532  1.00  0.00     0.022 A 
BRANCH  75  78
ATOM     78  S   UNL A   1      35.395  32.634  30.504  1.00  0.00     0.127 S 
ATOM     79  O   UNL A   1      34.893  31.860  29.373  1.00  0.00    -0.237 OA
ATOM     80  O   UNL A   1      34.468  32.757  31.628  1.00  0.00    -0.237 OA
ATOM     81  O   UNL A   1      36.087  33.878  30.180  1.00  0.00    -0.744 OA
ENDBRANCH  75  78
ENDBRANCH  47  71
BRANCH  59  82
ATOM     82  C   UNL A   1      44.768  33.614  29.276  1.00  0.00     0.023 A 
ATOM     83  C   UNL A   1      45.516  33.858  30.443  1.00  0.00     0.012 A 
ATOM     84  C   UNL A   1      44.626  34.638  28.318  1.00  0.00     0.148 A 
ATOM     85  C   UNL A   1      46.099  35.105  30.664  1.00  0.00     0.002 A 
ATOM     86  C   UNL A   1      45.247  35.865  28.523  1.00  0.00     0.091 A 
ATOM     87  F   UNL A   1      43.896  34.390  27.221  1.00  0.00    -0.205 F 
ATOM     88  C   UNL A   1      45.976  36.103  29.699  1.00  0.00     0.022 A 
BRANCH  86  89
ATOM     89  S   UNL A   1      45.225  37.176  27.294  1.00  0.00     0.127 S 
ATOM     90  O   UNL A   1      43.810  37.213  26.926  1.00  0.00    -0.237 OA
ATOM     91  O   UNL A   1      45.685  38.331  28.063  1.00  0.00    -0.237 OA
ATOM     92  O   UNL A   1      46.133  36.752  26.237  1.00  0.00    -0.744 OA
ENDBRANCH  86  89
ENDBRANCH  59  82
ENDBRANCH  33  34
ENDBRANCH  26  28
ENDBRANCH  25  26
ENDBRANCH  24  25
ENDBRANCH  23  24
ENDBRANCH  22  23
ENDBRANCH   1  22
TORSDOF 21
ENDMDL
MODEL 3
REMARK VINA RESULT:      -9.2      5.489      8.980
REMARK SMILES C[C@H](C[N@H+](C)[C@H]1CC[C@H]([NH3+])CC1)C(=O)OCCOCCOC(=O)c1ccc(-c2c3nc(c(-c4cccc(S(=O)(=O)[O-])c4F)c4ccc([nH]4)c(-c4cccc(S(=O)(=O)[O-])c4F)c4nc(c(-c5cccc(S(=O)(=O)[O-])c5F)c5ccc2[nH]5)C=C4)C=C3)cc1
REMARK SMILES IDX 17 1 16 2 15 3 13 4 14 5 2 6 1 7 3 8 4 9 5 10 6 12 7 13
REMARK SMILES IDX 12 14 8 15 11 16 9 17 10 18 18 22 19 23 20 24 21 25 22 26
REMARK SMILES IDX 23 27 24 28 25 29 86 30 26 31 85 32 27 33 28 34 29 35 79 36
REMARK SMILES IDX 30 37 84 38 78 39 80 40 31 41 83 42 77 43 76 44 32 46 64 47
REMARK SMILES IDX 44 48 63 49 45 50 48 51 62 52 81 53 46 54 47 55 61 57 82 58
REMARK SMILES IDX 49 59 33 60 34 61 42 62 35 63 37 64 43 65 36 66 38 67 39 68
REMARK SMILES IDX 40 69 41 70 65 71 66 72 74 73 67 74 69 75 75 76 68 77 70 78
REMARK SMILES IDX 71 79 72 80 73 81 50 82 51 83 59 84 52 85 54 86 60 87 53 88
REMARK SMILES IDX 55 89 56 90 57 91 58 92
REMARK H PARENT 4 11 10 19 10 20 10 21 80 45 48 56
REMARK Flexibility Score: inf
ROOT
ATOM      1  C   UNL A   1      34.116  29.107  27.241  1.00  0.00     0.202 C 
ENDROOT
BRANCH   1   2
ATOM      2  C   UNL A   1      33.909  28.028  26.178  1.00  0.00     0.261 C 
BRANCH   2   3
ATOM      3  O   UNL A   1      32.782  27.199  26.500  1.00  0.00    -0.463 OA
BRANCH   3   4
ATOM      4  C   UNL A   1      32.795  25.936  26.004  1.00  0.00     0.314 C 
ATOM      5  O   UNL A   1      33.680  25.487  25.282  1.00  0.00    -0.252 OA
BRANCH   4   6
ATOM      6  C   UNL A   1      31.627  25.077  26.488  1.00  0.00     0.151 C 
ATOM      7  C   UNL A   1      32.051  23.609  26.549  1.00  0.00     0.026 C 
BRANCH   6   8
ATOM      8  C   UNL A   1      30.224  25.385  25.890  1.00  0.00     0.277 C 
BRANCH   8   9
ATOM      9  N   UNL A   1      30.008  25.658  24.467  1.00  0.00    -0.334 N 
ATOM     10  C   UNL A   1      30.319  24.586  23.545  1.00  0.00     0.332 C 
ATOM     11  H   UNL A   1      28.994  25.583  24.391  1.00  0.00     0.348 HD
BRANCH   9  12
ATOM     12  C   UNL A   1      29.981  27.056  24.014  1.00  0.00     0.184 C 
ATOM     13  C   UNL A   1      28.635  27.511  23.398  1.00  0.00     0.071 C 
ATOM     14  C   UNL A   1      31.099  27.437  23.033  1.00  0.00     0.071 C 
ATOM     15  C   UNL A   1      28.625  29.007  23.041  1.00  0.00     0.071 C 
ATOM     16  C   UNL A   1      31.129  28.944  22.797  1.00  0.00     0.071 C 
ATOM     17  C   UNL A   1      29.819  29.410  22.168  1.00  0.00     0.181 C 
BRANCH  17  18
ATOM     18  N   UNL A   1      29.888  30.852  21.968  1.00  0.00    -0.355 N 
ATOM     19  H   UNL A   1      29.237  31.126  21.232  1.00  0.00     0.344 HD
ATOM     20  H   UNL A   1      30.838  31.112  21.697  1.00  0.00     0.344 HD
ATOM     21  H   UNL A   1      29.641  31.329  22.835  1.00  0.00     0.344 HD
ENDBRANCH  17  18
ENDBRANCH   9  12
ENDBRANCH   8   9
ENDBRANCH   6   8
ENDBRANCH   4   6
ENDBRANCH   3   4
ENDBRANCH   2   3
ENDBRANCH   1   2
BRANCH   1  22
ATOM     22  O   UNL A   1      33.203  30.205  27.212  1.00  0.00    -0.374 OA
BRANCH  22  23
ATOM     23  C   UNL A   1      33.725  31.503  27.494  1.00  0.00     0.202 C 
BRANCH  23  24
ATOM     24  C   UNL A   1      32.716  32.653  27.602  1.00  0.00     0.261 C 
BRANCH  24  25
ATOM     25  O   UNL A   1      33.336  33.951  27.619  1.00  0.00    -0.460 OA
BRANCH  25  26
ATOM     26  C   UNL A   1      33.370  34.545  28.832  1.00  0.00     0.338 C 
ATOM     27  O   UNL A   1      32.537  35.320  29.298  1.00  0.00    -0.246 OA
BRANCH  26  28
ATOM     28  C   UNL A   1      34.489  34.030  29.637  1.00  0.00     0.060 A 
ATOM     29  C   UNL A   1      35.787  34.204  29.139  1.00  0.00     0.016 A 
ATOM     30  C   UNL A   1      34.266  33.284  30.798  1.00  0.00     0.016 A 
ATOM     31  C   UNL A   1      36.865  33.584  29.768  1.00  0.00     0.010 A 
ATOM     32  C   UNL A   1      35.349  32.657  31.421  1.00  0.00     0.010 A 
ATOM     33  C   UNL A   1      36.645  32.769  30.885  1.00  0.00    -0.014 A 
BRANCH  33  34
ATOM     34  C   UNL A   1      37.743  31.924  31.412  1.00  0.00     0.031 A 
ATOM     35  C   UNL A   1      38.302  32.218  32.778  1.00  0.00     0.074 A 
ATOM     36  C   UNL A   1      38.255  30.925  30.673  1.00  0.00     0.049 A 
ATOM     37  N   UNL A   1      39.304  31.655  33.400  1.00  0.00    -0.248 NA
ATOM     38  C   UNL A   1      37.646  33.293  33.540  1.00  0.00     0.031 C 
ATOM     39  C   UNL A   1      37.797  30.545  29.338  1.00  0.00     0.029 A 
ATOM     40  N   UNL A   1      39.300  30.073  30.930  1.00  0.00    -0.354 N 
ATOM     41  C   UNL A   1      39.425  32.330  34.609  1.00  0.00     0.074 A 
ATOM     42  C   UNL A   1      38.396  33.347  34.631  1.00  0.00     0.031 C 
ATOM     43  C   UNL A   1      38.588  29.565  28.872  1.00  0.00     0.029 A 
ATOM     44  C   UNL A   1      39.624  29.271  29.862  1.00  0.00     0.049 A 
ATOM     45  H   UNL A   1      39.770  30.039  31.794  1.00  0.00     0.167 HD
ATOM     46  C   UNL A   1      40.306  32.115  35.616  1.00  0.00     0.034 A 
ATOM     47  C   UNL A   1      40.658  28.423  29.689  1.00  0.00     0.034 A 
ATOM     48  C   UNL A   1      41.309  31.086  35.603  1.00  0.00     0.049 A 
ATOM     49  C   UNL A   1      41.633  28.205  30.817  1.00  0.00     0.074 A 
ATOM     50  C   UNL A   1      42.199  30.741  36.604  1.00  0.00     0.029 A 
ATOM     51  N   UNL A   1      41.567  30.247  34.530  1.00  0.00    -0.354 N 
ATOM     52  N   UNL A   1      41.650  28.753  32.009  1.00  0.00    -0.248 NA
ATOM     53  C   UNL A   1      42.710  27.229  30.593  1.00  0.00     0.031 C 
ATOM     54  C   UNL A   1      43.016  29.710  36.125  1.00  0.00     0.029 A 
ATOM     55  C   UNL A   1      42.615  29.397  34.836  1.00  0.00     0.049 A 
ATOM     56  H   UNL A   1      41.076  30.255  33.677  1.00  0.00     0.167 HD
ATOM     57  C   UNL A   1      42.715  28.168  32.685  1.00  0.00     0.074 A 
ATOM     58  C   UNL A   1      43.311  27.211  31.776  1.00  0.00     0.031 C 
ATOM     59  C   UNL A   1      43.167  28.410  33.941  1.00  0.00     0.034 A 
BRANCH  46  60
ATOM     60  C   UNL A   1      40.209  33.001  36.830  1.00  0.00     0.023 A 
ATOM     61  C   UNL A   1      39.259  32.715  37.830  1.00  0.00     0.012 A 
ATOM     62  C   UNL A   1      41.090  34.086  37.003  1.00  0.00     0.148 A 
ATOM     63  C   UNL A   1      39.164  33.515  38.969  1.00  0.00     0.002 A 
ATOM     64  C   UNL A   1      41.018  34.853  38.159  1.00  0.00     0.091 A 
ATOM     65  F   UNL A   1      41.970  34.359  36.028  1.00  0.00    -0.205 F 
ATOM     66  C   UNL A   1      40.049  34.577  39.138  1.00  0.00     0.022 A 
BRANCH  64  67
ATOM     67  S   UNL A   1      42.165  36.194  38.497  1.00  0.00     0.127 S 
ATOM     68  O   UNL A   1      43.409  35.466  38.736  1.00  0.00    -0.237 OA
ATOM     69  O   UNL A   1      42.134  36.952  37.245  1.00  0.00    -0.237 OA
ATOM     70  O   UNL A   1      41.620  36.904  39.646  1.00  0.00    -0.744 OA
ENDBRANCH  64  67
ENDBRANCH  46  60
BRANCH  47  71
ATOM     71  C   UNL A   1      40.803  27.709  28.390  1.00  0.00     0.023 A 
ATOM     72  C   UNL A   1      41.435  28.345  27.306  1.00  0.00     0.012 A 
ATOM     73  C   UNL A   1      40.370  26.375  28.247  1.00  0.00     0.148 A 
ATOM     74  C   UNL A   1      41.616  27.672  26.097  1.00  0.00     0.002 A 
ATOM     75  C   UNL A   1      40.612  25.690  27.063  1.00  0.00     0.091 A 
ATOM     76  F   UNL A   1      39.748  25.791  29.282  1.00  0.00    -0.205 F 
ATOM     77  C   UNL A   1      41.218  26.342  25.979  1.00  0.00     0.022 A 
BRANCH  75  78
ATOM     78  S   UNL A   1      40.274  23.932  26.905  1.00  0.00     0.127 S 
ATOM     79  O   UNL A   1      38.833  23.921  26.669  1.00  0.00    -0.237 OA
ATOM     80  O   UNL A   1      41.091  23.558  25.752  1.00  0.00    -0.237 OA
ATOM     81  O   UNL A   1      40.728  23.339  28.159  1.00  0.00    -0.744 OA
ENDBRANCH  75  78
ENDBRANCH  47  71
BRANCH  59  82
ATOM     82  C   UNL A   1      44.347  27.615  34.436  1.00  0.00     0.023 A 
ATOM     83  C   UNL A   1      45.652  28.106  34.241  1.00  0.00     0.012 A 
ATOM     84  C   UNL A   1      44.155  26.436  35.185  1.00  0.00     0.148 A 
ATOM     85  C   UNL A   1      46.751  27.427  34.767  1.00  0.00     0.002 A 
ATOM     86  C   UNL A   1      45.252  25.789  35.745  1.00  0.00     0.091 A 
ATOM     87  F   UNL A   1      42.906  25.977  35.345  1.00  0.00    -0.205 F 
ATOM     88  C   UNL A   1      46.550  26.278  35.529  1.00  0.00     0.022 A 
BRANCH  86  89
ATOM     89  S   UNL A   1      45.083  24.359  36.820  1.00  0.00     0.127 S 
ATOM     90  O   UNL A   1      44.197  24.876  37.863  1.00  0.00    -0.237 OA
ATOM     91  O   UNL A   1      44.468  23.373  35.932  1.00  0.00    -0.237 OA
ATOM     92  O   UNL A   1      46.431  24.023  37.258  1.00  0.00    -0.744 OA
ENDBRANCH  86  89
ENDBRANCH  59  82
ENDBRANCH  33  34
ENDBRANCH  26  28
ENDBRANCH  25  26
ENDBRANCH  24  25
ENDBRANCH  23  24
ENDBRANCH  22  23
ENDBRANCH   1  22
TORSDOF 21
ENDMDL
