MODEL 1
REMARK VINA RESULT:     -12.0      0.000      0.000
REMARK SMILES Nn1c(S[C@@H](C(=O)OCCOCCOC(=O)c2ccc(-c3c4nc(c(-c5cccc(S(=O)(=O)[O-])c5F)c5ccc([nH]5)c(-c5cccc(S(=O)(=O)[O-])c5F)c5nc(c(-c6cccc(S(=O)(=O)[O-])c6F)c6ccc3[nH]6)C=C5)C=C4)cc2)c2ccccc2)nc2ccc(Br)cc2c1=O
REMARK SMILES IDX 11 1 10 2 9 3 8 4 6 5 7 6 5 7 4 8 3 9 2 10 94 11 86 12 93 13
REMARK SMILES IDX 95 14 87 15 92 16 88 17 90 18 89 19 91 20 1 21 80 24 81 25
REMARK SMILES IDX 85 26 82 27 84 28 83 29 12 30 13 31 14 32 15 33 16 34 17 35
REMARK SMILES IDX 18 36 79 37 19 38 78 39 20 40 21 41 22 42 72 43 23 44 77 45
REMARK SMILES IDX 71 46 73 47 24 48 76 49 70 50 69 51 25 53 57 54 37 55 56 56
REMARK SMILES IDX 38 57 41 58 55 59 74 60 39 61 40 62 54 64 75 65 42 66 26 67
REMARK SMILES IDX 27 68 35 69 28 70 30 71 36 72 29 73 31 74 32 75 33 76 34 77
REMARK SMILES IDX 58 78 59 79 67 80 60 81 62 82 68 83 61 84 63 85 64 86 65 87
REMARK SMILES IDX 66 88 43 89 44 90 52 91 45 92 47 93 53 94 46 95 48 96 49 97
REMARK SMILES IDX 50 98 51 99
REMARK H PARENT 1 22 1 23 73 52 41 63
REMARK Flexibility Score: inf
ROOT
ATOM      1  O   UNL A   1      33.765  28.680  25.312  1.00  0.00    -0.374 OA
ENDROOT
BRANCH   1   2
ATOM      2  C   UNL A   1      33.440  27.306  25.113  1.00  0.00     0.202 C 
BRANCH   2   3
ATOM      3  C   UNL A   1      32.498  26.623  26.118  1.00  0.00     0.261 C 
BRANCH   3   4
ATOM      4  O   UNL A   1      31.105  27.005  26.004  1.00  0.00    -0.462 OA
BRANCH   4   5
ATOM      5  C   UNL A   1      30.261  25.992  25.652  1.00  0.00     0.324 C 
ATOM      6  O   UNL A   1      29.801  25.203  26.479  1.00  0.00    -0.251 OA
BRANCH   5   7
ATOM      7  C   UNL A   1      29.909  25.872  24.157  1.00  0.00     0.194 C 
BRANCH   7   8
ATOM      8  S   UNL A   1      30.948  24.799  23.145  1.00  0.00    -0.066 SA
BRANCH   8   9
ATOM      9  C   UNL A   1      32.086  23.717  23.921  1.00  0.00     0.191 A 
ATOM     10  N   UNL A   1      31.791  22.693  24.825  1.00  0.00    -0.202 N 
ATOM     11  C   UNL A   1      32.735  21.725  25.191  1.00  0.00     0.280 A 
ATOM     12  N   UNL A   1      33.309  23.918  23.522  1.00  0.00    -0.222 NA
ATOM     13  C   UNL A   1      34.098  21.926  24.703  1.00  0.00     0.069 A 
ATOM     14  O   UNL A   1      32.456  20.737  25.870  1.00  0.00    -0.267 OA
ATOM     15  C   UNL A   1      34.340  23.069  23.949  1.00  0.00     0.079 A 
ATOM     16  C   UNL A   1      35.106  21.006  25.010  1.00  0.00     0.031 A 
ATOM     17  C   UNL A   1      35.657  23.327  23.558  1.00  0.00     0.030 A 
ATOM     18  C   UNL A   1      36.404  21.270  24.594  1.00  0.00     0.018 A 
ATOM     19  C   UNL A   1      36.689  22.437  23.887  1.00  0.00     0.018 A 
ATOM     20  Br  UNL A   1      37.783  20.044  25.001  1.00  0.00    -0.051 Br
BRANCH  10  21
ATOM     21  N   UNL A   1      30.560  22.541  25.456  1.00  0.00    -0.334 N 
ATOM     22  H   UNL A   1      29.998  21.758  25.260  1.00  0.00     0.178 HD
ATOM     23  H   UNL A   1      30.251  23.219  26.100  1.00  0.00     0.178 HD
ENDBRANCH  10  21
ENDBRANCH   8   9
ENDBRANCH   7   8
BRANCH   7  24
ATOM     24  C   UNL A   1      29.337  27.131  23.505  1.00  0.00    -0.023 A 
ATOM     25  C   UNL A   1      27.963  27.453  23.554  1.00  0.00     0.005 A 
ATOM     26  C   UNL A   1      30.205  28.054  22.892  1.00  0.00     0.005 A 
ATOM     27  C   UNL A   1      27.504  28.702  23.132  1.00  0.00     0.000 A 
ATOM     28  C   UNL A   1      29.741  29.300  22.467  1.00  0.00     0.000 A 
ATOM     29  C   UNL A   1      28.397  29.635  22.613  1.00  0.00     0.000 A 
ENDBRANCH   7  24
ENDBRANCH   5   7
ENDBRANCH   4   5
ENDBRANCH   3   4
ENDBRANCH   2   3
ENDBRANCH   1   2
BRANCH   1  30
ATOM     30  C   UNL A   1      32.842  29.642  24.827  1.00  0.00     0.202 C 
BRANCH  30  31
ATOM     31  C   UNL A   1      31.982  30.419  25.829  1.00  0.00     0.261 C 
BRANCH  31  32
ATOM     32  O   UNL A   1      32.527  30.522  27.136  1.00  0.00    -0.460 OA
BRANCH  32  33
ATOM     33  C   UNL A   1      33.257  31.642  27.338  1.00  0.00     0.338 C 
ATOM     34  O   UNL A   1      32.896  32.803  27.234  1.00  0.00    -0.246 OA
BRANCH  33  35
ATOM     35  C   UNL A   1      34.546  31.223  27.888  1.00  0.00     0.060 A 
ATOM     36  C   UNL A   1      35.576  32.148  28.067  1.00  0.00     0.016 A 
ATOM     37  C   UNL A   1      34.709  29.871  28.204  1.00  0.00     0.016 A 
ATOM     38  C   UNL A   1      36.785  31.710  28.598  1.00  0.00     0.010 A 
ATOM     39  C   UNL A   1      35.917  29.438  28.732  1.00  0.00     0.010 A 
ATOM     40  C   UNL A   1      36.950  30.359  28.952  1.00  0.00    -0.014 A 
BRANCH  40  41
ATOM     41  C   UNL A   1      38.146  29.930  29.701  1.00  0.00     0.031 A 
ATOM     42  C   UNL A   1      38.452  30.475  31.058  1.00  0.00     0.074 A 
ATOM     43  C   UNL A   1      38.994  29.086  29.083  1.00  0.00     0.049 A 
ATOM     44  N   UNL A   1      39.462  30.198  31.837  1.00  0.00    -0.248 NA
ATOM     45  C   UNL A   1      37.513  31.464  31.613  1.00  0.00     0.031 C 
ATOM     46  C   UNL A   1      38.809  28.558  27.727  1.00  0.00     0.029 A 
ATOM     47  N   UNL A   1      40.176  28.537  29.498  1.00  0.00    -0.354 N 
ATOM     48  C   UNL A   1      39.296  30.985  32.968  1.00  0.00     0.074 A 
ATOM     49  C   UNL A   1      38.093  31.764  32.770  1.00  0.00     0.031 C 
ATOM     50  C   UNL A   1      39.837  27.751  27.428  1.00  0.00     0.029 A 
ATOM     51  C   UNL A   1      40.762  27.727  28.555  1.00  0.00     0.049 A 
ATOM     52  H   UNL A   1      40.569  28.706  30.385  1.00  0.00     0.167 HD
ATOM     53  C   UNL A   1      40.073  31.031  34.074  1.00  0.00     0.034 A 
ATOM     54  C   UNL A   1      41.920  27.042  28.593  1.00  0.00     0.034 A 
ATOM     55  C   UNL A   1      41.259  30.238  34.255  1.00  0.00     0.049 A 
ATOM     56  C   UNL A   1      42.754  27.102  29.837  1.00  0.00     0.074 A 
ATOM     57  C   UNL A   1      42.076  30.162  35.368  1.00  0.00     0.029 A 
ATOM     58  N   UNL A   1      41.804  29.397  33.297  1.00  0.00    -0.354 N 
ATOM     59  N   UNL A   1      42.514  27.750  30.950  1.00  0.00    -0.248 NA
ATOM     60  C   UNL A   1      44.000  26.325  29.844  1.00  0.00     0.031 C 
ATOM     61  C   UNL A   1      43.131  29.294  35.073  1.00  0.00     0.029 A 
ATOM     62  C   UNL A   1      42.955  28.809  33.786  1.00  0.00     0.049 A 
ATOM     63  H   UNL A   1      41.428  29.243  32.399  1.00  0.00     0.167 HD
ATOM     64  C   UNL A   1      43.568  27.449  31.800  1.00  0.00     0.074 A 
ATOM     65  C   UNL A   1      44.443  26.546  31.077  1.00  0.00     0.031 C 
ATOM     66  C   UNL A   1      43.794  27.888  33.061  1.00  0.00     0.034 A 
BRANCH  53  67
ATOM     67  C   UNL A   1      39.649  31.927  35.203  1.00  0.00     0.023 A 
ATOM     68  C   UNL A   1      39.940  33.304  35.134  1.00  0.00     0.012 A 
ATOM     69  C   UNL A   1      38.874  31.433  36.270  1.00  0.00     0.148 A 
ATOM     70  C   UNL A   1      39.470  34.176  36.115  1.00  0.00     0.002 A 
ATOM     71  C   UNL A   1      38.386  32.312  37.229  1.00  0.00     0.091 A 
ATOM     72  F   UNL A   1      38.621  30.117  36.318  1.00  0.00    -0.205 F 
ATOM     73  C   UNL A   1      38.686  33.683  37.154  1.00  0.00     0.022 A 
BRANCH  71  74
ATOM     74  S   UNL A   1      37.331  31.789  38.585  1.00  0.00     0.127 S 
ATOM     75  O   UNL A   1      36.214  32.725  38.465  1.00  0.00    -0.237 OA
ATOM     76  O   UNL A   1      37.016  30.411  38.212  1.00  0.00    -0.237 OA
ATOM     77  O   UNL A   1      38.128  31.932  39.796  1.00  0.00    -0.744 OA
ENDBRANCH  71  74
ENDBRANCH  53  67
BRANCH  54  78
ATOM     78  C   UNL A   1      42.293  26.196  27.430  1.00  0.00     0.023 A 
ATOM     79  C   UNL A   1      43.134  26.731  26.436  1.00  0.00     0.012 A 
ATOM     80  C   UNL A   1      41.916  24.842  27.365  1.00  0.00     0.148 A 
ATOM     81  C   UNL A   1      43.591  25.929  25.391  1.00  0.00     0.002 A 
ATOM     82  C   UNL A   1      42.404  24.040  26.341  1.00  0.00     0.091 A 
ATOM     83  F   UNL A   1      41.126  24.359  28.333  1.00  0.00    -0.205 F 
ATOM     84  C   UNL A   1      43.236  24.583  25.349  1.00  0.00     0.022 A 
BRANCH  82  85
ATOM     85  S   UNL A   1      42.081  22.275  26.251  1.00  0.00     0.127 S 
ATOM     86  O   UNL A   1      42.599  21.814  27.538  1.00  0.00    -0.237 OA
ATOM     87  O   UNL A   1      40.624  22.245  26.126  1.00  0.00    -0.237 OA
ATOM     88  O   UNL A   1      42.804  21.797  25.081  1.00  0.00    -0.744 OA
ENDBRANCH  82  85
ENDBRANCH  54  78
BRANCH  66  89
ATOM     89  C   UNL A   1      45.031  27.406  33.764  1.00  0.00     0.023 A 
ATOM     90  C   UNL A   1      46.214  28.164  33.677  1.00  0.00     0.012 A 
ATOM     91  C   UNL A   1      44.977  26.289  34.620  1.00  0.00     0.148 A 
ATOM     92  C   UNL A   1      47.330  27.815  34.436  1.00  0.00     0.002 A 
ATOM     93  C   UNL A   1      46.081  25.968  35.398  1.00  0.00     0.091 A 
ATOM     94  F   UNL A   1      43.837  25.586  34.678  1.00  0.00    -0.205 F 
ATOM     95  C   UNL A   1      47.259  26.729  35.305  1.00  0.00     0.022 A 
BRANCH  93  96
ATOM     96  S   UNL A   1      46.065  24.633  36.599  1.00  0.00     0.127 S 
ATOM     97  O   UNL A   1      47.434  24.680  37.113  1.00  0.00    -0.237 OA
ATOM     98  O   UNL A   1      45.042  25.080  37.543  1.00  0.00    -0.237 OA
ATOM     99  O   UNL A   1      45.728  23.424  35.858  1.00  0.00    -0.744 OA
ENDBRANCH  93  96
ENDBRANCH  66  89
ENDBRANCH  40  41
ENDBRANCH  33  35
ENDBRANCH  32  33
ENDBRANCH  31  32
ENDBRANCH  30  31
ENDBRANCH   1  30
TORSDOF 21
ENDMDL
MODEL 2
REMARK VINA RESULT:     -11.8      5.057      7.371
REMARK SMILES Nn1c(S[C@@H](C(=O)OCCOCCOC(=O)c2ccc(-c3c4nc(c(-c5cccc(S(=O)(=O)[O-])c5F)c5ccc([nH]5)c(-c5cccc(S(=O)(=O)[O-])c5F)c5nc(c(-c6cccc(S(=O)(=O)[O-])c6F)c6ccc3[nH]6)C=C5)C=C4)cc2)c2ccccc2)nc2ccc(Br)cc2c1=O
REMARK SMILES IDX 11 1 10 2 9 3 8 4 6 5 7 6 5 7 4 8 3 9 2 10 94 11 86 12 93 13
REMARK SMILES IDX 95 14 87 15 92 16 88 17 90 18 89 19 91 20 1 21 80 24 81 25
REMARK SMILES IDX 85 26 82 27 84 28 83 29 12 30 13 31 14 32 15 33 16 34 17 35
REMARK SMILES IDX 18 36 79 37 19 38 78 39 20 40 21 41 22 42 72 43 23 44 77 45
REMARK SMILES IDX 71 46 73 47 24 48 76 49 70 50 69 51 25 53 57 54 37 55 56 56
REMARK SMILES IDX 38 57 41 58 55 59 74 60 39 61 40 62 54 64 75 65 42 66 26 67
REMARK SMILES IDX 27 68 35 69 28 70 30 71 36 72 29 73 31 74 32 75 33 76 34 77
REMARK SMILES IDX 58 78 59 79 67 80 60 81 62 82 68 83 61 84 63 85 64 86 65 87
REMARK SMILES IDX 66 88 43 89 44 90 52 91 45 92 47 93 53 94 46 95 48 96 49 97
REMARK SMILES IDX 50 98 51 99
REMARK H PARENT 1 22 1 23 73 52 41 63
REMARK Flexibility Score: inf
ROOT
ATOM      1  O   UNL A   1      35.614  21.453  25.573  1.00  0.00    -0.374 OA
ENDROOT
BRANCH   1   2
ATOM      2  C   UNL A   1      35.308  22.512  24.668  1.00  0.00     0.202 C 
BRANCH   2   3
ATOM      3  C   UNL A   1      35.601  23.957  25.105  1.00  0.00     0.261 C 
BRANCH   3   4
ATOM      4  O   UNL A   1      34.546  24.589  25.871  1.00  0.00    -0.462 OA
BRANCH   4   5
ATOM      5  C   UNL A   1      33.737  25.421  25.152  1.00  0.00     0.324 C 
ATOM      6  O   UNL A   1      34.110  25.957  24.107  1.00  0.00    -0.251 OA
BRANCH   5   7
ATOM      7  C   UNL A   1      32.324  25.667  25.711  1.00  0.00     0.194 C 
BRANCH   7   8
ATOM      8  S   UNL A   1      31.259  24.226  25.934  1.00  0.00    -0.066 SA
BRANCH   8   9
ATOM      9  C   UNL A   1      31.562  22.777  24.998  1.00  0.00     0.191 A 
ATOM     10  N   UNL A   1      31.535  22.652  23.607  1.00  0.00    -0.202 N 
ATOM     11  C   UNL A   1      32.037  21.523  22.948  1.00  0.00     0.280 A 
ATOM     12  N   UNL A   1      31.892  21.765  25.748  1.00  0.00    -0.222 NA
ATOM     13  C   UNL A   1      32.452  20.406  23.792  1.00  0.00     0.069 A 
ATOM     14  O   UNL A   1      32.153  21.455  21.724  1.00  0.00    -0.267 OA
ATOM     15  C   UNL A   1      32.282  20.551  25.166  1.00  0.00     0.079 A 
ATOM     16  C   UNL A   1      32.975  19.240  23.223  1.00  0.00     0.031 A 
ATOM     17  C   UNL A   1      32.582  19.455  25.981  1.00  0.00     0.030 A 
ATOM     18  C   UNL A   1      33.286  18.171  24.053  1.00  0.00     0.018 A 
ATOM     19  C   UNL A   1      33.073  18.264  25.428  1.00  0.00     0.018 A 
ATOM     20  Br  UNL A   1      33.989  16.583  23.306  1.00  0.00    -0.051 Br
BRANCH  10  21
ATOM     21  N   UNL A   1      31.000  23.609  22.749  1.00  0.00    -0.334 N 
ATOM     22  H   UNL A   1      30.110  23.989  22.929  1.00  0.00     0.178 HD
ATOM     23  H   UNL A   1      31.512  23.906  21.962  1.00  0.00     0.178 HD
ENDBRANCH  10  21
ENDBRANCH   8   9
ENDBRANCH   7   8
BRANCH   7  24
ATOM     24  C   UNL A   1      31.664  26.983  25.301  1.00  0.00    -0.023 A 
ATOM     25  C   UNL A   1      32.048  28.227  25.849  1.00  0.00     0.005 A 
ATOM     26  C   UNL A   1      30.687  26.987  24.289  1.00  0.00     0.005 A 
ATOM     27  C   UNL A   1      31.576  29.425  25.308  1.00  0.00     0.000 A 
ATOM     28  C   UNL A   1      30.214  28.186  23.754  1.00  0.00     0.000 A 
ATOM     29  C   UNL A   1      30.679  29.404  24.244  1.00  0.00     0.000 A 
ENDBRANCH   7  24
ENDBRANCH   5   7
ENDBRANCH   4   5
ENDBRANCH   3   4
ENDBRANCH   2   3
ENDBRANCH   1   2
BRANCH   1  30
ATOM     30  C   UNL A   1      36.155  20.264  25.019  1.00  0.00     0.202 C 
BRANCH  30  31
ATOM     31  C   UNL A   1      37.676  20.080  24.995  1.00  0.00     0.261 C 
BRANCH  31  32
ATOM     32  O   UNL A   1      38.427  21.233  25.344  1.00  0.00    -0.460 OA
BRANCH  32  33
ATOM     33  C   UNL A   1      39.500  20.970  26.125  1.00  0.00     0.338 C 
ATOM     34  O   UNL A   1      40.068  19.903  26.286  1.00  0.00    -0.246 OA
BRANCH  33  35
ATOM     35  C   UNL A   1      39.990  22.253  26.628  1.00  0.00     0.060 A 
ATOM     36  C   UNL A   1      41.000  22.299  27.592  1.00  0.00     0.016 A 
ATOM     37  C   UNL A   1      39.399  23.417  26.127  1.00  0.00     0.016 A 
ATOM     38  C   UNL A   1      41.441  23.540  28.041  1.00  0.00     0.010 A 
ATOM     39  C   UNL A   1      39.842  24.652  26.579  1.00  0.00     0.010 A 
ATOM     40  C   UNL A   1      40.879  24.718  27.519  1.00  0.00    -0.014 A 
BRANCH  40  41
ATOM     41  C   UNL A   1      41.479  26.028  27.835  1.00  0.00     0.031 A 
ATOM     42  C   UNL A   1      40.705  27.084  28.557  1.00  0.00     0.074 A 
ATOM     43  C   UNL A   1      42.723  26.266  27.380  1.00  0.00     0.049 A 
ATOM     44  N   UNL A   1      41.092  28.281  28.903  1.00  0.00    -0.248 NA
ATOM     45  C   UNL A   1      39.318  26.763  28.933  1.00  0.00     0.031 C 
ATOM     46  C   UNL A   1      43.526  25.316  26.603  1.00  0.00     0.029 A 
ATOM     47  N   UNL A   1      43.522  27.371  27.487  1.00  0.00    -0.354 N 
ATOM     48  C   UNL A   1      39.998  28.869  29.524  1.00  0.00     0.074 A 
ATOM     49  C   UNL A   1      38.923  27.900  29.495  1.00  0.00     0.031 C 
ATOM     50  C   UNL A   1      44.710  25.876  26.315  1.00  0.00     0.029 A 
ATOM     51  C   UNL A   1      44.737  27.229  26.860  1.00  0.00     0.049 A 
ATOM     52  H   UNL A   1      43.254  28.189  27.966  1.00  0.00     0.167 HD
ATOM     53  C   UNL A   1      39.915  30.098  30.080  1.00  0.00     0.034 A 
ATOM     54  C   UNL A   1      45.760  28.094  26.736  1.00  0.00     0.034 A 
ATOM     55  C   UNL A   1      41.001  31.041  30.107  1.00  0.00     0.049 A 
ATOM     56  C   UNL A   1      45.645  29.445  27.374  1.00  0.00     0.074 A 
ATOM     57  C   UNL A   1      41.038  32.287  30.708  1.00  0.00     0.029 A 
ATOM     58  N   UNL A   1      42.231  30.851  29.498  1.00  0.00    -0.354 N 
ATOM     59  N   UNL A   1      44.650  29.936  28.072  1.00  0.00    -0.248 NA
ATOM     60  C   UNL A   1      46.791  30.351  27.232  1.00  0.00     0.031 C 
ATOM     61  C   UNL A   1      42.283  32.861  30.440  1.00  0.00     0.029 A 
ATOM     62  C   UNL A   1      43.031  31.961  29.695  1.00  0.00     0.049 A 
ATOM     63  H   UNL A   1      42.497  30.045  28.998  1.00  0.00     0.167 HD
ATOM     64  C   UNL A   1      45.054  31.203  28.468  1.00  0.00     0.074 A 
ATOM     65  C   UNL A   1      46.392  31.399  27.944  1.00  0.00     0.031 C 
ATOM     66  C   UNL A   1      44.372  32.123  29.192  1.00  0.00     0.034 A 
BRANCH  53  67
ATOM     67  C   UNL A   1      38.630  30.489  30.753  1.00  0.00     0.023 A 
ATOM     68  C   UNL A   1      38.480  30.258  32.135  1.00  0.00     0.012 A 
ATOM     69  C   UNL A   1      37.622  31.177  30.050  1.00  0.00     0.148 A 
ATOM     70  C   UNL A   1      37.342  30.702  32.808  1.00  0.00     0.002 A 
ATOM     71  C   UNL A   1      36.504  31.640  30.732  1.00  0.00     0.091 A 
ATOM     72  F   UNL A   1      37.784  31.373  28.734  1.00  0.00    -0.205 F 
ATOM     73  C   UNL A   1      36.362  31.401  32.110  1.00  0.00     0.022 A 
BRANCH  71  74
ATOM     74  S   UNL A   1      35.201  32.589  29.939  1.00  0.00     0.127 S 
ATOM     75  O   UNL A   1      34.230  32.717  31.024  1.00  0.00    -0.237 OA
ATOM     76  O   UNL A   1      35.895  33.828  29.591  1.00  0.00    -0.237 OA
ATOM     77  O   UNL A   1      34.757  31.794  28.803  1.00  0.00    -0.744 OA
ENDBRANCH  71  74
ENDBRANCH  53  67
BRANCH  54  78
ATOM     78  C   UNL A   1      46.993  27.653  26.034  1.00  0.00     0.023 A 
ATOM     79  C   UNL A   1      47.942  26.884  26.733  1.00  0.00     0.012 A 
ATOM     80  C   UNL A   1      47.171  27.893  24.658  1.00  0.00     0.148 A 
ATOM     81  C   UNL A   1      49.053  26.362  26.073  1.00  0.00     0.002 A 
ATOM     82  C   UNL A   1      48.263  27.340  24.000  1.00  0.00     0.091 A 
ATOM     83  F   UNL A   1      46.244  28.617  24.017  1.00  0.00    -0.205 F 
ATOM     84  C   UNL A   1      49.209  26.580  24.706  1.00  0.00     0.022 A 
BRANCH  82  85
ATOM     85  S   UNL A   1      48.501  27.483  22.225  1.00  0.00     0.127 S 
ATOM     86  O   UNL A   1      47.272  28.162  21.815  1.00  0.00    -0.237 OA
ATOM     87  O   UNL A   1      49.711  28.301  22.152  1.00  0.00    -0.237 OA
ATOM     88  O   UNL A   1      48.655  26.121  21.732  1.00  0.00    -0.744 OA
ENDBRANCH  82  85
ENDBRANCH  54  78
BRANCH  66  89
ATOM     89  C   UNL A   1      45.047  33.434  29.479  1.00  0.00     0.023 A 
ATOM     90  C   UNL A   1      45.948  33.525  30.558  1.00  0.00     0.012 A 
ATOM     91  C   UNL A   1      44.898  34.522  28.598  1.00  0.00     0.148 A 
ATOM     92  C   UNL A   1      46.693  34.687  30.755  1.00  0.00     0.002 A 
ATOM     93  C   UNL A   1      45.668  35.662  28.781  1.00  0.00     0.091 A 
ATOM     94  F   UNL A   1      44.029  34.405  27.583  1.00  0.00    -0.205 F 
ATOM     95  C   UNL A   1      46.563  35.747  29.861  1.00  0.00     0.022 A 
BRANCH  93  96
ATOM     96  S   UNL A   1      45.627  37.052  27.644  1.00  0.00     0.127 S 
ATOM     97  O   UNL A   1      46.223  36.470  26.442  1.00  0.00    -0.237 OA
ATOM     98  O   UNL A   1      44.193  37.325  27.544  1.00  0.00    -0.237 OA
ATOM     99  O   UNL A   1      46.409  38.110  28.268  1.00  0.00    -0.744 OA
ENDBRANCH  93  96
ENDBRANCH  66  89
ENDBRANCH  40  41
ENDBRANCH  33  35
ENDBRANCH  32  33
ENDBRANCH  31  32
ENDBRANCH  30  31
ENDBRANCH   1  30
TORSDOF 21
ENDMDL
MODEL 3
REMARK VINA RESULT:     -11.6      5.048      9.672
REMARK SMILES Nn1c(S[C@@H](C(=O)OCCOCCOC(=O)c2ccc(-c3c4nc(c(-c5cccc(S(=O)(=O)[O-])c5F)c5ccc([nH]5)c(-c5cccc(S(=O)(=O)[O-])c5F)c5nc(c(-c6cccc(S(=O)(=O)[O-])c6F)c6ccc3[nH]6)C=C5)C=C4)cc2)c2ccccc2)nc2ccc(Br)cc2c1=O
REMARK SMILES IDX 11 1 10 2 9 3 8 4 6 5 7 6 5 7 4 8 3 9 2 10 94 11 86 12 93 13
REMARK SMILES IDX 95 14 87 15 92 16 88 17 90 18 89 19 91 20 1 21 80 24 81 25
REMARK SMILES IDX 85 26 82 27 84 28 83 29 12 30 13 31 14 32 15 33 16 34 17 35
REMARK SMILES IDX 18 36 79 37 19 38 78 39 20 40 21 41 22 42 72 43 23 44 77 45
REMARK SMILES IDX 71 46 73 47 24 48 76 49 70 50 69 51 25 53 57 54 37 55 56 56
REMARK SMILES IDX 38 57 41 58 55 59 74 60 39 61 40 62 54 64 75 65 42 66 26 67
REMARK SMILES IDX 27 68 35 69 28 70 30 71 36 72 29 73 31 74 32 75 33 76 34 77
REMARK SMILES IDX 58 78 59 79 67 80 60 81 62 82 68 83 61 84 63 85 64 86 65 87
REMARK SMILES IDX 66 88 43 89 44 90 52 91 45 92 47 93 53 94 46 95 48 96 49 97
REMARK SMILES IDX 50 98 51 99
REMARK H PARENT 1 22 1 23 73 52 41 63
REMARK Flexibility Score: inf
ROOT
ATOM      1  O   UNL A   1      35.925  22.168  24.729  1.00  0.00    -0.374 OA
ENDROOT
BRANCH   1   2
ATOM      2  C   UNL A   1      35.644  22.757  23.461  1.00  0.00     0.202 C 
BRANCH   2   3
ATOM      3  C   UNL A   1      35.032  24.167  23.427  1.00  0.00     0.261 C 
BRANCH   3   4
ATOM      4  O   UNL A   1      34.197  24.442  22.275  1.00  0.00    -0.462 OA
BRANCH   4   5
ATOM      5  C   UNL A   1      33.442  25.576  22.374  1.00  0.00     0.324 C 
ATOM      6  O   UNL A   1      33.664  26.574  21.688  1.00  0.00    -0.251 OA
BRANCH   5   7
ATOM      7  C   UNL A   1      32.291  25.553  23.396  1.00  0.00     0.194 C 
BRANCH   7   8
ATOM      8  S   UNL A   1      31.311  24.040  23.506  1.00  0.00    -0.066 SA
BRANCH   8   9
ATOM      9  C   UNL A   1      32.038  22.587  24.156  1.00  0.00     0.191 A 
ATOM     10  N   UNL A   1      32.607  22.423  25.422  1.00  0.00    -0.202 N 
ATOM     11  C   UNL A   1      32.930  21.162  25.939  1.00  0.00     0.280 A 
ATOM     12  N   UNL A   1      31.953  21.581  23.333  1.00  0.00    -0.222 NA
ATOM     13  C   UNL A   1      32.789  20.028  25.029  1.00  0.00     0.069 A 
ATOM     14  O   UNL A   1      33.296  20.986  27.101  1.00  0.00    -0.267 OA
ATOM     15  C   UNL A   1      32.379  20.305  23.728  1.00  0.00     0.079 A 
ATOM     16  C   UNL A   1      33.079  18.729  25.460  1.00  0.00     0.031 A 
ATOM     17  C   UNL A   1      32.334  19.246  22.817  1.00  0.00     0.030 A 
ATOM     18  C   UNL A   1      33.008  17.688  24.544  1.00  0.00     0.018 A 
ATOM     19  C   UNL A   1      32.657  17.942  23.219  1.00  0.00     0.018 A 
ATOM     20  Br  UNL A   1      33.401  15.926  25.103  1.00  0.00    -0.051 Br
BRANCH  10  21
ATOM     21  N   UNL A   1      32.923  23.476  26.276  1.00  0.00    -0.334 N 
ATOM     22  H   UNL A   1      32.354  24.279  26.300  1.00  0.00     0.178 HD
ATOM     23  H   UNL A   1      33.716  23.418  26.856  1.00  0.00     0.178 HD
ENDBRANCH  10  21
ENDBRANCH   8   9
ENDBRANCH   7   8
BRANCH   7  24
ATOM     24  C   UNL A   1      31.574  26.884  23.623  1.00  0.00    -0.023 A 
ATOM     25  C   UNL A   1      32.054  27.861  24.521  1.00  0.00     0.005 A 
ATOM     26  C   UNL A   1      30.431  27.197  22.863  1.00  0.00     0.005 A 
ATOM     27  C   UNL A   1      31.498  29.141  24.553  1.00  0.00     0.000 A 
ATOM     28  C   UNL A   1      29.875  28.477  22.901  1.00  0.00     0.000 A 
ATOM     29  C   UNL A   1      30.425  29.456  23.724  1.00  0.00     0.000 A 
ENDBRANCH   7  24
ENDBRANCH   5   7
ENDBRANCH   4   5
ENDBRANCH   3   4
ENDBRANCH   2   3
ENDBRANCH   1   2
BRANCH   1  30
ATOM     30  C   UNL A   1      36.472  20.859  24.729  1.00  0.00     0.202 C 
BRANCH  30  31
ATOM     31  C   UNL A   1      37.926  20.661  25.169  1.00  0.00     0.261 C 
BRANCH  31  32
ATOM     32  O   UNL A   1      38.355  21.507  26.226  1.00  0.00    -0.460 OA
BRANCH  32  33
ATOM     33  C   UNL A   1      39.676  21.413  26.499  1.00  0.00     0.338 C 
ATOM     34  O   UNL A   1      40.424  20.476  26.276  1.00  0.00    -0.246 OA
BRANCH  33  35
ATOM     35  C   UNL A   1      40.114  22.729  26.964  1.00  0.00     0.060 A 
ATOM     36  C   UNL A   1      41.084  22.843  27.962  1.00  0.00     0.016 A 
ATOM     37  C   UNL A   1      39.514  23.854  26.390  1.00  0.00     0.016 A 
ATOM     38  C   UNL A   1      41.476  24.113  28.372  1.00  0.00     0.010 A 
ATOM     39  C   UNL A   1      39.908  25.119  26.804  1.00  0.00     0.010 A 
ATOM     40  C   UNL A   1      40.906  25.253  27.779  1.00  0.00    -0.014 A 
BRANCH  40  41
ATOM     41  C   UNL A   1      41.459  26.591  28.060  1.00  0.00     0.031 A 
ATOM     42  C   UNL A   1      42.871  26.937  27.710  1.00  0.00     0.074 A 
ATOM     43  C   UNL A   1      40.669  27.463  28.712  1.00  0.00     0.049 A 
ATOM     44  N   UNL A   1      43.500  28.066  27.895  1.00  0.00    -0.248 NA
ATOM     45  C   UNL A   1      43.687  25.885  27.082  1.00  0.00     0.031 C 
ATOM     46  C   UNL A   1      39.299  27.184  29.155  1.00  0.00     0.029 A 
ATOM     47  N   UNL A   1      40.900  28.746  29.129  1.00  0.00    -0.354 N 
ATOM     48  C   UNL A   1      44.789  27.863  27.423  1.00  0.00     0.074 A 
ATOM     49  C   UNL A   1      44.859  26.495  26.955  1.00  0.00     0.031 C 
ATOM     50  C   UNL A   1      38.808  28.268  29.771  1.00  0.00     0.029 A 
ATOM     51  C   UNL A   1      39.833  29.305  29.790  1.00  0.00     0.049 A 
ATOM     52  H   UNL A   1      41.748  29.222  28.971  1.00  0.00     0.167 HD
ATOM     53  C   UNL A   1      45.808  28.750  27.373  1.00  0.00     0.034 A 
ATOM     54  C   UNL A   1      39.697  30.520  30.353  1.00  0.00     0.034 A 
ATOM     55  C   UNL A   1      45.713  30.109  27.834  1.00  0.00     0.049 A 
ATOM     56  C   UNL A   1      40.839  31.487  30.270  1.00  0.00     0.074 A 
ATOM     57  C   UNL A   1      46.669  31.106  27.763  1.00  0.00     0.029 A 
ATOM     58  N   UNL A   1      44.605  30.657  28.463  1.00  0.00    -0.354 N 
ATOM     59  N   UNL A   1      42.008  31.322  29.702  1.00  0.00    -0.248 NA
ATOM     60  C   UNL A   1      40.641  32.808  30.880  1.00  0.00     0.031 C 
ATOM     61  C   UNL A   1      46.147  32.251  28.373  1.00  0.00     0.029 A 
ATOM     62  C   UNL A   1      44.857  31.973  28.799  1.00  0.00     0.049 A 
ATOM     63  H   UNL A   1      43.763  30.178  28.645  1.00  0.00     0.167 HD
ATOM     64  C   UNL A   1      42.684  32.522  29.869  1.00  0.00     0.074 A 
ATOM     65  C   UNL A   1      41.786  33.412  30.580  1.00  0.00     0.031 C 
ATOM     66  C   UNL A   1      43.938  32.852  29.477  1.00  0.00     0.034 A 
BRANCH  53  67
ATOM     67  C   UNL A   1      47.105  28.308  26.756  1.00  0.00     0.023 A 
ATOM     68  C   UNL A   1      48.193  27.993  27.594  1.00  0.00     0.012 A 
ATOM     69  C   UNL A   1      47.214  28.100  25.368  1.00  0.00     0.148 A 
ATOM     70  C   UNL A   1      49.374  27.482  27.058  1.00  0.00     0.002 A 
ATOM     71  C   UNL A   1      48.384  27.565  24.843  1.00  0.00     0.091 A 
ATOM     72  F   UNL A   1      46.168  28.419  24.591  1.00  0.00    -0.205 F 
ATOM     73  C   UNL A   1      49.466  27.259  25.687  1.00  0.00     0.022 A 
BRANCH  71  74
ATOM     74  S   UNL A   1      48.593  27.198  23.098  1.00  0.00     0.127 S 
ATOM     75  O   UNL A   1      50.031  27.398  22.925  1.00  0.00    -0.237 OA
ATOM     76  O   UNL A   1      48.158  25.803  23.026  1.00  0.00    -0.237 OA
ATOM     77  O   UNL A   1      47.748  28.142  22.382  1.00  0.00    -0.744 OA
ENDBRANCH  71  74
ENDBRANCH  53  67
BRANCH  54  78
ATOM     78  C   UNL A   1      38.396  30.883  30.971  1.00  0.00     0.023 A 
ATOM     79  C   UNL A   1      38.202  30.651  32.346  1.00  0.00     0.012 A 
ATOM     80  C   UNL A   1      37.403  31.556  30.234  1.00  0.00     0.148 A 
ATOM     81  C   UNL A   1      37.036  31.081  32.978  1.00  0.00     0.002 A 
ATOM     82  C   UNL A   1      36.259  32.013  30.878  1.00  0.00     0.091 A 
ATOM     83  F   UNL A   1      37.621  31.774  28.931  1.00  0.00    -0.205 F 
ATOM     84  C   UNL A   1      36.071  31.771  32.249  1.00  0.00     0.022 A 
BRANCH  82  85
ATOM     85  S   UNL A   1      35.003  32.992  30.048  1.00  0.00     0.127 S 
ATOM     86  O   UNL A   1      35.798  34.089  29.498  1.00  0.00    -0.237 OA
ATOM     87  O   UNL A   1      34.492  32.044  29.059  1.00  0.00    -0.237 OA
ATOM     88  O   UNL A   1      34.047  33.372  31.080  1.00  0.00    -0.744 OA
ENDBRANCH  82  85
ENDBRANCH  54  78
BRANCH  66  89
ATOM     89  C   UNL A   1      44.434  34.234  29.793  1.00  0.00     0.023 A 
ATOM     90  C   UNL A   1      45.189  34.446  30.964  1.00  0.00     0.012 A 
ATOM     91  C   UNL A   1      44.277  35.280  28.864  1.00  0.00     0.148 A 
ATOM     92  C   UNL A   1      45.780  35.684  31.205  1.00  0.00     0.002 A 
ATOM     93  C   UNL A   1      44.897  36.500  29.094  1.00  0.00     0.091 A 
ATOM     94  F   UNL A   1      43.550  35.048  27.762  1.00  0.00    -0.205 F 
ATOM     95  C   UNL A   1      45.647  36.705  30.265  1.00  0.00     0.022 A 
BRANCH  93  96
ATOM     96  S   UNL A   1      44.845  37.852  27.912  1.00  0.00     0.127 S 
ATOM     97  O   UNL A   1      45.506  38.922  28.657  1.00  0.00    -0.237 OA
ATOM     98  O   UNL A   1      45.622  37.314  26.796  1.00  0.00    -0.237 OA
ATOM     99  O   UNL A   1      43.437  38.084  27.622  1.00  0.00    -0.744 OA
ENDBRANCH  93  96
ENDBRANCH  66  89
ENDBRANCH  40  41
ENDBRANCH  33  35
ENDBRANCH  32  33
ENDBRANCH  31  32
ENDBRANCH  30  31
ENDBRANCH   1  30
TORSDOF 21
ENDMDL
