MODEL 1
REMARK VINA RESULT:     -10.1      0.000      0.000
REMARK SMILES O=C(OCCOCCOC(=O)c1cccc(CS(=O)(=O)Nc2ncccn2)c1)c1ccc(-c2c3nc(c(-c4cccc(S(=O)(=O)[O-])c4F)c4ccc([nH]4)c(-c4cccc(S(=O)(=O)[O-])c4F)c4nc(c(-c5cccc(S(=O)(=O)[O-])c5F)c5ccc2[nH]5)C=C4)C=C3)cc1
REMARK SMILES IDX 7 1 6 2 5 3 4 4 3 5 2 6 1 7 29 8 30 9 91 10 31 11 90 12
REMARK SMILES IDX 32 13 33 14 34 15 84 16 35 17 89 18 83 19 85 20 36 21 88 22
REMARK SMILES IDX 82 23 81 24 37 26 69 27 49 28 68 29 50 30 53 31 67 32 86 33
REMARK SMILES IDX 51 34 52 35 66 37 87 38 54 39 38 40 39 41 47 42 40 43 42 44
REMARK SMILES IDX 48 45 41 46 43 47 44 48 45 49 46 50 70 51 71 52 79 53 72 54
REMARK SMILES IDX 74 55 80 56 73 57 75 58 76 59 77 60 78 61 55 62 56 63 64 64
REMARK SMILES IDX 57 65 59 66 65 67 58 68 60 69 61 70 62 71 63 72 8 73 9 74
REMARK SMILES IDX 10 75 11 76 12 77 13 78 28 79 14 80 16 81 15 82 17 83 18 84
REMARK SMILES IDX 19 85 20 86 21 87 22 89 23 90 27 91 24 92 26 93 25 94
REMARK H PARENT 85 25 53 36 21 88
REMARK Flexibility Score: inf
ROOT
ATOM      1  C   UNL A   1      34.299  24.377  25.957  1.00  0.00     0.202 C 
ENDROOT
BRANCH   1   2
ATOM      2  O   UNL A   1      35.445  23.796  25.335  1.00  0.00    -0.374 OA
BRANCH   2   3
ATOM      3  C   UNL A   1      35.525  22.371  25.325  1.00  0.00     0.202 C 
BRANCH   3   4
ATOM      4  C   UNL A   1      36.844  21.820  24.785  1.00  0.00     0.261 C 
BRANCH   4   5
ATOM      5  O   UNL A   1      37.622  21.255  25.849  1.00  0.00    -0.460 OA
BRANCH   5   6
ATOM      6  C   UNL A   1      38.943  21.446  26.086  1.00  0.00     0.338 C 
ATOM      7  O   UNL A   1      39.718  20.516  25.874  1.00  0.00    -0.246 OA
BRANCH   6   8
ATOM      8  C   UNL A   1      39.512  22.751  26.540  1.00  0.00     0.060 A 
ATOM      9  C   UNL A   1      39.111  24.004  26.075  1.00  0.00     0.016 A 
ATOM     10  C   UNL A   1      40.481  22.706  27.555  1.00  0.00     0.016 A 
ATOM     11  C   UNL A   1      39.690  25.171  26.526  1.00  0.00     0.010 A 
ATOM     12  C   UNL A   1      41.054  23.884  28.046  1.00  0.00     0.010 A 
ATOM     13  C   UNL A   1      40.672  25.114  27.503  1.00  0.00    -0.014 A 
BRANCH  13  14
ATOM     14  C   UNL A   1      41.374  26.372  27.778  1.00  0.00     0.031 A 
ATOM     15  C   UNL A   1      40.667  27.389  28.614  1.00  0.00     0.074 A 
ATOM     16  C   UNL A   1      42.674  26.479  27.453  1.00  0.00     0.049 A 
ATOM     17  N   UNL A   1      41.081  28.556  29.018  1.00  0.00    -0.248 NA
ATOM     18  C   UNL A   1      39.313  27.033  29.083  1.00  0.00     0.031 C 
ATOM     19  C   UNL A   1      43.461  25.443  26.774  1.00  0.00     0.029 A 
ATOM     20  N   UNL A   1      43.573  27.481  27.684  1.00  0.00    -0.354 N 
ATOM     21  C   UNL A   1      40.016  29.105  29.720  1.00  0.00     0.074 A 
ATOM     22  C   UNL A   1      38.950  28.132  29.724  1.00  0.00     0.031 C 
ATOM     23  C   UNL A   1      44.731  25.861  26.660  1.00  0.00     0.029 A 
ATOM     24  C   UNL A   1      44.827  27.215  27.187  1.00  0.00     0.049 A 
ATOM     25  H   UNL A   1      43.345  28.313  28.160  1.00  0.00     0.167 HD
ATOM     26  C   UNL A   1      39.943  30.327  30.289  1.00  0.00     0.034 A 
ATOM     27  C   UNL A   1      45.912  28.008  27.138  1.00  0.00     0.034 A 
ATOM     28  C   UNL A   1      41.037  31.254  30.274  1.00  0.00     0.049 A 
ATOM     29  C   UNL A   1      45.782  29.387  27.728  1.00  0.00     0.074 A 
ATOM     30  C   UNL A   1      41.088  32.543  30.765  1.00  0.00     0.029 A 
ATOM     31  N   UNL A   1      42.284  30.979  29.722  1.00  0.00    -0.354 N 
ATOM     32  N   UNL A   1      44.766  29.914  28.372  1.00  0.00    -0.248 NA
ATOM     33  C   UNL A   1      46.940  30.276  27.595  1.00  0.00     0.031 C 
ATOM     34  C   UNL A   1      42.357  33.059  30.480  1.00  0.00     0.029 A 
ATOM     35  C   UNL A   1      43.110  32.077  29.849  1.00  0.00     0.049 A 
ATOM     36  H   UNL A   1      42.539  30.126  29.302  1.00  0.00     0.167 HD
ATOM     37  C   UNL A   1      45.170  31.187  28.747  1.00  0.00     0.074 A 
ATOM     38  C   UNL A   1      46.535  31.339  28.276  1.00  0.00     0.031 C 
ATOM     39  C   UNL A   1      44.480  32.152  29.403  1.00  0.00     0.034 A 
BRANCH  26  40
ATOM     40  C   UNL A   1      38.621  30.727  30.883  1.00  0.00     0.023 A 
ATOM     41  C   UNL A   1      38.294  30.383  32.210  1.00  0.00     0.012 A 
ATOM     42  C   UNL A   1      37.676  31.410  30.092  1.00  0.00     0.148 A 
ATOM     43  C   UNL A   1      37.030  30.676  32.726  1.00  0.00     0.002 A 
ATOM     44  C   UNL A   1      36.437  31.736  30.627  1.00  0.00     0.091 A 
ATOM     45  F   UNL A   1      37.994  31.694  28.822  1.00  0.00    -0.205 F 
ATOM     46  C   UNL A   1      36.106  31.358  31.937  1.00  0.00     0.022 A 
BRANCH  44  47
ATOM     47  S   UNL A   1      35.202  32.660  29.707  1.00  0.00     0.127 S 
ATOM     48  O   UNL A   1      34.780  31.676  28.710  1.00  0.00    -0.237 OA
ATOM     49  O   UNL A   1      34.206  32.949  30.738  1.00  0.00    -0.237 OA
ATOM     50  O   UNL A   1      35.886  33.831  29.177  1.00  0.00    -0.744 OA
ENDBRANCH  44  47
ENDBRANCH  26  40
BRANCH  27  51
ATOM     51  C   UNL A   1      47.178  27.532  26.509  1.00  0.00     0.023 A 
ATOM     52  C   UNL A   1      48.148  26.879  27.292  1.00  0.00     0.012 A 
ATOM     53  C   UNL A   1      47.421  27.709  25.130  1.00  0.00     0.148 A 
ATOM     54  C   UNL A   1      49.345  26.438  26.723  1.00  0.00     0.002 A 
ATOM     55  C   UNL A   1      48.588  27.217  24.559  1.00  0.00     0.091 A 
ATOM     56  F   UNL A   1      46.498  28.350  24.399  1.00  0.00    -0.205 F 
ATOM     57  C   UNL A   1      49.561  26.598  25.357  1.00  0.00     0.022 A 
BRANCH  55  58
ATOM     58  S   UNL A   1      48.889  27.266  22.788  1.00  0.00     0.127 S 
ATOM     59  O   UNL A   1      50.342  27.402  22.735  1.00  0.00    -0.237 OA
ATOM     60  O   UNL A   1      48.375  25.965  22.358  1.00  0.00    -0.237 OA
ATOM     61  O   UNL A   1      48.126  28.404  22.292  1.00  0.00    -0.744 OA
ENDBRANCH  55  58
ENDBRANCH  27  51
BRANCH  39  62
ATOM     62  C   UNL A   1      45.213  33.432  29.693  1.00  0.00     0.023 A 
ATOM     63  C   UNL A   1      45.158  34.499  28.776  1.00  0.00     0.012 A 
ATOM     64  C   UNL A   1      45.885  33.595  30.919  1.00  0.00     0.148 A 
ATOM     65  C   UNL A   1      45.793  35.704  29.064  1.00  0.00     0.002 A 
ATOM     66  C   UNL A   1      46.464  34.817  31.222  1.00  0.00     0.091 A 
ATOM     67  F   UNL A   1      45.941  32.555  31.762  1.00  0.00    -0.205 F 
ATOM     68  C   UNL A   1      46.431  35.869  30.292  1.00  0.00     0.022 A 
BRANCH  66  69
ATOM     69  S   UNL A   1      47.201  35.147  32.826  1.00  0.00     0.127 S 
ATOM     70  O   UNL A   1      48.226  34.108  32.900  1.00  0.00    -0.237 OA
ATOM     71  O   UNL A   1      47.716  36.506  32.657  1.00  0.00    -0.237 OA
ATOM     72  O   UNL A   1      46.118  35.031  33.793  1.00  0.00    -0.744 OA
ENDBRANCH  66  69
ENDBRANCH  39  62
ENDBRANCH  13  14
ENDBRANCH   6   8
ENDBRANCH   5   6
ENDBRANCH   4   5
ENDBRANCH   3   4
ENDBRANCH   2   3
ENDBRANCH   1   2
BRANCH   1  73
ATOM     73  C   UNL A   1      34.282  25.880  25.678  1.00  0.00     0.261 C 
BRANCH  73  74
ATOM     74  O   UNL A   1      33.264  26.481  26.491  1.00  0.00    -0.460 OA
BRANCH  74  75
ATOM     75  C   UNL A   1      33.236  27.832  26.444  1.00  0.00     0.338 C 
ATOM     76  O   UNL A   1      33.716  28.631  27.241  1.00  0.00    -0.246 OA
BRANCH  75  77
ATOM     77  C   UNL A   1      32.605  28.233  25.182  1.00  0.00     0.060 A 
ATOM     78  C   UNL A   1      31.294  28.722  25.182  1.00  0.00     0.016 A 
ATOM     79  C   UNL A   1      33.286  28.023  23.987  1.00  0.00     0.020 A 
ATOM     80  C   UNL A   1      30.694  29.079  23.980  1.00  0.00     0.001 A 
ATOM     81  C   UNL A   1      32.620  28.214  22.777  1.00  0.00    -0.030 A 
ATOM     82  C   UNL A   1      31.357  28.829  22.780  1.00  0.00     0.005 A 
BRANCH  81  83
ATOM     83  C   UNL A   1      33.244  27.674  21.524  1.00  0.00     0.195 C 
BRANCH  83  84
ATOM     84  S   UNL A   1      33.020  25.876  21.384  1.00  0.00     0.239 S 
ATOM     85  O   UNL A   1      33.000  25.495  19.984  1.00  0.00    -0.206 OA
ATOM     86  O   UNL A   1      34.041  25.272  22.226  1.00  0.00    -0.206 OA
BRANCH  84  87
ATOM     87  N   UNL A   1      31.574  25.363  22.008  1.00  0.00    -0.251 N 
ATOM     88  H   UNL A   1      30.737  25.565  21.530  1.00  0.00     0.183 HD
BRANCH  87  89
ATOM     89  C   UNL A   1      31.531  24.650  23.205  1.00  0.00     0.236 A 
ATOM     90  N   UNL A   1      31.876  23.361  23.142  1.00  0.00    -0.221 NA
ATOM     91  N   UNL A   1      30.919  25.269  24.216  1.00  0.00    -0.221 NA
ATOM     92  C   UNL A   1      31.519  22.619  24.212  1.00  0.00     0.117 A 
ATOM     93  C   UNL A   1      30.634  24.489  25.281  1.00  0.00     0.117 A 
ATOM     94  C   UNL A   1      30.890  23.137  25.321  1.00  0.00     0.040 A 
ENDBRANCH  87  89
ENDBRANCH  84  87
ENDBRANCH  83  84
ENDBRANCH  81  83
ENDBRANCH  75  77
ENDBRANCH  74  75
ENDBRANCH  73  74
ENDBRANCH   1  73
TORSDOF 21
ENDMDL
MODEL 2
REMARK VINA RESULT:      -9.9      4.663     11.319
REMARK SMILES O=C(OCCOCCOC(=O)c1cccc(CS(=O)(=O)Nc2ncccn2)c1)c1ccc(-c2c3nc(c(-c4cccc(S(=O)(=O)[O-])c4F)c4ccc([nH]4)c(-c4cccc(S(=O)(=O)[O-])c4F)c4nc(c(-c5cccc(S(=O)(=O)[O-])c5F)c5ccc2[nH]5)C=C4)C=C3)cc1
REMARK SMILES IDX 7 1 6 2 5 3 4 4 3 5 2 6 1 7 29 8 30 9 91 10 31 11 90 12
REMARK SMILES IDX 32 13 33 14 34 15 84 16 35 17 89 18 83 19 85 20 36 21 88 22
REMARK SMILES IDX 82 23 81 24 37 26 69 27 49 28 68 29 50 30 53 31 67 32 86 33
REMARK SMILES IDX 51 34 52 35 66 37 87 38 54 39 38 40 39 41 47 42 40 43 42 44
REMARK SMILES IDX 48 45 41 46 43 47 44 48 45 49 46 50 70 51 71 52 79 53 72 54
REMARK SMILES IDX 74 55 80 56 73 57 75 58 76 59 77 60 78 61 55 62 56 63 64 64
REMARK SMILES IDX 57 65 59 66 65 67 58 68 60 69 61 70 62 71 63 72 8 73 9 74
REMARK SMILES IDX 10 75 11 76 12 77 13 78 28 79 14 80 16 81 15 82 17 83 18 84
REMARK SMILES IDX 19 85 20 86 21 87 22 89 23 90 27 91 24 92 26 93 25 94
REMARK H PARENT 85 25 53 36 21 88
REMARK Flexibility Score: inf
ROOT
ATOM      1  C   UNL A   1      42.904  19.221  25.506  1.00  0.00     0.202 C 
ENDROOT
BRANCH   1   2
ATOM      2  O   UNL A   1      42.690  19.146  26.915  1.00  0.00    -0.374 OA
BRANCH   2   3
ATOM      3  C   UNL A   1      41.653  19.962  27.459  1.00  0.00     0.202 C 
BRANCH   3   4
ATOM      4  C   UNL A   1      41.315  21.192  26.617  1.00  0.00     0.261 C 
BRANCH   4   5
ATOM      5  O   UNL A   1      40.057  21.746  27.027  1.00  0.00    -0.460 OA
BRANCH   5   6
ATOM      6  C   UNL A   1      39.437  22.836  26.511  1.00  0.00     0.338 C 
ATOM      7  O   UNL A   1      38.597  22.669  25.629  1.00  0.00    -0.246 OA
BRANCH   6   8
ATOM      8  C   UNL A   1      39.685  24.226  26.999  1.00  0.00     0.060 A 
ATOM      9  C   UNL A   1      40.179  25.272  26.218  1.00  0.00     0.016 A 
ATOM     10  C   UNL A   1      39.333  24.508  28.328  1.00  0.00     0.016 A 
ATOM     11  C   UNL A   1      40.398  26.530  26.736  1.00  0.00     0.010 A 
ATOM     12  C   UNL A   1      39.520  25.788  28.859  1.00  0.00     0.010 A 
ATOM     13  C   UNL A   1      40.082  26.789  28.062  1.00  0.00    -0.014 A 
BRANCH  13  14
ATOM     14  C   UNL A   1      40.532  28.083  28.585  1.00  0.00     0.031 A 
ATOM     15  C   UNL A   1      41.980  28.421  28.440  1.00  0.00     0.074 A 
ATOM     16  C   UNL A   1      39.614  28.983  28.979  1.00  0.00     0.049 A 
ATOM     17  N   UNL A   1      42.613  29.504  28.791  1.00  0.00    -0.248 NA
ATOM     18  C   UNL A   1      42.832  27.410  27.784  1.00  0.00     0.031 C 
ATOM     19  C   UNL A   1      38.164  28.759  28.989  1.00  0.00     0.029 A 
ATOM     20  N   UNL A   1      39.753  30.274  29.403  1.00  0.00    -0.354 N 
ATOM     21  C   UNL A   1      43.944  29.275  28.472  1.00  0.00     0.074 A 
ATOM     22  C   UNL A   1      44.028  27.969  27.862  1.00  0.00     0.031 C 
ATOM     23  C   UNL A   1      37.548  29.884  29.383  1.00  0.00     0.029 A 
ATOM     24  C   UNL A   1      38.559  30.875  29.724  1.00  0.00     0.049 A 
ATOM     25  H   UNL A   1      40.624  30.729  29.472  1.00  0.00     0.167 HD
ATOM     26  C   UNL A   1      45.000  30.088  28.694  1.00  0.00     0.034 A 
ATOM     27  C   UNL A   1      38.331  32.083  30.269  1.00  0.00     0.034 A 
ATOM     28  C   UNL A   1      44.864  31.387  29.288  1.00  0.00     0.049 A 
ATOM     29  C   UNL A   1      39.531  32.943  30.560  1.00  0.00     0.074 A 
ATOM     30  C   UNL A   1      45.849  32.296  29.618  1.00  0.00     0.029 A 
ATOM     31  N   UNL A   1      43.648  31.955  29.648  1.00  0.00    -0.354 N 
ATOM     32  N   UNL A   1      40.794  32.716  30.279  1.00  0.00    -0.248 NA
ATOM     33  C   UNL A   1      39.283  34.222  31.233  1.00  0.00     0.031 C 
ATOM     34  C   UNL A   1      45.229  33.402  30.209  1.00  0.00     0.029 A 
ATOM     35  C   UNL A   1      43.854  33.200  30.208  1.00  0.00     0.049 A 
ATOM     36  H   UNL A   1      42.767  31.532  29.522  1.00  0.00     0.167 HD
ATOM     37  C   UNL A   1      41.490  33.835  30.713  1.00  0.00     0.074 A 
ATOM     38  C   UNL A   1      40.499  34.748  31.256  1.00  0.00     0.031 C 
ATOM     39  C   UNL A   1      42.822  34.087  30.687  1.00  0.00     0.034 A 
BRANCH  26  40
ATOM     40  C   UNL A   1      46.363  29.545  28.366  1.00  0.00     0.023 A 
ATOM     41  C   UNL A   1      46.981  29.844  27.135  1.00  0.00     0.012 A 
ATOM     42  C   UNL A   1      47.012  28.687  29.276  1.00  0.00     0.148 A 
ATOM     43  C   UNL A   1      48.204  29.262  26.798  1.00  0.00     0.002 A 
ATOM     44  C   UNL A   1      48.250  28.147  28.951  1.00  0.00     0.091 A 
ATOM     45  F   UNL A   1      46.390  28.387  30.424  1.00  0.00    -0.205 F 
ATOM     46  C   UNL A   1      48.841  28.421  27.707  1.00  0.00     0.022 A 
BRANCH  44  47
ATOM     47  S   UNL A   1      49.170  27.097  30.080  1.00  0.00     0.127 S 
ATOM     48  O   UNL A   1      49.657  28.071  31.057  1.00  0.00    -0.237 OA
ATOM     49  O   UNL A   1      48.128  26.201  30.581  1.00  0.00    -0.237 OA
ATOM     50  O   UNL A   1      50.198  26.448  29.280  1.00  0.00    -0.744 OA
ENDBRANCH  44  47
ENDBRANCH  26  40
BRANCH  27  51
ATOM     51  C   UNL A   1      36.943  32.530  30.580  1.00  0.00     0.023 A 
ATOM     52  C   UNL A   1      36.434  32.387  31.885  1.00  0.00     0.012 A 
ATOM     53  C   UNL A   1      36.124  33.115  29.591  1.00  0.00     0.148 A 
ATOM     54  C   UNL A   1      35.132  32.789  32.191  1.00  0.00     0.002 A 
ATOM     55  C   UNL A   1      34.850  33.565  29.916  1.00  0.00     0.091 A 
ATOM     56  F   UNL A   1      36.612  33.228  28.347  1.00  0.00    -0.205 F 
ATOM     57  C   UNL A   1      34.344  33.386  31.211  1.00  0.00     0.022 A 
BRANCH  55  58
ATOM     58  S   UNL A   1      33.818  34.459  28.747  1.00  0.00     0.127 S 
ATOM     59  O   UNL A   1      32.680  34.837  29.581  1.00  0.00    -0.237 OA
ATOM     60  O   UNL A   1      34.692  35.566  28.358  1.00  0.00    -0.237 OA
ATOM     61  O   UNL A   1      33.533  33.516  27.674  1.00  0.00    -0.744 OA
ENDBRANCH  55  58
ENDBRANCH  27  51
BRANCH  39  62
ATOM     62  C   UNL A   1      43.271  35.421  31.212  1.00  0.00     0.023 A 
ATOM     63  C   UNL A   1      43.590  35.571  32.575  1.00  0.00     0.012 A 
ATOM     64  C   UNL A   1      43.454  36.499  30.327  1.00  0.00     0.148 A 
ATOM     65  C   UNL A   1      44.055  36.792  33.056  1.00  0.00     0.002 A 
ATOM     66  C   UNL A   1      43.973  37.693  30.803  1.00  0.00     0.091 A 
ATOM     67  F   UNL A   1      43.120  36.335  29.039  1.00  0.00    -0.205 F 
ATOM     68  C   UNL A   1      44.262  37.847  32.168  1.00  0.00     0.022 A 
BRANCH  66  69
ATOM     69  S   UNL A   1      44.378  39.056  29.708  1.00  0.00     0.127 S 
ATOM     70  O   UNL A   1      43.068  39.670  29.500  1.00  0.00    -0.237 OA
ATOM     71  O   UNL A   1      45.302  39.846  30.523  1.00  0.00    -0.237 OA
ATOM     72  O   UNL A   1      44.983  38.454  28.528  1.00  0.00    -0.744 OA
ENDBRANCH  66  69
ENDBRANCH  39  62
ENDBRANCH  13  14
ENDBRANCH   6   8
ENDBRANCH   5   6
ENDBRANCH   4   5
ENDBRANCH   3   4
ENDBRANCH   2   3
ENDBRANCH   1   2
BRANCH   1  73
ATOM     73  C   UNL A   1      44.338  19.676  25.237  1.00  0.00     0.261 C 
BRANCH  73  74
ATOM     74  O   UNL A   1      44.410  21.094  25.442  1.00  0.00    -0.460 OA
BRANCH  74  75
ATOM     75  C   UNL A   1      45.602  21.645  25.123  1.00  0.00     0.338 C 
ATOM     76  O   UNL A   1      46.617  21.083  24.723  1.00  0.00    -0.246 OA
BRANCH  75  77
ATOM     77  C   UNL A   1      45.477  23.103  25.228  1.00  0.00     0.060 A 
ATOM     78  C   UNL A   1      44.280  23.728  24.863  1.00  0.00     0.016 A 
ATOM     79  C   UNL A   1      46.589  23.854  25.593  1.00  0.00     0.020 A 
ATOM     80  C   UNL A   1      44.175  25.112  24.943  1.00  0.00     0.001 A 
ATOM     81  C   UNL A   1      46.537  25.244  25.503  1.00  0.00    -0.030 A 
ATOM     82  C   UNL A   1      45.301  25.868  25.267  1.00  0.00     0.005 A 
BRANCH  81  83
ATOM     83  C   UNL A   1      47.821  26.015  25.575  1.00  0.00     0.195 C 
BRANCH  83  84
ATOM     84  S   UNL A   1      48.378  26.549  23.929  1.00  0.00     0.239 S 
ATOM     85  O   UNL A   1      48.164  25.479  22.973  1.00  0.00    -0.206 OA
ATOM     86  O   UNL A   1      47.720  27.819  23.669  1.00  0.00    -0.206 OA
BRANCH  84  87
ATOM     87  N   UNL A   1      50.001  26.875  23.881  1.00  0.00    -0.251 N 
ATOM     88  H   UNL A   1      50.639  26.236  24.274  1.00  0.00     0.183 HD
BRANCH  87  89
ATOM     89  C   UNL A   1      50.472  28.046  23.289  1.00  0.00     0.236 A 
ATOM     90  N   UNL A   1      50.206  28.204  21.990  1.00  0.00    -0.221 NA
ATOM     91  N   UNL A   1      51.337  28.748  24.024  1.00  0.00    -0.221 NA
ATOM     92  C   UNL A   1      50.935  29.156  21.367  1.00  0.00     0.117 A 
ATOM     93  C   UNL A   1      51.998  29.721  23.360  1.00  0.00     0.117 A 
ATOM     94  C   UNL A   1      51.853  29.952  22.011  1.00  0.00     0.040 A 
ENDBRANCH  87  89
ENDBRANCH  84  87
ENDBRANCH  83  84
ENDBRANCH  81  83
ENDBRANCH  75  77
ENDBRANCH  74  75
ENDBRANCH  73  74
ENDBRANCH   1  73
TORSDOF 21
ENDMDL
MODEL 3
REMARK VINA RESULT:      -9.6      1.878      2.606
REMARK SMILES O=C(OCCOCCOC(=O)c1cccc(CS(=O)(=O)Nc2ncccn2)c1)c1ccc(-c2c3nc(c(-c4cccc(S(=O)(=O)[O-])c4F)c4ccc([nH]4)c(-c4cccc(S(=O)(=O)[O-])c4F)c4nc(c(-c5cccc(S(=O)(=O)[O-])c5F)c5ccc2[nH]5)C=C4)C=C3)cc1
REMARK SMILES IDX 7 1 6 2 5 3 4 4 3 5 2 6 1 7 29 8 30 9 91 10 31 11 90 12
REMARK SMILES IDX 32 13 33 14 34 15 84 16 35 17 89 18 83 19 85 20 36 21 88 22
REMARK SMILES IDX 82 23 81 24 37 26 69 27 49 28 68 29 50 30 53 31 67 32 86 33
REMARK SMILES IDX 51 34 52 35 66 37 87 38 54 39 38 40 39 41 47 42 40 43 42 44
REMARK SMILES IDX 48 45 41 46 43 47 44 48 45 49 46 50 70 51 71 52 79 53 72 54
REMARK SMILES IDX 74 55 80 56 73 57 75 58 76 59 77 60 78 61 55 62 56 63 64 64
REMARK SMILES IDX 57 65 59 66 65 67 58 68 60 69 61 70 62 71 63 72 8 73 9 74
REMARK SMILES IDX 10 75 11 76 12 77 13 78 28 79 14 80 16 81 15 82 17 83 18 84
REMARK SMILES IDX 19 85 20 86 21 87 22 89 23 90 27 91 24 92 26 93 25 94
REMARK H PARENT 85 25 53 36 21 88
REMARK Flexibility Score: inf
ROOT
ATOM      1  C   UNL A   1      34.395  25.176  24.745  1.00  0.00     0.202 C 
ENDROOT
BRANCH   1   2
ATOM      2  O   UNL A   1      35.368  24.410  25.454  1.00  0.00    -0.374 OA
BRANCH   2   3
ATOM      3  C   UNL A   1      35.275  22.990  25.356  1.00  0.00     0.202 C 
BRANCH   3   4
ATOM      4  C   UNL A   1      36.512  22.318  24.760  1.00  0.00     0.261 C 
BRANCH   4   5
ATOM      5  O   UNL A   1      37.254  21.643  25.785  1.00  0.00    -0.460 OA
BRANCH   5   6
ATOM      6  C   UNL A   1      38.582  21.751  26.038  1.00  0.00     0.338 C 
ATOM      7  O   UNL A   1      39.304  20.782  25.810  1.00  0.00    -0.246 OA
BRANCH   6   8
ATOM      8  C   UNL A   1      39.221  23.009  26.529  1.00  0.00     0.060 A 
ATOM      9  C   UNL A   1      38.697  24.291  26.362  1.00  0.00     0.016 A 
ATOM     10  C   UNL A   1      40.409  22.876  27.265  1.00  0.00     0.016 A 
ATOM     11  C   UNL A   1      39.347  25.413  26.828  1.00  0.00     0.010 A 
ATOM     12  C   UNL A   1      41.064  24.003  27.772  1.00  0.00     0.010 A 
ATOM     13  C   UNL A   1      40.539  25.275  27.522  1.00  0.00    -0.014 A 
BRANCH  13  14
ATOM     14  C   UNL A   1      41.264  26.518  27.803  1.00  0.00     0.031 A 
ATOM     15  C   UNL A   1      40.596  27.523  28.685  1.00  0.00     0.074 A 
ATOM     16  C   UNL A   1      42.554  26.619  27.438  1.00  0.00     0.049 A 
ATOM     17  N   UNL A   1      41.037  28.676  29.102  1.00  0.00    -0.248 NA
ATOM     18  C   UNL A   1      39.255  27.171  29.190  1.00  0.00     0.031 C 
ATOM     19  C   UNL A   1      43.306  25.591  26.709  1.00  0.00     0.029 A 
ATOM     20  N   UNL A   1      43.471  27.605  27.662  1.00  0.00    -0.354 N 
ATOM     21  C   UNL A   1      40.002  29.219  29.851  1.00  0.00     0.074 A 
ATOM     22  C   UNL A   1      38.925  28.258  29.868  1.00  0.00     0.031 C 
ATOM     23  C   UNL A   1      44.577  25.997  26.563  1.00  0.00     0.029 A 
ATOM     24  C   UNL A   1      44.705  27.338  27.118  1.00  0.00     0.049 A 
ATOM     25  H   UNL A   1      43.268  28.428  28.164  1.00  0.00     0.167 HD
ATOM     26  C   UNL A   1      39.962  30.429  30.450  1.00  0.00     0.034 A 
ATOM     27  C   UNL A   1      45.797  28.120  27.051  1.00  0.00     0.034 A 
ATOM     28  C   UNL A   1      41.066  31.344  30.421  1.00  0.00     0.049 A 
ATOM     29  C   UNL A   1      45.703  29.485  27.677  1.00  0.00     0.074 A 
ATOM     30  C   UNL A   1      41.148  32.620  30.940  1.00  0.00     0.029 A 
ATOM     31  N   UNL A   1      42.290  31.068  29.822  1.00  0.00    -0.354 N 
ATOM     32  N   UNL A   1      44.714  30.008  28.366  1.00  0.00    -0.248 NA
ATOM     33  C   UNL A   1      46.866  30.365  27.526  1.00  0.00     0.031 C 
ATOM     34  C   UNL A   1      42.412  33.129  30.625  1.00  0.00     0.029 A 
ATOM     35  C   UNL A   1      43.133  32.154  29.947  1.00  0.00     0.049 A 
ATOM     36  H   UNL A   1      42.522  30.223  29.374  1.00  0.00     0.167 HD
ATOM     37  C   UNL A   1      45.145  31.267  28.757  1.00  0.00     0.074 A 
ATOM     38  C   UNL A   1      46.495  31.416  28.244  1.00  0.00     0.031 C 
ATOM     39  C   UNL A   1      44.488  32.225  29.458  1.00  0.00     0.034 A 
BRANCH  26  40
ATOM     40  C   UNL A   1      38.665  30.829  31.097  1.00  0.00     0.023 A 
ATOM     41  C   UNL A   1      38.400  30.506  32.443  1.00  0.00     0.012 A 
ATOM     42  C   UNL A   1      37.680  31.491  30.338  1.00  0.00     0.148 A 
ATOM     43  C   UNL A   1      37.159  30.798  33.010  1.00  0.00     0.002 A 
ATOM     44  C   UNL A   1      36.463  31.817  30.922  1.00  0.00     0.091 A 
ATOM     45  F   UNL A   1      37.937  31.756  29.050  1.00  0.00    -0.205 F 
ATOM     46  C   UNL A   1      36.194  31.459  32.253  1.00  0.00     0.022 A 
BRANCH  44  47
ATOM     47  S   UNL A   1      35.180  32.716  30.043  1.00  0.00     0.127 S 
ATOM     48  O   UNL A   1      35.922  33.872  29.542  1.00  0.00    -0.237 OA
ATOM     49  O   UNL A   1      34.784  31.753  29.015  1.00  0.00    -0.237 OA
ATOM     50  O   UNL A   1      34.150  33.015  31.027  1.00  0.00    -0.744 OA
ENDBRANCH  44  47
ENDBRANCH  26  40
BRANCH  27  51
ATOM     51  C   UNL A   1      47.036  27.645  26.370  1.00  0.00     0.023 A 
ATOM     52  C   UNL A   1      48.032  26.980  27.109  1.00  0.00     0.012 A 
ATOM     53  C   UNL A   1      47.227  27.834  24.985  1.00  0.00     0.148 A 
ATOM     54  C   UNL A   1      49.205  26.540  26.491  1.00  0.00     0.002 A 
ATOM     55  C   UNL A   1      48.370  27.343  24.365  1.00  0.00     0.091 A 
ATOM     56  F   UNL A   1      46.280  28.487  24.295  1.00  0.00    -0.205 F 
ATOM     57  C   UNL A   1      49.369  26.712  25.119  1.00  0.00     0.022 A 
BRANCH  55  58
ATOM     58  S   UNL A   1      48.603  27.409  22.584  1.00  0.00     0.127 S 
ATOM     59  O   UNL A   1      47.551  28.337  22.179  1.00  0.00    -0.237 OA
ATOM     60  O   UNL A   1      49.965  27.937  22.478  1.00  0.00    -0.237 OA
ATOM     61  O   UNL A   1      48.456  26.038  22.117  1.00  0.00    -0.744 OA
ENDBRANCH  55  58
ENDBRANCH  27  51
BRANCH  39  62
ATOM     62  C   UNL A   1      45.245  33.489  29.753  1.00  0.00     0.023 A 
ATOM     63  C   UNL A   1      46.009  33.594  30.930  1.00  0.00     0.012 A 
ATOM     64  C   UNL A   1      45.257  34.537  28.813  1.00  0.00     0.148 A 
ATOM     65  C   UNL A   1      46.753  34.745  31.184  1.00  0.00     0.002 A 
ATOM     66  C   UNL A   1      46.046  35.653  29.045  1.00  0.00     0.091 A 
ATOM     67  F   UNL A   1      44.502  34.418  27.712  1.00  0.00    -0.205 F 
ATOM     68  C   UNL A   1      46.784  35.766  30.235  1.00  0.00     0.022 A 
BRANCH  66  69
ATOM     69  S   UNL A   1      46.233  36.954  27.823  1.00  0.00     0.127 S 
ATOM     70  O   UNL A   1      45.169  37.879  28.209  1.00  0.00    -0.237 OA
ATOM     71  O   UNL A   1      47.589  37.436  28.087  1.00  0.00    -0.237 OA
ATOM     72  O   UNL A   1      46.066  36.311  26.527  1.00  0.00    -0.744 OA
ENDBRANCH  66  69
ENDBRANCH  39  62
ENDBRANCH  13  14
ENDBRANCH   6   8
ENDBRANCH   5   6
ENDBRANCH   4   5
ENDBRANCH   3   4
ENDBRANCH   2   3
ENDBRANCH   1   2
BRANCH   1  73
ATOM     73  C   UNL A   1      34.632  26.663  25.010  1.00  0.00     0.261 C 
BRANCH  73  74
ATOM     74  O   UNL A   1      33.684  27.105  25.992  1.00  0.00    -0.460 OA
BRANCH  74  75
ATOM     75  C   UNL A   1      32.841  28.070  25.560  1.00  0.00     0.338 C 
ATOM     76  O   UNL A   1      33.051  29.275  25.460  1.00  0.00    -0.246 OA
BRANCH  75  77
ATOM     77  C   UNL A   1      31.604  27.427  25.103  1.00  0.00     0.060 A 
ATOM     78  C   UNL A   1      30.830  28.031  24.108  1.00  0.00     0.016 A 
ATOM     79  C   UNL A   1      31.164  26.273  25.744  1.00  0.00     0.020 A 
ATOM     80  C   UNL A   1      29.647  27.429  23.696  1.00  0.00     0.001 A 
ATOM     81  C   UNL A   1      29.897  25.770  25.454  1.00  0.00    -0.030 A 
ATOM     82  C   UNL A   1      29.184  26.297  24.365  1.00  0.00     0.005 A 
BRANCH  81  83
ATOM     83  C   UNL A   1      29.307  24.742  26.374  1.00  0.00     0.195 C 
BRANCH  83  84
ATOM     84  S   UNL A   1      30.396  23.298  26.555  1.00  0.00     0.239 S 
ATOM     85  O   UNL A   1      31.341  23.533  27.630  1.00  0.00    -0.206 OA
ATOM     86  O   UNL A   1      29.523  22.142  26.674  1.00  0.00    -0.206 OA
BRANCH  84  87
ATOM     87  N   UNL A   1      31.314  23.020  25.205  1.00  0.00    -0.251 N 
ATOM     88  H   UNL A   1      31.516  23.763  24.590  1.00  0.00     0.183 HD
BRANCH  87  89
ATOM     89  C   UNL A   1      31.803  21.744  24.930  1.00  0.00     0.236 A 
ATOM     90  N   UNL A   1      32.442  21.124  25.926  1.00  0.00    -0.221 NA
ATOM     91  N   UNL A   1      31.792  21.394  23.643  1.00  0.00    -0.221 NA
ATOM     92  C   UNL A   1      33.182  20.057  25.557  1.00  0.00     0.117 A 
ATOM     93  C   UNL A   1      32.506  20.288  23.340  1.00  0.00     0.117 A 
ATOM     94  C   UNL A   1      33.250  19.589  24.265  1.00  0.00     0.040 A 
ENDBRANCH  87  89
ENDBRANCH  84  87
ENDBRANCH  83  84
ENDBRANCH  81  83
ENDBRANCH  75  77
ENDBRANCH  74  75
ENDBRANCH  73  74
ENDBRANCH   1  73
TORSDOF 21
ENDMDL
