MODEL 1
REMARK VINA RESULT:     -12.3      0.000      0.000
REMARK SMILES Cc1ccc(S(=O)(=O)n2cc(C(=O)C(=O)N[C@@H](Cc3c[nH]c4ccccc34)C(=O)OCCOCCOC(=O)c3ccc(-c4c5nc(c(-c6cccc(S(=O)(=O)[O-])c6F)c6ccc([nH]6)c(-c6cccc(S(=O)(=O)[O-])c6F)c6nc(c(-c7cccc(S(=O)(=O)[O-])c7F)c7ccc4[nH]7)C=C6)C=C5)cc3)c3ccccc32)cc1
REMARK SMILES IDX 32 1 31 2 30 3 28 4 29 5 17 6 16 7 14 8 15 9 12 11 13 12
REMARK SMILES IDX 11 13 9 14 10 15 107 16 102 17 106 18 103 19 105 20 104 21
REMARK SMILES IDX 6 22 7 23 8 24 5 25 1 26 2 27 3 28 109 29 4 30 108 31 18 32
REMARK SMILES IDX 19 33 20 34 27 35 21 36 22 37 26 38 23 40 25 41 24 42 33 43
REMARK SMILES IDX 34 44 35 45 36 46 37 47 38 48 39 49 40 50 101 51 41 52
REMARK SMILES IDX 100 53 42 54 43 55 44 56 94 57 45 58 99 59 93 60 95 61 46 62
REMARK SMILES IDX 98 63 92 64 91 65 47 67 79 68 59 69 78 70 60 71 63 72 77 73
REMARK SMILES IDX 96 74 61 75 62 76 76 78 97 79 64 80 48 81 49 82 57 83 50 84
REMARK SMILES IDX 52 85 58 86 51 87 53 88 54 89 55 90 56 91 80 92 81 93 89 94
REMARK SMILES IDX 82 95 84 96 90 97 83 98 85 99 86 100 87 101 88 102 65 103
REMARK SMILES IDX 66 104 74 105 67 106 69 107 75 108 68 109 70 110 71 111
REMARK SMILES IDX 72 112 73 113
REMARK H PARENT 16 10 21 39 95 66 63 77
REMARK Flexibility Score: inf
ROOT
ATOM      1  C   UNL A   1      33.340  26.138  26.096  1.00  0.00     0.202 C 
ENDROOT
BRANCH   1   2
ATOM      2  C   UNL A   1      34.017  24.794  26.059  1.00  0.00     0.261 C 
BRANCH   2   3
ATOM      3  O   UNL A   1      35.077  24.865  25.096  1.00  0.00    -0.462 OA
BRANCH   3   4
ATOM      4  C   UNL A   1      35.745  23.709  24.788  1.00  0.00     0.329 C 
ATOM      5  O   UNL A   1      36.949  23.547  24.826  1.00  0.00    -0.250 OA
BRANCH   4   6
ATOM      6  C   UNL A   1      34.746  22.675  24.257  1.00  0.00     0.197 C 
BRANCH   6   7
ATOM      7  N   UNL A   1      34.614  22.878  22.794  1.00  0.00    -0.335 N 
ATOM      8  C   UNL A   1      33.515  23.255  22.046  1.00  0.00     0.293 C 
ATOM      9  O   UNL A   1      33.578  23.445  20.854  1.00  0.00    -0.265 OA
ATOM     10  H   UNL A   1      35.436  22.721  22.276  1.00  0.00     0.164 HD
BRANCH   8  11
ATOM     11  C   UNL A   1      32.204  23.475  22.783  1.00  0.00     0.252 C 
ATOM     12  O   UNL A   1      31.632  22.460  23.167  1.00  0.00    -0.283 OA
BRANCH  11  13
ATOM     13  C   UNL A   1      31.566  24.781  22.889  1.00  0.00     0.054 A 
ATOM     14  N   UNL A   1      30.656  26.810  22.596  1.00  0.00    -0.240 N 
ATOM     15  C   UNL A   1      31.627  25.939  22.109  1.00  0.00     0.117 A 
ATOM     16  C   UNL A   1      29.867  26.091  23.509  1.00  0.00     0.065 A 
ATOM     17  C   UNL A   1      30.697  25.082  23.973  1.00  0.00     0.012 A 
ATOM     18  C   UNL A   1      28.681  26.433  24.184  1.00  0.00     0.028 A 
ATOM     19  C   UNL A   1      30.466  24.540  25.252  1.00  0.00     0.011 A 
ATOM     20  C   UNL A   1      28.499  25.918  25.468  1.00  0.00     0.002 A 
ATOM     21  C   UNL A   1      29.408  25.023  26.017  1.00  0.00     0.001 A 
BRANCH  14  22
ATOM     22  S   UNL A   1      30.878  28.434  23.158  1.00  0.00     0.268 S 
ATOM     23  O   UNL A   1      32.137  28.831  22.550  1.00  0.00    -0.201 OA
ATOM     24  O   UNL A   1      30.753  28.263  24.602  1.00  0.00    -0.201 OA
BRANCH  22  25
ATOM     25  C   UNL A   1      29.827  29.809  22.899  1.00  0.00     0.088 A 
ATOM     26  C   UNL A   1      27.659  33.097  21.143  1.00  0.00     0.044 C 
ATOM     27  C   UNL A   1      28.345  31.937  21.806  1.00  0.00    -0.051 A 
ATOM     28  C   UNL A   1      28.736  30.891  20.986  1.00  0.00     0.005 A 
ATOM     29  C   UNL A   1      28.660  31.886  23.184  1.00  0.00     0.005 A 
ATOM     30  C   UNL A   1      29.449  29.845  21.533  1.00  0.00     0.022 A 
ATOM     31  C   UNL A   1      29.412  30.820  23.745  1.00  0.00     0.022 A 
ENDBRANCH  22  25
ENDBRANCH  14  22
ENDBRANCH  11  13
ENDBRANCH   8  11
ENDBRANCH   6   7
BRANCH   6  32
ATOM     32  C   UNL A   1      35.202  21.234  24.591  1.00  0.00     0.074 C 
BRANCH  32  33
ATOM     33  C   UNL A   1      34.080  20.273  24.881  1.00  0.00    -0.020 A 
ATOM     34  C   UNL A   1      32.865  20.617  25.442  1.00  0.00     0.087 A 
ATOM     35  C   UNL A   1      34.080  18.844  24.755  1.00  0.00     0.003 A 
ATOM     36  N   UNL A   1      32.208  19.469  25.789  1.00  0.00    -0.361 N 
ATOM     37  C   UNL A   1      32.955  18.371  25.432  1.00  0.00     0.046 A 
ATOM     38  C   UNL A   1      34.981  17.899  24.221  1.00  0.00     0.010 A 
ATOM     39  H   UNL A   1      31.329  19.435  26.229  1.00  0.00     0.166 HD
ATOM     40  C   UNL A   1      32.740  17.009  25.679  1.00  0.00     0.026 A 
ATOM     41  C   UNL A   1      34.805  16.540  24.494  1.00  0.00     0.001 A 
ATOM     42  C   UNL A   1      33.704  16.105  25.225  1.00  0.00     0.002 A 
ENDBRANCH  32  33
ENDBRANCH   6  32
ENDBRANCH   4   6
ENDBRANCH   3   4
ENDBRANCH   2   3
ENDBRANCH   1   2
BRANCH   1  43
ATOM     43  O   UNL A   1      34.375  27.089  25.875  1.00  0.00    -0.374 OA
BRANCH  43  44
ATOM     44  C   UNL A   1      33.992  28.317  25.281  1.00  0.00     0.202 C 
BRANCH  44  45
ATOM     45  C   UNL A   1      33.808  29.476  26.259  1.00  0.00     0.261 C 
BRANCH  45  46
ATOM     46  O   UNL A   1      34.532  29.191  27.466  1.00  0.00    -0.460 OA
BRANCH  46  47
ATOM     47  C   UNL A   1      34.877  30.297  28.179  1.00  0.00     0.338 C 
ATOM     48  O   UNL A   1      34.133  31.242  28.373  1.00  0.00    -0.246 OA
BRANCH  47  49
ATOM     49  C   UNL A   1      36.339  30.269  28.458  1.00  0.00     0.060 A 
ATOM     50  C   UNL A   1      37.246  30.129  27.395  1.00  0.00     0.016 A 
ATOM     51  C   UNL A   1      36.782  30.127  29.776  1.00  0.00     0.016 A 
ATOM     52  C   UNL A   1      38.560  29.717  27.640  1.00  0.00     0.010 A 
ATOM     53  C   UNL A   1      38.056  29.657  30.009  1.00  0.00     0.010 A 
ATOM     54  C   UNL A   1      38.936  29.416  28.941  1.00  0.00    -0.014 A 
BRANCH  54  55
ATOM     55  C   UNL A   1      40.225  28.872  29.352  1.00  0.00     0.031 A 
ATOM     56  C   UNL A   1      40.429  27.419  29.167  1.00  0.00     0.074 A 
ATOM     57  C   UNL A   1      41.285  29.705  29.479  1.00  0.00     0.049 A 
ATOM     58  N   UNL A   1      41.554  26.825  29.349  1.00  0.00    -0.248 NA
ATOM     59  C   UNL A   1      39.370  26.502  28.739  1.00  0.00     0.031 C 
ATOM     60  C   UNL A   1      42.690  29.409  29.202  1.00  0.00     0.029 A 
ATOM     61  N   UNL A   1      41.338  31.040  29.910  1.00  0.00    -0.354 N 
ATOM     62  C   UNL A   1      41.478  25.625  28.690  1.00  0.00     0.074 A 
ATOM     63  C   UNL A   1      40.074  25.390  28.497  1.00  0.00     0.031 C 
ATOM     64  C   UNL A   1      43.464  30.353  29.762  1.00  0.00     0.029 A 
ATOM     65  C   UNL A   1      42.578  31.194  30.548  1.00  0.00     0.049 A 
ATOM     66  H   UNL A   1      40.646  31.729  29.790  1.00  0.00     0.167 HD
ATOM     67  C   UNL A   1      42.636  25.075  28.234  1.00  0.00     0.034 A 
ATOM     68  C   UNL A   1      42.667  31.449  31.880  1.00  0.00     0.034 A 
ATOM     69  C   UNL A   1      43.808  25.769  28.814  1.00  0.00     0.049 A 
ATOM     70  C   UNL A   1      43.473  30.345  32.497  1.00  0.00     0.074 A 
ATOM     71  C   UNL A   1      44.820  26.557  28.296  1.00  0.00     0.029 A 
ATOM     72  N   UNL A   1      43.879  25.925  30.208  1.00  0.00    -0.354 N 
ATOM     73  N   UNL A   1      43.458  29.125  32.026  1.00  0.00    -0.248 NA
ATOM     74  C   UNL A   1      44.547  30.571  33.459  1.00  0.00     0.031 C 
ATOM     75  C   UNL A   1      45.395  27.295  29.383  1.00  0.00     0.029 A 
ATOM     76  C   UNL A   1      44.766  26.927  30.567  1.00  0.00     0.049 A 
ATOM     77  H   UNL A   1      43.361  25.387  30.851  1.00  0.00     0.167 HD
ATOM     78  C   UNL A   1      44.574  28.473  32.452  1.00  0.00     0.074 A 
ATOM     79  C   UNL A   1      45.192  29.392  33.402  1.00  0.00     0.031 C 
ATOM     80  C   UNL A   1      44.998  27.268  31.973  1.00  0.00     0.034 A 
BRANCH  67  81
ATOM     81  C   UNL A   1      42.712  24.008  27.149  1.00  0.00     0.023 A 
ATOM     82  C   UNL A   1      43.379  24.342  25.952  1.00  0.00     0.012 A 
ATOM     83  C   UNL A   1      42.121  22.714  27.186  1.00  0.00     0.148 A 
ATOM     84  C   UNL A   1      43.493  23.442  24.880  1.00  0.00     0.002 A 
ATOM     85  C   UNL A   1      42.314  21.786  26.156  1.00  0.00     0.091 A 
ATOM     86  F   UNL A   1      41.268  22.391  28.163  1.00  0.00    -0.205 F 
ATOM     87  C   UNL A   1      42.990  22.153  24.993  1.00  0.00     0.022 A 
BRANCH  85  88
ATOM     88  S   UNL A   1      41.762  20.070  26.276  1.00  0.00     0.127 S 
ATOM     89  O   UNL A   1      42.191  19.698  27.623  1.00  0.00    -0.237 OA
ATOM     90  O   UNL A   1      40.313  20.196  26.115  1.00  0.00    -0.237 OA
ATOM     91  O   UNL A   1      42.423  19.354  25.192  1.00  0.00    -0.744 OA
ENDBRANCH  85  88
ENDBRANCH  67  81
BRANCH  68  92
ATOM     92  C   UNL A   1      41.529  32.277  32.384  1.00  0.00     0.023 A 
ATOM     93  C   UNL A   1      41.393  33.544  31.753  1.00  0.00     0.012 A 
ATOM     94  C   UNL A   1      40.401  31.739  33.029  1.00  0.00     0.148 A 
ATOM     95  C   UNL A   1      40.152  34.169  31.612  1.00  0.00     0.002 A 
ATOM     96  C   UNL A   1      39.162  32.383  32.904  1.00  0.00     0.091 A 
ATOM     97  F   UNL A   1      40.536  30.589  33.701  1.00  0.00    -0.205 F 
ATOM     98  C   UNL A   1      39.029  33.565  32.153  1.00  0.00     0.022 A 
BRANCH  96  99
ATOM     99  S   UNL A   1      37.638  31.717  33.591  1.00  0.00     0.127 S 
ATOM    100  O   UNL A   1      37.718  32.175  34.976  1.00  0.00    -0.237 OA
ATOM    101  O   UNL A   1      36.612  32.386  32.790  1.00  0.00    -0.237 OA
ATOM    102  O   UNL A   1      37.714  30.278  33.392  1.00  0.00    -0.744 OA
ENDBRANCH  96  99
ENDBRANCH  68  92
BRANCH  80 103
ATOM    103  C   UNL A   1      45.621  26.266  32.913  1.00  0.00     0.023 A 
ATOM    104  C   UNL A   1      47.000  26.319  33.222  1.00  0.00     0.012 A 
ATOM    105  C   UNL A   1      44.815  25.429  33.712  1.00  0.00     0.148 A 
ATOM    106  C   UNL A   1      47.560  25.559  34.246  1.00  0.00     0.002 A 
ATOM    107  C   UNL A   1      45.355  24.776  34.812  1.00  0.00     0.091 A 
ATOM    108  F   UNL A   1      43.517  25.264  33.418  1.00  0.00    -0.205 F 
ATOM    109  C   UNL A   1      46.729  24.813  35.065  1.00  0.00     0.022 A 
BRANCH 107 110
ATOM    110  S   UNL A   1      44.288  24.041  36.055  1.00  0.00     0.127 S 
ATOM    111  O   UNL A   1      43.326  25.114  36.294  1.00  0.00    -0.237 OA
ATOM    112  O   UNL A   1      43.745  22.878  35.351  1.00  0.00    -0.237 OA
ATOM    113  O   UNL A   1      45.168  23.707  37.166  1.00  0.00    -0.744 OA
ENDBRANCH 107 110
ENDBRANCH  80 103
ENDBRANCH  54  55
ENDBRANCH  47  49
ENDBRANCH  46  47
ENDBRANCH  45  46
ENDBRANCH  44  45
ENDBRANCH  43  44
ENDBRANCH   1  43
TORSDOF 24
ENDMDL
MODEL 2
REMARK VINA RESULT:     -11.3      1.565      2.628
REMARK SMILES Cc1ccc(S(=O)(=O)n2cc(C(=O)C(=O)N[C@@H](Cc3c[nH]c4ccccc34)C(=O)OCCOCCOC(=O)c3ccc(-c4c5nc(c(-c6cccc(S(=O)(=O)[O-])c6F)c6ccc([nH]6)c(-c6cccc(S(=O)(=O)[O-])c6F)c6nc(c(-c7cccc(S(=O)(=O)[O-])c7F)c7ccc4[nH]7)C=C6)C=C5)cc3)c3ccccc32)cc1
REMARK SMILES IDX 32 1 31 2 30 3 28 4 29 5 17 6 16 7 14 8 15 9 12 11 13 12
REMARK SMILES IDX 11 13 9 14 10 15 107 16 102 17 106 18 103 19 105 20 104 21
REMARK SMILES IDX 6 22 7 23 8 24 5 25 1 26 2 27 3 28 109 29 4 30 108 31 18 32
REMARK SMILES IDX 19 33 20 34 27 35 21 36 22 37 26 38 23 40 25 41 24 42 33 43
REMARK SMILES IDX 34 44 35 45 36 46 37 47 38 48 39 49 40 50 101 51 41 52
REMARK SMILES IDX 100 53 42 54 43 55 44 56 94 57 45 58 99 59 93 60 95 61 46 62
REMARK SMILES IDX 98 63 92 64 91 65 47 67 79 68 59 69 78 70 60 71 63 72 77 73
REMARK SMILES IDX 96 74 61 75 62 76 76 78 97 79 64 80 48 81 49 82 57 83 50 84
REMARK SMILES IDX 52 85 58 86 51 87 53 88 54 89 55 90 56 91 80 92 81 93 89 94
REMARK SMILES IDX 82 95 84 96 90 97 83 98 85 99 86 100 87 101 88 102 65 103
REMARK SMILES IDX 66 104 74 105 67 106 69 107 75 108 68 109 70 110 71 111
REMARK SMILES IDX 72 112 73 113
REMARK H PARENT 16 10 21 39 95 66 63 77
REMARK Flexibility Score: inf
ROOT
ATOM      1  C   UNL A   1      31.397  27.853  26.927  1.00  0.00     0.202 C 
ENDROOT
BRANCH   1   2
ATOM      2  C   UNL A   1      30.744  26.523  27.195  1.00  0.00     0.261 C 
BRANCH   2   3
ATOM      3  O   UNL A   1      31.555  25.508  26.588  1.00  0.00    -0.462 OA
BRANCH   3   4
ATOM      4  C   UNL A   1      31.099  24.216  26.621  1.00  0.00     0.329 C 
ATOM      5  O   UNL A   1      30.136  23.814  27.244  1.00  0.00    -0.250 OA
BRANCH   4   6
ATOM      6  C   UNL A   1      32.072  23.318  25.850  1.00  0.00     0.197 C 
BRANCH   6   7
ATOM      7  N   UNL A   1      33.398  23.415  26.505  1.00  0.00    -0.335 N 
ATOM      8  C   UNL A   1      34.630  23.747  25.971  1.00  0.00     0.293 C 
ATOM      9  O   UNL A   1      35.623  23.849  26.652  1.00  0.00    -0.265 OA
ATOM     10  H   UNL A   1      33.403  23.213  27.468  1.00  0.00     0.164 HD
BRANCH   8  11
ATOM     11  C   UNL A   1      34.696  24.032  24.480  1.00  0.00     0.252 C 
ATOM     12  O   UNL A   1      35.368  23.249  23.817  1.00  0.00    -0.283 OA
BRANCH  11  13
ATOM     13  C   UNL A   1      34.150  25.243  23.882  1.00  0.00     0.054 A 
ATOM     14  N   UNL A   1      33.620  27.321  23.225  1.00  0.00    -0.240 N 
ATOM     15  C   UNL A   1      34.107  26.578  24.296  1.00  0.00     0.117 A 
ATOM     16  C   UNL A   1      33.589  26.474  22.104  1.00  0.00     0.065 A 
ATOM     17  C   UNL A   1      33.472  25.198  22.632  1.00  0.00     0.012 A 
ATOM     18  C   UNL A   1      33.318  26.735  20.750  1.00  0.00     0.028 A 
ATOM     19  C   UNL A   1      32.866  24.190  21.859  1.00  0.00     0.011 A 
ATOM     20  C   UNL A   1      32.675  25.736  20.017  1.00  0.00     0.002 A 
ATOM     21  C   UNL A   1      32.403  24.496  20.581  1.00  0.00     0.001 A 
BRANCH  14  22
ATOM     22  S   UNL A   1      32.244  28.375  23.207  1.00  0.00     0.268 S 
ATOM     23  O   UNL A   1      32.377  29.078  21.941  1.00  0.00    -0.201 OA
ATOM     24  O   UNL A   1      32.393  29.071  24.480  1.00  0.00    -0.201 OA
BRANCH  22  25
ATOM     25  C   UNL A   1      30.553  27.930  23.272  1.00  0.00     0.088 A 
ATOM     26  C   UNL A   1      26.257  28.008  23.633  1.00  0.00     0.044 C 
ATOM     27  C   UNL A   1      27.745  27.918  23.447  1.00  0.00    -0.051 A 
ATOM     28  C   UNL A   1      28.393  29.070  23.032  1.00  0.00     0.005 A 
ATOM     29  C   UNL A   1      28.508  26.761  23.728  1.00  0.00     0.005 A 
ATOM     30  C   UNL A   1      29.769  29.062  22.935  1.00  0.00     0.022 A 
ATOM     31  C   UNL A   1      29.926  26.757  23.647  1.00  0.00     0.022 A 
ENDBRANCH  22  25
ENDBRANCH  14  22
ENDBRANCH  11  13
ENDBRANCH   8  11
ENDBRANCH   6   7
BRANCH   6  32
ATOM     32  C   UNL A   1      31.567  21.855  25.806  1.00  0.00     0.074 C 
BRANCH  32  33
ATOM     33  C   UNL A   1      31.968  21.091  24.572  1.00  0.00    -0.020 A 
ATOM     34  C   UNL A   1      31.763  21.516  23.273  1.00  0.00     0.087 A 
ATOM     35  C   UNL A   1      32.513  19.767  24.486  1.00  0.00     0.003 A 
ATOM     36  N   UNL A   1      32.018  20.469  22.431  1.00  0.00    -0.361 N 
ATOM     37  C   UNL A   1      32.422  19.370  23.151  1.00  0.00     0.046 A 
ATOM     38  C   UNL A   1      32.977  18.826  25.429  1.00  0.00     0.010 A 
ATOM     39  H   UNL A   1      31.925  20.499  21.452  1.00  0.00     0.166 HD
ATOM     40  C   UNL A   1      32.683  18.058  22.734  1.00  0.00     0.026 A 
ATOM     41  C   UNL A   1      33.202  17.503  25.038  1.00  0.00     0.001 A 
ATOM     42  C   UNL A   1      33.043  17.124  23.709  1.00  0.00     0.002 A 
ENDBRANCH  32  33
ENDBRANCH   6  32
ENDBRANCH   4   6
ENDBRANCH   3   4
ENDBRANCH   2   3
ENDBRANCH   1   2
BRANCH   1  43
ATOM     43  O   UNL A   1      32.575  27.863  27.725  1.00  0.00    -0.374 OA
BRANCH  43  44
ATOM     44  C   UNL A   1      33.711  28.504  27.171  1.00  0.00     0.202 C 
BRANCH  44  45
ATOM     45  C   UNL A   1      33.980  29.911  27.702  1.00  0.00     0.261 C 
BRANCH  45  46
ATOM     46  O   UNL A   1      35.143  30.444  27.052  1.00  0.00    -0.460 OA
BRANCH  46  47
ATOM     47  C   UNL A   1      36.060  30.974  27.906  1.00  0.00     0.338 C 
ATOM     48  O   UNL A   1      36.121  32.156  28.193  1.00  0.00    -0.246 OA
BRANCH  47  49
ATOM     49  C   UNL A   1      37.091  29.948  28.224  1.00  0.00     0.060 A 
ATOM     50  C   UNL A   1      37.120  29.366  29.502  1.00  0.00     0.016 A 
ATOM     51  C   UNL A   1      38.163  29.759  27.348  1.00  0.00     0.016 A 
ATOM     52  C   UNL A   1      38.272  28.712  29.952  1.00  0.00     0.010 A 
ATOM     53  C   UNL A   1      39.320  29.174  27.817  1.00  0.00     0.010 A 
ATOM     54  C   UNL A   1      39.389  28.682  29.131  1.00  0.00    -0.014 A 
BRANCH  54  55
ATOM     55  C   UNL A   1      40.696  28.141  29.488  1.00  0.00     0.031 A 
ATOM     56  C   UNL A   1      40.941  26.717  29.173  1.00  0.00     0.074 A 
ATOM     57  C   UNL A   1      41.732  28.990  29.685  1.00  0.00     0.049 A 
ATOM     58  N   UNL A   1      42.083  26.143  29.299  1.00  0.00    -0.248 NA
ATOM     59  C   UNL A   1      39.905  25.811  28.669  1.00  0.00     0.031 C 
ATOM     60  C   UNL A   1      43.143  28.761  29.378  1.00  0.00     0.029 A 
ATOM     61  N   UNL A   1      41.749  30.283  30.233  1.00  0.00    -0.354 N 
ATOM     62  C   UNL A   1      42.038  25.004  28.536  1.00  0.00     0.074 A 
ATOM     63  C   UNL A   1      40.639  24.746  28.327  1.00  0.00     0.031 C 
ATOM     64  C   UNL A   1      43.894  29.673  30.017  1.00  0.00     0.029 A 
ATOM     65  C   UNL A   1      42.988  30.416  30.878  1.00  0.00     0.049 A 
ATOM     66  H   UNL A   1      41.037  30.959  30.176  1.00  0.00     0.167 HD
ATOM     67  C   UNL A   1      43.208  24.531  28.030  1.00  0.00     0.034 A 
ATOM     68  C   UNL A   1      43.077  30.554  32.227  1.00  0.00     0.034 A 
ATOM     69  C   UNL A   1      44.363  25.204  28.665  1.00  0.00     0.049 A 
ATOM     70  C   UNL A   1      43.918  29.424  32.741  1.00  0.00     0.074 A 
ATOM     71  C   UNL A   1      45.349  26.064  28.216  1.00  0.00     0.029 A 
ATOM     72  N   UNL A   1      44.437  25.237  30.067  1.00  0.00    -0.354 N 
ATOM     73  N   UNL A   1      43.935  28.250  32.164  1.00  0.00    -0.248 NA
ATOM     74  C   UNL A   1      44.990  29.594  33.716  1.00  0.00     0.031 C 
ATOM     75  C   UNL A   1      45.909  26.719  29.362  1.00  0.00     0.029 A 
ATOM     76  C   UNL A   1      45.297  26.230  30.511  1.00  0.00     0.049 A 
ATOM     77  H   UNL A   1      43.939  24.630  30.661  1.00  0.00     0.167 HD
ATOM     78  C   UNL A   1      45.072  27.595  32.527  1.00  0.00     0.074 A 
ATOM     79  C   UNL A   1      45.669  28.444  33.553  1.00  0.00     0.031 C 
ATOM     80  C   UNL A   1      45.528  26.451  31.941  1.00  0.00     0.034 A 
BRANCH  67  81
ATOM     81  C   UNL A   1      43.309  23.567  26.854  1.00  0.00     0.023 A 
ATOM     82  C   UNL A   1      43.864  24.058  25.654  1.00  0.00     0.012 A 
ATOM     83  C   UNL A   1      42.840  22.224  26.813  1.00  0.00     0.148 A 
ATOM     84  C   UNL A   1      43.987  23.262  24.503  1.00  0.00     0.002 A 
ATOM     85  C   UNL A   1      43.047  21.404  25.697  1.00  0.00     0.091 A 
ATOM     86  F   UNL A   1      42.085  21.743  27.805  1.00  0.00    -0.205 F 
ATOM     87  C   UNL A   1      43.611  21.926  24.533  1.00  0.00     0.022 A 
BRANCH  85  88
ATOM     88  S   UNL A   1      42.660  19.640  25.699  1.00  0.00     0.127 S 
ATOM     89  O   UNL A   1      43.039  19.240  27.054  1.00  0.00    -0.237 OA
ATOM     90  O   UNL A   1      41.219  19.635  25.447  1.00  0.00    -0.237 OA
ATOM     91  O   UNL A   1      43.456  19.048  24.630  1.00  0.00    -0.744 OA
ENDBRANCH  85  88
ENDBRANCH  67  81
BRANCH  68  92
ATOM     92  C   UNL A   1      41.918  31.301  32.806  1.00  0.00     0.023 A 
ATOM     93  C   UNL A   1      41.717  32.598  32.261  1.00  0.00     0.012 A 
ATOM     94  C   UNL A   1      40.828  30.676  33.438  1.00  0.00     0.148 A 
ATOM     95  C   UNL A   1      40.450  33.179  32.185  1.00  0.00     0.002 A 
ATOM     96  C   UNL A   1      39.562  31.275  33.380  1.00  0.00     0.091 A 
ATOM     97  F   UNL A   1      41.025  29.493  34.032  1.00  0.00    -0.205 F 
ATOM     98  C   UNL A   1      39.364  32.496  32.709  1.00  0.00     0.022 A 
BRANCH  96  99
ATOM     99  S   UNL A   1      38.081  30.504  34.054  1.00  0.00     0.127 S 
ATOM    100  O   UNL A   1      37.047  31.446  33.635  1.00  0.00    -0.237 OA
ATOM    101  O   UNL A   1      38.050  29.218  33.356  1.00  0.00    -0.237 OA
ATOM    102  O   UNL A   1      38.309  30.405  35.488  1.00  0.00    -0.744 OA
ENDBRANCH  96  99
ENDBRANCH  68  92
BRANCH  80 103
ATOM    103  C   UNL A   1      46.185  25.388  32.787  1.00  0.00     0.023 A 
ATOM    104  C   UNL A   1      47.577  25.409  33.027  1.00  0.00     0.012 A 
ATOM    105  C   UNL A   1      45.409  24.512  33.574  1.00  0.00     0.148 A 
ATOM    106  C   UNL A   1      48.178  24.583  33.974  1.00  0.00     0.002 A 
ATOM    107  C   UNL A   1      45.995  23.788  34.604  1.00  0.00     0.091 A 
ATOM    108  F   UNL A   1      44.096  24.378  33.338  1.00  0.00    -0.205 F 
ATOM    109  C   UNL A   1      47.381  23.797  34.788  1.00  0.00     0.022 A 
BRANCH 107 110
ATOM    110  S   UNL A   1      44.983  22.990  35.855  1.00  0.00     0.127 S 
ATOM    111  O   UNL A   1      45.779  21.807  36.171  1.00  0.00    -0.237 OA
ATOM    112  O   UNL A   1      44.942  24.001  36.913  1.00  0.00    -0.237 OA
ATOM    113  O   UNL A   1      43.699  22.750  35.212  1.00  0.00    -0.744 OA
ENDBRANCH 107 110
ENDBRANCH  80 103
ENDBRANCH  54  55
ENDBRANCH  47  49
ENDBRANCH  46  47
ENDBRANCH  45  46
ENDBRANCH  44  45
ENDBRANCH  43  44
ENDBRANCH   1  43
TORSDOF 24
ENDMDL
MODEL 3
REMARK VINA RESULT:     -10.7      6.744     17.646
REMARK SMILES Cc1ccc(S(=O)(=O)n2cc(C(=O)C(=O)N[C@@H](Cc3c[nH]c4ccccc34)C(=O)OCCOCCOC(=O)c3ccc(-c4c5nc(c(-c6cccc(S(=O)(=O)[O-])c6F)c6ccc([nH]6)c(-c6cccc(S(=O)(=O)[O-])c6F)c6nc(c(-c7cccc(S(=O)(=O)[O-])c7F)c7ccc4[nH]7)C=C6)C=C5)cc3)c3ccccc32)cc1
REMARK SMILES IDX 32 1 31 2 30 3 28 4 29 5 17 6 16 7 14 8 15 9 12 11 13 12
REMARK SMILES IDX 11 13 9 14 10 15 107 16 102 17 106 18 103 19 105 20 104 21
REMARK SMILES IDX 6 22 7 23 8 24 5 25 1 26 2 27 3 28 109 29 4 30 108 31 18 32
REMARK SMILES IDX 19 33 20 34 27 35 21 36 22 37 26 38 23 40 25 41 24 42 33 43
REMARK SMILES IDX 34 44 35 45 36 46 37 47 38 48 39 49 40 50 101 51 41 52
REMARK SMILES IDX 100 53 42 54 43 55 44 56 94 57 45 58 99 59 93 60 95 61 46 62
REMARK SMILES IDX 98 63 92 64 91 65 47 67 79 68 59 69 78 70 60 71 63 72 77 73
REMARK SMILES IDX 96 74 61 75 62 76 76 78 97 79 64 80 48 81 49 82 57 83 50 84
REMARK SMILES IDX 52 85 58 86 51 87 53 88 54 89 55 90 56 91 80 92 81 93 89 94
REMARK SMILES IDX 82 95 84 96 90 97 83 98 85 99 86 100 87 101 88 102 65 103
REMARK SMILES IDX 66 104 74 105 67 106 69 107 75 108 68 109 70 110 71 111
REMARK SMILES IDX 72 112 73 113
REMARK H PARENT 16 10 21 39 95 66 63 77
REMARK Flexibility Score: inf
ROOT
ATOM      1  C   UNL A   1      51.178  20.403  37.140  1.00  0.00     0.202 C 
ENDROOT
BRANCH   1   2
ATOM      2  C   UNL A   1      50.723  19.174  37.882  1.00  0.00     0.261 C 
BRANCH   2   3
ATOM      3  O   UNL A   1      49.409  19.436  38.395  1.00  0.00    -0.462 OA
BRANCH   3   4
ATOM      4  C   UNL A   1      49.231  19.402  39.753  1.00  0.00     0.329 C 
ATOM      5  O   UNL A   1      50.111  19.443  40.591  1.00  0.00    -0.250 OA
BRANCH   4   6
ATOM      6  C   UNL A   1      47.747  19.172  40.062  1.00  0.00     0.197 C 
BRANCH   6   7
ATOM      7  N   UNL A   1      47.497  19.617  41.453  1.00  0.00    -0.335 N 
ATOM      8  C   UNL A   1      47.085  18.893  42.556  1.00  0.00     0.293 C 
ATOM      9  O   UNL A   1      46.986  19.388  43.655  1.00  0.00    -0.265 OA
ATOM     10  H   UNL A   1      47.647  20.576  41.618  1.00  0.00     0.164 HD
BRANCH   8  11
ATOM     11  C   UNL A   1      46.799  17.413  42.359  1.00  0.00     0.252 C 
ATOM     12  O   UNL A   1      47.781  16.699  42.184  1.00  0.00    -0.283 OA
BRANCH  11  13
ATOM     13  C   UNL A   1      45.450  16.882  42.212  1.00  0.00     0.054 A 
ATOM     14  N   UNL A   1      43.302  16.265  42.396  1.00  0.00    -0.240 N 
ATOM     15  C   UNL A   1      44.449  16.550  43.130  1.00  0.00     0.117 A 
ATOM     16  C   UNL A   1      43.548  16.646  41.066  1.00  0.00     0.065 A 
ATOM     17  C   UNL A   1      44.925  16.570  40.928  1.00  0.00     0.012 A 
ATOM     18  C   UNL A   1      42.701  16.707  39.945  1.00  0.00     0.028 A 
ATOM     19  C   UNL A   1      45.473  16.333  39.653  1.00  0.00     0.011 A 
ATOM     20  C   UNL A   1      43.260  16.424  38.699  1.00  0.00     0.002 A 
ATOM     21  C   UNL A   1      44.621  16.185  38.561  1.00  0.00     0.001 A 
BRANCH  14  22
ATOM     22  S   UNL A   1      42.358  14.811  42.428  1.00  0.00     0.268 S 
ATOM     23  O   UNL A   1      42.367  14.374  41.042  1.00  0.00    -0.201 OA
ATOM     24  O   UNL A   1      41.133  15.273  43.071  1.00  0.00    -0.201 OA
BRANCH  22  25
ATOM     25  C   UNL A   1      42.674  13.349  43.338  1.00  0.00     0.088 A 
ATOM     26  C   UNL A   1      44.534  10.255  45.695  1.00  0.00     0.044 C 
ATOM     27  C   UNL A   1      43.811  11.316  44.915  1.00  0.00    -0.051 A 
ATOM     28  C   UNL A   1      44.291  12.610  45.029  1.00  0.00     0.005 A 
ATOM     29  C   UNL A   1      42.729  11.057  44.043  1.00  0.00     0.005 A 
ATOM     30  C   UNL A   1      43.718  13.604  44.263  1.00  0.00     0.022 A 
ATOM     31  C   UNL A   1      42.151  12.074  43.239  1.00  0.00     0.022 A 
ENDBRANCH  22  25
ENDBRANCH  14  22
ENDBRANCH  11  13
ENDBRANCH   8  11
ENDBRANCH   6   7
BRANCH   6  32
ATOM     32  C   UNL A   1      46.844  19.925  39.054  1.00  0.00     0.074 C 
BRANCH  32  33
ATOM     33  C   UNL A   1      46.360  21.269  39.529  1.00  0.00    -0.020 A 
ATOM     34  C   UNL A   1      45.292  21.472  40.383  1.00  0.00     0.087 A 
ATOM     35  C   UNL A   1      46.808  22.569  39.120  1.00  0.00     0.003 A 
ATOM     36  N   UNL A   1      44.991  22.806  40.388  1.00  0.00    -0.361 N 
ATOM     37  C   UNL A   1      45.866  23.492  39.579  1.00  0.00     0.046 A 
ATOM     38  C   UNL A   1      47.865  23.042  38.316  1.00  0.00     0.010 A 
ATOM     39  H   UNL A   1      44.255  23.215  40.897  1.00  0.00     0.166 HD
ATOM     40  C   UNL A   1      45.881  24.839  39.196  1.00  0.00     0.026 A 
ATOM     41  C   UNL A   1      47.872  24.373  37.890  1.00  0.00     0.001 A 
ATOM     42  C   UNL A   1      46.884  25.254  38.315  1.00  0.00     0.002 A 
ENDBRANCH  32  33
ENDBRANCH   6  32
ENDBRANCH   4   6
ENDBRANCH   3   4
ENDBRANCH   2   3
ENDBRANCH   1   2
BRANCH   1  43
ATOM     43  O   UNL A   1      49.991  21.001  36.634  1.00  0.00    -0.374 OA
BRANCH  43  44
ATOM     44  C   UNL A   1      50.159  22.062  35.710  1.00  0.00     0.202 C 
BRANCH  44  45
ATOM     45  C   UNL A   1      49.508  21.838  34.347  1.00  0.00     0.261 C 
BRANCH  45  46
ATOM     46  O   UNL A   1      48.387  22.723  34.211  1.00  0.00    -0.460 OA
BRANCH  46  47
ATOM     47  C   UNL A   1      47.196  22.167  34.561  1.00  0.00     0.338 C 
ATOM     48  O   UNL A   1      47.031  20.976  34.753  1.00  0.00    -0.246 OA
BRANCH  47  49
ATOM     49  C   UNL A   1      46.117  23.185  34.431  1.00  0.00     0.060 A 
ATOM     50  C   UNL A   1      44.845  22.794  33.985  1.00  0.00     0.016 A 
ATOM     51  C   UNL A   1      46.443  24.541  34.507  1.00  0.00     0.016 A 
ATOM     52  C   UNL A   1      43.948  23.747  33.490  1.00  0.00     0.010 A 
ATOM     53  C   UNL A   1      45.585  25.470  33.958  1.00  0.00     0.010 A 
ATOM     54  C   UNL A   1      44.352  25.071  33.415  1.00  0.00    -0.014 A 
BRANCH  54  55
ATOM     55  C   UNL A   1      43.587  26.165  32.828  1.00  0.00     0.031 A 
ATOM     56  C   UNL A   1      42.738  26.957  33.744  1.00  0.00     0.074 A 
ATOM     57  C   UNL A   1      43.969  26.673  31.633  1.00  0.00     0.049 A 
ATOM     58  N   UNL A   1      42.121  28.030  33.400  1.00  0.00    -0.248 NA
ATOM     59  C   UNL A   1      42.522  26.608  35.150  1.00  0.00     0.031 C 
ATOM     60  C   UNL A   1      43.870  28.060  31.180  1.00  0.00     0.029 A 
ATOM     61  N   UNL A   1      44.538  26.033  30.519  1.00  0.00    -0.354 N 
ATOM     62  C   UNL A   1      41.813  28.696  34.558  1.00  0.00     0.074 A 
ATOM     63  C   UNL A   1      41.906  27.708  35.597  1.00  0.00     0.031 C 
ATOM     64  C   UNL A   1      44.027  28.108  29.847  1.00  0.00     0.029 A 
ATOM     65  C   UNL A   1      44.075  26.728  29.392  1.00  0.00     0.049 A 
ATOM     66  H   UNL A   1      45.140  25.255  30.527  1.00  0.00     0.167 HD
ATOM     67  C   UNL A   1      41.695  30.050  34.501  1.00  0.00     0.034 A 
ATOM     68  C   UNL A   1      43.252  26.143  28.482  1.00  0.00     0.034 A 
ATOM     69  C   UNL A   1      41.640  30.512  33.095  1.00  0.00     0.049 A 
ATOM     70  C   UNL A   1      41.997  26.960  28.418  1.00  0.00     0.074 A 
ATOM     71  C   UNL A   1      42.474  31.270  32.293  1.00  0.00     0.029 A 
ATOM     72  N   UNL A   1      40.708  29.922  32.227  1.00  0.00    -0.354 N 
ATOM     73  N   UNL A   1      41.531  27.605  29.457  1.00  0.00    -0.248 NA
ATOM     74  C   UNL A   1      41.354  27.355  27.168  1.00  0.00     0.031 C 
ATOM     75  C   UNL A   1      42.119  31.008  30.929  1.00  0.00     0.029 A 
ATOM     76  C   UNL A   1      41.045  30.125  30.899  1.00  0.00     0.049 A 
ATOM     77  H   UNL A   1      39.912  29.425  32.527  1.00  0.00     0.167 HD
ATOM     78  C   UNL A   1      40.696  28.590  29.027  1.00  0.00     0.074 A 
ATOM     79  C   UNL A   1      40.560  28.353  27.594  1.00  0.00     0.031 C 
ATOM     80  C   UNL A   1      40.214  29.595  29.814  1.00  0.00     0.034 A 
BRANCH  67  81
ATOM     81  C   UNL A   1      41.780  30.972  35.711  1.00  0.00     0.023 A 
ATOM     82  C   UNL A   1      43.019  31.060  36.379  1.00  0.00     0.012 A 
ATOM     83  C   UNL A   1      40.714  31.718  36.288  1.00  0.00     0.148 A 
ATOM     84  C   UNL A   1      43.204  31.864  37.515  1.00  0.00     0.002 A 
ATOM     85  C   UNL A   1      40.921  32.590  37.363  1.00  0.00     0.091 A 
ATOM     86  F   UNL A   1      39.456  31.517  35.885  1.00  0.00    -0.205 F 
ATOM     87  C   UNL A   1      42.166  32.655  37.988  1.00  0.00     0.022 A 
BRANCH  85  88
ATOM     88  S   UNL A   1      39.640  33.708  37.971  1.00  0.00     0.127 S 
ATOM     89  O   UNL A   1      40.019  34.980  37.357  1.00  0.00    -0.237 OA
ATOM     90  O   UNL A   1      38.420  33.111  37.426  1.00  0.00    -0.237 OA
ATOM     91  O   UNL A   1      39.724  33.669  39.426  1.00  0.00    -0.744 OA
ENDBRANCH  85  88
ENDBRANCH  67  81
BRANCH  68  92
ATOM     92  C   UNL A   1      43.519  24.680  28.324  1.00  0.00     0.023 A 
ATOM     93  C   UNL A   1      42.839  23.849  29.257  1.00  0.00     0.012 A 
ATOM     94  C   UNL A   1      43.964  24.095  27.125  1.00  0.00     0.148 A 
ATOM     95  C   UNL A   1      42.458  22.544  28.942  1.00  0.00     0.002 A 
ATOM     96  C   UNL A   1      43.600  22.776  26.824  1.00  0.00     0.091 A 
ATOM     97  F   UNL A   1      44.682  24.842  26.277  1.00  0.00    -0.205 F 
ATOM     98  C   UNL A   1      42.804  22.021  27.706  1.00  0.00     0.022 A 
BRANCH  96  99
ATOM     99  S   UNL A   1      44.019  21.974  25.268  1.00  0.00     0.127 S 
ATOM    100  O   UNL A   1      45.433  21.668  25.470  1.00  0.00    -0.237 OA
ATOM    101  O   UNL A   1      43.139  20.804  25.269  1.00  0.00    -0.237 OA
ATOM    102  O   UNL A   1      43.721  22.950  24.232  1.00  0.00    -0.744 OA
ENDBRANCH  96  99
ENDBRANCH  68  92
BRANCH  80 103
ATOM    103  C   UNL A   1      38.801  30.086  29.617  1.00  0.00     0.023 A 
ATOM    104  C   UNL A   1      37.716  29.181  29.575  1.00  0.00     0.012 A 
ATOM    105  C   UNL A   1      38.491  31.457  29.739  1.00  0.00     0.148 A 
ATOM    106  C   UNL A   1      36.392  29.609  29.618  1.00  0.00     0.002 A 
ATOM    107  C   UNL A   1      37.176  31.866  29.914  1.00  0.00     0.091 A 
ATOM    108  F   UNL A   1      39.468  32.374  29.697  1.00  0.00    -0.205 F 
ATOM    109  C   UNL A   1      36.122  30.952  29.823  1.00  0.00     0.022 A 
BRANCH 107 110
ATOM    110  S   UNL A   1      36.801  33.534  30.465  1.00  0.00     0.127 S 
ATOM    111  O   UNL A   1      37.699  33.678  31.609  1.00  0.00    -0.237 OA
ATOM    112  O   UNL A   1      37.164  34.337  29.296  1.00  0.00    -0.237 OA
ATOM    113  O   UNL A   1      35.375  33.527  30.763  1.00  0.00    -0.744 OA
ENDBRANCH 107 110
ENDBRANCH  80 103
ENDBRANCH  54  55
ENDBRANCH  47  49
ENDBRANCH  46  47
ENDBRANCH  45  46
ENDBRANCH  44  45
ENDBRANCH  43  44
ENDBRANCH   1  43
TORSDOF 24
ENDMDL
