MODEL 1
REMARK VINA RESULT:     -10.7      0.000      0.000
REMARK SMILES CSCC[C@H](NC(=O)N[C@@H]1CCCCC1(C)C)C(=O)OCCOCCOC(=O)c1ccc(-c2c3nc(c(-c4cccc(S(=O)(=O)[O-])c4F)c4ccc([nH]4)c(-c4cccc(S(=O)(=O)[O-])c4F)c4nc(c(-c5cccc(S(=O)(=O)[O-])c5F)c5ccc2[nH]5)C=C4)C=C3)cc1
REMARK SMILES IDX 23 1 22 2 21 3 20 4 18 5 19 6 5 7 4 8 3 9 2 10 1 11 6 12
REMARK SMILES IDX 7 13 8 15 9 16 10 18 11 19 15 20 12 21 14 22 16 23 17 24
REMARK SMILES IDX 13 25 24 26 25 27 26 28 27 29 28 30 29 31 30 32 91 33 31 34
REMARK SMILES IDX 90 35 32 36 33 37 34 38 84 39 35 40 89 41 83 42 85 43 36 44
REMARK SMILES IDX 88 45 82 46 81 47 37 49 69 50 49 51 68 52 50 53 53 54 67 55
REMARK SMILES IDX 86 56 51 57 52 58 66 60 87 61 54 62 38 63 39 64 47 65 40 66
REMARK SMILES IDX 42 67 48 68 41 69 43 70 44 71 45 72 46 73 70 74 71 75 79 76
REMARK SMILES IDX 72 77 74 78 80 79 73 80 75 81 76 82 77 83 78 84 55 85 56 86
REMARK SMILES IDX 64 87 57 88 59 89 65 90 58 91 60 92 61 93 62 94 63 95
REMARK H PARENT 6 14 9 17 85 48 53 59
REMARK Flexibility Score: inf
ROOT
ATOM      1  O   UNL A   1      32.535  30.124  25.493  1.00  0.00    -0.374 OA
ENDROOT
BRANCH   1   2
ATOM      2  C   UNL A   1      33.659  29.329  25.866  1.00  0.00     0.202 C 
BRANCH   2   3
ATOM      3  C   UNL A   1      33.450  28.151  26.825  1.00  0.00     0.261 C 
BRANCH   3   4
ATOM      4  O   UNL A   1      32.952  26.969  26.183  1.00  0.00    -0.462 OA
BRANCH   4   5
ATOM      5  C   UNL A   1      31.651  26.715  26.485  1.00  0.00     0.328 C 
ATOM      6  O   UNL A   1      31.028  27.312  27.357  1.00  0.00    -0.250 OA
BRANCH   5   7
ATOM      7  C   UNL A   1      30.989  25.663  25.576  1.00  0.00     0.194 C 
BRANCH   7   8
ATOM      8  C   UNL A   1      30.165  26.380  24.519  1.00  0.00     0.048 C 
BRANCH   8   9
ATOM      9  C   UNL A   1      30.516  27.751  23.948  1.00  0.00     0.072 C 
BRANCH   9  10
ATOM     10  S   UNL A   1      31.904  27.758  22.779  1.00  0.00    -0.165 SA
ATOM     11  C   UNL A   1      31.626  26.163  21.997  1.00  0.00     0.085 C 
ENDBRANCH   9  10
ENDBRANCH   8   9
ENDBRANCH   7   8
BRANCH   7  12
ATOM     12  N   UNL A   1      30.308  24.542  26.306  1.00  0.00    -0.325 N 
ATOM     13  C   UNL A   1      30.507  23.310  26.792  1.00  0.00     0.315 C 
ATOM     14  H   UNL A   1      29.381  24.810  26.499  1.00  0.00     0.166 HD
ATOM     15  O   UNL A   1      29.736  22.946  27.686  1.00  0.00    -0.249 OA
ATOM     16  N   UNL A   1      31.427  22.422  26.388  1.00  0.00    -0.335 N 
ATOM     17  H   UNL A   1      31.553  21.667  27.006  1.00  0.00     0.165 HD
BRANCH  16  18
ATOM     18  C   UNL A   1      32.272  22.367  25.209  1.00  0.00     0.089 C 
ATOM     19  C   UNL A   1      31.913  21.141  24.354  1.00  0.00     0.025 C 
ATOM     20  C   UNL A   1      33.806  22.554  25.401  1.00  0.00    -0.015 C 
ATOM     21  C   UNL A   1      32.583  19.876  24.865  1.00  0.00     0.002 C 
ATOM     22  C   UNL A   1      34.489  21.233  25.801  1.00  0.00     0.008 C 
ATOM     23  C   UNL A   1      34.389  23.065  24.050  1.00  0.00     0.013 C 
ATOM     24  C   UNL A   1      34.118  23.647  26.444  1.00  0.00     0.013 C 
ATOM     25  C   UNL A   1      34.094  20.052  24.917  1.00  0.00     0.001 C 
ENDBRANCH  16  18
ENDBRANCH   7  12
ENDBRANCH   5   7
ENDBRANCH   4   5
ENDBRANCH   3   4
ENDBRANCH   2   3
ENDBRANCH   1   2
BRANCH   1  26
ATOM     26  C   UNL A   1      31.804  30.802  26.514  1.00  0.00     0.202 C 
BRANCH  26  27
ATOM     27  C   UNL A   1      32.023  32.305  26.710  1.00  0.00     0.261 C 
BRANCH  27  28
ATOM     28  O   UNL A   1      32.553  32.609  28.009  1.00  0.00    -0.460 OA
BRANCH  28  29
ATOM     29  C   UNL A   1      33.621  33.437  27.990  1.00  0.00     0.338 C 
ATOM     30  O   UNL A   1      33.599  34.667  27.994  1.00  0.00    -0.246 OA
BRANCH  29  31
ATOM     31  C   UNL A   1      34.863  32.678  28.193  1.00  0.00     0.060 A 
ATOM     32  C   UNL A   1      34.737  31.359  28.650  1.00  0.00     0.016 A 
ATOM     33  C   UNL A   1      36.119  33.264  28.033  1.00  0.00     0.016 A 
ATOM     34  C   UNL A   1      35.864  30.645  29.031  1.00  0.00     0.010 A 
ATOM     35  C   UNL A   1      37.253  32.550  28.430  1.00  0.00     0.010 A 
ATOM     36  C   UNL A   1      37.119  31.263  28.983  1.00  0.00    -0.014 A 
BRANCH  36  37
ATOM     37  C   UNL A   1      38.248  30.631  29.700  1.00  0.00     0.031 A 
ATOM     38  C   UNL A   1      38.486  31.008  31.137  1.00  0.00     0.074 A 
ATOM     39  C   UNL A   1      39.014  29.707  29.096  1.00  0.00     0.049 A 
ATOM     40  N   UNL A   1      39.412  30.592  31.959  1.00  0.00    -0.248 NA
ATOM     41  C   UNL A   1      37.554  31.985  31.727  1.00  0.00     0.031 C 
ATOM     42  C   UNL A   1      38.854  29.249  27.717  1.00  0.00     0.029 A 
ATOM     43  N   UNL A   1      40.093  29.003  29.565  1.00  0.00    -0.354 N 
ATOM     44  C   UNL A   1      39.198  31.278  33.147  1.00  0.00     0.074 A 
ATOM     45  C   UNL A   1      38.059  32.144  32.941  1.00  0.00     0.031 C 
ATOM     46  C   UNL A   1      39.823  28.361  27.440  1.00  0.00     0.029 A 
ATOM     47  C   UNL A   1      40.684  28.212  28.611  1.00  0.00     0.049 A 
ATOM     48  H   UNL A   1      40.412  29.061  30.494  1.00  0.00     0.167 HD
ATOM     49  C   UNL A   1      39.883  31.187  34.312  1.00  0.00     0.034 A 
ATOM     50  C   UNL A   1      41.810  27.473  28.673  1.00  0.00     0.034 A 
ATOM     51  C   UNL A   1      41.001  30.307  34.514  1.00  0.00     0.049 A 
ATOM     52  C   UNL A   1      42.571  27.412  29.972  1.00  0.00     0.074 A 
ATOM     53  C   UNL A   1      41.737  30.104  35.667  1.00  0.00     0.029 A 
ATOM     54  N   UNL A   1      41.555  29.496  33.536  1.00  0.00    -0.354 N 
ATOM     55  N   UNL A   1      42.295  27.983  31.119  1.00  0.00    -0.248 NA
ATOM     56  C   UNL A   1      43.779  26.576  29.993  1.00  0.00     0.031 C 
ATOM     57  C   UNL A   1      42.758  29.193  35.375  1.00  0.00     0.029 A 
ATOM     58  C   UNL A   1      42.634  28.801  34.052  1.00  0.00     0.049 A 
ATOM     59  H   UNL A   1      41.227  29.424  32.609  1.00  0.00     0.167 HD
ATOM     60  C   UNL A   1      43.273  27.549  32.008  1.00  0.00     0.074 A 
ATOM     61  C   UNL A   1      44.136  26.649  31.269  1.00  0.00     0.031 C 
ATOM     62  C   UNL A   1      43.449  27.870  33.313  1.00  0.00     0.034 A 
BRANCH  49  63
ATOM     63  C   UNL A   1      39.436  32.052  35.460  1.00  0.00     0.023 A 
ATOM     64  C   UNL A   1      39.749  33.426  35.469  1.00  0.00     0.012 A 
ATOM     65  C   UNL A   1      38.659  31.512  36.504  1.00  0.00     0.148 A 
ATOM     66  C   UNL A   1      39.318  34.244  36.514  1.00  0.00     0.002 A 
ATOM     67  C   UNL A   1      38.195  32.343  37.516  1.00  0.00     0.091 A 
ATOM     68  F   UNL A   1      38.394  30.198  36.490  1.00  0.00    -0.205 F 
ATOM     69  C   UNL A   1      38.533  33.707  37.529  1.00  0.00     0.022 A 
BRANCH  67  70
ATOM     70  S   UNL A   1      37.112  31.761  38.826  1.00  0.00     0.127 S 
ATOM     71  O   UNL A   1      37.954  31.944  40.008  1.00  0.00    -0.237 OA
ATOM     72  O   UNL A   1      35.987  32.692  38.729  1.00  0.00    -0.237 OA
ATOM     73  O   UNL A   1      36.789  30.380  38.498  1.00  0.00    -0.744 OA
ENDBRANCH  67  70
ENDBRANCH  49  63
BRANCH  50  74
ATOM     74  C   UNL A   1      42.272  26.722  27.474  1.00  0.00     0.023 A 
ATOM     75  C   UNL A   1      42.997  27.388  26.468  1.00  0.00     0.012 A 
ATOM     76  C   UNL A   1      42.013  25.343  27.336  1.00  0.00     0.148 A 
ATOM     77  C   UNL A   1      43.428  26.703  25.331  1.00  0.00     0.002 A 
ATOM     78  C   UNL A   1      42.495  24.655  26.230  1.00  0.00     0.091 A 
ATOM     79  F   UNL A   1      41.307  24.732  28.298  1.00  0.00    -0.205 F 
ATOM     80  C   UNL A   1      43.186  25.336  25.217  1.00  0.00     0.022 A 
BRANCH  78  81
ATOM     81  S   UNL A   1      42.347  22.873  26.066  1.00  0.00     0.127 S 
ATOM     82  O   UNL A   1      42.967  22.639  24.765  1.00  0.00    -0.237 OA
ATOM     83  O   UNL A   1      43.123  22.399  27.214  1.00  0.00    -0.237 OA
ATOM     84  O   UNL A   1      40.921  22.586  26.150  1.00  0.00    -0.744 OA
ENDBRANCH  78  81
ENDBRANCH  50  74
BRANCH  62  85
ATOM     85  C   UNL A   1      44.593  27.217  34.047  1.00  0.00     0.023 A 
ATOM     86  C   UNL A   1      44.400  25.978  34.688  1.00  0.00     0.012 A 
ATOM     87  C   UNL A   1      45.875  27.799  34.033  1.00  0.00     0.148 A 
ATOM     88  C   UNL A   1      45.461  25.344  35.335  1.00  0.00     0.002 A 
ATOM     89  C   UNL A   1      46.939  27.137  34.635  1.00  0.00     0.091 A 
ATOM     90  F   UNL A   1      46.033  28.987  33.432  1.00  0.00    -0.205 F 
ATOM     91  C   UNL A   1      46.731  25.916  35.298  1.00  0.00     0.022 A 
BRANCH  89  92
ATOM     92  S   UNL A   1      48.625  27.749  34.552  1.00  0.00     0.127 S 
ATOM     93  O   UNL A   1      48.514  28.790  33.530  1.00  0.00    -0.237 OA
ATOM     94  O   UNL A   1      48.841  28.248  35.910  1.00  0.00    -0.237 OA
ATOM     95  O   UNL A   1      49.451  26.605  34.189  1.00  0.00    -0.744 OA
ENDBRANCH  89  92
ENDBRANCH  62  85
ENDBRANCH  36  37
ENDBRANCH  29  31
ENDBRANCH  28  29
ENDBRANCH  27  28
ENDBRANCH  26  27
ENDBRANCH   1  26
TORSDOF 22
ENDMDL
MODEL 2
REMARK VINA RESULT:     -10.7      2.231      2.750
REMARK SMILES CSCC[C@H](NC(=O)N[C@@H]1CCCCC1(C)C)C(=O)OCCOCCOC(=O)c1ccc(-c2c3nc(c(-c4cccc(S(=O)(=O)[O-])c4F)c4ccc([nH]4)c(-c4cccc(S(=O)(=O)[O-])c4F)c4nc(c(-c5cccc(S(=O)(=O)[O-])c5F)c5ccc2[nH]5)C=C4)C=C3)cc1
REMARK SMILES IDX 23 1 22 2 21 3 20 4 18 5 19 6 5 7 4 8 3 9 2 10 1 11 6 12
REMARK SMILES IDX 7 13 8 15 9 16 10 18 11 19 15 20 12 21 14 22 16 23 17 24
REMARK SMILES IDX 13 25 24 26 25 27 26 28 27 29 28 30 29 31 30 32 91 33 31 34
REMARK SMILES IDX 90 35 32 36 33 37 34 38 84 39 35 40 89 41 83 42 85 43 36 44
REMARK SMILES IDX 88 45 82 46 81 47 37 49 69 50 49 51 68 52 50 53 53 54 67 55
REMARK SMILES IDX 86 56 51 57 52 58 66 60 87 61 54 62 38 63 39 64 47 65 40 66
REMARK SMILES IDX 42 67 48 68 41 69 43 70 44 71 45 72 46 73 70 74 71 75 79 76
REMARK SMILES IDX 72 77 74 78 80 79 73 80 75 81 76 82 77 83 78 84 55 85 56 86
REMARK SMILES IDX 64 87 57 88 59 89 65 90 58 91 60 92 61 93 62 94 63 95
REMARK H PARENT 6 14 9 17 85 48 53 59
REMARK Flexibility Score: inf
ROOT
ATOM      1  O   UNL A   1      32.834  30.493  26.428  1.00  0.00    -0.374 OA
ENDROOT
BRANCH   1   2
ATOM      2  C   UNL A   1      32.966  29.285  27.173  1.00  0.00     0.202 C 
BRANCH   2   3
ATOM      3  C   UNL A   1      32.098  28.079  26.792  1.00  0.00     0.261 C 
BRANCH   3   4
ATOM      4  O   UNL A   1      32.854  26.941  26.359  1.00  0.00    -0.462 OA
BRANCH   4   5
ATOM      5  C   UNL A   1      32.500  26.516  25.117  1.00  0.00     0.328 C 
ATOM      6  O   UNL A   1      31.416  26.001  24.860  1.00  0.00    -0.250 OA
BRANCH   5   7
ATOM      7  C   UNL A   1      33.547  26.816  24.027  1.00  0.00     0.194 C 
BRANCH   7   8
ATOM      8  C   UNL A   1      33.414  28.271  23.609  1.00  0.00     0.048 C 
BRANCH   8   9
ATOM      9  C   UNL A   1      32.082  29.007  23.491  1.00  0.00     0.072 C 
BRANCH   9  10
ATOM     10  S   UNL A   1      30.921  28.294  22.292  1.00  0.00    -0.165 SA
ATOM     11  C   UNL A   1      29.856  29.721  22.043  1.00  0.00     0.085 C 
ENDBRANCH   9  10
ENDBRANCH   8   9
ENDBRANCH   7   8
BRANCH   7  12
ATOM     12  N   UNL A   1      33.604  25.806  22.919  1.00  0.00    -0.325 N 
ATOM     13  C   UNL A   1      33.508  24.494  22.665  1.00  0.00     0.315 C 
ATOM     14  H   UNL A   1      33.773  26.278  22.072  1.00  0.00     0.166 HD
ATOM     15  O   UNL A   1      33.225  24.183  21.504  1.00  0.00    -0.249 OA
ATOM     16  N   UNL A   1      33.719  23.489  23.526  1.00  0.00    -0.335 N 
ATOM     17  H   UNL A   1      33.391  22.616  23.211  1.00  0.00     0.165 HD
BRANCH  16  18
ATOM     18  C   UNL A   1      34.342  23.446  24.837  1.00  0.00     0.089 C 
ATOM     19  C   UNL A   1      35.830  23.816  24.732  1.00  0.00     0.025 C 
ATOM     20  C   UNL A   1      34.080  22.196  25.729  1.00  0.00    -0.015 C 
ATOM     21  C   UNL A   1      36.682  22.628  24.315  1.00  0.00     0.002 C 
ATOM     22  C   UNL A   1      35.036  21.042  25.375  1.00  0.00     0.008 C 
ATOM     23  C   UNL A   1      34.293  22.626  27.211  1.00  0.00     0.013 C 
ATOM     24  C   UNL A   1      32.617  21.721  25.625  1.00  0.00     0.013 C 
ATOM     25  C   UNL A   1      36.500  21.470  25.284  1.00  0.00     0.001 C 
ENDBRANCH  16  18
ENDBRANCH   7  12
ENDBRANCH   5   7
ENDBRANCH   4   5
ENDBRANCH   3   4
ENDBRANCH   2   3
ENDBRANCH   1   2
BRANCH   1  26
ATOM     26  C   UNL A   1      31.732  31.356  26.707  1.00  0.00     0.202 C 
BRANCH  26  27
ATOM     27  C   UNL A   1      31.984  32.860  26.849  1.00  0.00     0.261 C 
BRANCH  27  28
ATOM     28  O   UNL A   1      32.487  33.204  28.149  1.00  0.00    -0.460 OA
BRANCH  28  29
ATOM     29  C   UNL A   1      33.628  33.926  28.127  1.00  0.00     0.338 C 
ATOM     30  O   UNL A   1      33.724  35.153  28.128  1.00  0.00    -0.246 OA
BRANCH  29  31
ATOM     31  C   UNL A   1      34.793  33.053  28.330  1.00  0.00     0.060 A 
ATOM     32  C   UNL A   1      34.574  31.845  29.006  1.00  0.00     0.016 A 
ATOM     33  C   UNL A   1      36.080  33.441  27.954  1.00  0.00     0.016 A 
ATOM     34  C   UNL A   1      35.651  31.057  29.387  1.00  0.00     0.010 A 
ATOM     35  C   UNL A   1      37.165  32.654  28.350  1.00  0.00     0.010 A 
ATOM     36  C   UNL A   1      36.953  31.493  29.117  1.00  0.00    -0.014 A 
BRANCH  36  37
ATOM     37  C   UNL A   1      38.080  30.836  29.815  1.00  0.00     0.031 A 
ATOM     38  C   UNL A   1      38.363  31.221  31.241  1.00  0.00     0.074 A 
ATOM     39  C   UNL A   1      38.804  29.884  29.203  1.00  0.00     0.049 A 
ATOM     40  N   UNL A   1      39.296  30.787  32.045  1.00  0.00    -0.248 NA
ATOM     41  C   UNL A   1      37.474  32.232  31.841  1.00  0.00     0.031 C 
ATOM     42  C   UNL A   1      38.598  29.416  27.834  1.00  0.00     0.029 A 
ATOM     43  N   UNL A   1      39.873  29.154  29.655  1.00  0.00    -0.354 N 
ATOM     44  C   UNL A   1      39.130  31.492  33.231  1.00  0.00     0.074 A 
ATOM     45  C   UNL A   1      38.012  32.389  33.042  1.00  0.00     0.031 C 
ATOM     46  C   UNL A   1      39.534  28.496  27.544  1.00  0.00     0.029 A 
ATOM     47  C   UNL A   1      40.418  28.335  28.696  1.00  0.00     0.049 A 
ATOM     48  H   UNL A   1      40.216  29.212  30.575  1.00  0.00     0.167 HD
ATOM     49  C   UNL A   1      39.840  31.393  34.380  1.00  0.00     0.034 A 
ATOM     50  C   UNL A   1      41.523  27.564  28.740  1.00  0.00     0.034 A 
ATOM     51  C   UNL A   1      40.936  30.483  34.566  1.00  0.00     0.049 A 
ATOM     52  C   UNL A   1      42.313  27.494  30.021  1.00  0.00     0.074 A 
ATOM     53  C   UNL A   1      41.693  30.271  35.703  1.00  0.00     0.029 A 
ATOM     54  N   UNL A   1      41.443  29.646  33.584  1.00  0.00    -0.354 N 
ATOM     55  N   UNL A   1      42.081  28.086  31.168  1.00  0.00    -0.248 NA
ATOM     56  C   UNL A   1      43.497  26.624  30.024  1.00  0.00     0.031 C 
ATOM     57  C   UNL A   1      42.681  29.328  35.398  1.00  0.00     0.029 A 
ATOM     58  C   UNL A   1      42.513  28.925  34.083  1.00  0.00     0.049 A 
ATOM     59  H   UNL A   1      41.092  29.574  32.666  1.00  0.00     0.167 HD
ATOM     60  C   UNL A   1      43.067  27.633  32.038  1.00  0.00     0.074 A 
ATOM     61  C   UNL A   1      43.885  26.701  31.290  1.00  0.00     0.031 C 
ATOM     62  C   UNL A   1      43.284  27.963  33.336  1.00  0.00     0.034 A 
BRANCH  49  63
ATOM     63  C   UNL A   1      39.446  32.284  35.528  1.00  0.00     0.023 A 
ATOM     64  C   UNL A   1      38.605  31.789  36.545  1.00  0.00     0.012 A 
ATOM     65  C   UNL A   1      39.953  33.594  35.625  1.00  0.00     0.148 A 
ATOM     66  C   UNL A   1      38.254  32.595  37.628  1.00  0.00     0.002 A 
ATOM     67  C   UNL A   1      39.635  34.374  36.731  1.00  0.00     0.091 A 
ATOM     68  F   UNL A   1      40.730  34.054  34.635  1.00  0.00    -0.205 F 
ATOM     69  C   UNL A   1      38.776  33.881  37.727  1.00  0.00     0.022 A 
BRANCH  67  70
ATOM     70  S   UNL A   1      40.322  36.014  36.988  1.00  0.00     0.127 S 
ATOM     71  O   UNL A   1      39.823  36.336  38.325  1.00  0.00    -0.237 OA
ATOM     72  O   UNL A   1      41.760  35.757  36.921  1.00  0.00    -0.237 OA
ATOM     73  O   UNL A   1      39.800  36.843  35.911  1.00  0.00    -0.744 OA
ENDBRANCH  67  70
ENDBRANCH  49  63
BRANCH  50  74
ATOM     74  C   UNL A   1      41.934  26.787  27.539  1.00  0.00     0.023 A 
ATOM     75  C   UNL A   1      42.563  27.442  26.463  1.00  0.00     0.012 A 
ATOM     76  C   UNL A   1      41.723  25.395  27.468  1.00  0.00     0.148 A 
ATOM     77  C   UNL A   1      42.944  26.732  25.325  1.00  0.00     0.002 A 
ATOM     78  C   UNL A   1      42.158  24.685  26.356  1.00  0.00     0.091 A 
ATOM     79  F   UNL A   1      41.109  24.793  28.496  1.00  0.00    -0.205 F 
ATOM     80  C   UNL A   1      42.751  25.353  25.274  1.00  0.00     0.022 A 
BRANCH  78  81
ATOM     81  S   UNL A   1      42.072  22.893  26.265  1.00  0.00     0.127 S 
ATOM     82  O   UNL A   1      40.632  22.659  26.323  1.00  0.00    -0.237 OA
ATOM     83  O   UNL A   1      42.689  22.629  24.964  1.00  0.00    -0.237 OA
ATOM     84  O   UNL A   1      42.840  22.403  27.401  1.00  0.00    -0.744 OA
ENDBRANCH  78  81
ENDBRANCH  50  74
BRANCH  62  85
ATOM     85  C   UNL A   1      44.425  27.285  34.050  1.00  0.00     0.023 A 
ATOM     86  C   UNL A   1      45.707  27.868  34.039  1.00  0.00     0.012 A 
ATOM     87  C   UNL A   1      44.204  26.110  34.794  1.00  0.00     0.148 A 
ATOM     88  C   UNL A   1      46.761  27.272  34.731  1.00  0.00     0.002 A 
ATOM     89  C   UNL A   1      45.246  25.550  35.524  1.00  0.00     0.091 A 
ATOM     90  F   UNL A   1      42.980  25.562  34.778  1.00  0.00    -0.205 F 
ATOM     91  C   UNL A   1      46.528  26.122  35.482  1.00  0.00     0.022 A 
BRANCH  89  92
ATOM     92  S   UNL A   1      45.016  24.129  36.596  1.00  0.00     0.127 S 
ATOM     93  O   UNL A   1      46.396  23.781  36.932  1.00  0.00    -0.237 OA
ATOM     94  O   UNL A   1      44.245  24.697  37.703  1.00  0.00    -0.237 OA
ATOM     95  O   UNL A   1      44.298  23.139  35.804  1.00  0.00    -0.744 OA
ENDBRANCH  89  92
ENDBRANCH  62  85
ENDBRANCH  36  37
ENDBRANCH  29  31
ENDBRANCH  28  29
ENDBRANCH  27  28
ENDBRANCH  26  27
ENDBRANCH   1  26
TORSDOF 22
ENDMDL
MODEL 3
REMARK VINA RESULT:     -10.6      1.912      7.807
REMARK SMILES CSCC[C@H](NC(=O)N[C@@H]1CCCCC1(C)C)C(=O)OCCOCCOC(=O)c1ccc(-c2c3nc(c(-c4cccc(S(=O)(=O)[O-])c4F)c4ccc([nH]4)c(-c4cccc(S(=O)(=O)[O-])c4F)c4nc(c(-c5cccc(S(=O)(=O)[O-])c5F)c5ccc2[nH]5)C=C4)C=C3)cc1
REMARK SMILES IDX 23 1 22 2 21 3 20 4 18 5 19 6 5 7 4 8 3 9 2 10 1 11 6 12
REMARK SMILES IDX 7 13 8 15 9 16 10 18 11 19 15 20 12 21 14 22 16 23 17 24
REMARK SMILES IDX 13 25 24 26 25 27 26 28 27 29 28 30 29 31 30 32 91 33 31 34
REMARK SMILES IDX 90 35 32 36 33 37 34 38 84 39 35 40 89 41 83 42 85 43 36 44
REMARK SMILES IDX 88 45 82 46 81 47 37 49 69 50 49 51 68 52 50 53 53 54 67 55
REMARK SMILES IDX 86 56 51 57 52 58 66 60 87 61 54 62 38 63 39 64 47 65 40 66
REMARK SMILES IDX 42 67 48 68 41 69 43 70 44 71 45 72 46 73 70 74 71 75 79 76
REMARK SMILES IDX 72 77 74 78 80 79 73 80 75 81 76 82 77 83 78 84 55 85 56 86
REMARK SMILES IDX 64 87 57 88 59 89 65 90 58 91 60 92 61 93 62 94 63 95
REMARK H PARENT 6 14 9 17 85 48 53 59
REMARK Flexibility Score: inf
ROOT
ATOM      1  O   UNL A   1      33.363  30.544  26.400  1.00  0.00    -0.374 OA
ENDROOT
BRANCH   1   2
ATOM      2  C   UNL A   1      33.717  29.229  26.823  1.00  0.00     0.202 C 
BRANCH   2   3
ATOM      3  C   UNL A   1      32.970  28.030  26.227  1.00  0.00     0.261 C 
BRANCH   3   4
ATOM      4  O   UNL A   1      32.221  28.349  25.047  1.00  0.00    -0.462 OA
BRANCH   4   5
ATOM      5  C   UNL A   1      32.873  28.010  23.902  1.00  0.00     0.328 C 
ATOM      6  O   UNL A   1      34.086  27.841  23.838  1.00  0.00    -0.250 OA
BRANCH   5   7
ATOM      7  C   UNL A   1      31.944  27.769  22.698  1.00  0.00     0.194 C 
BRANCH   7   8
ATOM      8  C   UNL A   1      30.603  27.265  23.208  1.00  0.00     0.048 C 
BRANCH   8   9
ATOM      9  C   UNL A   1      29.295  28.042  23.078  1.00  0.00     0.072 C 
BRANCH   9  10
ATOM     10  S   UNL A   1      29.459  29.694  22.346  1.00  0.00    -0.165 SA
ATOM     11  C   UNL A   1      27.746  30.230  22.465  1.00  0.00     0.085 C 
ENDBRANCH   9  10
ENDBRANCH   8   9
ENDBRANCH   7   8
BRANCH   7  12
ATOM     12  N   UNL A   1      32.564  26.992  21.574  1.00  0.00    -0.325 N 
ATOM     13  C   UNL A   1      32.833  25.747  21.159  1.00  0.00     0.315 C 
ATOM     14  H   UNL A   1      32.893  27.626  20.897  1.00  0.00     0.166 HD
ATOM     15  O   UNL A   1      33.009  25.604  19.945  1.00  0.00    -0.249 OA
ATOM     16  N   UNL A   1      32.963  24.653  21.922  1.00  0.00    -0.335 N 
ATOM     17  H   UNL A   1      32.945  23.808  21.418  1.00  0.00     0.165 HD
BRANCH  16  18
ATOM     18  C   UNL A   1      33.127  24.480  23.354  1.00  0.00     0.089 C 
ATOM     19  C   UNL A   1      34.613  24.300  23.702  1.00  0.00     0.025 C 
ATOM     20  C   UNL A   1      32.198  23.461  24.078  1.00  0.00    -0.015 C 
ATOM     21  C   UNL A   1      35.074  22.866  23.501  1.00  0.00     0.002 C 
ATOM     22  C   UNL A   1      32.744  22.025  23.968  1.00  0.00     0.008 C 
ATOM     23  C   UNL A   1      32.114  23.884  25.575  1.00  0.00     0.013 C 
ATOM     24  C   UNL A   1      30.756  23.520  23.532  1.00  0.00     0.013 C 
ATOM     25  C   UNL A   1      34.225  21.909  24.326  1.00  0.00     0.001 C 
ENDBRANCH  16  18
ENDBRANCH   7  12
ENDBRANCH   5   7
ENDBRANCH   4   5
ENDBRANCH   3   4
ENDBRANCH   2   3
ENDBRANCH   1   2
BRANCH   1  26
ATOM     26  C   UNL A   1      32.154  31.122  26.892  1.00  0.00     0.202 C 
BRANCH  26  27
ATOM     27  C   UNL A   1      32.101  32.632  27.141  1.00  0.00     0.261 C 
BRANCH  27  28
ATOM     28  O   UNL A   1      33.409  33.224  27.158  1.00  0.00    -0.460 OA
BRANCH  28  29
ATOM     29  C   UNL A   1      33.884  33.481  28.396  1.00  0.00     0.338 C 
ATOM     30  O   UNL A   1      33.308  34.095  29.293  1.00  0.00    -0.246 OA
BRANCH  29  31
ATOM     31  C   UNL A   1      35.125  32.730  28.636  1.00  0.00     0.060 A 
ATOM     32  C   UNL A   1      35.009  31.507  29.311  1.00  0.00     0.016 A 
ATOM     33  C   UNL A   1      36.376  33.246  28.297  1.00  0.00     0.016 A 
ATOM     34  C   UNL A   1      36.148  30.833  29.727  1.00  0.00     0.010 A 
ATOM     35  C   UNL A   1      37.523  32.574  28.728  1.00  0.00     0.010 A 
ATOM     36  C   UNL A   1      37.407  31.398  29.493  1.00  0.00    -0.014 A 
BRANCH  36  37
ATOM     37  C   UNL A   1      38.573  30.859  30.227  1.00  0.00     0.031 A 
ATOM     38  C   UNL A   1      39.418  29.808  29.560  1.00  0.00     0.074 A 
ATOM     39  C   UNL A   1      38.896  31.332  31.442  1.00  0.00     0.049 A 
ATOM     40  N   UNL A   1      40.476  29.190  30.011  1.00  0.00    -0.248 NA
ATOM     41  C   UNL A   1      39.015  29.400  28.203  1.00  0.00     0.031 C 
ATOM     42  C   UNL A   1      38.163  32.368  32.167  1.00  0.00     0.029 A 
ATOM     43  N   UNL A   1      39.918  30.985  32.287  1.00  0.00    -0.354 N 
ATOM     44  C   UNL A   1      40.845  28.298  29.012  1.00  0.00     0.074 A 
ATOM     45  C   UNL A   1      39.895  28.448  27.932  1.00  0.00     0.031 C 
ATOM     46  C   UNL A   1      38.742  32.551  33.366  1.00  0.00     0.029 A 
ATOM     47  C   UNL A   1      39.865  31.627  33.500  1.00  0.00     0.049 A 
ATOM     48  H   UNL A   1      40.621  30.338  32.047  1.00  0.00     0.167 HD
ATOM     49  C   UNL A   1      41.891  27.437  28.991  1.00  0.00     0.034 A 
ATOM     50  C   UNL A   1      40.624  31.463  34.602  1.00  0.00     0.034 A 
ATOM     51  C   UNL A   1      42.843  27.311  30.059  1.00  0.00     0.049 A 
ATOM     52  C   UNL A   1      41.763  30.478  34.563  1.00  0.00     0.074 A 
ATOM     53  C   UNL A   1      43.964  26.503  30.120  1.00  0.00     0.029 A 
ATOM     54  N   UNL A   1      42.777  27.998  31.261  1.00  0.00    -0.354 N 
ATOM     55  N   UNL A   1      42.166  29.718  33.573  1.00  0.00    -0.248 NA
ATOM     56  C   UNL A   1      42.574  30.352  35.782  1.00  0.00     0.031 C 
ATOM     57  C   UNL A   1      44.558  26.678  31.375  1.00  0.00     0.029 A 
ATOM     58  C   UNL A   1      43.829  27.623  32.079  1.00  0.00     0.049 A 
ATOM     59  H   UNL A   1      42.085  28.658  31.498  1.00  0.00     0.167 HD
ATOM     60  C   UNL A   1      43.295  29.052  34.036  1.00  0.00     0.074 A 
ATOM     61  C   UNL A   1      43.525  29.515  35.389  1.00  0.00     0.031 C 
ATOM     62  C   UNL A   1      44.069  28.134  33.405  1.00  0.00     0.034 A 
BRANCH  49  63
ATOM     63  C   UNL A   1      42.066  26.574  27.769  1.00  0.00     0.023 A 
ATOM     64  C   UNL A   1      42.781  27.064  26.658  1.00  0.00     0.012 A 
ATOM     65  C   UNL A   1      41.567  25.257  27.746  1.00  0.00     0.148 A 
ATOM     66  C   UNL A   1      42.973  26.265  25.531  1.00  0.00     0.002 A 
ATOM     67  C   UNL A   1      41.803  24.452  26.637  1.00  0.00     0.091 A 
ATOM     68  F   UNL A   1      40.868  24.819  28.801  1.00  0.00    -0.205 F 
ATOM     69  C   UNL A   1      42.496  24.958  25.525  1.00  0.00     0.022 A 
BRANCH  67  70
ATOM     70  S   UNL A   1      41.297  22.731  26.566  1.00  0.00     0.127 S 
ATOM     71  O   UNL A   1      41.718  22.245  27.880  1.00  0.00    -0.237 OA
ATOM     72  O   UNL A   1      39.849  22.845  26.394  1.00  0.00    -0.237 OA
ATOM     73  O   UNL A   1      42.000  22.149  25.432  1.00  0.00    -0.744 OA
ENDBRANCH  67  70
ENDBRANCH  49  63
BRANCH  50  74
ATOM     74  C   UNL A   1      40.341  32.263  35.825  1.00  0.00     0.023 A 
ATOM     75  C   UNL A   1      41.162  33.360  36.149  1.00  0.00     0.012 A 
ATOM     76  C   UNL A   1      39.248  31.953  36.658  1.00  0.00     0.148 A 
ATOM     77  C   UNL A   1      40.920  34.113  37.298  1.00  0.00     0.002 A 
ATOM     78  C   UNL A   1      38.977  32.743  37.768  1.00  0.00     0.091 A 
ATOM     79  F   UNL A   1      38.488  30.896  36.340  1.00  0.00    -0.205 F 
ATOM     80  C   UNL A   1      39.823  33.812  38.102  1.00  0.00     0.022 A 
BRANCH  78  81
ATOM     81  S   UNL A   1      37.512  32.510  38.781  1.00  0.00     0.127 S 
ATOM     82  O   UNL A   1      37.729  33.482  39.850  1.00  0.00    -0.237 OA
ATOM     83  O   UNL A   1      36.441  32.852  37.844  1.00  0.00    -0.237 OA
ATOM     84  O   UNL A   1      37.530  31.111  39.184  1.00  0.00    -0.744 OA
ENDBRANCH  78  81
ENDBRANCH  50  74
BRANCH  62  85
ATOM     85  C   UNL A   1      45.263  27.594  34.149  1.00  0.00     0.023 A 
ATOM     86  C   UNL A   1      46.488  28.289  34.111  1.00  0.00     0.012 A 
ATOM     87  C   UNL A   1      45.146  26.439  34.947  1.00  0.00     0.148 A 
ATOM     88  C   UNL A   1      47.588  27.822  34.829  1.00  0.00     0.002 A 
ATOM     89  C   UNL A   1      46.231  26.009  35.700  1.00  0.00     0.091 A 
ATOM     90  F   UNL A   1      43.976  25.784  34.956  1.00  0.00    -0.205 F 
ATOM     91  C   UNL A   1      47.457  26.690  35.632  1.00  0.00     0.022 A 
BRANCH  89  92
ATOM     92  S   UNL A   1      46.124  24.623  36.837  1.00  0.00     0.127 S 
ATOM     93  O   UNL A   1      46.205  23.482  35.925  1.00  0.00    -0.237 OA
ATOM     94  O   UNL A   1      47.308  24.817  37.675  1.00  0.00    -0.237 OA
ATOM     95  O   UNL A   1      44.856  24.773  37.538  1.00  0.00    -0.744 OA
ENDBRANCH  89  92
ENDBRANCH  62  85
ENDBRANCH  36  37
ENDBRANCH  29  31
ENDBRANCH  28  29
ENDBRANCH  27  28
ENDBRANCH  26  27
ENDBRANCH   1  26
TORSDOF 22
ENDMDL
