MODEL 1
REMARK VINA RESULT:     -11.4      0.000      0.000
REMARK SMILES Cc1oc(C[N@H+]2C[C@@H](C)[C@@H](C)C2)cc1C(=O)OCCOCCOC(=O)c1ccc(-c2c3nc(c(-c4cccc(S(=O)(=O)[O-])c4F)c4ccc([nH]4)c(-c4cccc(S(=O)(=O)[O-])c4F)c4nc(c(-c5cccc(S(=O)(=O)[O-])c5F)c5ccc2[nH]5)C=C4)C=C3)cc1
REMARK SMILES IDX 21 1 20 2 19 3 18 4 17 5 15 6 16 7 14 8 1 9 2 10 3 11 4 12
REMARK SMILES IDX 13 13 5 14 6 15 7 16 12 17 8 19 10 20 9 21 11 22 22 23 23 24
REMARK SMILES IDX 24 25 25 26 26 27 27 28 88 29 28 30 87 31 29 32 30 33 31 34
REMARK SMILES IDX 81 35 32 36 86 37 80 38 82 39 33 40 85 41 79 42 78 43 34 45
REMARK SMILES IDX 66 46 46 47 65 48 47 49 50 50 64 51 83 52 48 53 49 54 63 56
REMARK SMILES IDX 84 57 51 58 35 59 36 60 44 61 37 62 39 63 45 64 38 65 40 66
REMARK SMILES IDX 41 67 42 68 43 69 67 70 68 71 76 72 69 73 71 74 77 75 70 76
REMARK SMILES IDX 72 77 73 78 74 79 75 80 52 81 53 82 61 83 54 84 56 85 62 86
REMARK SMILES IDX 55 87 57 88 58 89 59 90 60 91
REMARK H PARENT 6 18 82 44 50 55
REMARK Flexibility Score: inf
ROOT
ATOM      1  C   UNL A   1      35.918  20.412  25.017  1.00  0.00     0.202 C 
ENDROOT
BRANCH   1   2
ATOM      2  O   UNL A   1      35.367  21.734  25.012  1.00  0.00    -0.374 OA
BRANCH   2   3
ATOM      3  C   UNL A   1      34.707  22.134  26.216  1.00  0.00     0.202 C 
BRANCH   3   4
ATOM      4  C   UNL A   1      34.266  23.601  26.216  1.00  0.00     0.261 C 
BRANCH   4   5
ATOM      5  O   UNL A   1      32.939  23.707  25.674  1.00  0.00    -0.460 OA
BRANCH   5   6
ATOM      6  C   UNL A   1      32.112  24.592  26.291  1.00  0.00     0.341 C 
ATOM      7  O   UNL A   1      31.567  24.400  27.373  1.00  0.00    -0.246 OA
BRANCH   6   8
ATOM      8  C   UNL A   1      32.043  25.876  25.614  1.00  0.00     0.101 A 
ATOM      9  C   UNL A   1      31.918  27.728  27.510  1.00  0.00     0.088 C 
ATOM     10  C   UNL A   1      31.939  27.152  26.145  1.00  0.00     0.115 A 
ATOM     11  O   UNL A   1      31.848  28.071  25.138  1.00  0.00    -0.459 OA
ATOM     12  C   UNL A   1      31.865  27.399  23.953  1.00  0.00     0.159 A 
ATOM     13  C   UNL A   1      32.013  26.053  24.196  1.00  0.00     0.067 A 
BRANCH  12  14
ATOM     14  C   UNL A   1      31.751  28.179  22.682  1.00  0.00     0.338 C 
BRANCH  14  15
ATOM     15  N   UNL A   1      30.408  28.528  22.222  1.00  0.00    -0.328 N 
ATOM     16  C   UNL A   1      29.304  28.021  23.031  1.00  0.00     0.266 C 
ATOM     17  C   UNL A   1      30.191  29.954  21.969  1.00  0.00     0.266 C 
ATOM     18  H   UNL A   1      30.387  28.031  21.332  1.00  0.00     0.348 HD
ATOM     19  C   UNL A   1      28.127  28.830  22.494  1.00  0.00     0.049 C 
ATOM     20  C   UNL A   1      28.726  30.236  22.335  1.00  0.00     0.049 C 
ATOM     21  C   UNL A   1      26.880  28.720  23.357  1.00  0.00     0.014 C 
ATOM     22  C   UNL A   1      28.635  31.109  23.588  1.00  0.00     0.014 C 
ENDBRANCH  14  15
ENDBRANCH  12  14
ENDBRANCH   6   8
ENDBRANCH   5   6
ENDBRANCH   4   5
ENDBRANCH   3   4
ENDBRANCH   2   3
ENDBRANCH   1   2
BRANCH   1  23
ATOM     23  C   UNL A   1      37.449  20.364  24.991  1.00  0.00     0.261 C 
BRANCH  23  24
ATOM     24  O   UNL A   1      38.000  21.512  25.661  1.00  0.00    -0.460 OA
BRANCH  24  25
ATOM     25  C   UNL A   1      39.266  21.361  26.119  1.00  0.00     0.338 C 
ATOM     26  O   UNL A   1      40.000  20.403  25.944  1.00  0.00    -0.246 OA
BRANCH  25  27
ATOM     27  C   UNL A   1      39.727  22.624  26.733  1.00  0.00     0.060 A 
ATOM     28  C   UNL A   1      39.068  23.800  26.351  1.00  0.00     0.016 A 
ATOM     29  C   UNL A   1      40.793  22.674  27.635  1.00  0.00     0.016 A 
ATOM     30  C   UNL A   1      39.506  25.034  26.827  1.00  0.00     0.010 A 
ATOM     31  C   UNL A   1      41.235  23.914  28.109  1.00  0.00     0.010 A 
ATOM     32  C   UNL A   1      40.615  25.100  27.679  1.00  0.00    -0.014 A 
BRANCH  32  33
ATOM     33  C   UNL A   1      41.205  26.421  28.008  1.00  0.00     0.031 A 
ATOM     34  C   UNL A   1      42.625  26.706  27.604  1.00  0.00     0.074 A 
ATOM     35  C   UNL A   1      40.484  27.357  28.650  1.00  0.00     0.049 A 
ATOM     36  N   UNL A   1      43.333  27.791  27.780  1.00  0.00    -0.248 NA
ATOM     37  C   UNL A   1      43.345  25.623  26.912  1.00  0.00     0.031 C 
ATOM     38  C   UNL A   1      39.102  27.197  29.098  1.00  0.00     0.029 A 
ATOM     39  N   UNL A   1      40.826  28.623  29.054  1.00  0.00    -0.354 N 
ATOM     40  C   UNL A   1      44.584  27.520  27.239  1.00  0.00     0.074 A 
ATOM     41  C   UNL A   1      44.545  26.161  26.743  1.00  0.00     0.031 C 
ATOM     42  C   UNL A   1      38.722  28.314  29.743  1.00  0.00     0.029 A 
ATOM     43  C   UNL A   1      39.836  29.261  29.761  1.00  0.00     0.049 A 
ATOM     44  H   UNL A   1      41.699  29.033  28.857  1.00  0.00     0.167 HD
ATOM     45  C   UNL A   1      45.661  28.334  27.143  1.00  0.00     0.034 A 
ATOM     46  C   UNL A   1      39.834  30.467  30.363  1.00  0.00     0.034 A 
ATOM     47  C   UNL A   1      45.693  29.690  27.615  1.00  0.00     0.049 A 
ATOM     48  C   UNL A   1      41.051  31.349  30.255  1.00  0.00     0.074 A 
ATOM     49  C   UNL A   1      46.722  30.611  27.516  1.00  0.00     0.029 A 
ATOM     50  N   UNL A   1      44.655  30.321  28.282  1.00  0.00    -0.354 N 
ATOM     51  N   UNL A   1      42.176  31.129  29.618  1.00  0.00    -0.248 NA
ATOM     52  C   UNL A   1      40.985  32.661  30.918  1.00  0.00     0.031 C 
ATOM     53  C   UNL A   1      46.310  31.794  28.138  1.00  0.00     0.029 A 
ATOM     54  C   UNL A   1      45.020  31.615  28.611  1.00  0.00     0.049 A 
ATOM     55  H   UNL A   1      43.785  29.909  28.491  1.00  0.00     0.167 HD
ATOM     56  C   UNL A   1      42.937  32.282  29.776  1.00  0.00     0.074 A 
ATOM     57  C   UNL A   1      42.137  33.208  30.551  1.00  0.00     0.031 C 
ATOM     58  C   UNL A   1      44.191  32.545  29.333  1.00  0.00     0.034 A 
BRANCH  45  59
ATOM     59  C   UNL A   1      46.884  27.789  26.459  1.00  0.00     0.023 A 
ATOM     60  C   UNL A   1      47.820  27.046  27.207  1.00  0.00     0.012 A 
ATOM     61  C   UNL A   1      47.084  27.963  25.076  1.00  0.00     0.148 A 
ATOM     62  C   UNL A   1      48.950  26.506  26.595  1.00  0.00     0.002 A 
ATOM     63  C   UNL A   1      48.195  27.391  24.465  1.00  0.00     0.091 A 
ATOM     64  F   UNL A   1      46.197  28.696  24.388  1.00  0.00    -0.205 F 
ATOM     65  C   UNL A   1      49.131  26.670  25.224  1.00  0.00     0.022 A 
BRANCH  63  66
ATOM     66  S   UNL A   1      48.477  27.493  22.695  1.00  0.00     0.127 S 
ATOM     67  O   UNL A   1      49.833  28.041  22.644  1.00  0.00    -0.237 OA
ATOM     68  O   UNL A   1      48.371  26.093  22.282  1.00  0.00    -0.237 OA
ATOM     69  O   UNL A   1      47.429  28.358  22.174  1.00  0.00    -0.744 OA
ENDBRANCH  63  66
ENDBRANCH  45  59
BRANCH  46  70
ATOM     70  C   UNL A   1      38.616  30.933  31.086  1.00  0.00     0.023 A 
ATOM     71  C   UNL A   1      38.534  30.770  32.482  1.00  0.00     0.012 A 
ATOM     72  C   UNL A   1      37.555  31.557  30.402  1.00  0.00     0.148 A 
ATOM     73  C   UNL A   1      37.405  31.199  33.182  1.00  0.00     0.002 A 
ATOM     74  C   UNL A   1      36.457  32.030  31.112  1.00  0.00     0.091 A 
ATOM     75  F   UNL A   1      37.641  31.681  29.070  1.00  0.00    -0.205 F 
ATOM     76  C   UNL A   1      36.373  31.839  32.500  1.00  0.00     0.022 A 
BRANCH  74  77
ATOM     77  S   UNL A   1      35.149  32.979  30.327  1.00  0.00     0.127 S 
ATOM     78  O   UNL A   1      35.884  34.126  29.802  1.00  0.00    -0.237 OA
ATOM     79  O   UNL A   1      34.659  32.043  29.313  1.00  0.00    -0.237 OA
ATOM     80  O   UNL A   1      34.191  33.265  31.386  1.00  0.00    -0.744 OA
ENDBRANCH  74  77
ENDBRANCH  46  70
BRANCH  58  81
ATOM     81  C   UNL A   1      44.779  33.896  29.650  1.00  0.00     0.023 A 
ATOM     82  C   UNL A   1      45.620  34.041  30.771  1.00  0.00     0.012 A 
ATOM     83  C   UNL A   1      44.570  34.996  28.794  1.00  0.00     0.148 A 
ATOM     84  C   UNL A   1      46.224  35.267  31.049  1.00  0.00     0.002 A 
ATOM     85  C   UNL A   1      45.210  36.203  29.055  1.00  0.00     0.091 A 
ATOM     86  F   UNL A   1      43.750  34.844  27.744  1.00  0.00    -0.205 F 
ATOM     87  C   UNL A   1      46.030  36.342  30.186  1.00  0.00     0.022 A 
BRANCH  85  88
ATOM     88  S   UNL A   1      45.085  37.610  27.944  1.00  0.00     0.127 S 
ATOM     89  O   UNL A   1      43.647  37.872  27.955  1.00  0.00    -0.237 OA
ATOM     90  O   UNL A   1      45.894  38.622  28.625  1.00  0.00    -0.237 OA
ATOM     91  O   UNL A   1      45.634  37.159  26.672  1.00  0.00    -0.744 OA
ENDBRANCH  85  88
ENDBRANCH  58  81
ENDBRANCH  32  33
ENDBRANCH  25  27
ENDBRANCH  24  25
ENDBRANCH  23  24
ENDBRANCH   1  23
TORSDOF 19
ENDMDL
MODEL 2
REMARK VINA RESULT:     -11.3      5.392      8.259
REMARK SMILES Cc1oc(C[N@H+]2C[C@@H](C)[C@@H](C)C2)cc1C(=O)OCCOCCOC(=O)c1ccc(-c2c3nc(c(-c4cccc(S(=O)(=O)[O-])c4F)c4ccc([nH]4)c(-c4cccc(S(=O)(=O)[O-])c4F)c4nc(c(-c5cccc(S(=O)(=O)[O-])c5F)c5ccc2[nH]5)C=C4)C=C3)cc1
REMARK SMILES IDX 21 1 20 2 19 3 18 4 17 5 15 6 16 7 14 8 1 9 2 10 3 11 4 12
REMARK SMILES IDX 13 13 5 14 6 15 7 16 12 17 8 19 10 20 9 21 11 22 22 23 23 24
REMARK SMILES IDX 24 25 25 26 26 27 27 28 88 29 28 30 87 31 29 32 30 33 31 34
REMARK SMILES IDX 81 35 32 36 86 37 80 38 82 39 33 40 85 41 79 42 78 43 34 45
REMARK SMILES IDX 66 46 46 47 65 48 47 49 50 50 64 51 83 52 48 53 49 54 63 56
REMARK SMILES IDX 84 57 51 58 35 59 36 60 44 61 37 62 39 63 45 64 38 65 40 66
REMARK SMILES IDX 41 67 42 68 43 69 67 70 68 71 76 72 69 73 71 74 77 75 70 76
REMARK SMILES IDX 72 77 73 78 74 79 75 80 52 81 53 82 61 83 54 84 56 85 62 86
REMARK SMILES IDX 55 87 57 88 58 89 59 90 60 91
REMARK H PARENT 6 18 82 44 50 55
REMARK Flexibility Score: inf
ROOT
ATOM      1  C   UNL A   1      32.488  29.046  24.854  1.00  0.00     0.202 C 
ENDROOT
BRANCH   1   2
ATOM      2  O   UNL A   1      32.687  27.829  25.582  1.00  0.00    -0.374 OA
BRANCH   2   3
ATOM      3  C   UNL A   1      31.547  26.969  25.674  1.00  0.00     0.202 C 
BRANCH   3   4
ATOM      4  C   UNL A   1      31.857  25.604  26.296  1.00  0.00     0.261 C 
BRANCH   4   5
ATOM      5  O   UNL A   1      30.634  24.973  26.709  1.00  0.00    -0.460 OA
BRANCH   5   6
ATOM      6  C   UNL A   1      30.664  23.616  26.800  1.00  0.00     0.341 C 
ATOM      7  O   UNL A   1      29.963  22.951  27.555  1.00  0.00    -0.246 OA
BRANCH   6   8
ATOM      8  C   UNL A   1      31.514  22.997  25.796  1.00  0.00     0.101 A 
ATOM      9  C   UNL A   1      30.598  23.791  23.435  1.00  0.00     0.088 C 
ATOM     10  C   UNL A   1      31.446  23.069  24.413  1.00  0.00     0.115 A 
ATOM     11  O   UNL A   1      32.414  22.283  23.857  1.00  0.00    -0.459 OA
ATOM     12  C   UNL A   1      33.097  21.678  24.869  1.00  0.00     0.159 A 
ATOM     13  C   UNL A   1      32.597  22.109  26.076  1.00  0.00     0.067 A 
BRANCH  12  14
ATOM     14  C   UNL A   1      34.205  20.734  24.524  1.00  0.00     0.338 C 
BRANCH  14  15
ATOM     15  N   UNL A   1      34.155  19.393  25.106  1.00  0.00    -0.328 N 
ATOM     16  C   UNL A   1      32.846  18.747  25.112  1.00  0.00     0.266 C 
ATOM     17  C   UNL A   1      35.143  18.451  24.575  1.00  0.00     0.266 C 
ATOM     18  H   UNL A   1      34.395  19.607  26.074  1.00  0.00     0.348 HD
ATOM     19  C   UNL A   1      33.212  17.304  25.444  1.00  0.00     0.049 C 
ATOM     20  C   UNL A   1      34.471  17.069  24.597  1.00  0.00     0.049 C 
ATOM     21  C   UNL A   1      32.063  16.330  25.233  1.00  0.00     0.014 C 
ATOM     22  C   UNL A   1      34.195  16.575  23.175  1.00  0.00     0.014 C 
ENDBRANCH  14  15
ENDBRANCH  12  14
ENDBRANCH   6   8
ENDBRANCH   5   6
ENDBRANCH   4   5
ENDBRANCH   3   4
ENDBRANCH   2   3
ENDBRANCH   1   2
BRANCH   1  23
ATOM     23  C   UNL A   1      31.662  30.101  25.597  1.00  0.00     0.261 C 
BRANCH  23  24
ATOM     24  O   UNL A   1      32.188  30.313  26.919  1.00  0.00    -0.460 OA
BRANCH  24  25
ATOM     25  C   UNL A   1      32.817  31.498  27.107  1.00  0.00     0.338 C 
ATOM     26  O   UNL A   1      32.336  32.612  26.984  1.00  0.00    -0.246 OA
BRANCH  25  27
ATOM     27  C   UNL A   1      34.163  31.263  27.669  1.00  0.00     0.060 A 
ATOM     28  C   UNL A   1      34.611  29.937  27.728  1.00  0.00     0.016 A 
ATOM     29  C   UNL A   1      34.964  32.300  28.159  1.00  0.00     0.016 A 
ATOM     30  C   UNL A   1      35.835  29.637  28.323  1.00  0.00     0.010 A 
ATOM     31  C   UNL A   1      36.190  31.997  28.760  1.00  0.00     0.010 A 
ATOM     32  C   UNL A   1      36.614  30.661  28.875  1.00  0.00    -0.014 A 
BRANCH  32  33
ATOM     33  C   UNL A   1      37.802  30.315  29.692  1.00  0.00     0.031 A 
ATOM     34  C   UNL A   1      38.828  29.374  29.124  1.00  0.00     0.074 A 
ATOM     35  C   UNL A   1      37.969  30.837  30.920  1.00  0.00     0.049 A 
ATOM     36  N   UNL A   1      39.942  28.946  29.658  1.00  0.00    -0.248 NA
ATOM     37  C   UNL A   1      38.562  28.843  27.777  1.00  0.00     0.031 C 
ATOM     38  C   UNL A   1      37.042  31.754  31.581  1.00  0.00     0.029 A 
ATOM     39  N   UNL A   1      38.973  30.652  31.837  1.00  0.00    -0.354 N 
ATOM     40  C   UNL A   1      40.503  28.083  28.723  1.00  0.00     0.074 A 
ATOM     41  C   UNL A   1      39.598  28.035  27.596  1.00  0.00     0.031 C 
ATOM     42  C   UNL A   1      37.507  32.029  32.812  1.00  0.00     0.029 A 
ATOM     43  C   UNL A   1      38.756  31.301  33.029  1.00  0.00     0.049 A 
ATOM     44  H   UNL A   1      39.772  30.104  31.658  1.00  0.00     0.167 HD
ATOM     45  C   UNL A   1      41.675  27.409  28.788  1.00  0.00     0.034 A 
ATOM     46  C   UNL A   1      39.478  31.297  34.167  1.00  0.00     0.034 A 
ATOM     47  C   UNL A   1      42.585  27.475  29.897  1.00  0.00     0.049 A 
ATOM     48  C   UNL A   1      40.773  30.527  34.219  1.00  0.00     0.074 A 
ATOM     49  C   UNL A   1      43.822  26.867  30.033  1.00  0.00     0.029 A 
ATOM     50  N   UNL A   1      42.356  28.181  31.068  1.00  0.00    -0.354 N 
ATOM     51  N   UNL A   1      41.355  29.828  33.275  1.00  0.00    -0.248 NA
ATOM     52  C   UNL A   1      41.526  30.572  35.482  1.00  0.00     0.031 C 
ATOM     53  C   UNL A   1      44.333  27.196  31.292  1.00  0.00     0.029 A 
ATOM     54  C   UNL A   1      43.422  28.019  31.936  1.00  0.00     0.049 A 
ATOM     55  H   UNL A   1      41.553  28.720  31.254  1.00  0.00     0.167 HD
ATOM     56  C   UNL A   1      42.555  29.379  33.816  1.00  0.00     0.074 A 
ATOM     57  C   UNL A   1      42.626  29.902  35.165  1.00  0.00     0.031 C 
ATOM     58  C   UNL A   1      43.505  28.592  33.253  1.00  0.00     0.034 A 
BRANCH  45  59
ATOM     59  C   UNL A   1      42.061  26.575  27.598  1.00  0.00     0.023 A 
ATOM     60  C   UNL A   1      42.777  27.170  26.540  1.00  0.00     0.012 A 
ATOM     61  C   UNL A   1      41.765  25.199  27.547  1.00  0.00     0.148 A 
ATOM     62  C   UNL A   1      43.172  26.415  25.437  1.00  0.00     0.002 A 
ATOM     63  C   UNL A   1      42.193  24.445  26.460  1.00  0.00     0.091 A 
ATOM     64  F   UNL A   1      41.058  24.658  28.549  1.00  0.00    -0.205 F 
ATOM     65  C   UNL A   1      42.890  25.052  25.402  1.00  0.00     0.022 A 
BRANCH  63  66
ATOM     66  S   UNL A   1      41.933  22.671  26.358  1.00  0.00     0.127 S 
ATOM     67  O   UNL A   1      42.597  22.348  25.096  1.00  0.00    -0.237 OA
ATOM     68  O   UNL A   1      42.625  22.186  27.552  1.00  0.00    -0.237 OA
ATOM     69  O   UNL A   1      40.490  22.479  26.377  1.00  0.00    -0.744 OA
ENDBRANCH  63  66
ENDBRANCH  45  59
BRANCH  46  70
ATOM     70  C   UNL A   1      39.015  32.091  35.341  1.00  0.00     0.023 A 
ATOM     71  C   UNL A   1      39.157  33.491  35.330  1.00  0.00     0.012 A 
ATOM     72  C   UNL A   1      38.414  31.469  36.452  1.00  0.00     0.148 A 
ATOM     73  C   UNL A   1      38.731  34.257  36.416  1.00  0.00     0.002 A 
ATOM     74  C   UNL A   1      37.943  32.242  37.507  1.00  0.00     0.091 A 
ATOM     75  F   UNL A   1      38.310  30.133  36.454  1.00  0.00    -0.205 F 
ATOM     76  C   UNL A   1      38.114  33.635  37.499  1.00  0.00     0.022 A 
BRANCH  74  77
ATOM     77  S   UNL A   1      37.022  31.530  38.875  1.00  0.00     0.127 S 
ATOM     78  O   UNL A   1      35.839  32.386  38.918  1.00  0.00    -0.237 OA
ATOM     79  O   UNL A   1      36.780  30.166  38.404  1.00  0.00    -0.237 OA
ATOM     80  O   UNL A   1      37.911  31.614  40.026  1.00  0.00    -0.744 OA
ENDBRANCH  74  77
ENDBRANCH  46  70
BRANCH  58  81
ATOM     81  C   UNL A   1      44.722  28.260  34.079  1.00  0.00     0.023 A 
ATOM     82  C   UNL A   1      45.838  29.118  34.045  1.00  0.00     0.012 A 
ATOM     83  C   UNL A   1      44.725  27.151  34.949  1.00  0.00     0.148 A 
ATOM     84  C   UNL A   1      46.950  28.864  34.848  1.00  0.00     0.002 A 
ATOM     85  C   UNL A   1      45.820  26.929  35.776  1.00  0.00     0.091 A 
ATOM     86  F   UNL A   1      43.661  26.335  34.951  1.00  0.00    -0.205 F 
ATOM     87  C   UNL A   1      46.936  27.779  35.721  1.00  0.00     0.022 A 
BRANCH  85  88
ATOM     88  S   UNL A   1      45.845  25.607  36.994  1.00  0.00     0.127 S 
ATOM     89  O   UNL A   1      45.774  24.419  36.145  1.00  0.00    -0.237 OA
ATOM     90  O   UNL A   1      47.137  25.809  37.651  1.00  0.00    -0.237 OA
ATOM     91  O   UNL A   1      44.692  25.839  37.853  1.00  0.00    -0.744 OA
ENDBRANCH  85  88
ENDBRANCH  58  81
ENDBRANCH  32  33
ENDBRANCH  25  27
ENDBRANCH  24  25
ENDBRANCH  23  24
ENDBRANCH   1  23
TORSDOF 19
ENDMDL
MODEL 3
REMARK VINA RESULT:     -10.9      2.576      3.483
REMARK SMILES Cc1oc(C[N@H+]2C[C@@H](C)[C@@H](C)C2)cc1C(=O)OCCOCCOC(=O)c1ccc(-c2c3nc(c(-c4cccc(S(=O)(=O)[O-])c4F)c4ccc([nH]4)c(-c4cccc(S(=O)(=O)[O-])c4F)c4nc(c(-c5cccc(S(=O)(=O)[O-])c5F)c5ccc2[nH]5)C=C4)C=C3)cc1
REMARK SMILES IDX 21 1 20 2 19 3 18 4 17 5 15 6 16 7 14 8 1 9 2 10 3 11 4 12
REMARK SMILES IDX 13 13 5 14 6 15 7 16 12 17 8 19 10 20 9 21 11 22 22 23 23 24
REMARK SMILES IDX 24 25 25 26 26 27 27 28 88 29 28 30 87 31 29 32 30 33 31 34
REMARK SMILES IDX 81 35 32 36 86 37 80 38 82 39 33 40 85 41 79 42 78 43 34 45
REMARK SMILES IDX 66 46 46 47 65 48 47 49 50 50 64 51 83 52 48 53 49 54 63 56
REMARK SMILES IDX 84 57 51 58 35 59 36 60 44 61 37 62 39 63 45 64 38 65 40 66
REMARK SMILES IDX 41 67 42 68 43 69 67 70 68 71 76 72 69 73 71 74 77 75 70 76
REMARK SMILES IDX 72 77 73 78 74 79 75 80 52 81 53 82 61 83 54 84 56 85 62 86
REMARK SMILES IDX 55 87 57 88 58 89 59 90 60 91
REMARK H PARENT 6 18 82 44 50 55
REMARK Flexibility Score: inf
ROOT
ATOM      1  C   UNL A   1      36.501  20.380  24.990  1.00  0.00     0.202 C 
ENDROOT
BRANCH   1   2
ATOM      2  O   UNL A   1      35.323  21.032  25.477  1.00  0.00    -0.374 OA
BRANCH   2   3
ATOM      3  C   UNL A   1      34.813  22.086  24.655  1.00  0.00     0.202 C 
BRANCH   3   4
ATOM      4  C   UNL A   1      33.286  22.094  24.542  1.00  0.00     0.261 C 
BRANCH   4   5
ATOM      5  O   UNL A   1      32.785  23.404  24.857  1.00  0.00    -0.460 OA
BRANCH   5   6
ATOM      6  C   UNL A   1      32.752  24.292  23.828  1.00  0.00     0.341 C 
ATOM      7  O   UNL A   1      32.564  23.993  22.653  1.00  0.00    -0.246 OA
BRANCH   6   8
ATOM      8  C   UNL A   1      32.812  25.676  24.268  1.00  0.00     0.101 A 
ATOM      9  C   UNL A   1      33.453  27.122  22.137  1.00  0.00     0.088 C 
ATOM     10  C   UNL A   1      33.128  26.820  23.551  1.00  0.00     0.115 A 
ATOM     11  O   UNL A   1      33.116  27.907  24.377  1.00  0.00    -0.459 OA
ATOM     12  C   UNL A   1      32.819  27.476  25.635  1.00  0.00     0.159 A 
ATOM     13  C   UNL A   1      32.596  26.118  25.609  1.00  0.00     0.067 A 
BRANCH  12  14
ATOM     14  C   UNL A   1      32.768  28.477  26.745  1.00  0.00     0.338 C 
BRANCH  14  15
ATOM     15  N   UNL A   1      33.771  29.541  26.742  1.00  0.00    -0.328 N 
ATOM     16  C   UNL A   1      33.458  30.718  27.546  1.00  0.00     0.266 C 
ATOM     17  C   UNL A   1      35.135  29.106  27.053  1.00  0.00     0.266 C 
ATOM     18  H   UNL A   1      33.734  29.821  25.762  1.00  0.00     0.348 HD
ATOM     19  C   UNL A   1      34.806  31.429  27.596  1.00  0.00     0.049 C 
ATOM     20  C   UNL A   1      35.794  30.272  27.806  1.00  0.00     0.049 C 
ATOM     21  C   UNL A   1      34.854  32.554  28.618  1.00  0.00     0.014 C 
ATOM     22  C   UNL A   1      36.037  29.906  29.272  1.00  0.00     0.014 C 
ENDBRANCH  14  15
ENDBRANCH  12  14
ENDBRANCH   6   8
ENDBRANCH   5   6
ENDBRANCH   4   5
ENDBRANCH   3   4
ENDBRANCH   2   3
ENDBRANCH   1   2
BRANCH   1  23
ATOM     23  C   UNL A   1      37.713  21.303  24.826  1.00  0.00     0.261 C 
BRANCH  23  24
ATOM     24  O   UNL A   1      38.099  21.857  26.095  1.00  0.00    -0.460 OA
BRANCH  24  25
ATOM     25  C   UNL A   1      39.398  21.676  26.433  1.00  0.00     0.338 C 
ATOM     26  O   UNL A   1      40.078  20.684  26.231  1.00  0.00    -0.246 OA
BRANCH  25  27
ATOM     27  C   UNL A   1      39.961  22.944  26.943  1.00  0.00     0.060 A 
ATOM     28  C   UNL A   1      39.462  24.133  26.395  1.00  0.00     0.016 A 
ATOM     29  C   UNL A   1      40.972  22.982  27.907  1.00  0.00     0.016 A 
ATOM     30  C   UNL A   1      40.006  25.359  26.770  1.00  0.00     0.010 A 
ATOM     31  C   UNL A   1      41.521  24.214  28.279  1.00  0.00     0.010 A 
ATOM     32  C   UNL A   1      41.065  25.403  27.686  1.00  0.00    -0.014 A 
BRANCH  32  33
ATOM     33  C   UNL A   1      41.779  26.683  27.915  1.00  0.00     0.031 A 
ATOM     34  C   UNL A   1      43.199  26.820  27.442  1.00  0.00     0.074 A 
ATOM     35  C   UNL A   1      41.169  27.711  28.531  1.00  0.00     0.049 A 
ATOM     36  N   UNL A   1      44.004  27.847  27.528  1.00  0.00    -0.248 NA
ATOM     37  C   UNL A   1      43.793  25.643  26.785  1.00  0.00     0.031 C 
ATOM     38  C   UNL A   1      39.799  27.697  29.040  1.00  0.00     0.029 A 
ATOM     39  N   UNL A   1      41.635  28.962  28.848  1.00  0.00    -0.354 N 
ATOM     40  C   UNL A   1      45.202  27.439  26.955  1.00  0.00     0.074 A 
ATOM     41  C   UNL A   1      45.026  26.064  26.539  1.00  0.00     0.031 C 
ATOM     42  C   UNL A   1      39.544  28.876  29.634  1.00  0.00     0.029 A 
ATOM     43  C   UNL A   1      40.734  29.722  29.555  1.00  0.00     0.049 A 
ATOM     44  H   UNL A   1      42.530  29.284  28.594  1.00  0.00     0.167 HD
ATOM     45  C   UNL A   1      46.340  28.149  26.771  1.00  0.00     0.034 A 
ATOM     46  C   UNL A   1      40.861  30.954  30.087  1.00  0.00     0.034 A 
ATOM     47  C   UNL A   1      46.508  29.521  27.162  1.00  0.00     0.049 A 
ATOM     48  C   UNL A   1      42.143  31.719  29.881  1.00  0.00     0.074 A 
ATOM     49  C   UNL A   1      47.607  30.341  26.972  1.00  0.00     0.029 A 
ATOM     50  N   UNL A   1      45.558  30.275  27.832  1.00  0.00    -0.354 N 
ATOM     51  N   UNL A   1      43.216  31.367  29.215  1.00  0.00    -0.248 NA
ATOM     52  C   UNL A   1      42.219  33.065  30.470  1.00  0.00     0.031 C 
ATOM     53  C   UNL A   1      47.324  31.587  27.541  1.00  0.00     0.029 A 
ATOM     54  C   UNL A   1      46.045  31.547  28.073  1.00  0.00     0.049 A 
ATOM     55  H   UNL A   1      44.666  29.953  28.098  1.00  0.00     0.167 HD
ATOM     56  C   UNL A   1      44.080  32.456  29.277  1.00  0.00     0.074 A 
ATOM     57  C   UNL A   1      43.396  33.488  30.029  1.00  0.00     0.031 C 
ATOM     58  C   UNL A   1      45.331  32.584  28.771  1.00  0.00     0.034 A 
BRANCH  45  59
ATOM     59  C   UNL A   1      47.481  27.463  26.072  1.00  0.00     0.023 A 
ATOM     60  C   UNL A   1      47.599  27.573  24.671  1.00  0.00     0.012 A 
ATOM     61  C   UNL A   1      48.460  26.757  26.797  1.00  0.00     0.148 A 
ATOM     62  C   UNL A   1      48.661  26.970  23.999  1.00  0.00     0.002 A 
ATOM     63  C   UNL A   1      49.536  26.188  26.123  1.00  0.00     0.091 A 
ATOM     64  F   UNL A   1      48.313  26.639  28.124  1.00  0.00    -0.205 F 
ATOM     65  C   UNL A   1      49.633  26.288  24.726  1.00  0.00     0.022 A 
BRANCH  63  66
ATOM     66  S   UNL A   1      50.870  25.346  26.981  1.00  0.00     0.127 S 
ATOM     67  O   UNL A   1      51.697  24.891  25.864  1.00  0.00    -0.237 OA
ATOM     68  O   UNL A   1      51.459  26.425  27.774  1.00  0.00    -0.237 OA
ATOM     69  O   UNL A   1      50.239  24.295  27.766  1.00  0.00    -0.744 OA
ENDBRANCH  63  66
ENDBRANCH  45  59
BRANCH  46  70
ATOM     70  C   UNL A   1      39.720  31.563  30.828  1.00  0.00     0.023 A 
ATOM     71  C   UNL A   1      38.732  32.271  30.118  1.00  0.00     0.012 A 
ATOM     72  C   UNL A   1      39.597  31.421  32.223  1.00  0.00     0.148 A 
ATOM     73  C   UNL A   1      37.653  32.849  30.789  1.00  0.00     0.002 A 
ATOM     74  C   UNL A   1      38.492  31.954  32.878  1.00  0.00     0.091 A 
ATOM     75  F   UNL A   1      40.560  30.764  32.884  1.00  0.00    -0.205 F 
ATOM     76  C   UNL A   1      37.526  32.681  32.165  1.00  0.00     0.022 A 
BRANCH  74  77
ATOM     77  S   UNL A   1      38.189  31.670  34.626  1.00  0.00     0.127 S 
ATOM     78  O   UNL A   1      39.291  32.401  35.244  1.00  0.00    -0.237 OA
ATOM     79  O   UNL A   1      36.868  32.273  34.809  1.00  0.00    -0.237 OA
ATOM     80  O   UNL A   1      38.211  30.222  34.792  1.00  0.00    -0.744 OA
ENDBRANCH  74  77
ENDBRANCH  46  70
BRANCH  58  81
ATOM     81  C   UNL A   1      46.045  33.894  28.988  1.00  0.00     0.023 A 
ATOM     82  C   UNL A   1      46.937  34.026  30.070  1.00  0.00     0.012 A 
ATOM     83  C   UNL A   1      45.900  34.957  28.075  1.00  0.00     0.148 A 
ATOM     84  C   UNL A   1      47.656  35.208  30.254  1.00  0.00     0.002 A 
ATOM     85  C   UNL A   1      46.651  36.116  28.242  1.00  0.00     0.091 A 
ATOM     86  F   UNL A   1      45.030  34.820  27.064  1.00  0.00    -0.205 F 
ATOM     87  C   UNL A   1      47.523  36.245  29.335  1.00  0.00     0.022 A 
BRANCH  85  88
ATOM     88  S   UNL A   1      46.606  37.463  27.054  1.00  0.00     0.127 S 
ATOM     89  O   UNL A   1      47.503  38.437  27.674  1.00  0.00    -0.237 OA
ATOM     90  O   UNL A   1      47.136  36.833  25.844  1.00  0.00    -0.237 OA
ATOM     91  O   UNL A   1      45.209  37.862  26.961  1.00  0.00    -0.744 OA
ENDBRANCH  85  88
ENDBRANCH  58  81
ENDBRANCH  32  33
ENDBRANCH  25  27
ENDBRANCH  24  25
ENDBRANCH  23  24
ENDBRANCH   1  23
TORSDOF 19
ENDMDL
