MODEL 1
REMARK VINA RESULT:     -12.3      0.000      0.000
REMARK SMILES CC1(C)[C@H](C(=O)OCCOCCOC(=O)c2ccc(-c3c4nc(c(-c5cccc(S(=O)(=O)[O-])c5F)c5ccc([nH]5)c(-c5cccc(S(=O)(=O)[O-])c5F)c5nc(c(-c6cccc(S(=O)(=O)[O-])c6F)c6ccc3[nH]6)C=C5)C=C4)cc2)[C@@H]1C(=O)Nc1ccc(NC(=O)C2CCC2)cc1
REMARK SMILES IDX 9 1 8 2 7 3 5 4 6 5 4 6 1 7 2 8 3 9 79 10 80 11 81 12 82 13
REMARK SMILES IDX 83 15 84 16 95 17 85 18 94 19 86 20 87 21 88 22 89 24 90 25
REMARK SMILES IDX 91 26 93 27 92 28 10 29 11 30 12 31 13 32 14 33 15 34 16 35
REMARK SMILES IDX 17 36 78 37 18 38 77 39 19 40 20 41 21 42 71 43 22 44 76 45
REMARK SMILES IDX 70 46 72 47 23 48 75 49 69 50 68 51 24 53 56 54 36 55 55 56
REMARK SMILES IDX 37 57 40 58 54 59 73 60 38 61 39 62 53 64 74 65 41 66 25 67
REMARK SMILES IDX 26 68 34 69 27 70 29 71 35 72 28 73 30 74 31 75 32 76 33 77
REMARK SMILES IDX 57 78 58 79 66 80 59 81 61 82 67 83 60 84 62 85 63 86 64 87
REMARK SMILES IDX 65 88 42 89 43 90 51 91 44 92 46 93 52 94 45 95 47 96 48 97
REMARK SMILES IDX 49 98 50 99
REMARK H PARENT 82 14 87 23 72 52 40 63
REMARK Flexibility Score: inf
ROOT
ATOM      1  C   UNL A   1      35.585  23.499  25.382  1.00  0.00     0.202 C 
ENDROOT
BRANCH   1   2
ATOM      2  C   UNL A   1      34.391  24.344  25.871  1.00  0.00     0.261 C 
BRANCH   2   3
ATOM      3  O   UNL A   1      34.384  25.761  25.709  1.00  0.00    -0.463 OA
BRANCH   3   4
ATOM      4  C   UNL A   1      33.833  26.263  24.584  1.00  0.00     0.310 C 
ATOM      5  O   UNL A   1      34.229  26.052  23.457  1.00  0.00    -0.252 OA
BRANCH   4   6
ATOM      6  C   UNL A   1      32.537  26.951  24.798  1.00  0.00     0.118 C 
ATOM      7  C   UNL A   1      31.398  29.246  24.924  1.00  0.00     0.013 C 
ATOM      8  C   UNL A   1      32.021  28.173  24.065  1.00  0.00    -0.009 C 
ATOM      9  C   UNL A   1      32.775  28.748  22.883  1.00  0.00     0.013 C 
ATOM     10  C   UNL A   1      31.293  26.811  23.956  1.00  0.00     0.100 C 
BRANCH  10  11
ATOM     11  C   UNL A   1      31.101  26.231  22.605  1.00  0.00     0.228 C 
ATOM     12  O   UNL A   1      30.781  26.982  21.688  1.00  0.00    -0.274 OA
ATOM     13  N   UNL A   1      31.251  24.896  22.344  1.00  0.00    -0.326 N 
ATOM     14  H   UNL A   1      31.014  24.618  21.430  1.00  0.00     0.169 HD
BRANCH  13  15
ATOM     15  C   UNL A   1      31.687  23.873  23.182  1.00  0.00     0.041 A 
ATOM     16  C   UNL A   1      30.994  23.759  24.375  1.00  0.00     0.028 A 
ATOM     17  C   UNL A   1      32.665  22.936  22.865  1.00  0.00     0.028 A 
ATOM     18  C   UNL A   1      31.123  22.605  25.139  1.00  0.00     0.028 A 
ATOM     19  C   UNL A   1      32.858  21.825  23.711  1.00  0.00     0.028 A 
ATOM     20  C   UNL A   1      32.025  21.610  24.824  1.00  0.00     0.041 A 
BRANCH  20  21
ATOM     21  N   UNL A   1      32.116  20.377  25.486  1.00  0.00    -0.326 N 
ATOM     22  C   UNL A   1      32.621  19.119  25.226  1.00  0.00     0.227 C 
ATOM     23  H   UNL A   1      31.707  20.421  26.380  1.00  0.00     0.169 HD
ATOM     24  O   UNL A   1      32.487  18.335  26.191  1.00  0.00    -0.274 OA
BRANCH  22  25
ATOM     25  C   UNL A   1      33.346  18.610  23.961  1.00  0.00     0.079 C 
ATOM     26  C   UNL A   1      34.329  17.416  24.264  1.00  0.00     0.013 C 
ATOM     27  C   UNL A   1      32.804  17.680  22.846  1.00  0.00     0.013 C 
ATOM     28  C   UNL A   1      34.159  16.972  22.810  1.00  0.00     0.002 C 
ENDBRANCH  22  25
ENDBRANCH  20  21
ENDBRANCH  13  15
ENDBRANCH  10  11
ENDBRANCH   4   6
ENDBRANCH   3   4
ENDBRANCH   2   3
ENDBRANCH   1   2
BRANCH   1  29
ATOM     29  O   UNL A   1      36.051  22.306  25.991  1.00  0.00    -0.374 OA
BRANCH  29  30
ATOM     30  C   UNL A   1      35.963  21.043  25.368  1.00  0.00     0.202 C 
BRANCH  30  31
ATOM     31  C   UNL A   1      37.250  20.258  25.145  1.00  0.00     0.261 C 
BRANCH  31  32
ATOM     32  O   UNL A   1      38.411  21.088  25.037  1.00  0.00    -0.460 OA
BRANCH  32  33
ATOM     33  C   UNL A   1      39.354  20.835  25.976  1.00  0.00     0.338 C 
ATOM     34  O   UNL A   1      39.895  19.766  26.207  1.00  0.00    -0.246 OA
BRANCH  33  35
ATOM     35  C   UNL A   1      39.764  22.087  26.636  1.00  0.00     0.060 A 
ATOM     36  C   UNL A   1      39.165  23.271  26.191  1.00  0.00     0.016 A 
ATOM     37  C   UNL A   1      40.770  22.114  27.606  1.00  0.00     0.016 A 
ATOM     38  C   UNL A   1      39.625  24.497  26.657  1.00  0.00     0.010 A 
ATOM     39  C   UNL A   1      41.235  23.348  28.067  1.00  0.00     0.010 A 
ATOM     40  C   UNL A   1      40.701  24.542  27.551  1.00  0.00    -0.014 A 
BRANCH  40  41
ATOM     41  C   UNL A   1      41.390  25.834  27.769  1.00  0.00     0.031 A 
ATOM     42  C   UNL A   1      40.658  26.926  28.501  1.00  0.00     0.074 A 
ATOM     43  C   UNL A   1      42.658  26.019  27.364  1.00  0.00     0.049 A 
ATOM     44  N   UNL A   1      41.072  28.119  28.839  1.00  0.00    -0.248 NA
ATOM     45  C   UNL A   1      39.272  26.633  28.909  1.00  0.00     0.031 C 
ATOM     46  C   UNL A   1      43.470  25.034  26.652  1.00  0.00     0.029 A 
ATOM     47  N   UNL A   1      43.479  27.112  27.485  1.00  0.00    -0.354 N 
ATOM     48  C   UNL A   1      39.996  28.726  29.476  1.00  0.00     0.074 A 
ATOM     49  C   UNL A   1      38.904  27.779  29.462  1.00  0.00     0.031 C 
ATOM     50  C   UNL A   1      44.669  25.577  26.377  1.00  0.00     0.029 A 
ATOM     51  C   UNL A   1      44.702  26.949  26.880  1.00  0.00     0.049 A 
ATOM     52  H   UNL A   1      43.217  27.933  27.959  1.00  0.00     0.167 HD
ATOM     53  C   UNL A   1      39.928  29.954  30.040  1.00  0.00     0.034 A 
ATOM     54  C   UNL A   1      45.724  27.817  26.739  1.00  0.00     0.034 A 
ATOM     55  C   UNL A   1      41.021  30.887  30.071  1.00  0.00     0.049 A 
ATOM     56  C   UNL A   1      45.615  29.187  27.359  1.00  0.00     0.074 A 
ATOM     57  C   UNL A   1      41.068  32.138  30.660  1.00  0.00     0.029 A 
ATOM     58  N   UNL A   1      42.256  30.676  29.478  1.00  0.00    -0.354 N 
ATOM     59  N   UNL A   1      44.638  29.699  28.068  1.00  0.00    -0.248 NA
ATOM     60  C   UNL A   1      46.766  30.086  27.188  1.00  0.00     0.031 C 
ATOM     61  C   UNL A   1      42.324  32.695  30.399  1.00  0.00     0.029 A 
ATOM     62  C   UNL A   1      43.069  31.779  29.673  1.00  0.00     0.049 A 
ATOM     63  H   UNL A   1      42.516  29.861  28.990  1.00  0.00     0.167 HD
ATOM     64  C   UNL A   1      45.070  30.963  28.458  1.00  0.00     0.074 A 
ATOM     65  C   UNL A   1      46.406  31.129  27.924  1.00  0.00     0.031 C 
ATOM     66  C   UNL A   1      44.416  31.907  29.179  1.00  0.00     0.034 A 
BRANCH  53  67
ATOM     67  C   UNL A   1      38.630  30.350  30.694  1.00  0.00     0.023 A 
ATOM     68  C   UNL A   1      38.400  30.019  32.044  1.00  0.00     0.012 A 
ATOM     69  C   UNL A   1      37.663  31.089  29.987  1.00  0.00     0.148 A 
ATOM     70  C   UNL A   1      37.211  30.390  32.673  1.00  0.00     0.002 A 
ATOM     71  C   UNL A   1      36.500  31.493  30.632  1.00  0.00     0.091 A 
ATOM     72  F   UNL A   1      37.890  31.371  28.697  1.00  0.00    -0.205 F 
ATOM     73  C   UNL A   1      36.268  31.135  31.971  1.00  0.00     0.022 A 
BRANCH  71  74
ATOM     74  S   UNL A   1      35.259  32.519  29.837  1.00  0.00     0.127 S 
ATOM     75  O   UNL A   1      34.727  31.607  28.825  1.00  0.00    -0.237 OA
ATOM     76  O   UNL A   1      34.342  32.804  30.942  1.00  0.00    -0.237 OA
ATOM     77  O   UNL A   1      35.968  33.681  29.321  1.00  0.00    -0.744 OA
ENDBRANCH  71  74
ENDBRANCH  53  67
BRANCH  54  78
ATOM     78  C   UNL A   1      46.956  27.404  26.011  1.00  0.00     0.023 A 
ATOM     79  C   UNL A   1      47.949  26.668  26.684  1.00  0.00     0.012 A 
ATOM     80  C   UNL A   1      47.142  27.729  24.653  1.00  0.00     0.148 A 
ATOM     81  C   UNL A   1      49.121  26.289  26.026  1.00  0.00     0.002 A 
ATOM     82  C   UNL A   1      48.285  27.301  23.989  1.00  0.00     0.091 A 
ATOM     83  F   UNL A   1      46.193  28.447  24.036  1.00  0.00    -0.205 F 
ATOM     84  C   UNL A   1      49.283  26.596  24.677  1.00  0.00     0.022 A 
BRANCH  82  85
ATOM     85  S   UNL A   1      48.515  27.535  22.224  1.00  0.00     0.127 S 
ATOM     86  O   UNL A   1      49.750  28.314  22.183  1.00  0.00    -0.237 OA
ATOM     87  O   UNL A   1      48.639  26.155  21.751  1.00  0.00    -0.237 OA
ATOM     88  O   UNL A   1      47.317  28.220  21.759  1.00  0.00    -0.744 OA
ENDBRANCH  82  85
ENDBRANCH  54  78
BRANCH  66  89
ATOM     89  C   UNL A   1      45.142  33.197  29.467  1.00  0.00     0.023 A 
ATOM     90  C   UNL A   1      45.937  33.311  30.624  1.00  0.00     0.012 A 
ATOM     91  C   UNL A   1      45.096  34.267  28.553  1.00  0.00     0.148 A 
ATOM     92  C   UNL A   1      46.646  34.482  30.885  1.00  0.00     0.002 A 
ATOM     93  C   UNL A   1      45.845  35.414  28.794  1.00  0.00     0.091 A 
ATOM     94  F   UNL A   1      44.321  34.148  27.465  1.00  0.00    -0.205 F 
ATOM     95  C   UNL A   1      46.610  35.528  29.966  1.00  0.00     0.022 A 
BRANCH  93  96
ATOM     96  S   UNL A   1      45.933  36.769  27.618  1.00  0.00     0.127 S 
ATOM     97  O   UNL A   1      46.750  37.740  28.343  1.00  0.00    -0.237 OA
ATOM     98  O   UNL A   1      46.600  36.145  26.473  1.00  0.00    -0.237 OA
ATOM     99  O   UNL A   1      44.556  37.171  27.367  1.00  0.00    -0.744 OA
ENDBRANCH  93  96
ENDBRANCH  66  89
ENDBRANCH  40  41
ENDBRANCH  33  35
ENDBRANCH  32  33
ENDBRANCH  31  32
ENDBRANCH  30  31
ENDBRANCH  29  30
ENDBRANCH   1  29
TORSDOF 21
ENDMDL
MODEL 2
REMARK VINA RESULT:     -12.3      0.478      7.277
REMARK SMILES CC1(C)[C@H](C(=O)OCCOCCOC(=O)c2ccc(-c3c4nc(c(-c5cccc(S(=O)(=O)[O-])c5F)c5ccc([nH]5)c(-c5cccc(S(=O)(=O)[O-])c5F)c5nc(c(-c6cccc(S(=O)(=O)[O-])c6F)c6ccc3[nH]6)C=C5)C=C4)cc2)[C@@H]1C(=O)Nc1ccc(NC(=O)C2CCC2)cc1
REMARK SMILES IDX 9 1 8 2 7 3 5 4 6 5 4 6 1 7 2 8 3 9 79 10 80 11 81 12 82 13
REMARK SMILES IDX 83 15 84 16 95 17 85 18 94 19 86 20 87 21 88 22 89 24 90 25
REMARK SMILES IDX 91 26 93 27 92 28 10 29 11 30 12 31 13 32 14 33 15 34 16 35
REMARK SMILES IDX 17 36 78 37 18 38 77 39 19 40 20 41 21 42 71 43 22 44 76 45
REMARK SMILES IDX 70 46 72 47 23 48 75 49 69 50 68 51 24 53 56 54 36 55 55 56
REMARK SMILES IDX 37 57 40 58 54 59 73 60 38 61 39 62 53 64 74 65 41 66 25 67
REMARK SMILES IDX 26 68 34 69 27 70 29 71 35 72 28 73 30 74 31 75 32 76 33 77
REMARK SMILES IDX 57 78 58 79 66 80 59 81 61 82 67 83 60 84 62 85 63 86 64 87
REMARK SMILES IDX 65 88 42 89 43 90 51 91 44 92 46 93 52 94 45 95 47 96 48 97
REMARK SMILES IDX 49 98 50 99
REMARK H PARENT 82 14 87 23 72 52 40 63
REMARK Flexibility Score: inf
ROOT
ATOM      1  C   UNL A   1      35.724  23.383  25.376  1.00  0.00     0.202 C 
ENDROOT
BRANCH   1   2
ATOM      2  C   UNL A   1      34.493  24.196  25.823  1.00  0.00     0.261 C 
BRANCH   2   3
ATOM      3  O   UNL A   1      34.471  25.617  25.701  1.00  0.00    -0.463 OA
BRANCH   3   4
ATOM      4  C   UNL A   1      33.904  26.146  24.596  1.00  0.00     0.310 C 
ATOM      5  O   UNL A   1      34.275  25.950  23.457  1.00  0.00    -0.252 OA
BRANCH   4   6
ATOM      6  C   UNL A   1      32.621  26.844  24.848  1.00  0.00     0.118 C 
ATOM      7  C   UNL A   1      31.507  29.149  25.015  1.00  0.00     0.013 C 
ATOM      8  C   UNL A   1      32.097  28.074  24.135  1.00  0.00    -0.009 C 
ATOM      9  C   UNL A   1      32.824  28.648  22.935  1.00  0.00     0.013 C 
ATOM     10  C   UNL A   1      31.354  26.720  24.039  1.00  0.00     0.100 C 
BRANCH  10  11
ATOM     11  C   UNL A   1      31.120  26.148  22.691  1.00  0.00     0.228 C 
ATOM     12  O   UNL A   1      30.783  26.907  21.786  1.00  0.00    -0.274 OA
ATOM     13  N   UNL A   1      31.250  24.813  22.421  1.00  0.00    -0.326 N 
ATOM     14  H   UNL A   1      30.986  24.541  21.512  1.00  0.00     0.169 HD
BRANCH  13  15
ATOM     15  C   UNL A   1      31.698  23.782  23.242  1.00  0.00     0.041 A 
ATOM     16  C   UNL A   1      31.035  23.668  24.452  1.00  0.00     0.028 A 
ATOM     17  C   UNL A   1      32.659  22.837  22.895  1.00  0.00     0.028 A 
ATOM     18  C   UNL A   1      31.174  22.509  25.207  1.00  0.00     0.028 A 
ATOM     19  C   UNL A   1      32.864  21.721  23.730  1.00  0.00     0.028 A 
ATOM     20  C   UNL A   1      32.059  21.508  24.864  1.00  0.00     0.041 A 
BRANCH  20  21
ATOM     21  N   UNL A   1      32.155  20.271  25.517  1.00  0.00    -0.326 N 
ATOM     22  C   UNL A   1      32.666  19.017  25.248  1.00  0.00     0.227 C 
ATOM     23  H   UNL A   1      31.745  20.307  26.412  1.00  0.00     0.169 HD
ATOM     24  O   UNL A   1      32.537  18.226  26.209  1.00  0.00    -0.274 OA
BRANCH  22  25
ATOM     25  C   UNL A   1      33.395  18.521  23.981  1.00  0.00     0.079 C 
ATOM     26  C   UNL A   1      34.256  17.227  24.243  1.00  0.00     0.013 C 
ATOM     27  C   UNL A   1      32.819  17.709  22.792  1.00  0.00     0.013 C 
ATOM     28  C   UNL A   1      34.107  16.887  22.759  1.00  0.00     0.002 C 
ENDBRANCH  22  25
ENDBRANCH  20  21
ENDBRANCH  13  15
ENDBRANCH  10  11
ENDBRANCH   4   6
ENDBRANCH   3   4
ENDBRANCH   2   3
ENDBRANCH   1   2
BRANCH   1  29
ATOM     29  O   UNL A   1      36.140  22.147  25.934  1.00  0.00    -0.374 OA
BRANCH  29  30
ATOM     30  C   UNL A   1      36.295  20.974  25.165  1.00  0.00     0.202 C 
BRANCH  30  31
ATOM     31  C   UNL A   1      37.669  20.315  25.126  1.00  0.00     0.261 C 
BRANCH  31  32
ATOM     32  O   UNL A   1      38.750  21.252  25.158  1.00  0.00    -0.460 OA
BRANCH  32  33
ATOM     33  C   UNL A   1      39.659  21.006  26.131  1.00  0.00     0.338 C 
ATOM     34  O   UNL A   1      40.242  19.956  26.345  1.00  0.00    -0.246 OA
BRANCH  33  35
ATOM     35  C   UNL A   1      39.973  22.247  26.860  1.00  0.00     0.060 A 
ATOM     36  C   UNL A   1      39.248  23.393  26.514  1.00  0.00     0.016 A 
ATOM     37  C   UNL A   1      41.007  22.310  27.798  1.00  0.00     0.016 A 
ATOM     38  C   UNL A   1      39.606  24.627  27.046  1.00  0.00     0.010 A 
ATOM     39  C   UNL A   1      41.371  23.552  28.325  1.00  0.00     0.010 A 
ATOM     40  C   UNL A   1      40.706  24.719  27.907  1.00  0.00    -0.014 A 
BRANCH  40  41
ATOM     41  C   UNL A   1      41.278  26.055  28.190  1.00  0.00     0.031 A 
ATOM     42  C   UNL A   1      42.670  26.359  27.707  1.00  0.00     0.074 A 
ATOM     43  C   UNL A   1      40.557  26.996  28.823  1.00  0.00     0.049 A 
ATOM     44  N   UNL A   1      43.357  27.467  27.804  1.00  0.00    -0.248 NA
ATOM     45  C   UNL A   1      43.384  25.268  27.021  1.00  0.00     0.031 C 
ATOM     46  C   UNL A   1      39.198  26.820  29.331  1.00  0.00     0.029 A 
ATOM     47  N   UNL A   1      40.880  28.287  29.159  1.00  0.00    -0.354 N 
ATOM     48  C   UNL A   1      44.588  27.202  27.215  1.00  0.00     0.074 A 
ATOM     49  C   UNL A   1      44.562  25.823  26.779  1.00  0.00     0.031 C 
ATOM     50  C   UNL A   1      38.810  27.956  29.937  1.00  0.00     0.029 A 
ATOM     51  C   UNL A   1      39.898  28.931  29.872  1.00  0.00     0.049 A 
ATOM     52  H   UNL A   1      41.734  28.710  28.913  1.00  0.00     0.167 HD
ATOM     53  C   UNL A   1      45.638  28.035  27.034  1.00  0.00     0.034 A 
ATOM     54  C   UNL A   1      39.888  30.163  30.419  1.00  0.00     0.034 A 
ATOM     55  C   UNL A   1      45.655  29.411  27.450  1.00  0.00     0.049 A 
ATOM     56  C   UNL A   1      41.079  31.064  30.221  1.00  0.00     0.074 A 
ATOM     57  C   UNL A   1      46.653  30.351  27.270  1.00  0.00     0.029 A 
ATOM     58  N   UNL A   1      44.630  30.040  28.139  1.00  0.00    -0.354 N 
ATOM     59  N   UNL A   1      42.184  30.840  29.552  1.00  0.00    -0.248 NA
ATOM     60  C   UNL A   1      41.007  32.403  30.827  1.00  0.00     0.031 C 
ATOM     61  C   UNL A   1      46.241  31.543  27.876  1.00  0.00     0.029 A 
ATOM     62  C   UNL A   1      44.975  31.352  28.407  1.00  0.00     0.049 A 
ATOM     63  H   UNL A   1      43.781  29.614  28.400  1.00  0.00     0.167 HD
ATOM     64  C   UNL A   1      42.921  32.019  29.623  1.00  0.00     0.074 A 
ATOM     65  C   UNL A   1      42.125  32.961  30.384  1.00  0.00     0.031 C 
ATOM     66  C   UNL A   1      44.150  32.293  29.119  1.00  0.00     0.034 A 
BRANCH  53  67
ATOM     67  C   UNL A   1      46.852  27.484  26.332  1.00  0.00     0.023 A 
ATOM     68  C   UNL A   1      47.710  26.599  27.014  1.00  0.00     0.012 A 
ATOM     69  C   UNL A   1      47.114  27.804  24.987  1.00  0.00     0.148 A 
ATOM     70  C   UNL A   1      48.830  26.065  26.378  1.00  0.00     0.002 A 
ATOM     71  C   UNL A   1      48.207  27.235  24.346  1.00  0.00     0.091 A 
ATOM     72  F   UNL A   1      46.300  28.669  24.365  1.00  0.00    -0.205 F 
ATOM     73  C   UNL A   1      49.073  26.374  25.043  1.00  0.00     0.022 A 
BRANCH  71  74
ATOM     74  S   UNL A   1      48.562  27.512  22.607  1.00  0.00     0.127 S 
ATOM     75  O   UNL A   1      48.696  26.142  22.111  1.00  0.00    -0.237 OA
ATOM     76  O   UNL A   1      47.357  28.208  22.154  1.00  0.00    -0.237 OA
ATOM     77  O   UNL A   1      49.778  28.313  22.568  1.00  0.00    -0.744 OA
ENDBRANCH  71  74
ENDBRANCH  53  67
BRANCH  54  78
ATOM     78  C   UNL A   1      38.693  30.631  31.176  1.00  0.00     0.023 A 
ATOM     79  C   UNL A   1      38.638  30.454  32.571  1.00  0.00     0.012 A 
ATOM     80  C   UNL A   1      37.616  31.259  30.519  1.00  0.00     0.148 A 
ATOM     81  C   UNL A   1      37.518  30.867  33.296  1.00  0.00     0.002 A 
ATOM     82  C   UNL A   1      36.530  31.719  31.254  1.00  0.00     0.091 A 
ATOM     83  F   UNL A   1      37.680  31.402  29.188  1.00  0.00    -0.205 F 
ATOM     84  C   UNL A   1      36.471  31.508  32.640  1.00  0.00     0.022 A 
BRANCH  82  85
ATOM     85  S   UNL A   1      35.202  32.671  30.512  1.00  0.00     0.127 S 
ATOM     86  O   UNL A   1      34.265  32.798  31.626  1.00  0.00    -0.237 OA
ATOM     87  O   UNL A   1      35.890  33.908  30.140  1.00  0.00    -0.237 OA
ATOM     88  O   UNL A   1      34.738  31.882  29.380  1.00  0.00    -0.744 OA
ENDBRANCH  82  85
ENDBRANCH  54  78
BRANCH  66  89
ATOM     89  C   UNL A   1      44.705  33.678  29.341  1.00  0.00     0.023 A 
ATOM     90  C   UNL A   1      45.416  33.967  30.522  1.00  0.00     0.012 A 
ATOM     91  C   UNL A   1      44.586  34.668  28.346  1.00  0.00     0.148 A 
ATOM     92  C   UNL A   1      45.969  35.230  30.725  1.00  0.00     0.002 A 
ATOM     93  C   UNL A   1      45.183  35.910  28.534  1.00  0.00     0.091 A 
ATOM     94  F   UNL A   1      43.891  34.381  27.235  1.00  0.00    -0.205 F 
ATOM     95  C   UNL A   1      45.863  36.197  29.728  1.00  0.00     0.022 A 
BRANCH  93  96
ATOM     96  S   UNL A   1      45.179  37.179  27.263  1.00  0.00     0.127 S 
ATOM     97  O   UNL A   1      45.961  36.544  26.204  1.00  0.00    -0.237 OA
ATOM     98  O   UNL A   1      43.752  37.320  26.967  1.00  0.00    -0.237 OA
ATOM     99  O   UNL A   1      45.787  38.355  27.871  1.00  0.00    -0.744 OA
ENDBRANCH  93  96
ENDBRANCH  66  89
ENDBRANCH  40  41
ENDBRANCH  33  35
ENDBRANCH  32  33
ENDBRANCH  31  32
ENDBRANCH  30  31
ENDBRANCH  29  30
ENDBRANCH   1  29
TORSDOF 21
ENDMDL
MODEL 3
REMARK VINA RESULT:     -11.7      1.913      7.589
REMARK SMILES CC1(C)[C@H](C(=O)OCCOCCOC(=O)c2ccc(-c3c4nc(c(-c5cccc(S(=O)(=O)[O-])c5F)c5ccc([nH]5)c(-c5cccc(S(=O)(=O)[O-])c5F)c5nc(c(-c6cccc(S(=O)(=O)[O-])c6F)c6ccc3[nH]6)C=C5)C=C4)cc2)[C@@H]1C(=O)Nc1ccc(NC(=O)C2CCC2)cc1
REMARK SMILES IDX 9 1 8 2 7 3 5 4 6 5 4 6 1 7 2 8 3 9 79 10 80 11 81 12 82 13
REMARK SMILES IDX 83 15 84 16 95 17 85 18 94 19 86 20 87 21 88 22 89 24 90 25
REMARK SMILES IDX 91 26 93 27 92 28 10 29 11 30 12 31 13 32 14 33 15 34 16 35
REMARK SMILES IDX 17 36 78 37 18 38 77 39 19 40 20 41 21 42 71 43 22 44 76 45
REMARK SMILES IDX 70 46 72 47 23 48 75 49 69 50 68 51 24 53 56 54 36 55 55 56
REMARK SMILES IDX 37 57 40 58 54 59 73 60 38 61 39 62 53 64 74 65 41 66 25 67
REMARK SMILES IDX 26 68 34 69 27 70 29 71 35 72 28 73 30 74 31 75 32 76 33 77
REMARK SMILES IDX 57 78 58 79 66 80 59 81 61 82 67 83 60 84 62 85 63 86 64 87
REMARK SMILES IDX 65 88 42 89 43 90 51 91 44 92 46 93 52 94 45 95 47 96 48 97
REMARK SMILES IDX 49 98 50 99
REMARK H PARENT 82 14 87 23 72 52 40 63
REMARK Flexibility Score: inf
ROOT
ATOM      1  C   UNL A   1      35.127  22.641  23.857  1.00  0.00     0.202 C 
ENDROOT
BRANCH   1   2
ATOM      2  C   UNL A   1      35.696  23.902  24.538  1.00  0.00     0.261 C 
BRANCH   2   3
ATOM      3  O   UNL A   1      34.907  24.654  25.458  1.00  0.00    -0.463 OA
BRANCH   3   4
ATOM      4  C   UNL A   1      34.132  25.642  24.962  1.00  0.00     0.310 C 
ATOM      5  O   UNL A   1      33.768  25.733  23.809  1.00  0.00    -0.252 OA
BRANCH   4   6
ATOM      6  C   UNL A   1      33.555  26.536  25.995  1.00  0.00     0.118 C 
ATOM      7  C   UNL A   1      33.731  28.861  27.065  1.00  0.00     0.013 C 
ATOM      8  C   UNL A   1      33.313  28.027  25.878  1.00  0.00    -0.009 C 
ATOM      9  C   UNL A   1      33.527  28.750  24.563  1.00  0.00     0.013 C 
ATOM     10  C   UNL A   1      32.135  27.040  26.059  1.00  0.00     0.100 C 
BRANCH  10  11
ATOM     11  C   UNL A   1      31.063  27.042  25.033  1.00  0.00     0.228 C 
ATOM     12  O   UNL A   1      30.716  28.117  24.553  1.00  0.00    -0.274 OA
ATOM     13  N   UNL A   1      30.437  25.898  24.615  1.00  0.00    -0.326 N 
ATOM     14  H   UNL A   1      29.685  26.035  23.995  1.00  0.00     0.169 HD
BRANCH  13  15
ATOM     15  C   UNL A   1      30.707  24.571  24.938  1.00  0.00     0.041 A 
ATOM     16  C   UNL A   1      31.059  23.768  23.866  1.00  0.00     0.028 A 
ATOM     17  C   UNL A   1      30.743  24.049  26.227  1.00  0.00     0.028 A 
ATOM     18  C   UNL A   1      31.646  22.530  24.097  1.00  0.00     0.028 A 
ATOM     19  C   UNL A   1      31.242  22.747  26.431  1.00  0.00     0.028 A 
ATOM     20  C   UNL A   1      31.775  22.000  25.365  1.00  0.00     0.041 A 
BRANCH  20  21
ATOM     21  N   UNL A   1      32.461  20.816  25.667  1.00  0.00    -0.326 N 
ATOM     22  C   UNL A   1      32.622  19.564  25.109  1.00  0.00     0.227 C 
ATOM     23  H   UNL A   1      32.965  20.900  26.509  1.00  0.00     0.169 HD
ATOM     24  O   UNL A   1      33.401  18.838  25.765  1.00  0.00    -0.274 OA
BRANCH  22  25
ATOM     25  C   UNL A   1      32.025  19.004  23.800  1.00  0.00     0.079 C 
ATOM     26  C   UNL A   1      32.477  19.819  22.529  1.00  0.00     0.013 C 
ATOM     27  C   UNL A   1      32.481  17.770  22.981  1.00  0.00     0.013 C 
ATOM     28  C   UNL A   1      32.234  18.560  21.696  1.00  0.00     0.002 C 
ENDBRANCH  22  25
ENDBRANCH  20  21
ENDBRANCH  13  15
ENDBRANCH  10  11
ENDBRANCH   4   6
ENDBRANCH   3   4
ENDBRANCH   2   3
ENDBRANCH   1   2
BRANCH   1  29
ATOM     29  O   UNL A   1      35.368  21.305  24.268  1.00  0.00    -0.374 OA
BRANCH  29  30
ATOM     30  C   UNL A   1      36.242  20.975  25.325  1.00  0.00     0.202 C 
BRANCH  30  31
ATOM     31  C   UNL A   1      37.583  20.340  24.980  1.00  0.00     0.261 C 
BRANCH  31  32
ATOM     32  O   UNL A   1      38.684  21.251  25.066  1.00  0.00    -0.460 OA
BRANCH  32  33
ATOM     33  C   UNL A   1      39.535  20.985  26.085  1.00  0.00     0.338 C 
ATOM     34  O   UNL A   1      40.063  19.916  26.344  1.00  0.00    -0.246 OA
BRANCH  33  35
ATOM     35  C   UNL A   1      39.867  22.226  26.808  1.00  0.00     0.060 A 
ATOM     36  C   UNL A   1      39.153  23.379  26.460  1.00  0.00     0.016 A 
ATOM     37  C   UNL A   1      40.906  22.281  27.741  1.00  0.00     0.016 A 
ATOM     38  C   UNL A   1      39.529  24.610  26.986  1.00  0.00     0.010 A 
ATOM     39  C   UNL A   1      41.286  23.521  28.262  1.00  0.00     0.010 A 
ATOM     40  C   UNL A   1      40.633  24.693  27.842  1.00  0.00    -0.014 A 
BRANCH  40  41
ATOM     41  C   UNL A   1      41.221  26.024  28.116  1.00  0.00     0.031 A 
ATOM     42  C   UNL A   1      42.613  26.311  27.622  1.00  0.00     0.074 A 
ATOM     43  C   UNL A   1      40.516  26.974  28.753  1.00  0.00     0.049 A 
ATOM     44  N   UNL A   1      43.313  27.412  27.711  1.00  0.00    -0.248 NA
ATOM     45  C   UNL A   1      43.310  25.211  26.934  1.00  0.00     0.031 C 
ATOM     46  C   UNL A   1      39.159  26.814  29.271  1.00  0.00     0.029 A 
ATOM     47  N   UNL A   1      40.855  28.262  29.083  1.00  0.00    -0.354 N 
ATOM     48  C   UNL A   1      44.536  27.132  27.113  1.00  0.00     0.074 A 
ATOM     49  C   UNL A   1      44.492  25.752  26.681  1.00  0.00     0.031 C 
ATOM     50  C   UNL A   1      38.788  27.957  29.877  1.00  0.00     0.029 A 
ATOM     51  C   UNL A   1      39.886  28.919  29.801  1.00  0.00     0.049 A 
ATOM     52  H   UNL A   1      41.712  28.675  28.829  1.00  0.00     0.167 HD
ATOM     53  C   UNL A   1      45.594  27.953  26.922  1.00  0.00     0.034 A 
ATOM     54  C   UNL A   1      39.893  30.152  30.345  1.00  0.00     0.034 A 
ATOM     55  C   UNL A   1      45.629  29.329  27.334  1.00  0.00     0.049 A 
ATOM     56  C   UNL A   1      41.093  31.040  30.136  1.00  0.00     0.074 A 
ATOM     57  C   UNL A   1      46.636  30.258  27.144  1.00  0.00     0.029 A 
ATOM     58  N   UNL A   1      44.617  29.971  28.030  1.00  0.00    -0.354 N 
ATOM     59  N   UNL A   1      42.191  30.802  29.458  1.00  0.00    -0.248 NA
ATOM     60  C   UNL A   1      41.041  32.381  30.738  1.00  0.00     0.031 C 
ATOM     61  C   UNL A   1      46.242  31.456  27.750  1.00  0.00     0.029 A 
ATOM     62  C   UNL A   1      44.978  31.281  28.291  1.00  0.00     0.049 A 
ATOM     63  H   UNL A   1      43.765  29.556  28.298  1.00  0.00     0.167 HD
ATOM     64  C   UNL A   1      42.941  31.973  29.521  1.00  0.00     0.074 A 
ATOM     65  C   UNL A   1      42.161  32.926  30.285  1.00  0.00     0.031 C 
ATOM     66  C   UNL A   1      44.168  32.233  29.007  1.00  0.00     0.034 A 
BRANCH  53  67
ATOM     67  C   UNL A   1      46.796  27.387  26.213  1.00  0.00     0.023 A 
ATOM     68  C   UNL A   1      46.914  27.531  24.816  1.00  0.00     0.012 A 
ATOM     69  C   UNL A   1      47.830  26.758  26.933  1.00  0.00     0.148 A 
ATOM     70  C   UNL A   1      48.027  27.028  24.142  1.00  0.00     0.002 A 
ATOM     71  C   UNL A   1      48.956  26.298  26.261  1.00  0.00     0.091 A 
ATOM     72  F   UNL A   1      47.686  26.608  28.258  1.00  0.00    -0.205 F 
ATOM     73  C   UNL A   1      49.050  26.422  24.864  1.00  0.00     0.022 A 
BRANCH  71  74
ATOM     74  S   UNL A   1      50.361  25.572  27.111  1.00  0.00     0.127 S 
ATOM     75  O   UNL A   1      49.773  24.352  27.664  1.00  0.00    -0.237 OA
ATOM     76  O   UNL A   1      51.303  25.350  26.013  1.00  0.00    -0.237 OA
ATOM     77  O   UNL A   1      50.791  26.558  28.091  1.00  0.00    -0.744 OA
ENDBRANCH  71  74
ENDBRANCH  53  67
BRANCH  54  78
ATOM     78  C   UNL A   1      38.710  30.635  31.109  1.00  0.00     0.023 A 
ATOM     79  C   UNL A   1      38.666  30.468  32.507  1.00  0.00     0.012 A 
ATOM     80  C   UNL A   1      37.633  31.269  30.459  1.00  0.00     0.148 A 
ATOM     81  C   UNL A   1      37.557  30.895  33.239  1.00  0.00     0.002 A 
ATOM     82  C   UNL A   1      36.557  31.742  31.200  1.00  0.00     0.091 A 
ATOM     83  F   UNL A   1      37.686  31.402  29.126  1.00  0.00    -0.205 F 
ATOM     84  C   UNL A   1      36.509  31.540  32.588  1.00  0.00     0.022 A 
BRANCH  82  85
ATOM     85  S   UNL A   1      35.230  32.701  30.464  1.00  0.00     0.127 S 
ATOM     86  O   UNL A   1      34.752  31.799  29.420  1.00  0.00    -0.237 OA
ATOM     87  O   UNL A   1      34.319  32.873  31.597  1.00  0.00    -0.237 OA
ATOM     88  O   UNL A   1      35.848  33.936  30.002  1.00  0.00    -0.744 OA
ENDBRANCH  82  85
ENDBRANCH  54  78
BRANCH  66  89
ATOM     89  C   UNL A   1      44.740  33.611  29.221  1.00  0.00     0.023 A 
ATOM     90  C   UNL A   1      44.494  34.627  28.276  1.00  0.00     0.012 A 
ATOM     91  C   UNL A   1      45.458  33.918  30.393  1.00  0.00     0.148 A 
ATOM     92  C   UNL A   1      44.982  35.917  28.478  1.00  0.00     0.002 A 
ATOM     93  C   UNL A   1      45.900  35.218  30.612  1.00  0.00     0.091 A 
ATOM     94  F   UNL A   1      45.698  32.935  31.274  1.00  0.00    -0.205 F 
ATOM     95  C   UNL A   1      45.674  36.216  29.649  1.00  0.00     0.022 A 
BRANCH  93  96
ATOM     96  S   UNL A   1      46.713  35.714  32.135  1.00  0.00     0.127 S 
ATOM     97  O   UNL A   1      47.951  34.940  32.078  1.00  0.00    -0.237 OA
ATOM     98  O   UNL A   1      46.885  37.155  31.941  1.00  0.00    -0.237 OA
ATOM     99  O   UNL A   1      45.799  35.356  33.211  1.00  0.00    -0.744 OA
ENDBRANCH  93  96
ENDBRANCH  66  89
ENDBRANCH  40  41
ENDBRANCH  33  35
ENDBRANCH  32  33
ENDBRANCH  31  32
ENDBRANCH  30  31
ENDBRANCH  29  30
ENDBRANCH   1  29
TORSDOF 21
ENDMDL
