MODEL 1
REMARK VINA RESULT:     -10.5      0.000      0.000
REMARK SMILES Cc1cc(N(C)[C@H](C)C(=O)OCCOCCOC(=O)c2ccc(-c3c4nc(c(-c5cccc(S(=O)(=O)[O-])c5F)c5ccc([nH]5)c(-c5cccc(S(=O)(=O)[O-])c5F)c5nc(c(-c6cccc(S(=O)(=O)[O-])c6F)c6ccc3[nH]6)C=C5)C=C4)cc2)ncc1[N+](=O)[O-]
REMARK SMILES IDX 14 1 13 2 12 3 11 4 9 5 10 6 7 7 8 8 5 9 6 10 4 11 1 12 2 13
REMARK SMILES IDX 3 14 85 15 84 16 83 17 86 18 87 19 88 20 15 21 16 22 17 23
REMARK SMILES IDX 18 24 19 25 20 26 21 27 82 28 22 29 81 30 23 31 24 32 25 33
REMARK SMILES IDX 75 34 26 35 80 36 74 37 76 38 27 39 79 40 73 41 72 42 28 44
REMARK SMILES IDX 60 45 40 46 59 47 41 48 44 49 58 50 77 51 42 52 43 53 57 55
REMARK SMILES IDX 78 56 45 57 29 58 30 59 38 60 31 61 33 62 39 63 32 64 34 65
REMARK SMILES IDX 35 66 36 67 37 68 61 69 62 70 70 71 63 72 65 73 71 74 64 75
REMARK SMILES IDX 66 76 67 77 68 78 69 79 46 80 47 81 55 82 48 83 50 84 56 85
REMARK SMILES IDX 49 86 51 87 52 88 53 89 54 90
REMARK H PARENT 76 43 44 54
REMARK Flexibility Score: inf
ROOT
ATOM      1  O   UNL A   1      36.976  21.255  25.098  1.00  0.00    -0.374 OA
ENDROOT
BRANCH   1   2
ATOM      2  C   UNL A   1      35.984  21.723  24.183  1.00  0.00     0.202 C 
BRANCH   2   3
ATOM      3  C   UNL A   1      35.861  23.240  24.027  1.00  0.00     0.261 C 
BRANCH   3   4
ATOM      4  O   UNL A   1      35.081  23.583  22.869  1.00  0.00    -0.462 OA
BRANCH   4   5
ATOM      5  C   UNL A   1      34.072  24.480  23.069  1.00  0.00     0.328 C 
ATOM      6  O   UNL A   1      33.802  25.399  22.303  1.00  0.00    -0.250 OA
BRANCH   5   7
ATOM      7  C   UNL A   1      33.320  24.222  24.388  1.00  0.00     0.190 C 
ATOM      8  C   UNL A   1      32.841  25.466  25.141  1.00  0.00     0.044 C 
BRANCH   7   9
ATOM      9  N   UNL A   1      32.190  23.295  24.169  1.00  0.00    -0.346 N 
ATOM     10  C   UNL A   1      31.011  23.790  23.470  1.00  0.00     0.146 C 
BRANCH   9  11
ATOM     11  C   UNL A   1      32.430  21.944  24.346  1.00  0.00     0.129 A 
ATOM     12  C   UNL A   1      32.311  18.723  22.348  1.00  0.00     0.052 C 
ATOM     13  C   UNL A   1      32.502  19.634  23.526  1.00  0.00     0.032 A 
ATOM     14  C   UNL A   1      32.291  21.013  23.315  1.00  0.00     0.057 A 
ATOM     15  C   UNL A   1      32.832  19.230  24.820  1.00  0.00     0.290 A 
ATOM     16  C   UNL A   1      32.977  20.196  25.799  1.00  0.00     0.199 A 
ATOM     17  N   UNL A   1      32.778  21.517  25.581  1.00  0.00    -0.232 NA
BRANCH  15  18
ATOM     18  N   UNL A   1      33.010  17.846  25.224  1.00  0.00     0.064 N 
ATOM     19  O   UNL A   1      32.090  17.316  25.865  1.00  0.00    -0.258 OA
ATOM     20  O   UNL A   1      34.043  17.263  24.873  1.00  0.00    -0.258 OA
ENDBRANCH  15  18
ENDBRANCH   9  11
ENDBRANCH   7   9
ENDBRANCH   5   7
ENDBRANCH   4   5
ENDBRANCH   3   4
ENDBRANCH   2   3
ENDBRANCH   1   2
BRANCH   1  21
ATOM     21  C   UNL A   1      37.412  19.904  24.965  1.00  0.00     0.202 C 
BRANCH  21  22
ATOM     22  C   UNL A   1      38.827  19.578  25.461  1.00  0.00     0.261 C 
BRANCH  22  23
ATOM     23  O   UNL A   1      39.650  20.747  25.615  1.00  0.00    -0.460 OA
BRANCH  23  24
ATOM     24  C   UNL A   1      40.478  20.717  26.686  1.00  0.00     0.338 C 
ATOM     25  O   UNL A   1      41.125  19.755  27.089  1.00  0.00    -0.246 OA
BRANCH  24  26
ATOM     26  C   UNL A   1      40.660  22.066  27.248  1.00  0.00     0.060 A 
ATOM     27  C   UNL A   1      40.066  23.133  26.565  1.00  0.00     0.016 A 
ATOM     28  C   UNL A   1      41.475  22.300  28.359  1.00  0.00     0.016 A 
ATOM     29  C   UNL A   1      40.327  24.445  26.955  1.00  0.00     0.010 A 
ATOM     30  C   UNL A   1      41.743  23.619  28.744  1.00  0.00     0.010 A 
ATOM     31  C   UNL A   1      41.201  24.698  28.019  1.00  0.00    -0.014 A 
BRANCH  31  32
ATOM     32  C   UNL A   1      41.655  26.087  28.275  1.00  0.00     0.031 A 
ATOM     33  C   UNL A   1      43.034  26.502  27.838  1.00  0.00     0.074 A 
ATOM     34  C   UNL A   1      40.840  26.976  28.872  1.00  0.00     0.049 A 
ATOM     35  N   UNL A   1      43.624  27.662  27.956  1.00  0.00    -0.248 NA
ATOM     36  C   UNL A   1      43.856  25.473  27.180  1.00  0.00     0.031 C 
ATOM     37  C   UNL A   1      39.482  26.696  29.337  1.00  0.00     0.029 A 
ATOM     38  N   UNL A   1      41.047  28.291  29.206  1.00  0.00    -0.354 N 
ATOM     39  C   UNL A   1      44.891  27.501  27.409  1.00  0.00     0.074 A 
ATOM     40  C   UNL A   1      44.991  26.125  26.971  1.00  0.00     0.031 C 
ATOM     41  C   UNL A   1      38.988  27.801  29.921  1.00  0.00     0.029 A 
ATOM     42  C   UNL A   1      39.997  28.858  29.886  1.00  0.00     0.049 A 
ATOM     43  H   UNL A   1      41.871  28.782  28.980  1.00  0.00     0.167 HD
ATOM     44  C   UNL A   1      45.877  28.418  27.264  1.00  0.00     0.034 A 
ATOM     45  C   UNL A   1      39.871  30.085  30.432  1.00  0.00     0.034 A 
ATOM     46  C   UNL A   1      45.771  29.792  27.675  1.00  0.00     0.049 A 
ATOM     47  C   UNL A   1      40.991  31.080  30.277  1.00  0.00     0.074 A 
ATOM     48  C   UNL A   1      46.698  30.808  27.526  1.00  0.00     0.029 A 
ATOM     49  N   UNL A   1      44.677  30.340  28.326  1.00  0.00    -0.354 N 
ATOM     50  N   UNL A   1      42.132  30.948  29.643  1.00  0.00    -0.248 NA
ATOM     51  C   UNL A   1      40.796  32.404  30.886  1.00  0.00     0.031 C 
ATOM     52  C   UNL A   1      46.171  31.967  28.106  1.00  0.00     0.029 A 
ATOM     53  C   UNL A   1      44.910  31.677  28.598  1.00  0.00     0.049 A 
ATOM     54  H   UNL A   1      43.856  29.850  28.561  1.00  0.00     0.167 HD
ATOM     55  C   UNL A   1      42.772  32.179  29.746  1.00  0.00     0.074 A 
ATOM     56  C   UNL A   1      41.883  33.051  30.486  1.00  0.00     0.031 C 
ATOM     57  C   UNL A   1      43.992  32.549  29.286  1.00  0.00     0.034 A 
BRANCH  44  58
ATOM     58  C   UNL A   1      47.150  27.976  26.594  1.00  0.00     0.023 A 
ATOM     59  C   UNL A   1      48.204  27.463  27.377  1.00  0.00     0.012 A 
ATOM     60  C   UNL A   1      47.282  28.009  25.192  1.00  0.00     0.148 A 
ATOM     61  C   UNL A   1      49.380  27.013  26.778  1.00  0.00     0.002 A 
ATOM     62  C   UNL A   1      48.442  27.523  24.599  1.00  0.00     0.091 A 
ATOM     63  F   UNL A   1      46.278  28.524  24.468  1.00  0.00    -0.205 F 
ATOM     64  C   UNL A   1      49.493  27.033  25.390  1.00  0.00     0.022 A 
BRANCH  62  65
ATOM     65  S   UNL A   1      48.655  27.443  22.818  1.00  0.00     0.127 S 
ATOM     66  O   UNL A   1      49.987  28.025  22.654  1.00  0.00    -0.237 OA
ATOM     67  O   UNL A   1      48.583  26.004  22.562  1.00  0.00    -0.237 OA
ATOM     68  O   UNL A   1      47.560  28.214  22.248  1.00  0.00    -0.744 OA
ENDBRANCH  62  65
ENDBRANCH  44  58
BRANCH  45  69
ATOM     69  C   UNL A   1      38.616  30.456  31.146  1.00  0.00     0.023 A 
ATOM     70  C   UNL A   1      38.463  30.120  32.505  1.00  0.00     0.012 A 
ATOM     71  C   UNL A   1      37.583  31.154  30.491  1.00  0.00     0.148 A 
ATOM     72  C   UNL A   1      37.292  30.447  33.191  1.00  0.00     0.002 A 
ATOM     73  C   UNL A   1      36.444  31.527  31.194  1.00  0.00     0.091 A 
ATOM     74  F   UNL A   1      37.736  31.445  29.191  1.00  0.00    -0.205 F 
ATOM     75  C   UNL A   1      36.288  31.160  32.540  1.00  0.00     0.022 A 
BRANCH  73  76
ATOM     76  S   UNL A   1      35.170  32.564  30.468  1.00  0.00     0.127 S 
ATOM     77  O   UNL A   1      34.224  32.697  31.573  1.00  0.00    -0.237 OA
ATOM     78  O   UNL A   1      35.914  33.781  30.142  1.00  0.00    -0.237 OA
ATOM     79  O   UNL A   1      34.690  31.833  29.303  1.00  0.00    -0.744 OA
ENDBRANCH  73  76
ENDBRANCH  45  69
BRANCH  57  80
ATOM     80  C   UNL A   1      44.438  33.966  29.542  1.00  0.00     0.023 A 
ATOM     81  C   UNL A   1      45.385  34.226  30.552  1.00  0.00     0.012 A 
ATOM     82  C   UNL A   1      43.983  35.025  28.730  1.00  0.00     0.148 A 
ATOM     83  C   UNL A   1      45.850  35.522  30.772  1.00  0.00     0.002 A 
ATOM     84  C   UNL A   1      44.486  36.306  28.925  1.00  0.00     0.091 A 
ATOM     85  F   UNL A   1      43.069  34.760  27.786  1.00  0.00    -0.205 F 
ATOM     86  C   UNL A   1      45.410  36.559  29.951  1.00  0.00     0.022 A 
BRANCH  84  87
ATOM     87  S   UNL A   1      44.045  37.682  27.857  1.00  0.00     0.127 S 
ATOM     88  O   UNL A   1      42.630  37.868  28.178  1.00  0.00    -0.237 OA
ATOM     89  O   UNL A   1      44.924  38.748  28.341  1.00  0.00    -0.237 OA
ATOM     90  O   UNL A   1      44.327  37.240  26.498  1.00  0.00    -0.744 OA
ENDBRANCH  84  87
ENDBRANCH  57  80
ENDBRANCH  31  32
ENDBRANCH  24  26
ENDBRANCH  23  24
ENDBRANCH  22  23
ENDBRANCH  21  22
ENDBRANCH   1  21
TORSDOF 20
ENDMDL
MODEL 2
REMARK VINA RESULT:     -10.4      1.583      3.222
REMARK SMILES Cc1cc(N(C)[C@H](C)C(=O)OCCOCCOC(=O)c2ccc(-c3c4nc(c(-c5cccc(S(=O)(=O)[O-])c5F)c5ccc([nH]5)c(-c5cccc(S(=O)(=O)[O-])c5F)c5nc(c(-c6cccc(S(=O)(=O)[O-])c6F)c6ccc3[nH]6)C=C5)C=C4)cc2)ncc1[N+](=O)[O-]
REMARK SMILES IDX 14 1 13 2 12 3 11 4 9 5 10 6 7 7 8 8 5 9 6 10 4 11 1 12 2 13
REMARK SMILES IDX 3 14 85 15 84 16 83 17 86 18 87 19 88 20 15 21 16 22 17 23
REMARK SMILES IDX 18 24 19 25 20 26 21 27 82 28 22 29 81 30 23 31 24 32 25 33
REMARK SMILES IDX 75 34 26 35 80 36 74 37 76 38 27 39 79 40 73 41 72 42 28 44
REMARK SMILES IDX 60 45 40 46 59 47 41 48 44 49 58 50 77 51 42 52 43 53 57 55
REMARK SMILES IDX 78 56 45 57 29 58 30 59 38 60 31 61 33 62 39 63 32 64 34 65
REMARK SMILES IDX 35 66 36 67 37 68 61 69 62 70 70 71 63 72 65 73 71 74 64 75
REMARK SMILES IDX 66 76 67 77 68 78 69 79 46 80 47 81 55 82 48 83 50 84 56 85
REMARK SMILES IDX 49 86 51 87 52 88 53 89 54 90
REMARK H PARENT 76 43 44 54
REMARK Flexibility Score: inf
ROOT
ATOM      1  O   UNL A   1      37.024  21.388  25.004  1.00  0.00    -0.374 OA
ENDROOT
BRANCH   1   2
ATOM      2  C   UNL A   1      36.004  21.820  25.906  1.00  0.00     0.202 C 
BRANCH   2   3
ATOM      3  C   UNL A   1      35.317  23.147  25.574  1.00  0.00     0.261 C 
BRANCH   3   4
ATOM      4  O   UNL A   1      34.505  23.601  26.670  1.00  0.00    -0.462 OA
BRANCH   4   5
ATOM      5  C   UNL A   1      33.393  22.857  26.941  1.00  0.00     0.328 C 
ATOM      6  O   UNL A   1      33.199  22.264  27.996  1.00  0.00    -0.250 OA
BRANCH   5   7
ATOM      7  C   UNL A   1      32.412  22.826  25.753  1.00  0.00     0.190 C 
ATOM      8  C   UNL A   1      31.911  21.441  25.335  1.00  0.00     0.044 C 
BRANCH   7   9
ATOM      9  N   UNL A   1      31.268  23.727  26.000  1.00  0.00    -0.346 N 
ATOM     10  C   UNL A   1      30.164  23.240  26.818  1.00  0.00     0.146 C 
BRANCH   9  11
ATOM     11  C   UNL A   1      31.442  25.070  25.720  1.00  0.00     0.129 A 
ATOM     12  C   UNL A   1      32.779  27.271  22.935  1.00  0.00     0.052 C 
ATOM     13  C   UNL A   1      32.185  26.898  24.262  1.00  0.00     0.032 A 
ATOM     14  C   UNL A   1      31.978  25.525  24.513  1.00  0.00     0.057 A 
ATOM     15  C   UNL A   1      31.856  27.789  25.284  1.00  0.00     0.290 A 
ATOM     16  C   UNL A   1      31.309  27.288  26.451  1.00  0.00     0.199 A 
ATOM     17  N   UNL A   1      31.110  25.968  26.676  1.00  0.00    -0.232 NA
BRANCH  15  18
ATOM     18  N   UNL A   1      32.074  29.224  25.219  1.00  0.00     0.064 N 
ATOM     19  O   UNL A   1      31.082  29.944  25.028  1.00  0.00    -0.258 OA
ATOM     20  O   UNL A   1      33.222  29.650  25.398  1.00  0.00    -0.258 OA
ENDBRANCH  15  18
ENDBRANCH   9  11
ENDBRANCH   7   9
ENDBRANCH   5   7
ENDBRANCH   4   5
ENDBRANCH   3   4
ENDBRANCH   2   3
ENDBRANCH   1   2
BRANCH   1  21
ATOM     21  C   UNL A   1      37.273  19.987  24.913  1.00  0.00     0.202 C 
BRANCH  21  22
ATOM     22  C   UNL A   1      38.668  19.500  25.329  1.00  0.00     0.261 C 
BRANCH  22  23
ATOM     23  O   UNL A   1      39.615  20.572  25.474  1.00  0.00    -0.460 OA
BRANCH  23  24
ATOM     24  C   UNL A   1      40.361  20.518  26.603  1.00  0.00     0.338 C 
ATOM     25  O   UNL A   1      40.921  19.529  27.068  1.00  0.00    -0.246 OA
BRANCH  24  26
ATOM     26  C   UNL A   1      40.580  21.866  27.154  1.00  0.00     0.060 A 
ATOM     27  C   UNL A   1      39.936  22.933  26.519  1.00  0.00     0.016 A 
ATOM     28  C   UNL A   1      41.472  22.099  28.204  1.00  0.00     0.016 A 
ATOM     29  C   UNL A   1      40.221  24.245  26.893  1.00  0.00     0.010 A 
ATOM     30  C   UNL A   1      41.765  23.417  28.572  1.00  0.00     0.010 A 
ATOM     31  C   UNL A   1      41.170  24.497  27.891  1.00  0.00    -0.014 A 
BRANCH  31  32
ATOM     32  C   UNL A   1      41.637  25.887  28.118  1.00  0.00     0.031 A 
ATOM     33  C   UNL A   1      43.005  26.289  27.638  1.00  0.00     0.074 A 
ATOM     34  C   UNL A   1      40.844  26.786  28.727  1.00  0.00     0.049 A 
ATOM     35  N   UNL A   1      43.604  27.447  27.725  1.00  0.00    -0.248 NA
ATOM     36  C   UNL A   1      43.804  25.247  26.969  1.00  0.00     0.031 C 
ATOM     37  C   UNL A   1      39.499  26.520  29.233  1.00  0.00     0.029 A 
ATOM     38  N   UNL A   1      41.067  28.105  29.040  1.00  0.00    -0.354 N 
ATOM     39  C   UNL A   1      44.855  27.273  27.145  1.00  0.00     0.074 A 
ATOM     40  C   UNL A   1      44.936  25.891  26.721  1.00  0.00     0.031 C 
ATOM     41  C   UNL A   1      39.026  27.635  29.818  1.00  0.00     0.029 A 
ATOM     42  C   UNL A   1      40.039  28.686  29.742  1.00  0.00     0.049 A 
ATOM     43  H   UNL A   1      41.887  28.588  28.784  1.00  0.00     0.167 HD
ATOM     44  C   UNL A   1      45.841  28.183  26.961  1.00  0.00     0.034 A 
ATOM     45  C   UNL A   1      39.935  29.919  30.277  1.00  0.00     0.034 A 
ATOM     46  C   UNL A   1      45.753  29.561  27.358  1.00  0.00     0.049 A 
ATOM     47  C   UNL A   1      41.056  30.906  30.079  1.00  0.00     0.074 A 
ATOM     48  C   UNL A   1      46.681  30.571  27.172  1.00  0.00     0.029 A 
ATOM     49  N   UNL A   1      44.681  30.123  28.034  1.00  0.00    -0.354 N 
ATOM     50  N   UNL A   1      42.177  30.761  29.414  1.00  0.00    -0.248 NA
ATOM     51  C   UNL A   1      40.884  32.239  30.676  1.00  0.00     0.031 C 
ATOM     52  C   UNL A   1      46.177  31.740  27.752  1.00  0.00     0.029 A 
ATOM     53  C   UNL A   1      44.928  31.462  28.283  1.00  0.00     0.049 A 
ATOM     54  H   UNL A   1      43.864  29.641  28.297  1.00  0.00     0.167 HD
ATOM     55  C   UNL A   1      42.826  31.989  29.484  1.00  0.00     0.074 A 
ATOM     56  C   UNL A   1      41.963  32.875  30.238  1.00  0.00     0.031 C 
ATOM     57  C   UNL A   1      44.035  32.347  28.986  1.00  0.00     0.034 A 
BRANCH  44  58
ATOM     58  C   UNL A   1      47.093  27.725  26.261  1.00  0.00     0.023 A 
ATOM     59  C   UNL A   1      48.093  27.056  26.995  1.00  0.00     0.012 A 
ATOM     60  C   UNL A   1      47.253  27.902  24.872  1.00  0.00     0.148 A 
ATOM     61  C   UNL A   1      49.245  26.591  26.363  1.00  0.00     0.002 A 
ATOM     62  C   UNL A   1      48.387  27.401  24.243  1.00  0.00     0.091 A 
ATOM     63  F   UNL A   1      46.302  28.563  24.198  1.00  0.00    -0.205 F 
ATOM     64  C   UNL A   1      49.387  26.754  24.988  1.00  0.00     0.022 A 
BRANCH  62  65
ATOM     65  S   UNL A   1      48.629  27.500  22.466  1.00  0.00     0.127 S 
ATOM     66  O   UNL A   1      47.440  28.242  22.048  1.00  0.00    -0.237 OA
ATOM     67  O   UNL A   1      49.882  28.249  22.367  1.00  0.00    -0.237 OA
ATOM     68  O   UNL A   1      48.706  26.125  21.995  1.00  0.00    -0.744 OA
ENDBRANCH  62  65
ENDBRANCH  44  58
BRANCH  45  69
ATOM     69  C   UNL A   1      38.703  30.305  31.021  1.00  0.00     0.023 A 
ATOM     70  C   UNL A   1      38.577  29.967  32.382  1.00  0.00     0.012 A 
ATOM     71  C   UNL A   1      37.665  31.021  30.393  1.00  0.00     0.148 A 
ATOM     72  C   UNL A   1      37.427  30.308  33.096  1.00  0.00     0.002 A 
ATOM     73  C   UNL A   1      36.548  31.407  31.124  1.00  0.00     0.091 A 
ATOM     74  F   UNL A   1      37.792  31.314  29.090  1.00  0.00    -0.205 F 
ATOM     75  C   UNL A   1      36.419  31.038  32.471  1.00  0.00     0.022 A 
BRANCH  73  76
ATOM     76  S   UNL A   1      35.272  32.465  30.431  1.00  0.00     0.127 S 
ATOM     77  O   UNL A   1      34.304  32.522  31.522  1.00  0.00    -0.237 OA
ATOM     78  O   UNL A   1      36.004  33.709  30.189  1.00  0.00    -0.237 OA
ATOM     79  O   UNL A   1      34.826  31.793  29.218  1.00  0.00    -0.744 OA
ENDBRANCH  73  76
ENDBRANCH  45  69
BRANCH  57  80
ATOM     80  C   UNL A   1      44.495  33.765  29.212  1.00  0.00     0.023 A 
ATOM     81  C   UNL A   1      45.392  34.046  30.261  1.00  0.00     0.012 A 
ATOM     82  C   UNL A   1      44.105  34.799  28.338  1.00  0.00     0.148 A 
ATOM     83  C   UNL A   1      45.870  35.341  30.457  1.00  0.00     0.002 A 
ATOM     84  C   UNL A   1      44.623  36.078  28.512  1.00  0.00     0.091 A 
ATOM     85  F   UNL A   1      43.238  34.515  27.357  1.00  0.00    -0.205 F 
ATOM     86  C   UNL A   1      45.496  36.353  29.576  1.00  0.00     0.022 A 
BRANCH  84  87
ATOM     87  S   UNL A   1      44.267  37.420  27.371  1.00  0.00     0.127 S 
ATOM     88  O   UNL A   1      44.043  38.539  28.285  1.00  0.00    -0.237 OA
ATOM     89  O   UNL A   1      45.504  37.506  26.593  1.00  0.00    -0.237 OA
ATOM     90  O   UNL A   1      43.104  36.994  26.604  1.00  0.00    -0.744 OA
ENDBRANCH  84  87
ENDBRANCH  57  80
ENDBRANCH  31  32
ENDBRANCH  24  26
ENDBRANCH  23  24
ENDBRANCH  22  23
ENDBRANCH  21  22
ENDBRANCH   1  21
TORSDOF 20
ENDMDL
MODEL 3
REMARK VINA RESULT:     -10.3      5.150     10.573
REMARK SMILES Cc1cc(N(C)[C@H](C)C(=O)OCCOCCOC(=O)c2ccc(-c3c4nc(c(-c5cccc(S(=O)(=O)[O-])c5F)c5ccc([nH]5)c(-c5cccc(S(=O)(=O)[O-])c5F)c5nc(c(-c6cccc(S(=O)(=O)[O-])c6F)c6ccc3[nH]6)C=C5)C=C4)cc2)ncc1[N+](=O)[O-]
REMARK SMILES IDX 14 1 13 2 12 3 11 4 9 5 10 6 7 7 8 8 5 9 6 10 4 11 1 12 2 13
REMARK SMILES IDX 3 14 85 15 84 16 83 17 86 18 87 19 88 20 15 21 16 22 17 23
REMARK SMILES IDX 18 24 19 25 20 26 21 27 82 28 22 29 81 30 23 31 24 32 25 33
REMARK SMILES IDX 75 34 26 35 80 36 74 37 76 38 27 39 79 40 73 41 72 42 28 44
REMARK SMILES IDX 60 45 40 46 59 47 41 48 44 49 58 50 77 51 42 52 43 53 57 55
REMARK SMILES IDX 78 56 45 57 29 58 30 59 38 60 31 61 33 62 39 63 32 64 34 65
REMARK SMILES IDX 35 66 36 67 37 68 61 69 62 70 70 71 63 72 65 73 71 74 64 75
REMARK SMILES IDX 66 76 67 77 68 78 69 79 46 80 47 81 55 82 48 83 50 84 56 85
REMARK SMILES IDX 49 86 51 87 52 88 53 89 54 90
REMARK H PARENT 76 43 44 54
REMARK Flexibility Score: inf
ROOT
ATOM      1  O   UNL A   1      32.883  30.375  25.659  1.00  0.00    -0.374 OA
ENDROOT
BRANCH   1   2
ATOM      2  C   UNL A   1      33.583  29.215  26.113  1.00  0.00     0.202 C 
BRANCH   2   3
ATOM      3  C   UNL A   1      33.611  28.019  25.158  1.00  0.00     0.261 C 
BRANCH   3   4
ATOM      4  O   UNL A   1      34.251  28.358  23.917  1.00  0.00    -0.462 OA
BRANCH   4   5
ATOM      5  C   UNL A   1      33.541  28.091  22.783  1.00  0.00     0.328 C 
ATOM      6  O   UNL A   1      34.036  27.985  21.665  1.00  0.00    -0.250 OA
BRANCH   5   7
ATOM      7  C   UNL A   1      32.031  27.960  23.062  1.00  0.00     0.190 C 
ATOM      8  C   UNL A   1      31.128  28.965  22.340  1.00  0.00     0.044 C 
BRANCH   7   9
ATOM      9  N   UNL A   1      31.571  26.581  22.797  1.00  0.00    -0.346 N 
ATOM     10  C   UNL A   1      31.581  26.098  21.422  1.00  0.00     0.146 C 
BRANCH   9  11
ATOM     11  C   UNL A   1      31.462  25.727  23.879  1.00  0.00     0.129 A 
ATOM     12  C   UNL A   1      32.859  22.406  25.065  1.00  0.00     0.052 C 
ATOM     13  C   UNL A   1      32.035  23.661  25.071  1.00  0.00     0.032 A 
ATOM     14  C   UNL A   1      32.189  24.539  23.977  1.00  0.00     0.057 A 
ATOM     15  C   UNL A   1      31.101  24.015  26.045  1.00  0.00     0.290 A 
ATOM     16  C   UNL A   1      30.423  25.213  25.909  1.00  0.00     0.199 A 
ATOM     17  N   UNL A   1      30.586  26.049  24.858  1.00  0.00    -0.232 NA
BRANCH  15  18
ATOM     18  N   UNL A   1      30.766  23.191  27.194  1.00  0.00     0.064 N 
ATOM     19  O   UNL A   1      31.705  22.766  27.884  1.00  0.00    -0.258 OA
ATOM     20  O   UNL A   1      29.570  22.995  27.444  1.00  0.00    -0.258 OA
ENDBRANCH  15  18
ENDBRANCH   9  11
ENDBRANCH   7   9
ENDBRANCH   5   7
ENDBRANCH   4   5
ENDBRANCH   3   4
ENDBRANCH   2   3
ENDBRANCH   1   2
BRANCH   1  21
ATOM     21  C   UNL A   1      31.862  30.902  26.503  1.00  0.00     0.202 C 
BRANCH  21  22
ATOM     22  C   UNL A   1      31.966  32.386  26.879  1.00  0.00     0.261 C 
BRANCH  22  23
ATOM     23  O   UNL A   1      32.697  32.606  28.098  1.00  0.00    -0.460 OA
BRANCH  23  24
ATOM     24  C   UNL A   1      33.774  33.416  27.973  1.00  0.00     0.338 C 
ATOM     25  O   UNL A   1      33.764  34.628  27.774  1.00  0.00    -0.246 OA
BRANCH  24  26
ATOM     26  C   UNL A   1      35.017  32.689  28.278  1.00  0.00     0.060 A 
ATOM     27  C   UNL A   1      34.897  31.373  28.741  1.00  0.00     0.016 A 
ATOM     28  C   UNL A   1      36.269  33.306  28.214  1.00  0.00     0.016 A 
ATOM     29  C   UNL A   1      36.021  30.685  29.193  1.00  0.00     0.010 A 
ATOM     30  C   UNL A   1      37.396  32.616  28.677  1.00  0.00     0.010 A 
ATOM     31  C   UNL A   1      37.270  31.317  29.205  1.00  0.00    -0.014 A 
BRANCH  31  32
ATOM     32  C   UNL A   1      38.408  30.667  29.900  1.00  0.00     0.031 A 
ATOM     33  C   UNL A   1      38.711  31.045  31.324  1.00  0.00     0.074 A 
ATOM     34  C   UNL A   1      39.152  29.736  29.276  1.00  0.00     0.049 A 
ATOM     35  N   UNL A   1      39.649  30.597  32.117  1.00  0.00    -0.248 NA
ATOM     36  C   UNL A   1      37.840  32.062  31.938  1.00  0.00     0.031 C 
ATOM     37  C   UNL A   1      38.956  29.282  27.900  1.00  0.00     0.029 A 
ATOM     38  N   UNL A   1      40.237  29.019  29.717  1.00  0.00    -0.354 N 
ATOM     39  C   UNL A   1      39.498  31.288  33.313  1.00  0.00     0.074 A 
ATOM     40  C   UNL A   1      38.386  32.199  33.138  1.00  0.00     0.031 C 
ATOM     41  C   UNL A   1      39.908  28.381  27.600  1.00  0.00     0.029 A 
ATOM     42  C   UNL A   1      40.788  28.207  28.755  1.00  0.00     0.049 A 
ATOM     43  H   UNL A   1      40.586  29.080  30.636  1.00  0.00     0.167 HD
ATOM     44  C   UNL A   1      40.206  31.164  34.461  1.00  0.00     0.034 A 
ATOM     45  C   UNL A   1      41.887  27.427  28.796  1.00  0.00     0.034 A 
ATOM     46  C   UNL A   1      41.293  30.243  34.645  1.00  0.00     0.049 A 
ATOM     47  C   UNL A   1      42.670  27.324  30.079  1.00  0.00     0.074 A 
ATOM     48  C   UNL A   1      42.040  30.011  35.787  1.00  0.00     0.029 A 
ATOM     49  N   UNL A   1      41.799  29.410  33.660  1.00  0.00    -0.354 N 
ATOM     50  N   UNL A   1      42.435  27.888  31.239  1.00  0.00    -0.248 NA
ATOM     51  C   UNL A   1      43.854  26.451  30.068  1.00  0.00     0.031 C 
ATOM     52  C   UNL A   1      43.011  29.050  35.486  1.00  0.00     0.029 A 
ATOM     53  C   UNL A   1      42.857  28.672  34.162  1.00  0.00     0.049 A 
ATOM     54  H   UNL A   1      41.458  29.353  32.739  1.00  0.00     0.167 HD
ATOM     55  C   UNL A   1      43.417  27.414  32.102  1.00  0.00     0.074 A 
ATOM     56  C   UNL A   1      44.238  26.498  31.337  1.00  0.00     0.031 C 
ATOM     57  C   UNL A   1      43.631  27.722  33.405  1.00  0.00     0.034 A 
BRANCH  44  58
ATOM     58  C   UNL A   1      39.798  32.023  35.629  1.00  0.00     0.023 A 
ATOM     59  C   UNL A   1      40.330  33.322  35.754  1.00  0.00     0.012 A 
ATOM     60  C   UNL A   1      38.847  31.569  36.565  1.00  0.00     0.148 A 
ATOM     61  C   UNL A   1      39.941  34.149  36.807  1.00  0.00     0.002 A 
ATOM     62  C   UNL A   1      38.436  32.415  37.589  1.00  0.00     0.091 A 
ATOM     63  F   UNL A   1      38.373  30.322  36.441  1.00  0.00    -0.205 F 
ATOM     64  C   UNL A   1      38.988  33.700  37.717  1.00  0.00     0.022 A 
BRANCH  62  65
ATOM     65  S   UNL A   1      37.163  31.953  38.769  1.00  0.00     0.127 S 
ATOM     66  O   UNL A   1      37.007  30.526  38.491  1.00  0.00    -0.237 OA
ATOM     67  O   UNL A   1      37.803  32.259  40.049  1.00  0.00    -0.237 OA
ATOM     68  O   UNL A   1      36.008  32.782  38.457  1.00  0.00    -0.744 OA
ENDBRANCH  62  65
ENDBRANCH  44  58
BRANCH  45  69
ATOM     69  C   UNL A   1      42.290  26.647  27.592  1.00  0.00     0.023 A 
ATOM     70  C   UNL A   1      42.997  27.285  26.554  1.00  0.00     0.012 A 
ATOM     71  C   UNL A   1      41.995  25.274  27.478  1.00  0.00     0.148 A 
ATOM     72  C   UNL A   1      43.376  26.577  25.412  1.00  0.00     0.002 A 
ATOM     73  C   UNL A   1      42.424  24.563  26.365  1.00  0.00     0.091 A 
ATOM     74  F   UNL A   1      41.301  24.689  28.466  1.00  0.00    -0.205 F 
ATOM     75  C   UNL A   1      43.100  25.215  25.322  1.00  0.00     0.022 A 
BRANCH  73  76
ATOM     76  S   UNL A   1      42.230  22.781  26.237  1.00  0.00     0.127 S 
ATOM     77  O   UNL A   1      42.694  22.525  24.876  1.00  0.00    -0.237 OA
ATOM     78  O   UNL A   1      43.121  22.300  27.294  1.00  0.00    -0.237 OA
ATOM     79  O   UNL A   1      40.819  22.524  26.488  1.00  0.00    -0.744 OA
ENDBRANCH  73  76
ENDBRANCH  45  69
BRANCH  57  80
ATOM     80  C   UNL A   1      44.783  27.047  34.105  1.00  0.00     0.023 A 
ATOM     81  C   UNL A   1      46.082  27.577  33.977  1.00  0.00     0.012 A 
ATOM     82  C   UNL A   1      44.567  25.941  34.951  1.00  0.00     0.148 A 
ATOM     83  C   UNL A   1      47.154  27.000  34.657  1.00  0.00     0.002 A 
ATOM     84  C   UNL A   1      45.633  25.399  35.661  1.00  0.00     0.091 A 
ATOM     85  F   UNL A   1      43.328  25.440  35.046  1.00  0.00    -0.205 F 
ATOM     86  C   UNL A   1      46.928  25.920  35.507  1.00  0.00     0.022 A 
BRANCH  84  87
ATOM     87  S   UNL A   1      45.417  24.067  36.848  1.00  0.00     0.127 S 
ATOM     88  O   UNL A   1      44.927  22.985  35.996  1.00  0.00    -0.237 OA
ATOM     89  O   UNL A   1      46.778  23.876  37.354  1.00  0.00    -0.237 OA
ATOM     90  O   UNL A   1      44.472  24.564  37.838  1.00  0.00    -0.744 OA
ENDBRANCH  84  87
ENDBRANCH  57  80
ENDBRANCH  31  32
ENDBRANCH  24  26
ENDBRANCH  23  24
ENDBRANCH  22  23
ENDBRANCH  21  22
ENDBRANCH   1  21
TORSDOF 20
ENDMDL
