MODEL 1
REMARK VINA RESULT:     -10.2      0.000      0.000
REMARK SMILES CCn1cc(CC(=O)OCCOCCOC(=O)c2ccc(-c3c4nc(c(-c5cccc(S(=O)(=O)[O-])c5F)c5ccc([nH]5)c(-c5cccc(S(=O)(=O)[O-])c5F)c5nc(c(-c6cccc(S(=O)(=O)[O-])c6F)c6ccc3[nH]6)C=C5)C=C4)cc2)c2ccccc21
REMARK SMILES IDX 13 1 12 2 11 3 10 4 9 5 7 6 8 7 6 8 5 9 3 10 4 11 86 12
REMARK SMILES IDX 81 13 85 14 82 15 84 16 83 17 2 18 1 19 14 20 15 21 16 22
REMARK SMILES IDX 17 23 18 24 19 25 80 26 20 27 79 28 21 29 22 30 23 31 73 32
REMARK SMILES IDX 24 33 78 34 72 35 74 36 25 37 77 38 71 39 70 40 26 42 58 43
REMARK SMILES IDX 38 44 57 45 39 46 42 47 56 48 75 49 40 50 41 51 55 53 76 54
REMARK SMILES IDX 43 55 27 56 28 57 36 58 29 59 31 60 37 61 30 62 32 63 33 64
REMARK SMILES IDX 34 65 35 66 59 67 60 68 68 69 61 70 63 71 69 72 62 73 64 74
REMARK SMILES IDX 65 75 66 76 67 77 44 78 45 79 53 80 46 81 48 82 54 83 47 84
REMARK SMILES IDX 49 85 50 86 51 87 52 88
REMARK H PARENT 74 41 42 52
REMARK Flexibility Score: inf
ROOT
ATOM      1  C   UNL A   1      41.694  19.591  26.568  1.00  0.00     0.202 C 
ENDROOT
BRANCH   1   2
ATOM      2  O   UNL A   1      42.311  19.141  25.371  1.00  0.00    -0.374 OA
BRANCH   2   3
ATOM      3  C   UNL A   1      43.572  18.498  25.485  1.00  0.00     0.202 C 
BRANCH   3   4
ATOM      4  C   UNL A   1      44.812  19.060  24.772  1.00  0.00     0.261 C 
BRANCH   4   5
ATOM      5  O   UNL A   1      44.634  20.370  24.207  1.00  0.00    -0.463 OA
BRANCH   5   6
ATOM      6  C   UNL A   1      45.698  21.201  24.367  1.00  0.00     0.310 C 
ATOM      7  O   UNL A   1      46.818  20.834  24.718  1.00  0.00    -0.252 OA
BRANCH   6   8
ATOM      8  C   UNL A   1      45.429  22.664  24.098  1.00  0.00     0.160 C 
BRANCH   8   9
ATOM      9  C   UNL A   1      45.945  23.706  25.047  1.00  0.00    -0.011 A 
ATOM     10  N   UNL A   1      46.867  25.610  25.787  1.00  0.00    -0.347 N 
ATOM     11  C   UNL A   1      46.729  24.790  24.695  1.00  0.00     0.091 A 
ATOM     12  C   UNL A   1      46.310  25.010  26.898  1.00  0.00     0.048 A 
ATOM     13  C   UNL A   1      45.631  23.874  26.439  1.00  0.00     0.003 A 
ATOM     14  C   UNL A   1      46.313  25.378  28.254  1.00  0.00     0.027 A 
ATOM     15  C   UNL A   1      44.836  23.157  27.365  1.00  0.00     0.010 A 
ATOM     16  C   UNL A   1      45.618  24.577  29.164  1.00  0.00     0.002 A 
ATOM     17  C   UNL A   1      44.865  23.496  28.725  1.00  0.00     0.001 A 
BRANCH  10  18
ATOM     18  C   UNL A   1      47.324  26.987  25.700  1.00  0.00     0.119 C 
ATOM     19  C   UNL A   1      46.682  27.816  24.603  1.00  0.00     0.027 C 
ENDBRANCH  10  18
ENDBRANCH   8   9
ENDBRANCH   6   8
ENDBRANCH   5   6
ENDBRANCH   4   5
ENDBRANCH   3   4
ENDBRANCH   2   3
ENDBRANCH   1   2
BRANCH   1  20
ATOM     20  C   UNL A   1      40.236  20.084  26.536  1.00  0.00     0.261 C 
BRANCH  20  21
ATOM     21  O   UNL A   1      40.047  21.321  27.212  1.00  0.00    -0.460 OA
BRANCH  21  22
ATOM     22  C   UNL A   1      39.330  22.241  26.506  1.00  0.00     0.338 C 
ATOM     23  O   UNL A   1      38.211  22.141  26.065  1.00  0.00    -0.246 OA
BRANCH  22  24
ATOM     24  C   UNL A   1      40.054  23.498  26.758  1.00  0.00     0.060 A 
ATOM     25  C   UNL A   1      41.151  23.493  27.628  1.00  0.00     0.016 A 
ATOM     26  C   UNL A   1      39.351  24.671  26.450  1.00  0.00     0.016 A 
ATOM     27  C   UNL A   1      41.456  24.661  28.303  1.00  0.00     0.010 A 
ATOM     28  C   UNL A   1      39.653  25.832  27.141  1.00  0.00     0.010 A 
ATOM     29  C   UNL A   1      40.662  25.802  28.107  1.00  0.00    -0.014 A 
BRANCH  29  30
ATOM     30  C   UNL A   1      41.035  27.014  28.822  1.00  0.00     0.031 A 
ATOM     31  C   UNL A   1      42.339  27.561  28.359  1.00  0.00     0.074 A 
ATOM     32  C   UNL A   1      40.237  27.670  29.689  1.00  0.00     0.049 A 
ATOM     33  N   UNL A   1      43.431  27.705  29.036  1.00  0.00    -0.248 NA
ATOM     34  C   UNL A   1      42.481  27.818  26.916  1.00  0.00     0.031 C 
ATOM     35  C   UNL A   1      38.829  27.431  29.994  1.00  0.00     0.029 A 
ATOM     36  N   UNL A   1      40.493  28.818  30.376  1.00  0.00    -0.354 N 
ATOM     37  C   UNL A   1      44.343  28.263  28.142  1.00  0.00     0.074 A 
ATOM     38  C   UNL A   1      43.769  28.144  26.827  1.00  0.00     0.031 C 
ATOM     39  C   UNL A   1      38.297  28.532  30.567  1.00  0.00     0.029 A 
ATOM     40  C   UNL A   1      39.342  29.520  30.731  1.00  0.00     0.049 A 
ATOM     41  H   UNL A   1      41.402  29.123  30.599  1.00  0.00     0.167 HD
ATOM     42  C   UNL A   1      45.411  28.999  28.547  1.00  0.00     0.034 A 
ATOM     43  C   UNL A   1      39.259  30.857  30.963  1.00  0.00     0.034 A 
ATOM     44  C   UNL A   1      45.689  28.852  29.944  1.00  0.00     0.049 A 
ATOM     45  C   UNL A   1      40.634  31.310  31.298  1.00  0.00     0.074 A 
ATOM     46  C   UNL A   1      46.013  27.786  30.759  1.00  0.00     0.029 A 
ATOM     47  N   UNL A   1      45.238  29.843  30.783  1.00  0.00    -0.354 N 
ATOM     48  N   UNL A   1      41.288  30.896  32.350  1.00  0.00    -0.248 NA
ATOM     49  C   UNL A   1      41.451  31.831  30.211  1.00  0.00     0.031 C 
ATOM     50  C   UNL A   1      45.253  27.998  31.946  1.00  0.00     0.029 A 
ATOM     51  C   UNL A   1      44.574  29.209  31.801  1.00  0.00     0.049 A 
ATOM     52  H   UNL A   1      45.366  30.813  30.675  1.00  0.00     0.167 HD
ATOM     53  C   UNL A   1      42.582  30.689  31.892  1.00  0.00     0.074 A 
ATOM     54  C   UNL A   1      42.639  31.348  30.587  1.00  0.00     0.031 C 
ATOM     55  C   UNL A   1      43.404  29.753  32.449  1.00  0.00     0.034 A 
BRANCH  42  56
ATOM     56  C   UNL A   1      45.985  30.117  27.730  1.00  0.00     0.023 A 
ATOM     57  C   UNL A   1      47.382  30.268  27.674  1.00  0.00     0.012 A 
ATOM     58  C   UNL A   1      45.187  31.167  27.217  1.00  0.00     0.148 A 
ATOM     59  C   UNL A   1      47.962  31.415  27.121  1.00  0.00     0.002 A 
ATOM     60  C   UNL A   1      45.765  32.267  26.605  1.00  0.00     0.091 A 
ATOM     61  F   UNL A   1      43.867  31.157  27.438  1.00  0.00    -0.205 F 
ATOM     62  C   UNL A   1      47.155  32.406  26.569  1.00  0.00     0.022 A 
BRANCH  60  63
ATOM     63  S   UNL A   1      44.767  33.558  25.858  1.00  0.00     0.127 S 
ATOM     64  O   UNL A   1      44.104  34.127  27.027  1.00  0.00    -0.237 OA
ATOM     65  O   UNL A   1      45.787  34.411  25.246  1.00  0.00    -0.237 OA
ATOM     66  O   UNL A   1      43.908  32.875  24.901  1.00  0.00    -0.744 OA
ENDBRANCH  60  63
ENDBRANCH  42  56
BRANCH  43  67
ATOM     67  C   UNL A   1      38.198  31.798  30.493  1.00  0.00     0.023 A 
ATOM     68  C   UNL A   1      37.880  31.858  29.119  1.00  0.00     0.012 A 
ATOM     69  C   UNL A   1      37.312  32.439  31.392  1.00  0.00     0.148 A 
ATOM     70  C   UNL A   1      36.713  32.495  28.668  1.00  0.00     0.002 A 
ATOM     71  C   UNL A   1      36.167  33.091  30.938  1.00  0.00     0.091 A 
ATOM     72  F   UNL A   1      37.523  32.332  32.709  1.00  0.00    -0.205 F 
ATOM     73  C   UNL A   1      35.854  33.107  29.576  1.00  0.00     0.022 A 
BRANCH  71  74
ATOM     74  S   UNL A   1      35.032  33.908  32.072  1.00  0.00     0.127 S 
ATOM     75  O   UNL A   1      33.933  34.291  31.185  1.00  0.00    -0.237 OA
ATOM     76  O   UNL A   1      34.717  32.838  33.013  1.00  0.00    -0.237 OA
ATOM     77  O   UNL A   1      35.772  35.039  32.622  1.00  0.00    -0.744 OA
ENDBRANCH  71  74
ENDBRANCH  43  67
BRANCH  55  78
ATOM     78  C   UNL A   1      42.955  29.033  33.694  1.00  0.00     0.023 A 
ATOM     79  C   UNL A   1      42.002  27.992  33.659  1.00  0.00     0.012 A 
ATOM     80  C   UNL A   1      43.694  29.241  34.870  1.00  0.00     0.148 A 
ATOM     81  C   UNL A   1      41.797  27.173  34.774  1.00  0.00     0.002 A 
ATOM     82  C   UNL A   1      43.513  28.404  35.962  1.00  0.00     0.091 A 
ATOM     83  F   UNL A   1      44.608  30.223  34.872  1.00  0.00    -0.205 F 
ATOM     84  C   UNL A   1      42.564  27.369  35.921  1.00  0.00     0.022 A 
BRANCH  82  85
ATOM     85  S   UNL A   1      44.542  28.530  37.426  1.00  0.00     0.127 S 
ATOM     86  O   UNL A   1      44.191  29.855  37.932  1.00  0.00    -0.237 OA
ATOM     87  O   UNL A   1      44.060  27.415  38.242  1.00  0.00    -0.237 OA
ATOM     88  O   UNL A   1      45.919  28.385  36.969  1.00  0.00    -0.744 OA
ENDBRANCH  82  85
ENDBRANCH  55  78
ENDBRANCH  29  30
ENDBRANCH  22  24
ENDBRANCH  21  22
ENDBRANCH  20  21
ENDBRANCH   1  20
TORSDOF 19
ENDMDL
MODEL 2
REMARK VINA RESULT:     -10.0      2.885     11.138
REMARK SMILES CCn1cc(CC(=O)OCCOCCOC(=O)c2ccc(-c3c4nc(c(-c5cccc(S(=O)(=O)[O-])c5F)c5ccc([nH]5)c(-c5cccc(S(=O)(=O)[O-])c5F)c5nc(c(-c6cccc(S(=O)(=O)[O-])c6F)c6ccc3[nH]6)C=C5)C=C4)cc2)c2ccccc21
REMARK SMILES IDX 13 1 12 2 11 3 10 4 9 5 7 6 8 7 6 8 5 9 3 10 4 11 86 12
REMARK SMILES IDX 81 13 85 14 82 15 84 16 83 17 2 18 1 19 14 20 15 21 16 22
REMARK SMILES IDX 17 23 18 24 19 25 80 26 20 27 79 28 21 29 22 30 23 31 73 32
REMARK SMILES IDX 24 33 78 34 72 35 74 36 25 37 77 38 71 39 70 40 26 42 58 43
REMARK SMILES IDX 38 44 57 45 39 46 42 47 56 48 75 49 40 50 41 51 55 53 76 54
REMARK SMILES IDX 43 55 27 56 28 57 36 58 29 59 31 60 37 61 30 62 32 63 33 64
REMARK SMILES IDX 34 65 35 66 59 67 60 68 68 69 61 70 63 71 69 72 62 73 64 74
REMARK SMILES IDX 65 75 66 76 67 77 44 78 45 79 53 80 46 81 48 82 54 83 47 84
REMARK SMILES IDX 49 85 50 86 51 87 52 88
REMARK H PARENT 74 41 42 52
REMARK Flexibility Score: inf
ROOT
ATOM      1  C   UNL A   1      34.235  34.443  29.257  1.00  0.00     0.202 C 
ENDROOT
BRANCH   1   2
ATOM      2  O   UNL A   1      33.683  35.748  29.341  1.00  0.00    -0.374 OA
BRANCH   2   3
ATOM      3  C   UNL A   1      32.880  36.049  30.473  1.00  0.00     0.202 C 
BRANCH   3   4
ATOM      4  C   UNL A   1      33.449  35.942  31.897  1.00  0.00     0.261 C 
BRANCH   4   5
ATOM      5  O   UNL A   1      33.054  34.758  32.610  1.00  0.00    -0.463 OA
BRANCH   5   6
ATOM      6  C   UNL A   1      34.050  33.850  32.787  1.00  0.00     0.310 C 
ATOM      7  O   UNL A   1      33.971  32.665  32.466  1.00  0.00    -0.252 OA
BRANCH   6   8
ATOM      8  C   UNL A   1      35.306  34.377  33.439  1.00  0.00     0.160 C 
BRANCH   8   9
ATOM      9  C   UNL A   1      36.650  33.913  32.957  1.00  0.00    -0.011 A 
ATOM     10  N   UNL A   1      38.598  33.889  31.849  1.00  0.00    -0.347 N 
ATOM     11  C   UNL A   1      37.346  34.449  31.889  1.00  0.00     0.091 A 
ATOM     12  C   UNL A   1      38.691  32.881  32.786  1.00  0.00     0.048 A 
ATOM     13  C   UNL A   1      37.529  32.951  33.565  1.00  0.00     0.003 A 
ATOM     14  C   UNL A   1      39.701  31.937  33.041  1.00  0.00     0.027 A 
ATOM     15  C   UNL A   1      37.443  32.118  34.706  1.00  0.00     0.010 A 
ATOM     16  C   UNL A   1      39.528  31.045  34.102  1.00  0.00     0.002 A 
ATOM     17  C   UNL A   1      38.428  31.149  34.943  1.00  0.00     0.001 A 
BRANCH  10  18
ATOM     18  C   UNL A   1      39.702  34.452  31.089  1.00  0.00     0.119 C 
ATOM     19  C   UNL A   1      39.393  34.776  29.638  1.00  0.00     0.027 C 
ENDBRANCH  10  18
ENDBRANCH   8   9
ENDBRANCH   6   8
ENDBRANCH   5   6
ENDBRANCH   4   5
ENDBRANCH   3   4
ENDBRANCH   2   3
ENDBRANCH   1   2
BRANCH   1  20
ATOM     20  C   UNL A   1      34.912  33.983  27.954  1.00  0.00     0.261 C 
BRANCH  20  21
ATOM     21  O   UNL A   1      35.942  33.025  28.165  1.00  0.00    -0.460 OA
BRANCH  21  22
ATOM     22  C   UNL A   1      35.549  31.731  27.988  1.00  0.00     0.338 C 
ATOM     23  O   UNL A   1      34.742  31.294  27.205  1.00  0.00    -0.246 OA
BRANCH  22  24
ATOM     24  C   UNL A   1      36.608  30.962  28.664  1.00  0.00     0.060 A 
ATOM     25  C   UNL A   1      37.618  31.645  29.350  1.00  0.00     0.016 A 
ATOM     26  C   UNL A   1      36.766  29.640  28.225  1.00  0.00     0.016 A 
ATOM     27  C   UNL A   1      38.853  31.037  29.473  1.00  0.00     0.010 A 
ATOM     28  C   UNL A   1      38.010  29.043  28.338  1.00  0.00     0.010 A 
ATOM     29  C   UNL A   1      39.060  29.769  28.905  1.00  0.00    -0.014 A 
BRANCH  29  30
ATOM     30  C   UNL A   1      40.371  29.158  29.078  1.00  0.00     0.031 A 
ATOM     31  C   UNL A   1      40.630  28.779  30.494  1.00  0.00     0.074 A 
ATOM     32  C   UNL A   1      41.199  28.821  28.070  1.00  0.00     0.049 A 
ATOM     33  N   UNL A   1      41.547  29.227  31.287  1.00  0.00    -0.248 NA
ATOM     34  C   UNL A   1      39.631  27.916  31.148  1.00  0.00     0.031 C 
ATOM     35  C   UNL A   1      40.944  28.840  26.632  1.00  0.00     0.029 A 
ATOM     36  N   UNL A   1      42.421  28.223  28.141  1.00  0.00    -0.354 N 
ATOM     37  C   UNL A   1      41.357  28.544  32.487  1.00  0.00     0.074 A 
ATOM     38  C   UNL A   1      40.074  27.896  32.403  1.00  0.00     0.031 C 
ATOM     39  C   UNL A   1      41.838  28.046  26.003  1.00  0.00     0.029 A 
ATOM     40  C   UNL A   1      42.765  27.524  26.985  1.00  0.00     0.049 A 
ATOM     41  H   UNL A   1      43.005  28.279  28.931  1.00  0.00     0.167 HD
ATOM     42  C   UNL A   1      42.356  28.355  33.389  1.00  0.00     0.034 A 
ATOM     43  C   UNL A   1      43.625  26.475  26.909  1.00  0.00     0.034 A 
ATOM     44  C   UNL A   1      43.487  29.200  33.151  1.00  0.00     0.049 A 
ATOM     45  C   UNL A   1      44.502  26.565  28.105  1.00  0.00     0.074 A 
ATOM     46  C   UNL A   1      43.682  30.566  33.102  1.00  0.00     0.029 A 
ATOM     47  N   UNL A   1      44.561  28.644  32.497  1.00  0.00    -0.354 N 
ATOM     48  N   UNL A   1      45.316  27.563  28.323  1.00  0.00    -0.248 NA
ATOM     49  C   UNL A   1      44.111  25.802  29.282  1.00  0.00     0.031 C 
ATOM     50  C   UNL A   1      44.550  30.765  31.989  1.00  0.00     0.029 A 
ATOM     51  C   UNL A   1      44.878  29.507  31.480  1.00  0.00     0.049 A 
ATOM     52  H   UNL A   1      45.012  27.797  32.715  1.00  0.00     0.167 HD
ATOM     53  C   UNL A   1      45.186  27.825  29.680  1.00  0.00     0.074 A 
ATOM     54  C   UNL A   1      44.485  26.665  30.231  1.00  0.00     0.031 C 
ATOM     55  C   UNL A   1      45.372  29.076  30.194  1.00  0.00     0.034 A 
BRANCH  42  56
ATOM     56  C   UNL A   1      42.428  27.153  34.281  1.00  0.00     0.023 A 
ATOM     57  C   UNL A   1      41.931  27.251  35.593  1.00  0.00     0.012 A 
ATOM     58  C   UNL A   1      43.192  26.009  33.950  1.00  0.00     0.148 A 
ATOM     59  C   UNL A   1      42.175  26.245  36.534  1.00  0.00     0.002 A 
ATOM     60  C   UNL A   1      43.369  24.982  34.862  1.00  0.00     0.091 A 
ATOM     61  F   UNL A   1      43.853  25.976  32.787  1.00  0.00    -0.205 F 
ATOM     62  C   UNL A   1      42.878  25.102  36.164  1.00  0.00     0.022 A 
BRANCH  60  63
ATOM     63  S   UNL A   1      44.248  23.479  34.425  1.00  0.00     0.127 S 
ATOM     64  O   UNL A   1      43.411  22.955  33.350  1.00  0.00    -0.237 OA
ATOM     65  O   UNL A   1      45.547  24.003  34.003  1.00  0.00    -0.237 OA
ATOM     66  O   UNL A   1      44.291  22.689  35.648  1.00  0.00    -0.744 OA
ENDBRANCH  60  63
ENDBRANCH  42  56
BRANCH  43  67
ATOM     67  C   UNL A   1      43.447  25.206  26.141  1.00  0.00     0.023 A 
ATOM     68  C   UNL A   1      44.384  24.859  25.144  1.00  0.00     0.012 A 
ATOM     69  C   UNL A   1      42.532  24.204  26.547  1.00  0.00     0.148 A 
ATOM     70  C   UNL A   1      44.431  23.562  24.607  1.00  0.00     0.002 A 
ATOM     71  C   UNL A   1      42.565  22.926  25.993  1.00  0.00     0.091 A 
ATOM     72  F   UNL A   1      41.685  24.458  27.552  1.00  0.00    -0.205 F 
ATOM     73  C   UNL A   1      43.526  22.595  25.034  1.00  0.00     0.022 A 
BRANCH  71  74
ATOM     74  S   UNL A   1      41.409  21.644  26.504  1.00  0.00     0.127 S 
ATOM     75  O   UNL A   1      40.121  22.216  26.108  1.00  0.00    -0.237 OA
ATOM     76  O   UNL A   1      41.844  20.503  25.705  1.00  0.00    -0.237 OA
ATOM     77  O   UNL A   1      41.580  21.512  27.946  1.00  0.00    -0.744 OA
ENDBRANCH  71  74
ENDBRANCH  43  67
BRANCH  55  78
ATOM     78  C   UNL A   1      45.887  30.168  29.294  1.00  0.00     0.023 A 
ATOM     79  C   UNL A   1      47.266  30.372  29.071  1.00  0.00     0.012 A 
ATOM     80  C   UNL A   1      44.959  30.826  28.471  1.00  0.00     0.148 A 
ATOM     81  C   UNL A   1      47.707  31.211  28.042  1.00  0.00     0.002 A 
ATOM     82  C   UNL A   1      45.400  31.631  27.429  1.00  0.00     0.091 A 
ATOM     83  F   UNL A   1      43.655  30.600  28.689  1.00  0.00    -0.205 F 
ATOM     84  C   UNL A   1      46.774  31.828  27.212  1.00  0.00     0.022 A 
BRANCH  82  85
ATOM     85  S   UNL A   1      44.259  32.363  26.255  1.00  0.00     0.127 S 
ATOM     86  O   UNL A   1      43.361  31.246  25.967  1.00  0.00    -0.237 OA
ATOM     87  O   UNL A   1      43.660  33.445  27.037  1.00  0.00    -0.237 OA
ATOM     88  O   UNL A   1      45.068  32.816  25.129  1.00  0.00    -0.744 OA
ENDBRANCH  82  85
ENDBRANCH  55  78
ENDBRANCH  29  30
ENDBRANCH  22  24
ENDBRANCH  21  22
ENDBRANCH  20  21
ENDBRANCH   1  20
TORSDOF 19
ENDMDL
MODEL 3
REMARK VINA RESULT:      -9.5      3.157     11.125
REMARK SMILES CCn1cc(CC(=O)OCCOCCOC(=O)c2ccc(-c3c4nc(c(-c5cccc(S(=O)(=O)[O-])c5F)c5ccc([nH]5)c(-c5cccc(S(=O)(=O)[O-])c5F)c5nc(c(-c6cccc(S(=O)(=O)[O-])c6F)c6ccc3[nH]6)C=C5)C=C4)cc2)c2ccccc21
REMARK SMILES IDX 13 1 12 2 11 3 10 4 9 5 7 6 8 7 6 8 5 9 3 10 4 11 86 12
REMARK SMILES IDX 81 13 85 14 82 15 84 16 83 17 2 18 1 19 14 20 15 21 16 22
REMARK SMILES IDX 17 23 18 24 19 25 80 26 20 27 79 28 21 29 22 30 23 31 73 32
REMARK SMILES IDX 24 33 78 34 72 35 74 36 25 37 77 38 71 39 70 40 26 42 58 43
REMARK SMILES IDX 38 44 57 45 39 46 42 47 56 48 75 49 40 50 41 51 55 53 76 54
REMARK SMILES IDX 43 55 27 56 28 57 36 58 29 59 31 60 37 61 30 62 32 63 33 64
REMARK SMILES IDX 34 65 35 66 59 67 60 68 68 69 61 70 63 71 69 72 62 73 64 74
REMARK SMILES IDX 65 75 66 76 67 77 44 78 45 79 53 80 46 81 48 82 54 83 47 84
REMARK SMILES IDX 49 85 50 86 51 87 52 88
REMARK H PARENT 74 41 42 52
REMARK Flexibility Score: inf
ROOT
ATOM      1  C   UNL A   1      33.879  34.840  28.715  1.00  0.00     0.202 C 
ENDROOT
BRANCH   1   2
ATOM      2  O   UNL A   1      32.753  35.466  29.310  1.00  0.00    -0.374 OA
BRANCH   2   3
ATOM      3  C   UNL A   1      32.998  36.471  30.283  1.00  0.00     0.202 C 
BRANCH   3   4
ATOM      4  C   UNL A   1      33.064  36.122  31.778  1.00  0.00     0.261 C 
BRANCH   4   5
ATOM      5  O   UNL A   1      34.382  35.810  32.261  1.00  0.00    -0.463 OA
BRANCH   5   6
ATOM      6  C   UNL A   1      34.538  34.526  32.681  1.00  0.00     0.310 C 
ATOM      7  O   UNL A   1      34.009  33.553  32.146  1.00  0.00    -0.252 OA
BRANCH   6   8
ATOM      8  C   UNL A   1      35.414  34.339  33.898  1.00  0.00     0.160 C 
BRANCH   8   9
ATOM      9  C   UNL A   1      36.688  33.554  33.789  1.00  0.00    -0.011 A 
ATOM     10  N   UNL A   1      38.182  31.909  34.087  1.00  0.00    -0.347 N 
ATOM     11  C   UNL A   1      37.031  32.473  34.580  1.00  0.00     0.091 A 
ATOM     12  C   UNL A   1      38.687  32.691  33.069  1.00  0.00     0.048 A 
ATOM     13  C   UNL A   1      37.715  33.661  32.789  1.00  0.00     0.003 A 
ATOM     14  C   UNL A   1      39.891  32.616  32.347  1.00  0.00     0.027 A 
ATOM     15  C   UNL A   1      37.920  34.503  31.670  1.00  0.00     0.010 A 
ATOM     16  C   UNL A   1      40.117  33.543  31.327  1.00  0.00     0.002 A 
ATOM     17  C   UNL A   1      39.135  34.458  30.971  1.00  0.00     0.001 A 
BRANCH  10  18
ATOM     18  C   UNL A   1      38.637  30.577  34.446  1.00  0.00     0.119 C 
ATOM     19  C   UNL A   1      39.845  30.530  35.364  1.00  0.00     0.027 C 
ENDBRANCH  10  18
ENDBRANCH   8   9
ENDBRANCH   6   8
ENDBRANCH   5   6
ENDBRANCH   4   5
ENDBRANCH   3   4
ENDBRANCH   2   3
ENDBRANCH   1   2
BRANCH   1  20
ATOM     20  C   UNL A   1      33.821  33.345  28.356  1.00  0.00     0.261 C 
BRANCH  20  21
ATOM     21  O   UNL A   1      35.008  32.639  28.697  1.00  0.00    -0.460 OA
BRANCH  21  22
ATOM     22  C   UNL A   1      35.028  31.341  28.278  1.00  0.00     0.338 C 
ATOM     23  O   UNL A   1      34.394  30.832  27.388  1.00  0.00    -0.246 OA
BRANCH  22  24
ATOM     24  C   UNL A   1      36.270  30.816  28.870  1.00  0.00     0.060 A 
ATOM     25  C   UNL A   1      37.324  31.696  29.143  1.00  0.00     0.016 A 
ATOM     26  C   UNL A   1      36.468  29.436  28.728  1.00  0.00     0.016 A 
ATOM     27  C   UNL A   1      38.613  31.196  29.135  1.00  0.00     0.010 A 
ATOM     28  C   UNL A   1      37.763  28.945  28.707  1.00  0.00     0.010 A 
ATOM     29  C   UNL A   1      38.828  29.838  28.848  1.00  0.00    -0.014 A 
BRANCH  29  30
ATOM     30  C   UNL A   1      40.200  29.353  28.873  1.00  0.00     0.031 A 
ATOM     31  C   UNL A   1      40.707  29.174  30.260  1.00  0.00     0.074 A 
ATOM     32  C   UNL A   1      40.892  28.953  27.787  1.00  0.00     0.049 A 
ATOM     33  N   UNL A   1      41.690  29.785  30.838  1.00  0.00    -0.248 NA
ATOM     34  C   UNL A   1      39.905  28.329  31.161  1.00  0.00     0.031 C 
ATOM     35  C   UNL A   1      40.418  28.772  26.417  1.00  0.00     0.029 A 
ATOM     36  N   UNL A   1      42.161  28.462  27.723  1.00  0.00    -0.354 N 
ATOM     37  C   UNL A   1      41.751  29.246  32.121  1.00  0.00     0.074 A 
ATOM     38  C   UNL A   1      40.536  28.499  32.321  1.00  0.00     0.031 C 
ATOM     39  C   UNL A   1      41.275  27.975  25.743  1.00  0.00     0.029 A 
ATOM     40  C   UNL A   1      42.386  27.650  26.613  1.00  0.00     0.049 A 
ATOM     41  H   UNL A   1      42.851  28.659  28.397  1.00  0.00     0.167 HD
ATOM     42  C   UNL A   1      42.889  29.246  32.864  1.00  0.00     0.034 A 
ATOM     43  C   UNL A   1      43.318  26.666  26.516  1.00  0.00     0.034 A 
ATOM     44  C   UNL A   1      43.887  30.135  32.351  1.00  0.00     0.049 A 
ATOM     45  C   UNL A   1      44.357  26.971  27.534  1.00  0.00     0.074 A 
ATOM     46  C   UNL A   1      43.944  31.495  32.118  1.00  0.00     0.029 A 
ATOM     47  N   UNL A   1      44.895  29.583  31.597  1.00  0.00    -0.354 N 
ATOM     48  N   UNL A   1      45.098  28.045  27.503  1.00  0.00    -0.248 NA
ATOM     49  C   UNL A   1      44.224  26.334  28.838  1.00  0.00     0.031 C 
ATOM     50  C   UNL A   1      44.609  31.616  30.863  1.00  0.00     0.029 A 
ATOM     51  C   UNL A   1      44.971  30.332  30.452  1.00  0.00     0.049 A 
ATOM     52  H   UNL A   1      45.450  28.805  31.832  1.00  0.00     0.167 HD
ATOM     53  C   UNL A   1      45.153  28.465  28.825  1.00  0.00     0.074 A 
ATOM     54  C   UNL A   1      44.656  27.335  29.610  1.00  0.00     0.031 C 
ATOM     55  C   UNL A   1      45.299  29.781  29.158  1.00  0.00     0.034 A 
BRANCH  42  56
ATOM     56  C   UNL A   1      43.209  28.174  33.861  1.00  0.00     0.023 A 
ATOM     57  C   UNL A   1      43.225  28.503  35.229  1.00  0.00     0.012 A 
ATOM     58  C   UNL A   1      43.733  26.917  33.479  1.00  0.00     0.148 A 
ATOM     59  C   UNL A   1      43.733  27.610  36.178  1.00  0.00     0.002 A 
ATOM     60  C   UNL A   1      44.169  26.007  34.430  1.00  0.00     0.091 A 
ATOM     61  F   UNL A   1      43.927  26.653  32.182  1.00  0.00    -0.205 F 
ATOM     62  C   UNL A   1      44.188  26.356  35.783  1.00  0.00     0.022 A 
BRANCH  60  63
ATOM     63  S   UNL A   1      44.741  24.370  33.970  1.00  0.00     0.127 S 
ATOM     64  O   UNL A   1      45.933  24.686  33.190  1.00  0.00    -0.237 OA
ATOM     65  O   UNL A   1      44.996  23.763  35.278  1.00  0.00    -0.237 OA
ATOM     66  O   UNL A   1      43.635  23.767  33.239  1.00  0.00    -0.744 OA
ENDBRANCH  60  63
ENDBRANCH  42  56
BRANCH  43  67
ATOM     67  C   UNL A   1      43.144  25.301  25.934  1.00  0.00     0.023 A 
ATOM     68  C   UNL A   1      44.100  24.806  25.022  1.00  0.00     0.012 A 
ATOM     69  C   UNL A   1      42.207  24.376  26.457  1.00  0.00     0.148 A 
ATOM     70  C   UNL A   1      44.144  23.445  24.678  1.00  0.00     0.002 A 
ATOM     71  C   UNL A   1      42.238  23.031  26.094  1.00  0.00     0.091 A 
ATOM     72  F   UNL A   1      41.340  24.780  27.393  1.00  0.00    -0.205 F 
ATOM     73  C   UNL A   1      43.217  22.557  25.217  1.00  0.00     0.022 A 
BRANCH  71  74
ATOM     74  S   UNL A   1      41.055  21.847  26.755  1.00  0.00     0.127 S 
ATOM     75  O   UNL A   1      41.543  20.583  26.202  1.00  0.00    -0.237 OA
ATOM     76  O   UNL A   1      41.240  21.998  28.194  1.00  0.00    -0.237 OA
ATOM     77  O   UNL A   1      39.755  22.258  26.235  1.00  0.00    -0.744 OA
ENDBRANCH  71  74
ENDBRANCH  43  67
BRANCH  55  78
ATOM     78  C   UNL A   1      45.566  30.787  28.070  1.00  0.00     0.023 A 
ATOM     79  C   UNL A   1      44.528  31.510  27.442  1.00  0.00     0.012 A 
ATOM     80  C   UNL A   1      46.896  31.186  27.863  1.00  0.00     0.148 A 
ATOM     81  C   UNL A   1      44.815  32.612  26.630  1.00  0.00     0.002 A 
ATOM     82  C   UNL A   1      47.175  32.301  27.084  1.00  0.00     0.091 A 
ATOM     83  F   UNL A   1      47.863  30.496  28.486  1.00  0.00    -0.205 F 
ATOM     84  C   UNL A   1      46.137  33.017  26.464  1.00  0.00     0.022 A 
BRANCH  82  85
ATOM     85  S   UNL A   1      48.842  32.943  26.919  1.00  0.00     0.127 S 
ATOM     86  O   UNL A   1      49.145  33.355  28.289  1.00  0.00    -0.237 OA
ATOM     87  O   UNL A   1      49.582  31.770  26.454  1.00  0.00    -0.237 OA
ATOM     88  O   UNL A   1      48.766  34.027  25.947  1.00  0.00    -0.744 OA
ENDBRANCH  82  85
ENDBRANCH  55  78
ENDBRANCH  29  30
ENDBRANCH  22  24
ENDBRANCH  21  22
ENDBRANCH  20  21
ENDBRANCH   1  20
TORSDOF 19
ENDMDL
