MODEL 1
REMARK VINA RESULT:      -9.9      0.000      0.000
REMARK SMILES CCc1nc(=O)n([C@@H](CC)C(C)C)c(CC)c1CC(=O)OCCOCCOC(=O)c1ccc(-c2c3nc(c(-c4cccc(S(=O)(=O)[O-])c4F)c4ccc([nH]4)c(-c4cccc(S(=O)(=O)[O-])c4F)c4nc(c(-c5cccc(S(=O)(=O)[O-])c5F)c5ccc2[nH]5)C=C4)C=C3)cc1
REMARK SMILES IDX 24 1 23 2 22 3 21 4 19 5 20 6 18 7 17 8 3 9 4 10 5 11 14 12
REMARK SMILES IDX 6 13 7 14 2 15 1 16 15 17 16 18 8 19 9 20 10 21 11 22 12 23
REMARK SMILES IDX 13 24 25 25 26 26 27 27 28 28 29 29 30 30 31 31 92 32 32 33
REMARK SMILES IDX 91 34 33 35 34 36 35 37 85 38 36 39 90 40 84 41 86 42 37 43
REMARK SMILES IDX 89 44 83 45 82 46 38 48 70 49 50 50 69 51 51 52 54 53 68 54
REMARK SMILES IDX 87 55 52 56 53 57 67 59 88 60 55 61 39 62 40 63 48 64 41 65
REMARK SMILES IDX 43 66 49 67 42 68 44 69 45 70 46 71 47 72 71 73 72 74 80 75
REMARK SMILES IDX 73 76 75 77 81 78 74 79 76 80 77 81 78 82 79 83 56 84 57 85
REMARK SMILES IDX 65 86 58 87 60 88 66 89 59 90 61 91 62 92 63 93 64 94
REMARK H PARENT 86 47 54 58
REMARK Flexibility Score: inf
ROOT
ATOM      1  O   UNL A   1      37.239  21.329  24.732  1.00  0.00    -0.374 OA
ENDROOT
BRANCH   1   2
ATOM      2  C   UNL A   1      36.861  22.306  25.699  1.00  0.00     0.202 C 
BRANCH   2   3
ATOM      3  C   UNL A   1      35.361  22.487  26.016  1.00  0.00     0.261 C 
BRANCH   3   4
ATOM      4  O   UNL A   1      34.546  22.929  24.902  1.00  0.00    -0.463 OA
BRANCH   4   5
ATOM      5  C   UNL A   1      33.568  22.067  24.516  1.00  0.00     0.310 C 
ATOM      6  O   UNL A   1      33.642  20.845  24.607  1.00  0.00    -0.252 OA
BRANCH   5   7
ATOM      7  C   UNL A   1      32.257  22.730  24.088  1.00  0.00     0.162 C 
BRANCH   7   8
ATOM      8  C   UNL A   1      31.836  24.063  24.670  1.00  0.00     0.005 A 
ATOM      9  C   UNL A   1      31.090  24.012  25.975  1.00  0.00     0.051 A 
ATOM     10  N   UNL A   1      30.867  25.039  26.717  1.00  0.00    -0.198 NA
ATOM     11  C   UNL A   1      31.261  26.278  26.329  1.00  0.00     0.348 A 
ATOM     12  C   UNL A   1      32.249  25.309  24.291  1.00  0.00     0.028 A 
ATOM     13  O   UNL A   1      31.105  27.220  27.100  1.00  0.00    -0.246 OA
ATOM     14  N   UNL A   1      31.865  26.434  25.068  1.00  0.00    -0.293 N 
BRANCH   9  15
ATOM     15  C   UNL A   1      30.686  22.673  26.605  1.00  0.00     0.053 C 
ATOM     16  C   UNL A   1      29.317  22.711  27.271  1.00  0.00     0.011 C 
ENDBRANCH   9  15
BRANCH  12  17
ATOM     17  C   UNL A   1      33.325  25.488  23.191  1.00  0.00     0.051 C 
ATOM     18  C   UNL A   1      33.035  25.465  21.682  1.00  0.00     0.010 C 
ENDBRANCH  12  17
BRANCH  14  19
ATOM     19  C   UNL A   1      32.048  27.836  24.611  1.00  0.00     0.094 C 
BRANCH  19  20
ATOM     20  C   UNL A   1      33.532  28.294  24.714  1.00  0.00     0.022 C 
ATOM     21  C   UNL A   1      34.041  28.779  26.063  1.00  0.00     0.006 C 
ENDBRANCH  19  20
BRANCH  19  22
ATOM     22  C   UNL A   1      31.281  28.239  23.316  1.00  0.00     0.006 C 
ATOM     23  C   UNL A   1      29.936  28.898  23.659  1.00  0.00     0.009 C 
ATOM     24  C   UNL A   1      32.100  29.236  22.480  1.00  0.00     0.009 C 
ENDBRANCH  19  22
ENDBRANCH  14  19
ENDBRANCH   7   8
ENDBRANCH   5   7
ENDBRANCH   4   5
ENDBRANCH   3   4
ENDBRANCH   2   3
ENDBRANCH   1   2
BRANCH   1  25
ATOM     25  C   UNL A   1      38.215  20.373  25.111  1.00  0.00     0.202 C 
BRANCH  25  26
ATOM     26  C   UNL A   1      39.459  20.846  25.872  1.00  0.00     0.261 C 
BRANCH  26  27
ATOM     27  O   UNL A   1      40.252  19.825  26.455  1.00  0.00    -0.460 OA
BRANCH  27  28
ATOM     28  C   UNL A   1      41.535  19.801  26.039  1.00  0.00     0.338 C 
ATOM     29  O   UNL A   1      42.158  18.862  25.576  1.00  0.00    -0.246 OA
BRANCH  28  30
ATOM     30  C   UNL A   1      42.093  21.106  26.390  1.00  0.00     0.060 A 
ATOM     31  C   UNL A   1      42.413  21.985  25.355  1.00  0.00     0.016 A 
ATOM     32  C   UNL A   1      42.332  21.431  27.728  1.00  0.00     0.016 A 
ATOM     33  C   UNL A   1      42.986  23.213  25.665  1.00  0.00     0.010 A 
ATOM     34  C   UNL A   1      42.874  22.673  28.036  1.00  0.00     0.010 A 
ATOM     35  C   UNL A   1      43.199  23.571  27.008  1.00  0.00    -0.014 A 
BRANCH  35  36
ATOM     36  C   UNL A   1      43.673  24.927  27.351  1.00  0.00     0.031 A 
ATOM     37  C   UNL A   1      42.717  25.977  27.822  1.00  0.00     0.074 A 
ATOM     38  C   UNL A   1      44.977  25.205  27.171  1.00  0.00     0.049 A 
ATOM     39  N   UNL A   1      42.954  27.228  28.111  1.00  0.00    -0.248 NA
ATOM     40  C   UNL A   1      41.309  25.576  27.982  1.00  0.00     0.031 C 
ATOM     41  C   UNL A   1      45.979  24.254  26.680  1.00  0.00     0.029 A 
ATOM     42  N   UNL A   1      45.681  26.364  27.363  1.00  0.00    -0.354 N 
ATOM     43  C   UNL A   1      41.730  27.771  28.477  1.00  0.00     0.074 A 
ATOM     44  C   UNL A   1      40.745  26.720  28.350  1.00  0.00     0.031 C 
ATOM     45  C   UNL A   1      47.170  24.866  26.620  1.00  0.00     0.029 A 
ATOM     46  C   UNL A   1      47.010  26.255  27.035  1.00  0.00     0.049 A 
ATOM     47  H   UNL A   1      45.275  27.193  27.704  1.00  0.00     0.167 HD
ATOM     48  C   UNL A   1      41.466  29.027  28.905  1.00  0.00     0.034 A 
ATOM     49  C   UNL A   1      47.992  27.176  27.057  1.00  0.00     0.034 A 
ATOM     50  C   UNL A   1      42.461  30.057  29.036  1.00  0.00     0.049 A 
ATOM     51  C   UNL A   1      47.670  28.564  27.522  1.00  0.00     0.074 A 
ATOM     52  C   UNL A   1      42.300  31.355  29.484  1.00  0.00     0.029 A 
ATOM     53  N   UNL A   1      43.802  29.905  28.719  1.00  0.00    -0.354 N 
ATOM     54  N   UNL A   1      46.520  29.044  27.932  1.00  0.00    -0.248 NA
ATOM     55  C   UNL A   1      48.774  29.532  27.549  1.00  0.00     0.031 C 
ATOM     56  C   UNL A   1      43.543  31.993  29.427  1.00  0.00     0.029 A 
ATOM     57  C   UNL A   1      44.482  31.085  28.961  1.00  0.00     0.049 A 
ATOM     58  H   UNL A   1      44.211  29.080  28.372  1.00  0.00     0.167 HD
ATOM     59  C   UNL A   1      46.762  30.364  28.285  1.00  0.00     0.074 A 
ATOM     60  C   UNL A   1      48.174  30.604  28.051  1.00  0.00     0.031 C 
ATOM     61  C   UNL A   1      45.892  31.293  28.750  1.00  0.00     0.034 A 
BRANCH  48  62
ATOM     62  C   UNL A   1      40.055  29.344  29.319  1.00  0.00     0.023 A 
ATOM     63  C   UNL A   1      39.101  29.642  28.324  1.00  0.00     0.012 A 
ATOM     64  C   UNL A   1      39.654  29.275  30.667  1.00  0.00     0.148 A 
ATOM     65  C   UNL A   1      37.771  29.881  28.666  1.00  0.00     0.002 A 
ATOM     66  C   UNL A   1      38.320  29.487  30.996  1.00  0.00     0.091 A 
ATOM     67  F   UNL A   1      40.582  29.005  31.596  1.00  0.00    -0.205 F 
ATOM     68  C   UNL A   1      37.379  29.793  29.999  1.00  0.00     0.022 A 
BRANCH  66  69
ATOM     69  S   UNL A   1      37.698  29.362  32.678  1.00  0.00     0.127 S 
ATOM     70  O   UNL A   1      36.360  29.938  32.539  1.00  0.00    -0.237 OA
ATOM     71  O   UNL A   1      37.720  27.917  32.905  1.00  0.00    -0.237 OA
ATOM     72  O   UNL A   1      38.617  30.129  33.507  1.00  0.00    -0.744 OA
ENDBRANCH  66  69
ENDBRANCH  48  62
BRANCH  49  73
ATOM     73  C   UNL A   1      49.372  26.760  26.697  1.00  0.00     0.023 A 
ATOM     74  C   UNL A   1      50.032  25.815  27.505  1.00  0.00     0.012 A 
ATOM     75  C   UNL A   1      49.977  27.195  25.502  1.00  0.00     0.148 A 
ATOM     76  C   UNL A   1      51.274  25.306  27.125  1.00  0.00     0.002 A 
ATOM     77  C   UNL A   1      51.198  26.658  25.113  1.00  0.00     0.091 A 
ATOM     78  F   UNL A   1      49.318  28.086  24.748  1.00  0.00    -0.205 F 
ATOM     79  C   UNL A   1      51.850  25.717  25.926  1.00  0.00     0.022 A 
BRANCH  77  80
ATOM     80  S   UNL A   1      51.976  27.049  23.542  1.00  0.00     0.127 S 
ATOM     81  O   UNL A   1      53.077  26.089  23.507  1.00  0.00    -0.237 OA
ATOM     82  O   UNL A   1      50.893  26.778  22.597  1.00  0.00    -0.237 OA
ATOM     83  O   UNL A   1      52.374  28.447  23.630  1.00  0.00    -0.744 OA
ENDBRANCH  77  80
ENDBRANCH  49  73
BRANCH  61  84
ATOM     84  C   UNL A   1      46.431  32.664  29.050  1.00  0.00     0.023 A 
ATOM     85  C   UNL A   1      47.023  32.914  30.303  1.00  0.00     0.012 A 
ATOM     86  C   UNL A   1      46.457  33.658  28.054  1.00  0.00     0.148 A 
ATOM     87  C   UNL A   1      47.625  34.144  30.564  1.00  0.00     0.002 A 
ATOM     88  C   UNL A   1      47.090  34.868  28.309  1.00  0.00     0.091 A 
ATOM     89  F   UNL A   1      45.879  33.393  26.873  1.00  0.00    -0.205 F 
ATOM     90  C   UNL A   1      47.669  35.114  29.565  1.00  0.00     0.022 A 
BRANCH  88  91
ATOM     91  S   UNL A   1      47.260  36.152  27.066  1.00  0.00     0.127 S 
ATOM     92  O   UNL A   1      46.622  37.291  27.726  1.00  0.00    -0.237 OA
ATOM     93  O   UNL A   1      48.713  36.260  26.932  1.00  0.00    -0.237 OA
ATOM     94  O   UNL A   1      46.574  35.661  25.879  1.00  0.00    -0.744 OA
ENDBRANCH  88  91
ENDBRANCH  61  84
ENDBRANCH  35  36
ENDBRANCH  28  30
ENDBRANCH  27  28
ENDBRANCH  26  27
ENDBRANCH  25  26
ENDBRANCH   1  25
TORSDOF 23
ENDMDL
MODEL 2
REMARK VINA RESULT:      -9.6      3.102      8.167
REMARK SMILES CCc1nc(=O)n([C@@H](CC)C(C)C)c(CC)c1CC(=O)OCCOCCOC(=O)c1ccc(-c2c3nc(c(-c4cccc(S(=O)(=O)[O-])c4F)c4ccc([nH]4)c(-c4cccc(S(=O)(=O)[O-])c4F)c4nc(c(-c5cccc(S(=O)(=O)[O-])c5F)c5ccc2[nH]5)C=C4)C=C3)cc1
REMARK SMILES IDX 24 1 23 2 22 3 21 4 19 5 20 6 18 7 17 8 3 9 4 10 5 11 14 12
REMARK SMILES IDX 6 13 7 14 2 15 1 16 15 17 16 18 8 19 9 20 10 21 11 22 12 23
REMARK SMILES IDX 13 24 25 25 26 26 27 27 28 28 29 29 30 30 31 31 92 32 32 33
REMARK SMILES IDX 91 34 33 35 34 36 35 37 85 38 36 39 90 40 84 41 86 42 37 43
REMARK SMILES IDX 89 44 83 45 82 46 38 48 70 49 50 50 69 51 51 52 54 53 68 54
REMARK SMILES IDX 87 55 52 56 53 57 67 59 88 60 55 61 39 62 40 63 48 64 41 65
REMARK SMILES IDX 43 66 49 67 42 68 44 69 45 70 46 71 47 72 71 73 72 74 80 75
REMARK SMILES IDX 73 76 75 77 81 78 74 79 76 80 77 81 78 82 79 83 56 84 57 85
REMARK SMILES IDX 65 86 58 87 60 88 66 89 59 90 61 91 62 92 63 93 64 94
REMARK H PARENT 86 47 54 58
REMARK Flexibility Score: inf
ROOT
ATOM      1  O   UNL A   1      35.598  21.123  25.324  1.00  0.00    -0.374 OA
ENDROOT
BRANCH   1   2
ATOM      2  C   UNL A   1      35.454  22.317  26.090  1.00  0.00     0.202 C 
BRANCH   2   3
ATOM      3  C   UNL A   1      34.478  23.402  25.588  1.00  0.00     0.261 C 
BRANCH   3   4
ATOM      4  O   UNL A   1      35.041  24.347  24.644  1.00  0.00    -0.463 OA
BRANCH   4   5
ATOM      5  C   UNL A   1      35.029  23.950  23.344  1.00  0.00     0.310 C 
ATOM      6  O   UNL A   1      35.833  23.165  22.848  1.00  0.00    -0.252 OA
BRANCH   5   7
ATOM      7  C   UNL A   1      33.823  24.431  22.535  1.00  0.00     0.162 C 
BRANCH   7   8
ATOM      8  C   UNL A   1      32.609  25.018  23.226  1.00  0.00     0.005 A 
ATOM      9  C   UNL A   1      31.581  24.034  23.711  1.00  0.00     0.051 A 
ATOM     10  N   UNL A   1      30.620  24.334  24.513  1.00  0.00    -0.198 NA
ATOM     11  C   UNL A   1      30.444  25.609  24.943  1.00  0.00     0.348 A 
ATOM     12  C   UNL A   1      32.441  26.297  23.676  1.00  0.00     0.028 A 
ATOM     13  O   UNL A   1      29.568  25.841  25.771  1.00  0.00    -0.246 OA
ATOM     14  N   UNL A   1      31.293  26.616  24.448  1.00  0.00    -0.293 N 
BRANCH   9  15
ATOM     15  C   UNL A   1      31.713  22.536  23.410  1.00  0.00     0.053 C 
ATOM     16  C   UNL A   1      31.811  21.677  24.663  1.00  0.00     0.011 C 
ENDBRANCH   9  15
BRANCH  12  17
ATOM     17  C   UNL A   1      33.591  27.331  23.579  1.00  0.00     0.051 C 
ATOM     18  C   UNL A   1      33.811  28.274  22.386  1.00  0.00     0.010 C 
ENDBRANCH  12  17
BRANCH  14  19
ATOM     19  C   UNL A   1      30.894  28.011  24.770  1.00  0.00     0.094 C 
BRANCH  19  20
ATOM     20  C   UNL A   1      31.810  28.643  25.857  1.00  0.00     0.022 C 
ATOM     21  C   UNL A   1      32.294  27.755  26.992  1.00  0.00     0.006 C 
ENDBRANCH  19  20
BRANCH  19  22
ATOM     22  C   UNL A   1      30.523  28.914  23.555  1.00  0.00     0.006 C 
ATOM     23  C   UNL A   1      29.357  28.309  22.758  1.00  0.00     0.009 C 
ATOM     24  C   UNL A   1      30.104  30.317  24.022  1.00  0.00     0.009 C 
ENDBRANCH  19  22
ENDBRANCH  14  19
ENDBRANCH   7   8
ENDBRANCH   5   7
ENDBRANCH   4   5
ENDBRANCH   3   4
ENDBRANCH   2   3
ENDBRANCH   1   2
BRANCH   1  25
ATOM     25  C   UNL A   1      36.907  20.608  25.151  1.00  0.00     0.202 C 
BRANCH  25  26
ATOM     26  C   UNL A   1      38.087  21.585  25.089  1.00  0.00     0.261 C 
BRANCH  26  27
ATOM     27  O   UNL A   1      38.364  22.295  26.285  1.00  0.00    -0.460 OA
BRANCH  27  28
ATOM     28  C   UNL A   1      39.639  22.201  26.716  1.00  0.00     0.338 C 
ATOM     29  O   UNL A   1      40.325  21.200  26.824  1.00  0.00    -0.246 OA
BRANCH  28  30
ATOM     30  C   UNL A   1      40.006  23.541  27.173  1.00  0.00     0.060 A 
ATOM     31  C   UNL A   1      41.183  23.687  27.905  1.00  0.00     0.016 A 
ATOM     32  C   UNL A   1      39.166  24.627  26.908  1.00  0.00     0.016 A 
ATOM     33  C   UNL A   1      41.527  24.946  28.386  1.00  0.00     0.010 A 
ATOM     34  C   UNL A   1      39.530  25.889  27.362  1.00  0.00     0.010 A 
ATOM     35  C   UNL A   1      40.713  26.055  28.099  1.00  0.00    -0.014 A 
BRANCH  35  36
ATOM     36  C   UNL A   1      41.144  27.415  28.483  1.00  0.00     0.031 A 
ATOM     37  C   UNL A   1      42.588  27.802  28.439  1.00  0.00     0.074 A 
ATOM     38  C   UNL A   1      40.208  28.272  28.928  1.00  0.00     0.049 A 
ATOM     39  N   UNL A   1      43.143  28.930  28.793  1.00  0.00    -0.248 NA
ATOM     40  C   UNL A   1      43.537  26.792  27.942  1.00  0.00     0.031 C 
ATOM     41  C   UNL A   1      38.778  27.970  29.041  1.00  0.00     0.029 A 
ATOM     42  N   UNL A   1      40.314  29.560  29.381  1.00  0.00    -0.354 N 
ATOM     43  C   UNL A   1      44.504  28.768  28.574  1.00  0.00     0.074 A 
ATOM     44  C   UNL A   1      44.697  27.422  28.080  1.00  0.00     0.031 C 
ATOM     45  C   UNL A   1      38.139  29.047  29.521  1.00  0.00     0.029 A 
ATOM     46  C   UNL A   1      39.116  30.099  29.781  1.00  0.00     0.049 A 
ATOM     47  H   UNL A   1      41.167  30.052  29.416  1.00  0.00     0.167 HD
ATOM     48  C   UNL A   1      45.494  29.674  28.748  1.00  0.00     0.034 A 
ATOM     49  C   UNL A   1      38.835  31.305  30.307  1.00  0.00     0.034 A 
ATOM     50  C   UNL A   1      45.282  31.012  29.230  1.00  0.00     0.049 A 
ATOM     51  C   UNL A   1      39.952  32.286  30.503  1.00  0.00     0.074 A 
ATOM     52  C   UNL A   1      46.215  32.015  29.418  1.00  0.00     0.029 A 
ATOM     53  N   UNL A   1      44.051  31.533  29.602  1.00  0.00    -0.354 N 
ATOM     54  N   UNL A   1      41.225  32.143  30.225  1.00  0.00    -0.248 NA
ATOM     55  C   UNL A   1      39.598  33.597  31.061  1.00  0.00     0.031 C 
ATOM     56  C   UNL A   1      45.550  33.140  29.915  1.00  0.00     0.029 A 
ATOM     57  C   UNL A   1      44.199  32.844  30.018  1.00  0.00     0.049 A 
ATOM     58  H   UNL A   1      43.199  31.042  29.574  1.00  0.00     0.167 HD
ATOM     59  C   UNL A   1      41.826  33.349  30.555  1.00  0.00     0.074 A 
ATOM     60  C   UNL A   1      40.772  34.218  31.044  1.00  0.00     0.031 C 
ATOM     61  C   UNL A   1      43.133  33.700  30.471  1.00  0.00     0.034 A 
BRANCH  48  62
ATOM     62  C   UNL A   1      46.890  29.271  28.360  1.00  0.00     0.023 A 
ATOM     63  C   UNL A   1      47.355  29.582  27.066  1.00  0.00     0.012 A 
ATOM     64  C   UNL A   1      47.760  28.660  29.282  1.00  0.00     0.148 A 
ATOM     65  C   UNL A   1      48.664  29.279  26.691  1.00  0.00     0.002 A 
ATOM     66  C   UNL A   1      49.071  28.386  28.910  1.00  0.00     0.091 A 
ATOM     67  F   UNL A   1      47.289  28.360  30.501  1.00  0.00    -0.205 F 
ATOM     68  C   UNL A   1      49.523  28.691  27.615  1.00  0.00     0.022 A 
BRANCH  66  69
ATOM     69  S   UNL A   1      50.275  27.664  30.033  1.00  0.00     0.127 S 
ATOM     70  O   UNL A   1      50.317  28.666  31.099  1.00  0.00    -0.237 OA
ATOM     71  O   UNL A   1      49.631  26.405  30.403  1.00  0.00    -0.237 OA
ATOM     72  O   UNL A   1      51.507  27.524  29.269  1.00  0.00    -0.744 OA
ENDBRANCH  66  69
ENDBRANCH  48  62
BRANCH  49  73
ATOM     73  C   UNL A   1      37.419  31.648  30.599  1.00  0.00     0.023 A 
ATOM     74  C   UNL A   1      36.910  31.402  31.888  1.00  0.00     0.012 A 
ATOM     75  C   UNL A   1      36.623  32.326  29.656  1.00  0.00     0.148 A 
ATOM     76  C   UNL A   1      35.629  31.830  32.235  1.00  0.00     0.002 A 
ATOM     77  C   UNL A   1      35.360  32.780  30.019  1.00  0.00     0.091 A 
ATOM     78  F   UNL A   1      37.140  32.557  28.441  1.00  0.00    -0.205 F 
ATOM     79  C   UNL A   1      34.860  32.528  31.307  1.00  0.00     0.022 A 
BRANCH  77  80
ATOM     80  S   UNL A   1      34.331  33.771  28.931  1.00  0.00     0.127 S 
ATOM     81  O   UNL A   1      35.297  34.728  28.397  1.00  0.00    -0.237 OA
ATOM     82  O   UNL A   1      33.862  32.770  27.973  1.00  0.00    -0.237 OA
ATOM     83  O   UNL A   1      33.291  34.343  29.775  1.00  0.00    -0.744 OA
ENDBRANCH  77  80
ENDBRANCH  49  73
BRANCH  61  84
ATOM     84  C   UNL A   1      43.511  35.087  30.907  1.00  0.00     0.023 A 
ATOM     85  C   UNL A   1      44.052  35.284  32.192  1.00  0.00     0.012 A 
ATOM     86  C   UNL A   1      43.442  36.166  30.005  1.00  0.00     0.148 A 
ATOM     87  C   UNL A   1      44.510  36.543  32.578  1.00  0.00     0.002 A 
ATOM     88  C   UNL A   1      43.932  37.409  30.384  1.00  0.00     0.091 A 
ATOM     89  F   UNL A   1      42.915  35.950  28.792  1.00  0.00    -0.205 F 
ATOM     90  C   UNL A   1      44.461  37.600  31.672  1.00  0.00     0.022 A 
BRANCH  88  91
ATOM     91  S   UNL A   1      43.977  38.814  29.267  1.00  0.00     0.127 S 
ATOM     92  O   UNL A   1      44.558  39.852  30.118  1.00  0.00    -0.237 OA
ATOM     93  O   UNL A   1      44.860  38.333  28.204  1.00  0.00    -0.237 OA
ATOM     94  O   UNL A   1      42.600  39.049  28.856  1.00  0.00    -0.744 OA
ENDBRANCH  88  91
ENDBRANCH  61  84
ENDBRANCH  35  36
ENDBRANCH  28  30
ENDBRANCH  27  28
ENDBRANCH  26  27
ENDBRANCH  25  26
ENDBRANCH   1  25
TORSDOF 23
ENDMDL
MODEL 3
REMARK VINA RESULT:      -9.3      1.869      7.843
REMARK SMILES CCc1nc(=O)n([C@@H](CC)C(C)C)c(CC)c1CC(=O)OCCOCCOC(=O)c1ccc(-c2c3nc(c(-c4cccc(S(=O)(=O)[O-])c4F)c4ccc([nH]4)c(-c4cccc(S(=O)(=O)[O-])c4F)c4nc(c(-c5cccc(S(=O)(=O)[O-])c5F)c5ccc2[nH]5)C=C4)C=C3)cc1
REMARK SMILES IDX 24 1 23 2 22 3 21 4 19 5 20 6 18 7 17 8 3 9 4 10 5 11 14 12
REMARK SMILES IDX 6 13 7 14 2 15 1 16 15 17 16 18 8 19 9 20 10 21 11 22 12 23
REMARK SMILES IDX 13 24 25 25 26 26 27 27 28 28 29 29 30 30 31 31 92 32 32 33
REMARK SMILES IDX 91 34 33 35 34 36 35 37 85 38 36 39 90 40 84 41 86 42 37 43
REMARK SMILES IDX 89 44 83 45 82 46 38 48 70 49 50 50 69 51 51 52 54 53 68 54
REMARK SMILES IDX 87 55 52 56 53 57 67 59 88 60 55 61 39 62 40 63 48 64 41 65
REMARK SMILES IDX 43 66 49 67 42 68 44 69 45 70 46 71 47 72 71 73 72 74 80 75
REMARK SMILES IDX 73 76 75 77 81 78 74 79 76 80 77 81 78 82 79 83 56 84 57 85
REMARK SMILES IDX 65 86 58 87 60 88 66 89 59 90 61 91 62 92 63 93 64 94
REMARK H PARENT 86 47 54 58
REMARK Flexibility Score: inf
ROOT
ATOM      1  O   UNL A   1      38.543  21.791  26.163  1.00  0.00    -0.374 OA
ENDROOT
BRANCH   1   2
ATOM      2  C   UNL A   1      38.063  21.175  24.971  1.00  0.00     0.202 C 
BRANCH   2   3
ATOM      3  C   UNL A   1      36.593  21.408  24.562  1.00  0.00     0.261 C 
BRANCH   3   4
ATOM      4  O   UNL A   1      36.403  22.284  23.422  1.00  0.00    -0.463 OA
BRANCH   4   5
ATOM      5  C   UNL A   1      35.338  23.125  23.504  1.00  0.00     0.310 C 
ATOM      6  O   UNL A   1      34.638  23.456  22.551  1.00  0.00    -0.252 OA
BRANCH   5   7
ATOM      7  C   UNL A   1      34.947  23.532  24.926  1.00  0.00     0.162 C 
BRANCH   7   8
ATOM      8  C   UNL A   1      33.498  23.769  25.295  1.00  0.00     0.005 A 
ATOM      9  C   UNL A   1      32.814  22.661  26.048  1.00  0.00     0.051 A 
ATOM     10  N   UNL A   1      31.677  22.786  26.637  1.00  0.00    -0.198 NA
ATOM     11  C   UNL A   1      30.982  23.949  26.570  1.00  0.00     0.348 A 
ATOM     12  C   UNL A   1      32.804  24.945  25.246  1.00  0.00     0.028 A 
ATOM     13  O   UNL A   1      29.942  24.057  27.212  1.00  0.00    -0.246 OA
ATOM     14  N   UNL A   1      31.495  25.002  25.791  1.00  0.00    -0.293 N 
BRANCH   9  15
ATOM     15  C   UNL A   1      33.524  21.327  26.312  1.00  0.00     0.053 C 
ATOM     16  C   UNL A   1      33.100  20.220  25.355  1.00  0.00     0.011 C 
ENDBRANCH   9  15
BRANCH  12  17
ATOM     17  C   UNL A   1      33.508  26.266  24.845  1.00  0.00     0.051 C 
ATOM     18  C   UNL A   1      33.626  26.782  23.402  1.00  0.00     0.010 C 
ENDBRANCH  12  17
BRANCH  14  19
ATOM     19  C   UNL A   1      30.572  26.147  25.568  1.00  0.00     0.094 C 
BRANCH  19  20
ATOM     20  C   UNL A   1      31.203  27.498  26.012  1.00  0.00     0.022 C 
ATOM     21  C   UNL A   1      31.411  27.739  27.499  1.00  0.00     0.006 C 
ENDBRANCH  19  20
BRANCH  19  22
ATOM     22  C   UNL A   1      29.796  26.147  24.217  1.00  0.00     0.006 C 
ATOM     23  C   UNL A   1      29.995  27.474  23.471  1.00  0.00     0.009 C 
ATOM     24  C   UNL A   1      30.285  25.009  23.305  1.00  0.00     0.009 C 
ENDBRANCH  19  22
ENDBRANCH  14  19
ENDBRANCH   7   8
ENDBRANCH   5   7
ENDBRANCH   4   5
ENDBRANCH   3   4
ENDBRANCH   2   3
ENDBRANCH   1   2
BRANCH   1  25
ATOM     25  C   UNL A   1      39.926  21.673  26.452  1.00  0.00     0.202 C 
BRANCH  25  26
ATOM     26  C   UNL A   1      40.563  20.279  26.472  1.00  0.00     0.261 C 
BRANCH  26  27
ATOM     27  O   UNL A   1      41.939  20.233  26.814  1.00  0.00    -0.460 OA
BRANCH  27  28
ATOM     28  C   UNL A   1      42.784  20.458  25.787  1.00  0.00     0.338 C 
ATOM     29  O   UNL A   1      43.078  19.705  24.876  1.00  0.00    -0.246 OA
BRANCH  28  30
ATOM     30  C   UNL A   1      43.405  21.754  26.058  1.00  0.00     0.060 A 
ATOM     31  C   UNL A   1      43.262  22.764  25.107  1.00  0.00     0.016 A 
ATOM     32  C   UNL A   1      44.153  21.944  27.224  1.00  0.00     0.016 A 
ATOM     33  C   UNL A   1      43.882  23.989  25.325  1.00  0.00     0.010 A 
ATOM     34  C   UNL A   1      44.743  23.182  27.454  1.00  0.00     0.010 A 
ATOM     35  C   UNL A   1      44.607  24.210  26.508  1.00  0.00    -0.014 A 
BRANCH  35  36
ATOM     36  C   UNL A   1      45.146  25.551  26.812  1.00  0.00     0.031 A 
ATOM     37  C   UNL A   1      46.522  25.942  26.374  1.00  0.00     0.074 A 
ATOM     38  C   UNL A   1      44.386  26.387  27.542  1.00  0.00     0.049 A 
ATOM     39  N   UNL A   1      47.169  27.052  26.603  1.00  0.00    -0.248 NA
ATOM     40  C   UNL A   1      47.277  24.955  25.583  1.00  0.00     0.031 C 
ATOM     41  C   UNL A   1      43.044  26.080  28.046  1.00  0.00     0.029 A 
ATOM     42  N   UNL A   1      44.634  27.653  28.002  1.00  0.00    -0.354 N 
ATOM     43  C   UNL A   1      48.408  26.901  25.998  1.00  0.00     0.074 A 
ATOM     44  C   UNL A   1      48.435  25.579  25.411  1.00  0.00     0.031 C 
ATOM     45  C   UNL A   1      42.583  27.133  28.735  1.00  0.00     0.029 A 
ATOM     46  C   UNL A   1      43.606  28.173  28.750  1.00  0.00     0.049 A 
ATOM     47  H   UNL A   1      45.466  28.144  27.813  1.00  0.00     0.167 HD
ATOM     48  C   UNL A   1      49.418  27.799  25.921  1.00  0.00     0.034 A 
ATOM     49  C   UNL A   1      43.502  29.354  29.386  1.00  0.00     0.034 A 
ATOM     50  C   UNL A   1      49.369  29.113  26.501  1.00  0.00     0.049 A 
ATOM     51  C   UNL A   1      44.640  30.326  29.297  1.00  0.00     0.074 A 
ATOM     52  C   UNL A   1      50.329  30.108  26.458  1.00  0.00     0.029 A 
ATOM     53  N   UNL A   1      48.302  29.617  27.231  1.00  0.00    -0.354 N 
ATOM     54  N   UNL A   1      45.779  30.196  28.661  1.00  0.00    -0.248 NA
ATOM     55  C   UNL A   1      44.476  31.611  29.989  1.00  0.00     0.031 C 
ATOM     56  C   UNL A   1      49.848  31.209  27.172  1.00  0.00     0.029 A 
ATOM     57  C   UNL A   1      48.579  30.908  27.644  1.00  0.00     0.049 A 
ATOM     58  H   UNL A   1      47.471  29.127  27.427  1.00  0.00     0.167 HD
ATOM     59  C   UNL A   1      46.464  31.386  28.858  1.00  0.00     0.074 A 
ATOM     60  C   UNL A   1      45.604  32.232  29.665  1.00  0.00     0.031 C 
ATOM     61  C   UNL A   1      47.696  31.742  28.420  1.00  0.00     0.034 A 
BRANCH  48  62
ATOM     62  C   UNL A   1      50.640  27.414  25.133  1.00  0.00     0.023 A 
ATOM     63  C   UNL A   1      50.717  27.778  23.773  1.00  0.00     0.012 A 
ATOM     64  C   UNL A   1      51.733  26.769  25.742  1.00  0.00     0.148 A 
ATOM     65  C   UNL A   1      51.860  27.492  23.026  1.00  0.00     0.002 A 
ATOM     66  C   UNL A   1      52.879  26.513  24.999  1.00  0.00     0.091 A 
ATOM     67  F   UNL A   1      51.629  26.421  27.033  1.00  0.00    -0.205 F 
ATOM     68  C   UNL A   1      52.944  26.870  23.642  1.00  0.00     0.022 A 
BRANCH  66  69
ATOM     69  S   UNL A   1      54.348  25.751  25.700  1.00  0.00     0.127 S 
ATOM     70  O   UNL A   1      55.276  25.811  24.571  1.00  0.00    -0.237 OA
ATOM     71  O   UNL A   1      54.667  26.658  26.802  1.00  0.00    -0.237 OA
ATOM     72  O   UNL A   1      53.952  24.408  26.104  1.00  0.00    -0.744 OA
ENDBRANCH  66  69
ENDBRANCH  48  62
BRANCH  49  73
ATOM     73  C   UNL A   1      42.232  29.683  30.085  1.00  0.00     0.023 A 
ATOM     74  C   UNL A   1      41.140  30.150  29.330  1.00  0.00     0.012 A 
ATOM     75  C   UNL A   1      42.063  29.414  31.457  1.00  0.00     0.148 A 
ATOM     76  C   UNL A   1      39.897  30.343  29.932  1.00  0.00     0.002 A 
ATOM     77  C   UNL A   1      40.813  29.576  32.042  1.00  0.00     0.091 A 
ATOM     78  F   UNL A   1      43.119  28.957  32.146  1.00  0.00    -0.205 F 
ATOM     79  C   UNL A   1      39.730  30.045  31.282  1.00  0.00     0.022 A 
BRANCH  77  80
ATOM     80  S   UNL A   1      40.472  29.128  33.748  1.00  0.00     0.127 S 
ATOM     81  O   UNL A   1      40.713  27.687  33.733  1.00  0.00    -0.237 OA
ATOM     82  O   UNL A   1      41.475  29.913  34.468  1.00  0.00    -0.237 OA
ATOM     83  O   UNL A   1      39.093  29.525  33.997  1.00  0.00    -0.744 OA
ENDBRANCH  77  80
ENDBRANCH  49  73
BRANCH  61  84
ATOM     84  C   UNL A   1      48.201  33.108  28.790  1.00  0.00     0.023 A 
ATOM     85  C   UNL A   1      49.012  33.260  29.931  1.00  0.00     0.012 A 
ATOM     86  C   UNL A   1      47.970  34.210  27.944  1.00  0.00     0.148 A 
ATOM     87  C   UNL A   1      49.579  34.497  30.231  1.00  0.00     0.002 A 
ATOM     88  C   UNL A   1      48.567  35.431  28.231  1.00  0.00     0.091 A 
ATOM     89  F   UNL A   1      47.188  34.037  26.869  1.00  0.00    -0.205 F 
ATOM     90  C   UNL A   1      49.367  35.577  29.377  1.00  0.00     0.022 A 
BRANCH  88  91
ATOM     91  S   UNL A   1      48.411  36.861  27.157  1.00  0.00     0.127 S 
ATOM     92  O   UNL A   1      48.933  36.342  25.893  1.00  0.00    -0.237 OA
ATOM     93  O   UNL A   1      46.968  37.099  27.170  1.00  0.00    -0.237 OA
ATOM     94  O   UNL A   1      49.208  37.916  27.768  1.00  0.00    -0.744 OA
ENDBRANCH  88  91
ENDBRANCH  61  84
ENDBRANCH  35  36
ENDBRANCH  28  30
ENDBRANCH  27  28
ENDBRANCH  26  27
ENDBRANCH  25  26
ENDBRANCH   1  25
TORSDOF 23
ENDMDL
