MODEL 1
REMARK VINA RESULT:     -11.1      0.000      0.000
REMARK SMILES COc1ccc2c(c1)C=C(C(=O)OCCOCCOC(=O)c1ccc(-c3c4nc(c(-c5cccc(S(=O)(=O)[O-])c5F)c5ccc([nH]5)c(-c5cccc(S(=O)(=O)[O-])c5F)c5nc(c(-c6cccc(S(=O)(=O)[O-])c6F)c6ccc3[nH]6)C=C5)C=C4)cc1)[C@H](C(F)(F)F)O2
REMARK SMILES IDX 17 1 16 2 15 3 14 4 13 5 11 6 12 7 10 8 3 9 4 10 8 11 5 12
REMARK SMILES IDX 7 13 6 14 9 15 90 16 85 17 2 18 1 19 86 20 87 21 88 22 89 23
REMARK SMILES IDX 18 24 19 25 20 26 21 27 22 28 23 29 84 30 24 31 83 32 25 33
REMARK SMILES IDX 26 34 27 35 77 36 28 37 82 38 76 39 78 40 29 41 81 42 75 43
REMARK SMILES IDX 74 44 30 46 62 47 42 48 61 49 43 50 46 51 60 52 79 53 44 54
REMARK SMILES IDX 45 55 59 57 80 58 47 59 31 60 32 61 40 62 33 63 35 64 41 65
REMARK SMILES IDX 34 66 36 67 37 68 38 69 39 70 63 71 64 72 72 73 65 74 67 75
REMARK SMILES IDX 73 76 66 77 68 78 69 79 70 80 71 81 48 82 49 83 57 84 50 85
REMARK SMILES IDX 52 86 58 87 51 88 53 89 54 90 55 91 56 92
REMARK H PARENT 78 45 46 56
REMARK Flexibility Score: inf
ROOT
ATOM      1  C   UNL A   1      32.059  29.775  25.228  1.00  0.00     0.202 C 
ENDROOT
BRANCH   1   2
ATOM      2  O   UNL A   1      31.065  28.753  25.199  1.00  0.00    -0.374 OA
BRANCH   2   3
ATOM      3  C   UNL A   1      30.679  28.221  23.934  1.00  0.00     0.202 C 
BRANCH   3   4
ATOM      4  C   UNL A   1      29.829  26.947  23.921  1.00  0.00     0.261 C 
BRANCH   4   5
ATOM      5  O   UNL A   1      30.624  25.762  24.073  1.00  0.00    -0.460 OA
BRANCH   5   6
ATOM      6  C   UNL A   1      30.708  25.294  25.340  1.00  0.00     0.338 C 
ATOM      7  O   UNL A   1      30.020  25.637  26.289  1.00  0.00    -0.246 OA
BRANCH   6   8
ATOM      8  C   UNL A   1      31.669  24.182  25.425  1.00  0.00     0.087 C 
ATOM      9  C   UNL A   1      33.021  19.596  24.798  1.00  0.00     0.119 A 
ATOM     10  C   UNL A   1      34.344  20.020  24.659  1.00  0.00     0.050 A 
ATOM     11  C   UNL A   1      32.007  20.540  25.011  1.00  0.00     0.058 A 
ATOM     12  C   UNL A   1      34.659  21.375  24.765  1.00  0.00     0.051 A 
ATOM     13  C   UNL A   1      32.314  21.900  25.109  1.00  0.00     0.021 A 
ATOM     14  C   UNL A   1      33.651  22.303  25.005  1.00  0.00     0.128 A 
ATOM     15  C   UNL A   1      31.270  22.922  25.182  1.00  0.00     0.027 C 
ATOM     16  O   UNL A   1      34.031  23.619  25.055  1.00  0.00    -0.475 OA
ATOM     17  C   UNL A   1      33.109  24.476  25.781  1.00  0.00     0.316 C 
BRANCH   9  18
ATOM     18  O   UNL A   1      32.590  18.303  24.683  1.00  0.00    -0.497 OA
ATOM     19  C   UNL A   1      33.080  17.565  23.571  1.00  0.00     0.278 C 
ENDBRANCH   9  18
BRANCH  17  20
ATOM     20  C   UNL A   1      33.620  25.924  25.685  1.00  0.00     0.430 C 
ATOM     21  F   UNL A   1      32.996  26.729  26.577  1.00  0.00    -0.167 F 
ATOM     22  F   UNL A   1      34.941  25.970  26.015  1.00  0.00    -0.167 F 
ATOM     23  F   UNL A   1      33.510  26.456  24.452  1.00  0.00    -0.167 F 
ENDBRANCH  17  20
ENDBRANCH   6   8
ENDBRANCH   5   6
ENDBRANCH   4   5
ENDBRANCH   3   4
ENDBRANCH   2   3
ENDBRANCH   1   2
BRANCH   1  24
ATOM     24  C   UNL A   1      31.785  31.046  26.045  1.00  0.00     0.261 C 
BRANCH  24  25
ATOM     25  O   UNL A   1      32.457  31.061  27.314  1.00  0.00    -0.460 OA
BRANCH  25  26
ATOM     26  C   UNL A   1      33.324  32.089  27.479  1.00  0.00     0.338 C 
ATOM     27  O   UNL A   1      33.066  33.285  27.440  1.00  0.00    -0.246 OA
BRANCH  26  28
ATOM     28  C   UNL A   1      34.634  31.577  27.913  1.00  0.00     0.060 A 
ATOM     29  C   UNL A   1      34.769  30.193  28.088  1.00  0.00     0.016 A 
ATOM     30  C   UNL A   1      35.686  32.441  28.218  1.00  0.00     0.016 A 
ATOM     31  C   UNL A   1      35.947  29.669  28.613  1.00  0.00     0.010 A 
ATOM     32  C   UNL A   1      36.864  31.912  28.754  1.00  0.00     0.010 A 
ATOM     33  C   UNL A   1      36.986  30.530  28.986  1.00  0.00    -0.014 A 
BRANCH  33  34
ATOM     34  C   UNL A   1      38.143  30.002  29.746  1.00  0.00     0.031 A 
ATOM     35  C   UNL A   1      38.377  30.490  31.149  1.00  0.00     0.074 A 
ATOM     36  C   UNL A   1      38.979  29.108  29.189  1.00  0.00     0.049 A 
ATOM     37  N   UNL A   1      39.354  30.211  31.971  1.00  0.00    -0.248 NA
ATOM     38  C   UNL A   1      37.377  31.421  31.699  1.00  0.00     0.031 C 
ATOM     39  C   UNL A   1      38.848  28.557  27.841  1.00  0.00     0.029 A 
ATOM     40  N   UNL A   1      40.122  28.531  29.682  1.00  0.00    -0.354 N 
ATOM     41  C   UNL A   1      39.110  30.957  33.118  1.00  0.00     0.074 A 
ATOM     42  C   UNL A   1      37.896  31.708  32.884  1.00  0.00     0.031 C 
ATOM     43  C   UNL A   1      39.891  27.744  27.601  1.00  0.00     0.029 A 
ATOM     44  C   UNL A   1      40.776  27.742  28.765  1.00  0.00     0.049 A 
ATOM     45  H   UNL A   1      40.443  28.668  30.602  1.00  0.00     0.167 HD
ATOM     46  C   UNL A   1      39.825  31.002  34.266  1.00  0.00     0.034 A 
ATOM     47  C   UNL A   1      41.966  27.117  28.846  1.00  0.00     0.034 A 
ATOM     48  C   UNL A   1      41.021  30.239  34.500  1.00  0.00     0.049 A 
ATOM     49  C   UNL A   1      42.757  27.205  30.125  1.00  0.00     0.074 A 
ATOM     50  C   UNL A   1      41.791  30.176  35.648  1.00  0.00     0.029 A 
ATOM     51  N   UNL A   1      41.630  29.416  33.565  1.00  0.00    -0.354 N 
ATOM     52  N   UNL A   1      42.458  27.825  31.241  1.00  0.00    -0.248 NA
ATOM     53  C   UNL A   1      44.036  26.482  30.168  1.00  0.00     0.031 C 
ATOM     54  C   UNL A   1      42.884  29.343  35.395  1.00  0.00     0.029 A 
ATOM     55  C   UNL A   1      42.775  28.854  34.103  1.00  0.00     0.049 A 
ATOM     56  H   UNL A   1      41.297  29.255  32.652  1.00  0.00     0.167 HD
ATOM     57  C   UNL A   1      43.487  27.533  32.130  1.00  0.00     0.074 A 
ATOM     58  C   UNL A   1      44.412  26.668  31.427  1.00  0.00     0.031 C 
ATOM     59  C   UNL A   1      43.657  27.951  33.409  1.00  0.00     0.034 A 
BRANCH  46  60
ATOM     60  C   UNL A   1      39.327  31.900  35.367  1.00  0.00     0.023 A 
ATOM     61  C   UNL A   1      38.407  31.405  36.315  1.00  0.00     0.012 A 
ATOM     62  C   UNL A   1      39.810  33.217  35.497  1.00  0.00     0.148 A 
ATOM     63  C   UNL A   1      37.952  32.217  37.353  1.00  0.00     0.002 A 
ATOM     64  C   UNL A   1      39.387  34.004  36.562  1.00  0.00     0.091 A 
ATOM     65  F   UNL A   1      40.666  33.677  34.574  1.00  0.00    -0.205 F 
ATOM     66  C   UNL A   1      38.450  33.511  37.483  1.00  0.00     0.022 A 
BRANCH  64  67
ATOM     67  S   UNL A   1      40.031  35.654  36.861  1.00  0.00     0.127 S 
ATOM     68  O   UNL A   1      41.471  35.401  36.925  1.00  0.00    -0.237 OA
ATOM     69  O   UNL A   1      39.592  36.376  35.668  1.00  0.00    -0.237 OA
ATOM     70  O   UNL A   1      39.422  36.105  38.104  1.00  0.00    -0.744 OA
ENDBRANCH  64  67
ENDBRANCH  46  60
BRANCH  47  71
ATOM     71  C   UNL A   1      42.475  26.330  27.687  1.00  0.00     0.023 A 
ATOM     72  C   UNL A   1      43.367  26.929  26.776  1.00  0.00     0.012 A 
ATOM     73  C   UNL A   1      42.091  24.989  27.493  1.00  0.00     0.148 A 
ATOM     74  C   UNL A   1      43.842  26.215  25.674  1.00  0.00     0.002 A 
ATOM     75  C   UNL A   1      42.611  24.267  26.426  1.00  0.00     0.091 A 
ATOM     76  F   UNL A   1      41.230  24.442  28.363  1.00  0.00    -0.205 F 
ATOM     77  C   UNL A   1      43.472  24.884  25.505  1.00  0.00     0.022 A 
BRANCH  75  78
ATOM     78  S   UNL A   1      42.294  22.514  26.202  1.00  0.00     0.127 S 
ATOM     79  O   UNL A   1      42.786  21.958  27.461  1.00  0.00    -0.237 OA
ATOM     80  O   UNL A   1      40.840  22.490  26.043  1.00  0.00    -0.237 OA
ATOM     81  O   UNL A   1      43.036  22.129  25.009  1.00  0.00    -0.744 OA
ENDBRANCH  75  78
ENDBRANCH  47  71
BRANCH  59  82
ATOM     82  C   UNL A   1      44.860  27.442  34.161  1.00  0.00     0.023 A 
ATOM     83  C   UNL A   1      46.054  28.189  34.173  1.00  0.00     0.012 A 
ATOM     84  C   UNL A   1      44.776  26.261  34.926  1.00  0.00     0.148 A 
ATOM     85  C   UNL A   1      47.155  27.751  34.909  1.00  0.00     0.002 A 
ATOM     86  C   UNL A   1      45.858  25.858  35.697  1.00  0.00     0.091 A 
ATOM     87  F   UNL A   1      43.635  25.556  34.888  1.00  0.00    -0.205 F 
ATOM     88  C   UNL A   1      47.053  26.595  35.679  1.00  0.00     0.022 A 
BRANCH  86  89
ATOM     89  S   UNL A   1      45.786  24.441  36.797  1.00  0.00     0.127 S 
ATOM     90  O   UNL A   1      47.114  24.469  37.408  1.00  0.00    -0.237 OA
ATOM     91  O   UNL A   1      44.692  24.805  37.699  1.00  0.00    -0.237 OA
ATOM     92  O   UNL A   1      45.513  23.287  35.952  1.00  0.00    -0.744 OA
ENDBRANCH  86  89
ENDBRANCH  59  82
ENDBRANCH  33  34
ENDBRANCH  26  28
ENDBRANCH  25  26
ENDBRANCH  24  25
ENDBRANCH   1  24
TORSDOF 19
ENDMDL
MODEL 2
REMARK VINA RESULT:     -11.0      0.951      7.802
REMARK SMILES COc1ccc2c(c1)C=C(C(=O)OCCOCCOC(=O)c1ccc(-c3c4nc(c(-c5cccc(S(=O)(=O)[O-])c5F)c5ccc([nH]5)c(-c5cccc(S(=O)(=O)[O-])c5F)c5nc(c(-c6cccc(S(=O)(=O)[O-])c6F)c6ccc3[nH]6)C=C5)C=C4)cc1)[C@H](C(F)(F)F)O2
REMARK SMILES IDX 17 1 16 2 15 3 14 4 13 5 11 6 12 7 10 8 3 9 4 10 8 11 5 12
REMARK SMILES IDX 7 13 6 14 9 15 90 16 85 17 2 18 1 19 86 20 87 21 88 22 89 23
REMARK SMILES IDX 18 24 19 25 20 26 21 27 22 28 23 29 84 30 24 31 83 32 25 33
REMARK SMILES IDX 26 34 27 35 77 36 28 37 82 38 76 39 78 40 29 41 81 42 75 43
REMARK SMILES IDX 74 44 30 46 62 47 42 48 61 49 43 50 46 51 60 52 79 53 44 54
REMARK SMILES IDX 45 55 59 57 80 58 47 59 31 60 32 61 40 62 33 63 35 64 41 65
REMARK SMILES IDX 34 66 36 67 37 68 38 69 39 70 63 71 64 72 72 73 65 74 67 75
REMARK SMILES IDX 73 76 66 77 68 78 69 79 70 80 71 81 48 82 49 83 57 84 50 85
REMARK SMILES IDX 52 86 58 87 51 88 53 89 54 90 55 91 56 92
REMARK H PARENT 78 45 46 56
REMARK Flexibility Score: inf
ROOT
ATOM      1  C   UNL A   1      31.279  29.154  24.980  1.00  0.00     0.202 C 
ENDROOT
BRANCH   1   2
ATOM      2  O   UNL A   1      31.187  29.140  23.557  1.00  0.00    -0.374 OA
BRANCH   2   3
ATOM      3  C   UNL A   1      30.635  27.987  22.927  1.00  0.00     0.202 C 
BRANCH   3   4
ATOM      4  C   UNL A   1      31.574  27.100  22.104  1.00  0.00     0.261 C 
BRANCH   4   5
ATOM      5  O   UNL A   1      31.512  25.724  22.506  1.00  0.00    -0.460 OA
BRANCH   5   6
ATOM      6  C   UNL A   1      32.701  25.079  22.507  1.00  0.00     0.338 C 
ATOM      7  O   UNL A   1      33.743  25.473  22.004  1.00  0.00    -0.246 OA
BRANCH   6   8
ATOM      8  C   UNL A   1      32.636  23.860  23.330  1.00  0.00     0.087 C 
ATOM      9  C   UNL A   1      32.652  19.080  23.964  1.00  0.00     0.119 A 
ATOM     10  C   UNL A   1      33.195  19.265  25.237  1.00  0.00     0.050 A 
ATOM     11  C   UNL A   1      32.387  20.192  23.153  1.00  0.00     0.058 A 
ATOM     12  C   UNL A   1      33.443  20.553  25.712  1.00  0.00     0.051 A 
ATOM     13  C   UNL A   1      32.642  21.485  23.618  1.00  0.00     0.021 A 
ATOM     14  C   UNL A   1      33.151  21.654  24.911  1.00  0.00     0.128 A 
ATOM     15  C   UNL A   1      32.517  22.654  22.748  1.00  0.00     0.027 C 
ATOM     16  O   UNL A   1      33.459  22.884  25.429  1.00  0.00    -0.475 OA
ATOM     17  C   UNL A   1      32.714  23.981  24.836  1.00  0.00     0.316 C 
BRANCH   9  18
ATOM     18  O   UNL A   1      32.396  17.869  23.383  1.00  0.00    -0.497 OA
ATOM     19  C   UNL A   1      33.524  17.051  23.095  1.00  0.00     0.278 C 
ENDBRANCH   9  18
BRANCH  17  20
ATOM     20  C   UNL A   1      33.219  25.297  25.452  1.00  0.00     0.430 C 
ATOM     21  F   UNL A   1      32.367  26.319  25.206  1.00  0.00    -0.167 F 
ATOM     22  F   UNL A   1      33.268  25.182  26.809  1.00  0.00    -0.167 F 
ATOM     23  F   UNL A   1      34.457  25.643  25.049  1.00  0.00    -0.167 F 
ENDBRANCH  17  20
ENDBRANCH   6   8
ENDBRANCH   5   6
ENDBRANCH   4   5
ENDBRANCH   3   4
ENDBRANCH   2   3
ENDBRANCH   1   2
BRANCH   1  24
ATOM     24  C   UNL A   1      31.587  30.482  25.685  1.00  0.00     0.261 C 
BRANCH  24  25
ATOM     25  O   UNL A   1      32.486  30.340  26.796  1.00  0.00    -0.460 OA
BRANCH  25  26
ATOM     26  C   UNL A   1      33.136  31.478  27.143  1.00  0.00     0.338 C 
ATOM     27  O   UNL A   1      32.664  32.605  27.213  1.00  0.00    -0.246 OA
BRANCH  26  28
ATOM     28  C   UNL A   1      34.490  31.157  27.624  1.00  0.00     0.060 A 
ATOM     29  C   UNL A   1      34.773  29.819  27.930  1.00  0.00     0.016 A 
ATOM     30  C   UNL A   1      35.437  32.156  27.846  1.00  0.00     0.016 A 
ATOM     31  C   UNL A   1      35.996  29.479  28.503  1.00  0.00     0.010 A 
ATOM     32  C   UNL A   1      36.659  31.813  28.430  1.00  0.00     0.010 A 
ATOM     33  C   UNL A   1      36.930  30.481  28.793  1.00  0.00    -0.014 A 
BRANCH  33  34
ATOM     34  C   UNL A   1      38.130  30.158  29.601  1.00  0.00     0.031 A 
ATOM     35  C   UNL A   1      39.156  29.216  29.036  1.00  0.00     0.074 A 
ATOM     36  C   UNL A   1      38.295  30.691  30.824  1.00  0.00     0.049 A 
ATOM     37  N   UNL A   1      40.245  28.750  29.589  1.00  0.00    -0.248 NA
ATOM     38  C   UNL A   1      38.922  28.730  27.666  1.00  0.00     0.031 C 
ATOM     39  C   UNL A   1      37.372  31.622  31.471  1.00  0.00     0.029 A 
ATOM     40  N   UNL A   1      39.287  30.497  31.752  1.00  0.00    -0.354 N 
ATOM     41  C   UNL A   1      40.806  27.889  28.653  1.00  0.00     0.074 A 
ATOM     42  C   UNL A   1      39.934  27.891  27.500  1.00  0.00     0.031 C 
ATOM     43  C   UNL A   1      37.825  31.895  32.706  1.00  0.00     0.029 A 
ATOM     44  C   UNL A   1      39.051  31.135  32.947  1.00  0.00     0.049 A 
ATOM     45  H   UNL A   1      40.091  29.955  31.580  1.00  0.00     0.167 HD
ATOM     46  C   UNL A   1      41.952  27.173  28.743  1.00  0.00     0.034 A 
ATOM     47  C   UNL A   1      39.730  31.086  34.109  1.00  0.00     0.034 A 
ATOM     48  C   UNL A   1      42.825  27.190  29.885  1.00  0.00     0.049 A 
ATOM     49  C   UNL A   1      40.986  30.259  34.193  1.00  0.00     0.074 A 
ATOM     50  C   UNL A   1      44.034  26.538  30.054  1.00  0.00     0.029 A 
ATOM     51  N   UNL A   1      42.576  27.882  31.060  1.00  0.00    -0.354 N 
ATOM     52  N   UNL A   1      41.564  29.539  33.262  1.00  0.00    -0.248 NA
ATOM     53  C   UNL A   1      41.702  30.263  35.477  1.00  0.00     0.031 C 
ATOM     54  C   UNL A   1      44.498  26.809  31.344  1.00  0.00     0.029 A 
ATOM     55  C   UNL A   1      43.600  27.662  31.965  1.00  0.00     0.049 A 
ATOM     56  H   UNL A   1      41.787  28.448  31.227  1.00  0.00     0.167 HD
ATOM     57  C   UNL A   1      42.730  29.039  33.833  1.00  0.00     0.074 A 
ATOM     58  C   UNL A   1      42.783  29.551  35.187  1.00  0.00     0.031 C 
ATOM     59  C   UNL A   1      43.667  28.222  33.290  1.00  0.00     0.034 A 
BRANCH  46  60
ATOM     60  C   UNL A   1      42.336  26.316  27.565  1.00  0.00     0.023 A 
ATOM     61  C   UNL A   1      43.150  26.849  26.545  1.00  0.00     0.012 A 
ATOM     62  C   UNL A   1      41.936  24.966  27.495  1.00  0.00     0.148 A 
ATOM     63  C   UNL A   1      43.533  26.063  25.459  1.00  0.00     0.002 A 
ATOM     64  C   UNL A   1      42.361  24.177  26.434  1.00  0.00     0.091 A 
ATOM     65  F   UNL A   1      41.143  24.484  28.463  1.00  0.00    -0.205 F 
ATOM     66  C   UNL A   1      43.149  24.725  25.409  1.00  0.00     0.022 A 
BRANCH  64  67
ATOM     67  S   UNL A   1      41.985  22.424  26.320  1.00  0.00     0.127 S 
ATOM     68  O   UNL A   1      40.527  22.443  26.199  1.00  0.00    -0.237 OA
ATOM     69  O   UNL A   1      42.693  22.036  25.100  1.00  0.00    -0.237 OA
ATOM     70  O   UNL A   1      42.501  21.822  27.541  1.00  0.00    -0.744 OA
ENDBRANCH  64  67
ENDBRANCH  46  60
BRANCH  47  71
ATOM     71  C   UNL A   1      39.249  31.863  35.286  1.00  0.00     0.023 A 
ATOM     72  C   UNL A   1      38.372  31.260  36.209  1.00  0.00     0.012 A 
ATOM     73  C   UNL A   1      39.667  33.191  35.503  1.00  0.00     0.148 A 
ATOM     74  C   UNL A   1      37.895  31.974  37.309  1.00  0.00     0.002 A 
ATOM     75  C   UNL A   1      39.234  33.878  36.630  1.00  0.00     0.091 A 
ATOM     76  F   UNL A   1      40.490  33.751  34.607  1.00  0.00    -0.205 F 
ATOM     77  C   UNL A   1      38.333  33.279  37.524  1.00  0.00     0.022 A 
BRANCH  75  78
ATOM     78  S   UNL A   1      39.845  35.511  37.058  1.00  0.00     0.127 S 
ATOM     79  O   UNL A   1      39.007  35.853  38.205  1.00  0.00    -0.237 OA
ATOM     80  O   UNL A   1      41.245  35.233  37.377  1.00  0.00    -0.237 OA
ATOM     81  O   UNL A   1      39.650  36.329  35.868  1.00  0.00    -0.744 OA
ENDBRANCH  75  78
ENDBRANCH  47  71
BRANCH  59  82
ATOM     82  C   UNL A   1      44.864  27.866  34.135  1.00  0.00     0.023 A 
ATOM     83  C   UNL A   1      45.999  28.699  34.137  1.00  0.00     0.012 A 
ATOM     84  C   UNL A   1      44.826  26.747  34.991  1.00  0.00     0.148 A 
ATOM     85  C   UNL A   1      47.090  28.406  34.955  1.00  0.00     0.002 A 
ATOM     86  C   UNL A   1      45.894  26.490  35.840  1.00  0.00     0.091 A 
ATOM     87  F   UNL A   1      43.742  25.957  34.961  1.00  0.00    -0.205 F 
ATOM     88  C   UNL A   1      47.033  27.311  35.814  1.00  0.00     0.022 A 
BRANCH  86  89
ATOM     89  S   UNL A   1      45.868  25.163  37.050  1.00  0.00     0.127 S 
ATOM     90  O   UNL A   1      44.665  25.485  37.818  1.00  0.00    -0.237 OA
ATOM     91  O   UNL A   1      45.752  23.975  36.204  1.00  0.00    -0.237 OA
ATOM     92  O   UNL A   1      47.121  25.262  37.785  1.00  0.00    -0.744 OA
ENDBRANCH  86  89
ENDBRANCH  59  82
ENDBRANCH  33  34
ENDBRANCH  26  28
ENDBRANCH  25  26
ENDBRANCH  24  25
ENDBRANCH   1  24
TORSDOF 19
ENDMDL
MODEL 3
REMARK VINA RESULT:     -11.0      4.780      9.853
REMARK SMILES COc1ccc2c(c1)C=C(C(=O)OCCOCCOC(=O)c1ccc(-c3c4nc(c(-c5cccc(S(=O)(=O)[O-])c5F)c5ccc([nH]5)c(-c5cccc(S(=O)(=O)[O-])c5F)c5nc(c(-c6cccc(S(=O)(=O)[O-])c6F)c6ccc3[nH]6)C=C5)C=C4)cc1)[C@H](C(F)(F)F)O2
REMARK SMILES IDX 17 1 16 2 15 3 14 4 13 5 11 6 12 7 10 8 3 9 4 10 8 11 5 12
REMARK SMILES IDX 7 13 6 14 9 15 90 16 85 17 2 18 1 19 86 20 87 21 88 22 89 23
REMARK SMILES IDX 18 24 19 25 20 26 21 27 22 28 23 29 84 30 24 31 83 32 25 33
REMARK SMILES IDX 26 34 27 35 77 36 28 37 82 38 76 39 78 40 29 41 81 42 75 43
REMARK SMILES IDX 74 44 30 46 62 47 42 48 61 49 43 50 46 51 60 52 79 53 44 54
REMARK SMILES IDX 45 55 59 57 80 58 47 59 31 60 32 61 40 62 33 63 35 64 41 65
REMARK SMILES IDX 34 66 36 67 37 68 38 69 39 70 63 71 64 72 72 73 65 74 67 75
REMARK SMILES IDX 73 76 66 77 68 78 69 79 70 80 71 81 48 82 49 83 57 84 50 85
REMARK SMILES IDX 52 86 58 87 51 88 53 89 54 90 55 91 56 92
REMARK H PARENT 78 45 46 56
REMARK Flexibility Score: inf
ROOT
ATOM      1  C   UNL A   1      36.241  21.009  24.987  1.00  0.00     0.202 C 
ENDROOT
BRANCH   1   2
ATOM      2  O   UNL A   1      35.795  21.668  26.171  1.00  0.00    -0.374 OA
BRANCH   2   3
ATOM      3  C   UNL A   1      35.576  23.075  26.120  1.00  0.00     0.202 C 
BRANCH   3   4
ATOM      4  C   UNL A   1      34.266  23.618  26.700  1.00  0.00     0.261 C 
BRANCH   4   5
ATOM      5  O   UNL A   1      33.419  24.184  25.689  1.00  0.00    -0.460 OA
BRANCH   5   6
ATOM      6  C   UNL A   1      32.278  23.496  25.455  1.00  0.00     0.338 C 
ATOM      7  O   UNL A   1      31.137  23.919  25.567  1.00  0.00    -0.246 OA
BRANCH   6   8
ATOM      8  C   UNL A   1      32.573  22.167  24.895  1.00  0.00     0.087 C 
ATOM      9  C   UNL A   1      32.538  17.346  24.991  1.00  0.00     0.119 A 
ATOM     10  C   UNL A   1      32.504  17.333  23.595  1.00  0.00     0.050 A 
ATOM     11  C   UNL A   1      32.549  18.569  25.674  1.00  0.00     0.058 A 
ATOM     12  C   UNL A   1      32.513  18.533  22.883  1.00  0.00     0.051 A 
ATOM     13  C   UNL A   1      32.549  19.776  24.969  1.00  0.00     0.021 A 
ATOM     14  C   UNL A   1      32.552  19.743  23.569  1.00  0.00     0.128 A 
ATOM     15  C   UNL A   1      32.410  21.064  25.647  1.00  0.00     0.027 C 
ATOM     16  O   UNL A   1      32.517  20.879  22.804  1.00  0.00    -0.475 OA
ATOM     17  C   UNL A   1      33.053  22.057  23.465  1.00  0.00     0.316 C 
BRANCH   9  18
ATOM     18  O   UNL A   1      32.503  16.238  25.792  1.00  0.00    -0.497 OA
ATOM     19  C   UNL A   1      33.218  15.098  25.333  1.00  0.00     0.278 C 
ENDBRANCH   9  18
BRANCH  17  20
ATOM     20  C   UNL A   1      32.875  23.261  22.525  1.00  0.00     0.430 C 
ATOM     21  F   UNL A   1      31.652  23.824  22.667  1.00  0.00    -0.167 F 
ATOM     22  F   UNL A   1      33.765  24.239  22.853  1.00  0.00    -0.167 F 
ATOM     23  F   UNL A   1      33.082  22.969  21.226  1.00  0.00    -0.167 F 
ENDBRANCH  17  20
ENDBRANCH   6   8
ENDBRANCH   5   6
ENDBRANCH   4   5
ENDBRANCH   3   4
ENDBRANCH   2   3
ENDBRANCH   1   2
BRANCH   1  24
ATOM     24  C   UNL A   1      37.552  20.212  25.036  1.00  0.00     0.261 C 
BRANCH  24  25
ATOM     25  O   UNL A   1      38.722  21.044  25.050  1.00  0.00    -0.460 OA
BRANCH  25  26
ATOM     26  C   UNL A   1      39.510  20.890  26.142  1.00  0.00     0.338 C 
ATOM     27  O   UNL A   1      40.004  19.848  26.554  1.00  0.00    -0.246 OA
BRANCH  26  28
ATOM     28  C   UNL A   1      39.869  22.207  26.693  1.00  0.00     0.060 A 
ATOM     29  C   UNL A   1      39.214  23.332  26.173  1.00  0.00     0.016 A 
ATOM     30  C   UNL A   1      40.881  22.345  27.643  1.00  0.00     0.016 A 
ATOM     31  C   UNL A   1      39.601  24.609  26.572  1.00  0.00     0.010 A 
ATOM     32  C   UNL A   1      41.274  23.628  28.032  1.00  0.00     0.010 A 
ATOM     33  C   UNL A   1      40.661  24.764  27.473  1.00  0.00    -0.014 A 
BRANCH  33  34
ATOM     34  C   UNL A   1      41.221  26.113  27.726  1.00  0.00     0.031 A 
ATOM     35  C   UNL A   1      42.601  26.434  27.225  1.00  0.00     0.074 A 
ATOM     36  C   UNL A   1      40.511  27.034  28.402  1.00  0.00     0.049 A 
ATOM     37  N   UNL A   1      43.308  27.523  27.384  1.00  0.00    -0.248 NA
ATOM     38  C   UNL A   1      43.280  25.387  26.443  1.00  0.00     0.031 C 
ATOM     39  C   UNL A   1      39.161  26.839  28.928  1.00  0.00     0.029 A 
ATOM     40  N   UNL A   1      40.844  28.307  28.787  1.00  0.00    -0.354 N 
ATOM     41  C   UNL A   1      44.524  27.280  26.758  1.00  0.00     0.074 A 
ATOM     42  C   UNL A   1      44.464  25.939  26.222  1.00  0.00     0.031 C 
ATOM     43  C   UNL A   1      38.791  27.945  29.597  1.00  0.00     0.029 A 
ATOM     44  C   UNL A   1      39.889  28.910  29.572  1.00  0.00     0.049 A 
ATOM     45  H   UNL A   1      41.686  28.749  28.528  1.00  0.00     0.167 HD
ATOM     46  C   UNL A   1      45.589  28.106  26.629  1.00  0.00     0.034 A 
ATOM     47  C   UNL A   1      39.912  30.090  30.220  1.00  0.00     0.034 A 
ATOM     48  C   UNL A   1      45.636  29.446  27.149  1.00  0.00     0.049 A 
ATOM     49  C   UNL A   1      41.121  30.980  30.084  1.00  0.00     0.074 A 
ATOM     50  C   UNL A   1      46.649  30.380  27.028  1.00  0.00     0.029 A 
ATOM     51  N   UNL A   1      44.632  30.039  27.900  1.00  0.00    -0.354 N 
ATOM     52  N   UNL A   1      42.219  30.783  29.395  1.00  0.00    -0.248 NA
ATOM     53  C   UNL A   1      41.082  32.269  30.791  1.00  0.00     0.031 C 
ATOM     54  C   UNL A   1      46.273  31.525  27.737  1.00  0.00     0.029 A 
ATOM     55  C   UNL A   1      45.008  31.320  28.264  1.00  0.00     0.049 A 
ATOM     56  H   UNL A   1      43.779  29.611  28.139  1.00  0.00     0.167 HD
ATOM     57  C   UNL A   1      42.981  31.936  29.550  1.00  0.00     0.074 A 
ATOM     58  C   UNL A   1      42.212  32.834  30.387  1.00  0.00     0.031 C 
ATOM     59  C   UNL A   1      44.210  32.223  29.053  1.00  0.00     0.034 A 
BRANCH  46  60
ATOM     60  C   UNL A   1      46.792  27.587  25.886  1.00  0.00     0.023 A 
ATOM     61  C   UNL A   1      46.912  27.815  24.500  1.00  0.00     0.012 A 
ATOM     62  C   UNL A   1      47.830  26.923  26.570  1.00  0.00     0.148 A 
ATOM     63  C   UNL A   1      48.029  27.361  23.801  1.00  0.00     0.002 A 
ATOM     64  C   UNL A   1      48.961  26.515  25.874  1.00  0.00     0.091 A 
ATOM     65  F   UNL A   1      47.687  26.696  27.883  1.00  0.00    -0.205 F 
ATOM     66  C   UNL A   1      49.059  26.722  24.488  1.00  0.00     0.022 A 
BRANCH  64  67
ATOM     67  S   UNL A   1      50.374  25.756  26.683  1.00  0.00     0.127 S 
ATOM     68  O   UNL A   1      51.265  25.508  25.549  1.00  0.00    -0.237 OA
ATOM     69  O   UNL A   1      50.819  26.818  27.585  1.00  0.00    -0.237 OA
ATOM     70  O   UNL A   1      49.865  24.565  27.348  1.00  0.00    -0.744 OA
ENDBRANCH  64  67
ENDBRANCH  46  60
BRANCH  47  71
ATOM     71  C   UNL A   1      38.742  30.514  31.038  1.00  0.00     0.023 A 
ATOM     72  C   UNL A   1      38.699  30.196  32.410  1.00  0.00     0.012 A 
ATOM     73  C   UNL A   1      37.679  31.242  30.469  1.00  0.00     0.148 A 
ATOM     74  C   UNL A   1      37.604  30.567  33.192  1.00  0.00     0.002 A 
ATOM     75  C   UNL A   1      36.619  31.658  31.264  1.00  0.00     0.091 A 
ATOM     76  F   UNL A   1      37.732  31.522  29.159  1.00  0.00    -0.205 F 
ATOM     77  C   UNL A   1      36.570  31.306  32.622  1.00  0.00     0.022 A 
BRANCH  75  78
ATOM     78  S   UNL A   1      35.310  32.721  30.648  1.00  0.00     0.127 S 
ATOM     79  O   UNL A   1      34.297  32.585  31.693  1.00  0.00    -0.237 OA
ATOM     80  O   UNL A   1      35.977  34.022  30.601  1.00  0.00    -0.237 OA
ATOM     81  O   UNL A   1      34.947  32.183  29.343  1.00  0.00    -0.744 OA
ENDBRANCH  75  78
ENDBRANCH  47  71
BRANCH  59  82
ATOM     82  C   UNL A   1      44.789  33.583  29.350  1.00  0.00     0.023 A 
ATOM     83  C   UNL A   1      45.507  33.799  30.543  1.00  0.00     0.012 A 
ATOM     84  C   UNL A   1      44.691  34.623  28.404  1.00  0.00     0.148 A 
ATOM     85  C   UNL A   1      46.091  35.038  30.802  1.00  0.00     0.002 A 
ATOM     86  C   UNL A   1      45.319  35.838  28.646  1.00  0.00     0.091 A 
ATOM     87  F   UNL A   1      43.989  34.402  27.283  1.00  0.00    -0.205 F 
ATOM     88  C   UNL A   1      46.008  36.052  29.851  1.00  0.00     0.022 A 
BRANCH  86  89
ATOM     89  S   UNL A   1      45.351  37.165  27.436  1.00  0.00     0.127 S 
ATOM     90  O   UNL A   1      46.047  38.220  28.171  1.00  0.00    -0.237 OA
ATOM     91  O   UNL A   1      46.123  36.570  26.345  1.00  0.00    -0.237 OA
ATOM     92  O   UNL A   1      43.960  37.447  27.109  1.00  0.00    -0.744 OA
ENDBRANCH  86  89
ENDBRANCH  59  82
ENDBRANCH  33  34
ENDBRANCH  26  28
ENDBRANCH  25  26
ENDBRANCH  24  25
ENDBRANCH   1  24
TORSDOF 19
ENDMDL
