MODEL 1
REMARK VINA RESULT:     -12.5      0.000      0.000
REMARK SMILES Cc1c(NC(=O)[C@@H]2CC=CC[C@@H]2C(=O)OCCOCCOC(=O)c2ccc(-c3c4nc(c(-c5cccc(S(=O)(=O)[O-])c5F)c5ccc([nH]5)c(-c5cccc(S(=O)(=O)[O-])c5F)c5nc(c(-c6cccc(S(=O)(=O)[O-])c6F)c6ccc3[nH]6)C=C5)C=C4)cc2)cccc1C(=O)N1CCOCC1
REMARK SMILES IDX 18 1 17 2 16 3 15 4 13 5 14 6 12 7 7 8 8 9 9 10 11 11 10 12
REMARK SMILES IDX 5 13 4 14 6 16 3 17 1 18 2 19 90 20 87 21 89 22 88 23 91 24
REMARK SMILES IDX 92 25 93 26 94 27 98 28 95 29 97 30 96 31 19 32 20 33 21 34
REMARK SMILES IDX 22 35 23 36 24 37 25 38 86 39 26 40 85 41 27 42 28 43 29 44
REMARK SMILES IDX 79 45 30 46 84 47 78 48 80 49 31 50 83 51 77 52 76 53 32 55
REMARK SMILES IDX 64 56 44 57 63 58 45 59 48 60 62 61 81 62 46 63 47 64 61 66
REMARK SMILES IDX 82 67 49 68 33 69 34 70 42 71 35 72 37 73 43 74 36 75 38 76
REMARK SMILES IDX 39 77 40 78 41 79 65 80 66 81 74 82 67 83 69 84 75 85 68 86
REMARK SMILES IDX 70 87 71 88 72 89 73 90 50 91 51 92 59 93 52 94 54 95 60 96
REMARK SMILES IDX 53 97 55 98 56 99 57 100 58 101
REMARK H PARENT 4 15 80 54 48 65
REMARK Flexibility Score: inf
ROOT
ATOM      1  O   UNL A   1      34.487  30.200  27.540  1.00  0.00    -0.374 OA
ENDROOT
BRANCH   1   2
ATOM      2  C   UNL A   1      34.386  28.938  26.919  1.00  0.00     0.202 C 
BRANCH   2   3
ATOM      3  C   UNL A   1      33.456  29.151  25.768  1.00  0.00     0.261 C 
BRANCH   3   4
ATOM      4  O   UNL A   1      32.793  27.924  25.344  1.00  0.00    -0.463 OA
BRANCH   4   5
ATOM      5  C   UNL A   1      31.514  27.839  24.863  1.00  0.00     0.310 C 
ATOM      6  O   UNL A   1      30.651  28.681  24.936  1.00  0.00    -0.252 OA
BRANCH   5   7
ATOM      7  C   UNL A   1      31.294  26.495  24.167  1.00  0.00     0.116 C 
ATOM      8  C   UNL A   1      32.363  25.425  24.513  1.00  0.00     0.097 C 
ATOM      9  C   UNL A   1      33.768  25.895  24.064  1.00  0.00     0.041 C 
ATOM     10  C   UNL A   1      33.745  26.415  22.655  1.00  0.00    -0.030 C 
ATOM     11  C   UNL A   1      31.252  26.711  22.648  1.00  0.00     0.043 C 
ATOM     12  C   UNL A   1      32.614  26.736  22.009  1.00  0.00    -0.030 C 
BRANCH   8  13
ATOM     13  C   UNL A   1      32.195  25.036  25.971  1.00  0.00     0.228 C 
ATOM     14  N   UNL A   1      32.938  24.110  26.614  1.00  0.00    -0.326 N 
ATOM     15  H   UNL A   1      33.082  24.314  27.567  1.00  0.00     0.169 HD
ATOM     16  O   UNL A   1      31.274  25.509  26.644  1.00  0.00    -0.274 OA
BRANCH  14  17
ATOM     17  C   UNL A   1      33.547  22.915  26.198  1.00  0.00     0.044 A 
ATOM     18  C   UNL A   1      31.250  22.121  25.562  1.00  0.00     0.047 C 
ATOM     19  C   UNL A   1      32.745  21.966  25.511  1.00  0.00    -0.015 A 
ATOM     20  C   UNL A   1      33.387  20.915  24.817  1.00  0.00     0.045 A 
ATOM     21  C   UNL A   1      34.921  22.701  26.318  1.00  0.00     0.026 A 
ATOM     22  C   UNL A   1      34.772  20.726  24.997  1.00  0.00     0.014 A 
ATOM     23  C   UNL A   1      35.525  21.583  25.778  1.00  0.00     0.003 A 
BRANCH  20  24
ATOM     24  C   UNL A   1      32.736  19.858  23.979  1.00  0.00     0.254 C 
ATOM     25  O   UNL A   1      32.078  20.213  22.998  1.00  0.00    -0.269 OA
ATOM     26  N   UNL A   1      32.958  18.514  24.217  1.00  0.00    -0.334 N 
ATOM     27  C   UNL A   1      32.639  17.808  25.465  1.00  0.00     0.148 C 
ATOM     28  C   UNL A   1      33.037  17.652  23.048  1.00  0.00     0.148 C 
ATOM     29  C   UNL A   1      33.509  16.546  25.639  1.00  0.00     0.181 C 
ATOM     30  C   UNL A   1      34.011  16.512  23.324  1.00  0.00     0.181 C 
ATOM     31  O   UNL A   1      33.551  15.742  24.446  1.00  0.00    -0.378 OA
ENDBRANCH  20  24
ENDBRANCH  14  17
ENDBRANCH   8  13
ENDBRANCH   5   7
ENDBRANCH   4   5
ENDBRANCH   3   4
ENDBRANCH   2   3
ENDBRANCH   1   2
BRANCH   1  32
ATOM     32  C   UNL A   1      33.389  31.064  27.423  1.00  0.00     0.202 C 
BRANCH  32  33
ATOM     33  C   UNL A   1      33.757  32.505  27.750  1.00  0.00     0.261 C 
BRANCH  33  34
ATOM     34  O   UNL A   1      34.485  32.546  28.992  1.00  0.00    -0.460 OA
BRANCH  34  35
ATOM     35  C   UNL A   1      35.171  33.708  29.203  1.00  0.00     0.338 C 
ATOM     36  O   UNL A   1      34.843  34.781  28.723  1.00  0.00    -0.246 OA
BRANCH  35  37
ATOM     37  C   UNL A   1      36.471  33.422  29.875  1.00  0.00     0.060 A 
ATOM     38  C   UNL A   1      37.672  33.663  29.186  1.00  0.00     0.016 A 
ATOM     39  C   UNL A   1      36.477  32.632  31.025  1.00  0.00     0.016 A 
ATOM     40  C   UNL A   1      38.833  32.963  29.529  1.00  0.00     0.010 A 
ATOM     41  C   UNL A   1      37.596  31.875  31.298  1.00  0.00     0.010 A 
ATOM     42  C   UNL A   1      38.757  31.994  30.517  1.00  0.00    -0.014 A 
BRANCH  42  43
ATOM     43  C   UNL A   1      39.851  31.117  30.911  1.00  0.00     0.031 A 
ATOM     44  C   UNL A   1      39.790  29.759  30.357  1.00  0.00     0.074 A 
ATOM     45  C   UNL A   1      40.977  31.566  31.516  1.00  0.00     0.049 A 
ATOM     46  N   UNL A   1      40.577  28.811  30.716  1.00  0.00    -0.248 NA
ATOM     47  C   UNL A   1      38.780  29.324  29.384  1.00  0.00     0.031 C 
ATOM     48  C   UNL A   1      42.339  31.047  31.405  1.00  0.00     0.029 A 
ATOM     49  N   UNL A   1      41.144  32.648  32.385  1.00  0.00    -0.354 N 
ATOM     50  C   UNL A   1      40.489  27.879  29.717  1.00  0.00     0.074 A 
ATOM     51  C   UNL A   1      39.210  28.094  29.103  1.00  0.00     0.031 C 
ATOM     52  C   UNL A   1      43.112  31.617  32.348  1.00  0.00     0.029 A 
ATOM     53  C   UNL A   1      42.233  32.390  33.216  1.00  0.00     0.049 A 
ATOM     54  H   UNL A   1      40.585  33.459  32.407  1.00  0.00     0.167 HD
ATOM     55  C   UNL A   1      41.624  27.226  29.362  1.00  0.00     0.034 A 
ATOM     56  C   UNL A   1      42.068  32.295  34.562  1.00  0.00     0.034 A 
ATOM     57  C   UNL A   1      42.705  27.451  30.361  1.00  0.00     0.049 A 
ATOM     58  C   UNL A   1      42.416  30.899  34.991  1.00  0.00     0.074 A 
ATOM     59  C   UNL A   1      43.973  28.007  30.330  1.00  0.00     0.029 A 
ATOM     60  N   UNL A   1      42.399  27.330  31.724  1.00  0.00    -0.354 N 
ATOM     61  N   UNL A   1      42.702  29.960  34.135  1.00  0.00    -0.248 NA
ATOM     62  C   UNL A   1      42.475  30.425  36.361  1.00  0.00     0.031 C 
ATOM     63  C   UNL A   1      44.393  28.250  31.684  1.00  0.00     0.029 A 
ATOM     64  C   UNL A   1      43.409  27.799  32.552  1.00  0.00     0.049 A 
ATOM     65  H   UNL A   1      41.554  26.952  32.059  1.00  0.00     0.167 HD
ATOM     66  C   UNL A   1      42.944  28.783  34.749  1.00  0.00     0.074 A 
ATOM     67  C   UNL A   1      42.746  29.120  36.161  1.00  0.00     0.031 C 
ATOM     68  C   UNL A   1      43.267  27.670  34.016  1.00  0.00     0.034 A 
BRANCH  55  69
ATOM     69  C   UNL A   1      41.793  26.525  28.018  1.00  0.00     0.023 A 
ATOM     70  C   UNL A   1      41.785  27.339  26.869  1.00  0.00     0.012 A 
ATOM     71  C   UNL A   1      41.914  25.122  27.778  1.00  0.00     0.148 A 
ATOM     72  C   UNL A   1      41.925  26.812  25.577  1.00  0.00     0.002 A 
ATOM     73  C   UNL A   1      42.151  24.607  26.499  1.00  0.00     0.091 A 
ATOM     74  F   UNL A   1      41.686  24.243  28.759  1.00  0.00    -0.205 F 
ATOM     75  C   UNL A   1      42.142  25.453  25.391  1.00  0.00     0.022 A 
BRANCH  73  76
ATOM     76  S   UNL A   1      42.523  22.864  26.197  1.00  0.00     0.127 S 
ATOM     77  O   UNL A   1      43.606  22.608  27.146  1.00  0.00    -0.237 OA
ATOM     78  O   UNL A   1      41.257  22.211  26.534  1.00  0.00    -0.237 OA
ATOM     79  O   UNL A   1      42.892  22.760  24.790  1.00  0.00    -0.744 OA
ENDBRANCH  73  76
ENDBRANCH  55  69
BRANCH  56  80
ATOM     80  C   UNL A   1      41.002  33.207  35.099  1.00  0.00     0.023 A 
ATOM     81  C   UNL A   1      41.269  34.600  35.076  1.00  0.00     0.012 A 
ATOM     82  C   UNL A   1      39.664  32.800  35.226  1.00  0.00     0.148 A 
ATOM     83  C   UNL A   1      40.250  35.559  35.102  1.00  0.00     0.002 A 
ATOM     84  C   UNL A   1      38.644  33.756  35.183  1.00  0.00     0.091 A 
ATOM     85  F   UNL A   1      39.404  31.492  35.326  1.00  0.00    -0.205 F 
ATOM     86  C   UNL A   1      38.931  35.130  35.103  1.00  0.00     0.022 A 
BRANCH  84  87
ATOM     87  S   UNL A   1      36.907  33.308  35.052  1.00  0.00     0.127 S 
ATOM     88  O   UNL A   1      36.995  31.948  34.525  1.00  0.00    -0.237 OA
ATOM     89  O   UNL A   1      36.467  33.394  36.445  1.00  0.00    -0.237 OA
ATOM     90  O   UNL A   1      36.313  34.296  34.166  1.00  0.00    -0.744 OA
ENDBRANCH  84  87
ENDBRANCH  56  80
BRANCH  68  91
ATOM     91  C   UNL A   1      43.404  26.309  34.650  1.00  0.00     0.023 A 
ATOM     92  C   UNL A   1      42.287  25.578  35.084  1.00  0.00     0.012 A 
ATOM     93  C   UNL A   1      44.668  25.698  34.826  1.00  0.00     0.148 A 
ATOM     94  C   UNL A   1      42.382  24.231  35.428  1.00  0.00     0.002 A 
ATOM     95  C   UNL A   1      44.773  24.378  35.226  1.00  0.00     0.091 A 
ATOM     96  F   UNL A   1      45.789  26.398  34.637  1.00  0.00    -0.205 F 
ATOM     97  C   UNL A   1      43.626  23.620  35.466  1.00  0.00     0.022 A 
BRANCH  95  98
ATOM     98  S   UNL A   1      46.361  23.588  35.498  1.00  0.00     0.127 S 
ATOM     99  O   UNL A   1      46.885  24.379  36.610  1.00  0.00    -0.237 OA
ATOM    100  O   UNL A   1      45.959  22.227  35.850  1.00  0.00    -0.237 OA
ATOM    101  O   UNL A   1      47.106  23.707  34.253  1.00  0.00    -0.744 OA
ENDBRANCH  95  98
ENDBRANCH  68  91
ENDBRANCH  42  43
ENDBRANCH  35  37
ENDBRANCH  34  35
ENDBRANCH  33  34
ENDBRANCH  32  33
ENDBRANCH   1  32
TORSDOF 20
ENDMDL
MODEL 2
REMARK VINA RESULT:     -12.2      4.291     10.412
REMARK SMILES Cc1c(NC(=O)[C@@H]2CC=CC[C@@H]2C(=O)OCCOCCOC(=O)c2ccc(-c3c4nc(c(-c5cccc(S(=O)(=O)[O-])c5F)c5ccc([nH]5)c(-c5cccc(S(=O)(=O)[O-])c5F)c5nc(c(-c6cccc(S(=O)(=O)[O-])c6F)c6ccc3[nH]6)C=C5)C=C4)cc2)cccc1C(=O)N1CCOCC1
REMARK SMILES IDX 18 1 17 2 16 3 15 4 13 5 14 6 12 7 7 8 8 9 9 10 11 11 10 12
REMARK SMILES IDX 5 13 4 14 6 16 3 17 1 18 2 19 90 20 87 21 89 22 88 23 91 24
REMARK SMILES IDX 92 25 93 26 94 27 98 28 95 29 97 30 96 31 19 32 20 33 21 34
REMARK SMILES IDX 22 35 23 36 24 37 25 38 86 39 26 40 85 41 27 42 28 43 29 44
REMARK SMILES IDX 79 45 30 46 84 47 78 48 80 49 31 50 83 51 77 52 76 53 32 55
REMARK SMILES IDX 64 56 44 57 63 58 45 59 48 60 62 61 81 62 46 63 47 64 61 66
REMARK SMILES IDX 82 67 49 68 33 69 34 70 42 71 35 72 37 73 43 74 36 75 38 76
REMARK SMILES IDX 39 77 40 78 41 79 65 80 66 81 74 82 67 83 69 84 75 85 68 86
REMARK SMILES IDX 70 87 71 88 72 89 73 90 50 91 51 92 59 93 52 94 54 95 60 96
REMARK SMILES IDX 53 97 55 98 56 99 57 100 58 101
REMARK H PARENT 4 15 80 54 48 65
REMARK Flexibility Score: inf
ROOT
ATOM      1  O   UNL A   1      38.040  23.043  25.860  1.00  0.00    -0.374 OA
ENDROOT
BRANCH   1   2
ATOM      2  C   UNL A   1      36.975  23.709  25.220  1.00  0.00     0.202 C 
BRANCH   2   3
ATOM      3  C   UNL A   1      35.972  22.638  24.932  1.00  0.00     0.261 C 
BRANCH   3   4
ATOM      4  O   UNL A   1      34.724  23.165  24.392  1.00  0.00    -0.463 OA
BRANCH   4   5
ATOM      5  C   UNL A   1      33.798  23.887  25.096  1.00  0.00     0.310 C 
ATOM      6  O   UNL A   1      33.990  24.546  26.089  1.00  0.00    -0.252 OA
BRANCH   5   7
ATOM      7  C   UNL A   1      32.422  23.774  24.438  1.00  0.00     0.116 C 
ATOM      8  C   UNL A   1      31.394  22.955  25.262  1.00  0.00     0.097 C 
ATOM      9  C   UNL A   1      31.882  21.497  25.445  1.00  0.00     0.041 C 
ATOM     10  C   UNL A   1      32.346  20.910  24.142  1.00  0.00    -0.030 C 
ATOM     11  C   UNL A   1      32.577  23.155  23.042  1.00  0.00     0.043 C 
ATOM     12  C   UNL A   1      32.612  21.650  23.056  1.00  0.00    -0.030 C 
BRANCH   8  13
ATOM     13  C   UNL A   1      31.058  23.736  26.520  1.00  0.00     0.228 C 
ATOM     14  N   UNL A   1      30.311  24.859  26.556  1.00  0.00    -0.326 N 
ATOM     15  H   UNL A   1      29.777  24.951  27.379  1.00  0.00     0.169 HD
ATOM     16  O   UNL A   1      31.545  23.412  27.608  1.00  0.00    -0.274 OA
BRANCH  14  17
ATOM     17  C   UNL A   1      30.141  25.924  25.656  1.00  0.00     0.044 A 
ATOM     18  C   UNL A   1      31.270  27.376  27.368  1.00  0.00     0.047 C 
ATOM     19  C   UNL A   1      30.764  27.161  25.968  1.00  0.00    -0.015 A 
ATOM     20  C   UNL A   1      30.873  28.138  24.951  1.00  0.00     0.045 A 
ATOM     21  C   UNL A   1      29.506  25.761  24.425  1.00  0.00     0.026 A 
ATOM     22  C   UNL A   1      30.188  27.937  23.737  1.00  0.00     0.014 A 
ATOM     23  C   UNL A   1      29.471  26.779  23.492  1.00  0.00     0.003 A 
BRANCH  20  24
ATOM     24  C   UNL A   1      31.550  29.471  25.050  1.00  0.00     0.254 C 
ATOM     25  O   UNL A   1      30.975  30.454  24.577  1.00  0.00    -0.269 OA
ATOM     26  N   UNL A   1      32.728  29.628  25.757  1.00  0.00    -0.334 N 
ATOM     27  C   UNL A   1      33.992  28.939  25.465  1.00  0.00     0.148 C 
ATOM     28  C   UNL A   1      32.884  30.874  26.491  1.00  0.00     0.148 C 
ATOM     29  C   UNL A   1      34.892  28.855  26.716  1.00  0.00     0.181 C 
ATOM     30  C   UNL A   1      33.701  30.621  27.753  1.00  0.00     0.181 C 
ATOM     31  O   UNL A   1      34.999  30.117  27.398  1.00  0.00    -0.378 OA
ENDBRANCH  20  24
ENDBRANCH  14  17
ENDBRANCH   8  13
ENDBRANCH   5   7
ENDBRANCH   4   5
ENDBRANCH   3   4
ENDBRANCH   2   3
ENDBRANCH   1   2
BRANCH   1  32
ATOM     32  C   UNL A   1      38.170  21.666  25.629  1.00  0.00     0.202 C 
BRANCH  32  33
ATOM     33  C   UNL A   1      39.590  21.175  25.878  1.00  0.00     0.261 C 
BRANCH  33  34
ATOM     34  O   UNL A   1      40.397  22.263  26.367  1.00  0.00    -0.460 OA
BRANCH  34  35
ATOM     35  C   UNL A   1      41.726  22.153  26.076  1.00  0.00     0.338 C 
ATOM     36  O   UNL A   1      42.220  21.175  25.538  1.00  0.00    -0.246 OA
BRANCH  35  37
ATOM     37  C   UNL A   1      42.487  23.261  26.723  1.00  0.00     0.060 A 
ATOM     38  C   UNL A   1      42.423  23.420  28.117  1.00  0.00     0.016 A 
ATOM     39  C   UNL A   1      42.977  24.297  25.928  1.00  0.00     0.016 A 
ATOM     40  C   UNL A   1      42.662  24.672  28.695  1.00  0.00     0.010 A 
ATOM     41  C   UNL A   1      43.117  25.548  26.488  1.00  0.00     0.010 A 
ATOM     42  C   UNL A   1      42.903  25.752  27.861  1.00  0.00    -0.014 A 
BRANCH  42  43
ATOM     43  C   UNL A   1      43.068  27.129  28.306  1.00  0.00     0.031 A 
ATOM     44  C   UNL A   1      41.833  27.922  28.346  1.00  0.00     0.074 A 
ATOM     45  C   UNL A   1      44.200  27.585  28.893  1.00  0.00     0.049 A 
ATOM     46  N   UNL A   1      41.809  29.187  28.562  1.00  0.00    -0.248 NA
ATOM     47  C   UNL A   1      40.501  27.364  28.075  1.00  0.00     0.031 C 
ATOM     48  C   UNL A   1      44.342  28.618  29.919  1.00  0.00     0.029 A 
ATOM     49  N   UNL A   1      45.525  27.184  28.694  1.00  0.00    -0.354 N 
ATOM     50  C   UNL A   1      40.519  29.460  28.929  1.00  0.00     0.074 A 
ATOM     51  C   UNL A   1      39.726  28.413  28.352  1.00  0.00     0.031 C 
ATOM     52  C   UNL A   1      45.642  28.941  30.049  1.00  0.00     0.029 A 
ATOM     53  C   UNL A   1      46.366  28.257  28.986  1.00  0.00     0.049 A 
ATOM     54  H   UNL A   1      45.816  26.290  28.398  1.00  0.00     0.167 HD
ATOM     55  C   UNL A   1      40.322  30.385  29.902  1.00  0.00     0.034 A 
ATOM     56  C   UNL A   1      47.167  28.787  28.024  1.00  0.00     0.034 A 
ATOM     57  C   UNL A   1      41.571  31.149  30.174  1.00  0.00     0.049 A 
ATOM     58  C   UNL A   1      46.745  30.206  27.775  1.00  0.00     0.074 A 
ATOM     59  C   UNL A   1      42.388  31.340  31.275  1.00  0.00     0.029 A 
ATOM     60  N   UNL A   1      42.313  31.636  29.088  1.00  0.00    -0.354 N 
ATOM     61  N   UNL A   1      45.696  30.728  28.343  1.00  0.00    -0.248 NA
ATOM     62  C   UNL A   1      47.420  31.149  26.903  1.00  0.00     0.031 C 
ATOM     63  C   UNL A   1      43.631  31.904  30.824  1.00  0.00     0.029 A 
ATOM     64  C   UNL A   1      43.565  32.109  29.453  1.00  0.00     0.049 A 
ATOM     65  H   UNL A   1      41.979  31.640  28.161  1.00  0.00     0.167 HD
ATOM     66  C   UNL A   1      45.493  32.000  27.941  1.00  0.00     0.074 A 
ATOM     67  C   UNL A   1      46.591  32.208  26.994  1.00  0.00     0.031 C 
ATOM     68  C   UNL A   1      44.436  32.725  28.431  1.00  0.00     0.034 A 
BRANCH  55  69
ATOM     69  C   UNL A   1      39.037  30.470  30.719  1.00  0.00     0.023 A 
ATOM     70  C   UNL A   1      38.806  29.442  31.652  1.00  0.00     0.012 A 
ATOM     71  C   UNL A   1      38.006  31.454  30.617  1.00  0.00     0.148 A 
ATOM     72  C   UNL A   1      37.658  29.405  32.457  1.00  0.00     0.002 A 
ATOM     73  C   UNL A   1      36.910  31.470  31.487  1.00  0.00     0.091 A 
ATOM     74  F   UNL A   1      37.997  32.326  29.605  1.00  0.00    -0.205 F 
ATOM     75  C   UNL A   1      36.727  30.434  32.401  1.00  0.00     0.022 A 
BRANCH  73  76
ATOM     76  S   UNL A   1      35.708  32.819  31.524  1.00  0.00     0.127 S 
ATOM     77  O   UNL A   1      34.825  32.480  30.409  1.00  0.00    -0.237 OA
ATOM     78  O   UNL A   1      35.100  32.661  32.846  1.00  0.00    -0.237 OA
ATOM     79  O   UNL A   1      36.469  34.052  31.362  1.00  0.00    -0.744 OA
ENDBRANCH  73  76
ENDBRANCH  55  69
BRANCH  56  80
ATOM     80  C   UNL A   1      47.675  27.770  27.042  1.00  0.00     0.023 A 
ATOM     81  C   UNL A   1      47.085  27.766  25.751  1.00  0.00     0.012 A 
ATOM     82  C   UNL A   1      48.920  27.140  27.193  1.00  0.00     0.148 A 
ATOM     83  C   UNL A   1      47.733  27.226  24.634  1.00  0.00     0.002 A 
ATOM     84  C   UNL A   1      49.595  26.663  26.065  1.00  0.00     0.091 A 
ATOM     85  F   UNL A   1      49.453  27.069  28.418  1.00  0.00    -0.205 F 
ATOM     86  C   UNL A   1      49.015  26.721  24.785  1.00  0.00     0.022 A 
BRANCH  84  87
ATOM     87  S   UNL A   1      51.305  26.106  26.127  1.00  0.00     0.127 S 
ATOM     88  O   UNL A   1      51.639  26.027  24.708  1.00  0.00    -0.237 OA
ATOM     89  O   UNL A   1      51.954  27.203  26.846  1.00  0.00    -0.237 OA
ATOM     90  O   UNL A   1      51.278  24.842  26.846  1.00  0.00    -0.744 OA
ENDBRANCH  84  87
ENDBRANCH  56  80
BRANCH  68  91
ATOM     91  C   UNL A   1      44.093  34.094  27.902  1.00  0.00     0.023 A 
ATOM     92  C   UNL A   1      43.503  34.274  26.641  1.00  0.00     0.012 A 
ATOM     93  C   UNL A   1      44.340  35.263  28.659  1.00  0.00     0.148 A 
ATOM     94  C   UNL A   1      42.953  35.496  26.259  1.00  0.00     0.002 A 
ATOM     95  C   UNL A   1      43.849  36.492  28.255  1.00  0.00     0.091 A 
ATOM     96  F   UNL A   1      45.081  35.207  29.768  1.00  0.00    -0.205 F 
ATOM     97  C   UNL A   1      43.097  36.601  27.084  1.00  0.00     0.022 A 
BRANCH  95  98
ATOM     98  S   UNL A   1      44.180  37.998  29.171  1.00  0.00     0.127 S 
ATOM     99  O   UNL A   1      45.626  38.129  28.990  1.00  0.00    -0.237 OA
ATOM    100  O   UNL A   1      43.380  38.976  28.436  1.00  0.00    -0.237 OA
ATOM    101  O   UNL A   1      43.752  37.758  30.541  1.00  0.00    -0.744 OA
ENDBRANCH  95  98
ENDBRANCH  68  91
ENDBRANCH  42  43
ENDBRANCH  35  37
ENDBRANCH  34  35
ENDBRANCH  33  34
ENDBRANCH  32  33
ENDBRANCH   1  32
TORSDOF 20
ENDMDL
MODEL 3
REMARK VINA RESULT:     -12.0      5.116      8.697
REMARK SMILES Cc1c(NC(=O)[C@@H]2CC=CC[C@@H]2C(=O)OCCOCCOC(=O)c2ccc(-c3c4nc(c(-c5cccc(S(=O)(=O)[O-])c5F)c5ccc([nH]5)c(-c5cccc(S(=O)(=O)[O-])c5F)c5nc(c(-c6cccc(S(=O)(=O)[O-])c6F)c6ccc3[nH]6)C=C5)C=C4)cc2)cccc1C(=O)N1CCOCC1
REMARK SMILES IDX 18 1 17 2 16 3 15 4 13 5 14 6 12 7 7 8 8 9 9 10 11 11 10 12
REMARK SMILES IDX 5 13 4 14 6 16 3 17 1 18 2 19 90 20 87 21 89 22 88 23 91 24
REMARK SMILES IDX 92 25 93 26 94 27 98 28 95 29 97 30 96 31 19 32 20 33 21 34
REMARK SMILES IDX 22 35 23 36 24 37 25 38 86 39 26 40 85 41 27 42 28 43 29 44
REMARK SMILES IDX 79 45 30 46 84 47 78 48 80 49 31 50 83 51 77 52 76 53 32 55
REMARK SMILES IDX 64 56 44 57 63 58 45 59 48 60 62 61 81 62 46 63 47 64 61 66
REMARK SMILES IDX 82 67 49 68 33 69 34 70 42 71 35 72 37 73 43 74 36 75 38 76
REMARK SMILES IDX 39 77 40 78 41 79 65 80 66 81 74 82 67 83 69 84 75 85 68 86
REMARK SMILES IDX 70 87 71 88 72 89 73 90 50 91 51 92 59 93 52 94 54 95 60 96
REMARK SMILES IDX 53 97 55 98 56 99 57 100 58 101
REMARK H PARENT 4 15 80 54 48 65
REMARK Flexibility Score: inf
ROOT
ATOM      1  O   UNL A   1      38.051  21.876  24.982  1.00  0.00    -0.374 OA
ENDROOT
BRANCH   1   2
ATOM      2  C   UNL A   1      36.878  21.730  24.213  1.00  0.00     0.202 C 
BRANCH   2   3
ATOM      3  C   UNL A   1      36.187  23.052  24.316  1.00  0.00     0.261 C 
BRANCH   3   4
ATOM      4  O   UNL A   1      34.757  22.963  24.045  1.00  0.00    -0.463 OA
BRANCH   4   5
ATOM      5  C   UNL A   1      34.023  23.885  23.347  1.00  0.00     0.310 C 
ATOM      6  O   UNL A   1      34.439  24.706  22.566  1.00  0.00    -0.252 OA
BRANCH   5   7
ATOM      7  C   UNL A   1      32.536  23.739  23.672  1.00  0.00     0.116 C 
ATOM      8  C   UNL A   1      32.243  23.457  25.169  1.00  0.00     0.097 C 
ATOM      9  C   UNL A   1      32.893  22.122  25.609  1.00  0.00     0.041 C 
ATOM     10  C   UNL A   1      32.596  21.022  24.630  1.00  0.00    -0.030 C 
ATOM     11  C   UNL A   1      31.936  22.620  22.809  1.00  0.00     0.043 C 
ATOM     12  C   UNL A   1      32.125  21.246  23.394  1.00  0.00    -0.030 C 
BRANCH   8  13
ATOM     13  C   UNL A   1      32.600  24.697  25.969  1.00  0.00     0.228 C 
ATOM     14  N   UNL A   1      31.786  25.758  26.155  1.00  0.00    -0.326 N 
ATOM     15  H   UNL A   1      31.906  26.197  27.029  1.00  0.00     0.169 HD
ATOM     16  O   UNL A   1      33.735  24.836  26.436  1.00  0.00    -0.274 OA
BRANCH  14  17
ATOM     17  C   UNL A   1      30.803  26.361  25.354  1.00  0.00     0.044 A 
ATOM     18  C   UNL A   1      32.385  28.296  25.099  1.00  0.00     0.047 C 
ATOM     19  C   UNL A   1      31.145  27.559  24.674  1.00  0.00    -0.015 A 
ATOM     20  C   UNL A   1      30.300  28.011  23.634  1.00  0.00     0.045 A 
ATOM     21  C   UNL A   1      29.572  25.753  25.106  1.00  0.00     0.026 A 
ATOM     22  C   UNL A   1      29.054  27.379  23.445  1.00  0.00     0.014 A 
ATOM     23  C   UNL A   1      28.673  26.289  24.205  1.00  0.00     0.003 A 
BRANCH  20  24
ATOM     24  C   UNL A   1      30.513  29.203  22.752  1.00  0.00     0.254 C 
ATOM     25  O   UNL A   1      31.505  29.217  22.019  1.00  0.00    -0.269 OA
ATOM     26  N   UNL A   1      29.570  30.210  22.664  1.00  0.00    -0.334 N 
ATOM     27  C   UNL A   1      29.109  31.043  23.783  1.00  0.00     0.148 C 
ATOM     28  C   UNL A   1      29.387  30.817  21.355  1.00  0.00     0.148 C 
ATOM     29  C   UNL A   1      27.702  31.620  23.517  1.00  0.00     0.181 C 
ATOM     30  C   UNL A   1      27.933  31.241  21.190  1.00  0.00     0.181 C 
ATOM     31  O   UNL A   1      27.588  32.198  22.204  1.00  0.00    -0.378 OA
ENDBRANCH  20  24
ENDBRANCH  14  17
ENDBRANCH   8  13
ENDBRANCH   5   7
ENDBRANCH   4   5
ENDBRANCH   3   4
ENDBRANCH   2   3
ENDBRANCH   1   2
BRANCH   1  32
ATOM     32  C   UNL A   1      37.979  22.696  26.117  1.00  0.00     0.202 C 
BRANCH  32  33
ATOM     33  C   UNL A   1      39.309  23.372  26.420  1.00  0.00     0.261 C 
BRANCH  33  34
ATOM     34  O   UNL A   1      39.303  23.865  27.773  1.00  0.00    -0.460 OA
BRANCH  34  35
ATOM     35  C   UNL A   1      39.876  25.094  27.927  1.00  0.00     0.338 C 
ATOM     36  O   UNL A   1      39.248  26.140  27.898  1.00  0.00    -0.246 OA
BRANCH  35  37
ATOM     37  C   UNL A   1      41.363  24.977  27.880  1.00  0.00     0.060 A 
ATOM     38  C   UNL A   1      41.995  23.928  28.569  1.00  0.00     0.016 A 
ATOM     39  C   UNL A   1      42.111  26.067  27.438  1.00  0.00     0.016 A 
ATOM     40  C   UNL A   1      43.324  24.058  28.984  1.00  0.00     0.010 A 
ATOM     41  C   UNL A   1      43.389  26.233  27.930  1.00  0.00     0.010 A 
ATOM     42  C   UNL A   1      43.977  25.258  28.752  1.00  0.00    -0.014 A 
BRANCH  42  43
ATOM     43  C   UNL A   1      45.321  25.580  29.213  1.00  0.00     0.031 A 
ATOM     44  C   UNL A   1      46.404  25.167  28.312  1.00  0.00     0.074 A 
ATOM     45  C   UNL A   1      45.565  26.422  30.246  1.00  0.00     0.049 A 
ATOM     46  N   UNL A   1      47.647  25.228  28.624  1.00  0.00    -0.248 NA
ATOM     47  C   UNL A   1      46.176  24.577  26.986  1.00  0.00     0.031 C 
ATOM     48  C   UNL A   1      46.700  27.325  30.436  1.00  0.00     0.029 A 
ATOM     49  N   UNL A   1      44.799  26.667  31.389  1.00  0.00    -0.354 N 
ATOM     50  C   UNL A   1      48.315  25.166  27.430  1.00  0.00     0.074 A 
ATOM     51  C   UNL A   1      47.424  24.498  26.526  1.00  0.00     0.031 C 
ATOM     52  C   UNL A   1      46.687  27.797  31.696  1.00  0.00     0.029 A 
ATOM     53  C   UNL A   1      45.647  27.075  32.417  1.00  0.00     0.049 A 
ATOM     54  H   UNL A   1      43.821  26.569  31.457  1.00  0.00     0.167 HD
ATOM     55  C   UNL A   1      49.427  25.931  27.290  1.00  0.00     0.034 A 
ATOM     56  C   UNL A   1      45.754  26.342  33.557  1.00  0.00     0.034 A 
ATOM     57  C   UNL A   1      49.872  26.474  28.602  1.00  0.00     0.049 A 
ATOM     58  C   UNL A   1      47.160  25.827  33.666  1.00  0.00     0.074 A 
ATOM     59  C   UNL A   1      50.046  27.741  29.135  1.00  0.00     0.029 A 
ATOM     60  N   UNL A   1      49.931  25.610  29.705  1.00  0.00    -0.354 N 
ATOM     61  N   UNL A   1      48.039  26.000  32.720  1.00  0.00    -0.248 NA
ATOM     62  C   UNL A   1      47.709  25.095  34.793  1.00  0.00     0.031 C 
ATOM     63  C   UNL A   1      50.166  27.618  30.563  1.00  0.00     0.029 A 
ATOM     64  C   UNL A   1      50.117  26.274  30.908  1.00  0.00     0.049 A 
ATOM     65  H   UNL A   1      49.847  24.631  29.632  1.00  0.00     0.167 HD
ATOM     66  C   UNL A   1      49.219  25.420  33.024  1.00  0.00     0.074 A 
ATOM     67  C   UNL A   1      48.946  24.822  34.333  1.00  0.00     0.031 C 
ATOM     68  C   UNL A   1      50.276  25.495  32.152  1.00  0.00     0.034 A 
BRANCH  55  69
ATOM     69  C   UNL A   1      50.001  26.318  25.930  1.00  0.00     0.023 A 
ATOM     70  C   UNL A   1      51.394  26.198  25.769  1.00  0.00     0.012 A 
ATOM     71  C   UNL A   1      49.291  26.836  24.803  1.00  0.00     0.148 A 
ATOM     72  C   UNL A   1      52.040  26.530  24.568  1.00  0.00     0.002 A 
ATOM     73  C   UNL A   1      49.922  27.073  23.577  1.00  0.00     0.091 A 
ATOM     74  F   UNL A   1      48.018  27.223  24.922  1.00  0.00    -0.205 F 
ATOM     75  C   UNL A   1      51.304  26.934  23.462  1.00  0.00     0.022 A 
BRANCH  73  76
ATOM     76  S   UNL A   1      49.015  27.519  22.078  1.00  0.00     0.127 S 
ATOM     77  O   UNL A   1      48.632  26.211  21.545  1.00  0.00    -0.237 OA
ATOM     78  O   UNL A   1      47.901  28.305  22.609  1.00  0.00    -0.237 OA
ATOM     79  O   UNL A   1      49.941  28.280  21.249  1.00  0.00    -0.744 OA
ENDBRANCH  73  76
ENDBRANCH  55  69
BRANCH  56  80
ATOM     80  C   UNL A   1      44.472  25.669  33.957  1.00  0.00     0.023 A 
ATOM     81  C   UNL A   1      44.397  24.263  33.785  1.00  0.00     0.012 A 
ATOM     82  C   UNL A   1      43.554  26.270  34.834  1.00  0.00     0.148 A 
ATOM     83  C   UNL A   1      43.500  23.467  34.505  1.00  0.00     0.002 A 
ATOM     84  C   UNL A   1      42.706  25.467  35.603  1.00  0.00     0.091 A 
ATOM     85  F   UNL A   1      43.563  27.603  34.948  1.00  0.00    -0.205 F 
ATOM     86  C   UNL A   1      42.689  24.068  35.455  1.00  0.00     0.022 A 
BRANCH  84  87
ATOM     87  S   UNL A   1      41.709  26.127  36.946  1.00  0.00     0.127 S 
ATOM     88  O   UNL A   1      42.728  26.419  37.951  1.00  0.00    -0.237 OA
ATOM     89  O   UNL A   1      41.111  27.309  36.325  1.00  0.00    -0.237 OA
ATOM     90  O   UNL A   1      40.763  25.076  37.285  1.00  0.00    -0.744 OA
ENDBRANCH  84  87
ENDBRANCH  56  80
BRANCH  68  91
ATOM     91  C   UNL A   1      51.561  24.742  32.389  1.00  0.00     0.023 A 
ATOM     92  C   UNL A   1      52.808  25.385  32.376  1.00  0.00     0.012 A 
ATOM     93  C   UNL A   1      51.566  23.352  32.648  1.00  0.00     0.148 A 
ATOM     94  C   UNL A   1      53.960  24.755  32.844  1.00  0.00     0.002 A 
ATOM     95  C   UNL A   1      52.720  22.706  33.055  1.00  0.00     0.091 A 
ATOM     96  F   UNL A   1      50.458  22.627  32.475  1.00  0.00    -0.205 F 
ATOM     97  C   UNL A   1      53.909  23.421  33.217  1.00  0.00     0.022 A 
BRANCH  95  98
ATOM     98  S   UNL A   1      52.770  20.938  33.352  1.00  0.00     0.127 S 
ATOM     99  O   UNL A   1      53.490  20.470  32.168  1.00  0.00    -0.237 OA
ATOM    100  O   UNL A   1      53.529  20.866  34.599  1.00  0.00    -0.237 OA
ATOM    101  O   UNL A   1      51.387  20.490  33.446  1.00  0.00    -0.744 OA
ENDBRANCH  95  98
ENDBRANCH  68  91
ENDBRANCH  42  43
ENDBRANCH  35  37
ENDBRANCH  34  35
ENDBRANCH  33  34
ENDBRANCH  32  33
ENDBRANCH   1  32
TORSDOF 20
ENDMDL
