MODEL 1
REMARK VINA RESULT:     -12.5      0.000      0.000
REMARK SMILES CN1C(=O)C[C@@H](C(=O)OCCOCCOC(=O)c2ccc(-c3c4nc(c(-c5cccc(S(=O)(=O)[O-])c5F)c5ccc([nH]5)c(-c5cccc(S(=O)(=O)[O-])c5F)c5nc(c(-c6cccc(S(=O)(=O)[O-])c6F)c6ccc3[nH]6)C=C5)C=C4)cc2)C12CCN(S(=O)(=O)c1ccccc1F)CC2
REMARK SMILES IDX 13 1 12 2 11 3 10 4 9 5 7 6 8 7 6 8 1 9 2 10 3 11 81 12 4 13
REMARK SMILES IDX 5 14 82 15 96 16 83 17 95 18 84 19 85 20 86 21 87 22 88 23
REMARK SMILES IDX 89 24 93 25 90 26 92 27 94 28 91 29 14 30 15 31 16 32 17 33
REMARK SMILES IDX 18 34 19 35 80 36 20 37 79 38 21 39 22 40 23 41 73 42 24 43
REMARK SMILES IDX 78 44 72 45 74 46 25 47 77 48 71 49 70 50 26 52 58 53 38 54
REMARK SMILES IDX 57 55 39 56 42 57 56 58 75 59 40 60 41 61 55 63 76 64 43 65
REMARK SMILES IDX 27 66 28 67 36 68 29 69 31 70 37 71 30 72 32 73 33 74 34 75
REMARK SMILES IDX 35 76 59 77 60 78 68 79 61 80 63 81 69 82 62 83 64 84 65 85
REMARK SMILES IDX 66 86 67 87 44 88 45 89 53 90 46 91 48 92 54 93 47 94 49 95
REMARK SMILES IDX 50 96 51 97 52 98
REMARK H PARENT 74 51 42 62
REMARK Flexibility Score: inf
ROOT
ATOM      1  C   UNL A   1      36.114  20.876  24.560  1.00  0.00     0.202 C 
ENDROOT
BRANCH   1   2
ATOM      2  O   UNL A   1      35.093  21.323  25.449  1.00  0.00    -0.374 OA
BRANCH   2   3
ATOM      3  C   UNL A   1      35.393  22.422  26.306  1.00  0.00     0.202 C 
BRANCH   3   4
ATOM      4  C   UNL A   1      34.225  23.091  27.050  1.00  0.00     0.261 C 
BRANCH   4   5
ATOM      5  O   UNL A   1      32.902  22.572  26.779  1.00  0.00    -0.463 OA
BRANCH   5   6
ATOM      6  C   UNL A   1      31.921  23.499  26.686  1.00  0.00     0.311 C 
ATOM      7  O   UNL A   1      31.535  24.185  27.630  1.00  0.00    -0.252 OA
BRANCH   6   8
ATOM      8  C   UNL A   1      31.212  23.596  25.343  1.00  0.00     0.134 C 
ATOM      9  C   UNL A   1      33.265  24.031  22.223  1.00  0.00     0.147 C 
ATOM     10  N   UNL A   1      32.434  23.599  23.338  1.00  0.00    -0.339 N 
ATOM     11  C   UNL A   1      32.208  22.264  23.616  1.00  0.00     0.223 C 
ATOM     12  C   UNL A   1      31.647  24.516  24.172  1.00  0.00     0.059 C 
ATOM     13  O   UNL A   1      32.661  21.301  23.021  1.00  0.00    -0.275 OA
ATOM     14  C   UNL A   1      31.227  22.178  24.750  1.00  0.00     0.118 C 
ATOM     15  C   UNL A   1      32.443  25.768  24.557  1.00  0.00     0.046 C 
ATOM     16  C   UNL A   1      30.380  24.951  23.354  1.00  0.00     0.046 C 
ATOM     17  C   UNL A   1      31.571  26.834  25.190  1.00  0.00     0.105 C 
ATOM     18  C   UNL A   1      29.609  26.144  23.931  1.00  0.00     0.105 C 
ATOM     19  N   UNL A   1      30.509  27.283  24.268  1.00  0.00    -0.198 NA
BRANCH  19  20
ATOM     20  S   UNL A   1      30.905  28.302  22.939  1.00  0.00     0.245 S 
ATOM     21  O   UNL A   1      32.204  28.893  23.179  1.00  0.00    -0.207 OA
ATOM     22  O   UNL A   1      30.701  27.495  21.751  1.00  0.00    -0.207 OA
BRANCH  20  23
ATOM     23  C   UNL A   1      29.703  29.598  22.906  1.00  0.00     0.118 A 
ATOM     24  C   UNL A   1      28.819  29.714  21.827  1.00  0.00     0.025 A 
ATOM     25  C   UNL A   1      29.706  30.579  23.895  1.00  0.00     0.143 A 
ATOM     26  C   UNL A   1      27.917  30.782  21.778  1.00  0.00     0.002 A 
ATOM     27  C   UNL A   1      28.783  31.621  23.868  1.00  0.00     0.041 A 
ATOM     28  F   UNL A   1      30.563  30.543  24.920  1.00  0.00    -0.206 F 
ATOM     29  C   UNL A   1      27.888  31.726  22.806  1.00  0.00     0.003 A 
ENDBRANCH  20  23
ENDBRANCH  19  20
ENDBRANCH   6   8
ENDBRANCH   5   6
ENDBRANCH   4   5
ENDBRANCH   3   4
ENDBRANCH   2   3
ENDBRANCH   1   2
BRANCH   1  30
ATOM     30  C   UNL A   1      37.392  20.348  25.216  1.00  0.00     0.261 C 
BRANCH  30  31
ATOM     31  O   UNL A   1      38.433  21.336  25.171  1.00  0.00    -0.460 OA
BRANCH  31  32
ATOM     32  C   UNL A   1      39.444  21.094  26.037  1.00  0.00     0.338 C 
ATOM     33  O   UNL A   1      40.099  20.071  26.120  1.00  0.00    -0.246 OA
BRANCH  32  34
ATOM     34  C   UNL A   1      39.765  22.325  26.781  1.00  0.00     0.060 A 
ATOM     35  C   UNL A   1      39.106  23.509  26.424  1.00  0.00     0.016 A 
ATOM     36  C   UNL A   1      40.808  22.344  27.706  1.00  0.00     0.016 A 
ATOM     37  C   UNL A   1      39.541  24.729  26.942  1.00  0.00     0.010 A 
ATOM     38  C   UNL A   1      41.234  23.570  28.234  1.00  0.00     0.010 A 
ATOM     39  C   UNL A   1      40.639  24.775  27.815  1.00  0.00    -0.014 A 
BRANCH  39  40
ATOM     40  C   UNL A   1      41.245  26.092  28.154  1.00  0.00     0.031 A 
ATOM     41  C   UNL A   1      42.663  26.383  27.731  1.00  0.00     0.074 A 
ATOM     42  C   UNL A   1      40.530  27.039  28.788  1.00  0.00     0.049 A 
ATOM     43  N   UNL A   1      43.354  27.489  27.849  1.00  0.00    -0.248 NA
ATOM     44  C   UNL A   1      43.403  25.284  27.087  1.00  0.00     0.031 C 
ATOM     45  C   UNL A   1      39.157  26.881  29.264  1.00  0.00     0.029 A 
ATOM     46  N   UNL A   1      40.865  28.321  29.148  1.00  0.00    -0.354 N 
ATOM     47  C   UNL A   1      44.608  27.216  27.313  1.00  0.00     0.074 A 
ATOM     48  C   UNL A   1      44.593  25.833  26.889  1.00  0.00     0.031 C 
ATOM     49  C   UNL A   1      38.768  28.020  29.861  1.00  0.00     0.029 A 
ATOM     50  C   UNL A   1      39.866  28.984  29.823  1.00  0.00     0.049 A 
ATOM     51  H   UNL A   1      41.737  28.727  28.943  1.00  0.00     0.167 HD
ATOM     52  C   UNL A   1      45.669  28.045  27.163  1.00  0.00     0.034 A 
ATOM     53  C   UNL A   1      39.841  30.225  30.352  1.00  0.00     0.034 A 
ATOM     54  C   UNL A   1      45.680  29.426  27.566  1.00  0.00     0.049 A 
ATOM     55  C   UNL A   1      41.038  31.124  30.180  1.00  0.00     0.074 A 
ATOM     56  C   UNL A   1      46.689  30.360  27.411  1.00  0.00     0.029 A 
ATOM     57  N   UNL A   1      44.638  30.069  28.215  1.00  0.00    -0.354 N 
ATOM     58  N   UNL A   1      42.162  30.893  29.544  1.00  0.00    -0.248 NA
ATOM     59  C   UNL A   1      40.950  32.470  30.766  1.00  0.00     0.031 C 
ATOM     60  C   UNL A   1      46.267  31.561  27.990  1.00  0.00     0.029 A 
ATOM     61  C   UNL A   1      44.983  31.383  28.481  1.00  0.00     0.049 A 
ATOM     62  H   UNL A   1      43.778  29.652  28.454  1.00  0.00     0.167 HD
ATOM     63  C   UNL A   1      42.897  32.071  29.626  1.00  0.00     0.074 A 
ATOM     64  C   UNL A   1      42.081  33.023  30.349  1.00  0.00     0.031 C 
ATOM     65  C   UNL A   1      44.142  32.337  29.157  1.00  0.00     0.034 A 
BRANCH  52  66
ATOM     66  C   UNL A   1      46.904  27.490  26.500  1.00  0.00     0.023 A 
ATOM     67  C   UNL A   1      47.109  27.709  25.122  1.00  0.00     0.012 A 
ATOM     68  C   UNL A   1      47.886  26.810  27.246  1.00  0.00     0.148 A 
ATOM     69  C   UNL A   1      48.258  27.232  24.491  1.00  0.00     0.002 A 
ATOM     70  C   UNL A   1      49.048  26.374  26.619  1.00  0.00     0.091 A 
ATOM     71  F   UNL A   1      47.664  26.596  28.551  1.00  0.00    -0.205 F 
ATOM     72  C   UNL A   1      49.230  26.574  25.240  1.00  0.00     0.022 A 
BRANCH  70  73
ATOM     73  S   UNL A   1      50.392  25.581  27.508  1.00  0.00     0.127 S 
ATOM     74  O   UNL A   1      51.494  25.717  26.556  1.00  0.00    -0.237 OA
ATOM     75  O   UNL A   1      50.510  26.422  28.699  1.00  0.00    -0.237 OA
ATOM     76  O   UNL A   1      49.954  24.217  27.767  1.00  0.00    -0.744 OA
ENDBRANCH  70  73
ENDBRANCH  52  66
BRANCH  53  77
ATOM     77  C   UNL A   1      38.621  30.712  31.058  1.00  0.00     0.023 A 
ATOM     78  C   UNL A   1      38.501  30.536  32.451  1.00  0.00     0.012 A 
ATOM     79  C   UNL A   1      37.583  31.356  30.356  1.00  0.00     0.148 A 
ATOM     80  C   UNL A   1      37.356  30.963  33.126  1.00  0.00     0.002 A 
ATOM     81  C   UNL A   1      36.471  31.828  31.043  1.00  0.00     0.091 A 
ATOM     82  F   UNL A   1      37.704  31.494  29.028  1.00  0.00    -0.205 F 
ATOM     83  C   UNL A   1      36.346  31.618  32.425  1.00  0.00     0.022 A 
BRANCH  81  84
ATOM     84  S   UNL A   1      35.185  32.793  30.242  1.00  0.00     0.127 S 
ATOM     85  O   UNL A   1      34.719  31.872  29.209  1.00  0.00    -0.237 OA
ATOM     86  O   UNL A   1      34.244  33.014  31.341  1.00  0.00    -0.237 OA
ATOM     87  O   UNL A   1      35.845  34.001  29.765  1.00  0.00    -0.744 OA
ENDBRANCH  81  84
ENDBRANCH  53  77
BRANCH  65  88
ATOM     88  C   UNL A   1      44.696  33.721  29.383  1.00  0.00     0.023 A 
ATOM     89  C   UNL A   1      45.473  33.985  30.528  1.00  0.00     0.012 A 
ATOM     90  C   UNL A   1      44.509  34.737  28.424  1.00  0.00     0.148 A 
ATOM     91  C   UNL A   1      46.026  35.250  30.733  1.00  0.00     0.002 A 
ATOM     92  C   UNL A   1      45.103  35.979  28.611  1.00  0.00     0.091 A 
ATOM     93  F   UNL A   1      43.752  34.472  27.349  1.00  0.00    -0.205 F 
ATOM     94  C   UNL A   1      45.852  36.242  29.770  1.00  0.00     0.022 A 
BRANCH  92  95
ATOM     95  S   UNL A   1      45.014  37.284  27.379  1.00  0.00     0.127 S 
ATOM     96  O   UNL A   1      45.928  36.786  26.352  1.00  0.00    -0.237 OA
ATOM     97  O   UNL A   1      43.600  37.259  27.001  1.00  0.00    -0.237 OA
ATOM     98  O   UNL A   1      45.436  38.503  28.055  1.00  0.00    -0.744 OA
ENDBRANCH  92  95
ENDBRANCH  65  88
ENDBRANCH  39  40
ENDBRANCH  32  34
ENDBRANCH  31  32
ENDBRANCH  30  31
ENDBRANCH   1  30
TORSDOF 19
ENDMDL
MODEL 2
REMARK VINA RESULT:     -12.3      1.223      1.476
REMARK SMILES CN1C(=O)C[C@@H](C(=O)OCCOCCOC(=O)c2ccc(-c3c4nc(c(-c5cccc(S(=O)(=O)[O-])c5F)c5ccc([nH]5)c(-c5cccc(S(=O)(=O)[O-])c5F)c5nc(c(-c6cccc(S(=O)(=O)[O-])c6F)c6ccc3[nH]6)C=C5)C=C4)cc2)C12CCN(S(=O)(=O)c1ccccc1F)CC2
REMARK SMILES IDX 13 1 12 2 11 3 10 4 9 5 7 6 8 7 6 8 1 9 2 10 3 11 81 12 4 13
REMARK SMILES IDX 5 14 82 15 96 16 83 17 95 18 84 19 85 20 86 21 87 22 88 23
REMARK SMILES IDX 89 24 93 25 90 26 92 27 94 28 91 29 14 30 15 31 16 32 17 33
REMARK SMILES IDX 18 34 19 35 80 36 20 37 79 38 21 39 22 40 23 41 73 42 24 43
REMARK SMILES IDX 78 44 72 45 74 46 25 47 77 48 71 49 70 50 26 52 58 53 38 54
REMARK SMILES IDX 57 55 39 56 42 57 56 58 75 59 40 60 41 61 55 63 76 64 43 65
REMARK SMILES IDX 27 66 28 67 36 68 29 69 31 70 37 71 30 72 32 73 33 74 34 75
REMARK SMILES IDX 35 76 59 77 60 78 68 79 61 80 63 81 69 82 62 83 64 84 65 85
REMARK SMILES IDX 66 86 67 87 44 88 45 89 53 90 46 91 48 92 54 93 47 94 49 95
REMARK SMILES IDX 50 96 51 97 52 98
REMARK H PARENT 74 51 42 62
REMARK Flexibility Score: inf
ROOT
ATOM      1  C   UNL A   1      35.999  20.893  24.573  1.00  0.00     0.202 C 
ENDROOT
BRANCH   1   2
ATOM      2  O   UNL A   1      34.966  21.344  25.444  1.00  0.00    -0.374 OA
BRANCH   2   3
ATOM      3  C   UNL A   1      35.269  22.413  26.338  1.00  0.00     0.202 C 
BRANCH   3   4
ATOM      4  C   UNL A   1      34.130  22.959  27.215  1.00  0.00     0.261 C 
BRANCH   4   5
ATOM      5  O   UNL A   1      32.792  22.510  26.894  1.00  0.00    -0.463 OA
BRANCH   5   6
ATOM      6  C   UNL A   1      31.865  23.487  26.763  1.00  0.00     0.311 C 
ATOM      7  O   UNL A   1      31.520  24.231  27.678  1.00  0.00    -0.252 OA
BRANCH   6   8
ATOM      8  C   UNL A   1      31.162  23.571  25.416  1.00  0.00     0.134 C 
ATOM      9  C   UNL A   1      33.229  23.957  22.298  1.00  0.00     0.147 C 
ATOM     10  N   UNL A   1      32.392  23.543  23.416  1.00  0.00    -0.339 N 
ATOM     11  C   UNL A   1      32.157  22.213  23.709  1.00  0.00     0.223 C 
ATOM     12  C   UNL A   1      31.606  24.473  24.235  1.00  0.00     0.059 C 
ATOM     13  O   UNL A   1      32.607  21.240  23.128  1.00  0.00    -0.275 OA
ATOM     14  C   UNL A   1      31.172  22.146  24.841  1.00  0.00     0.118 C 
ATOM     15  C   UNL A   1      32.408  25.726  24.607  1.00  0.00     0.046 C 
ATOM     16  C   UNL A   1      30.345  24.905  23.407  1.00  0.00     0.046 C 
ATOM     17  C   UNL A   1      31.539  26.805  25.224  1.00  0.00     0.105 C 
ATOM     18  C   UNL A   1      29.578  26.109  23.966  1.00  0.00     0.105 C 
ATOM     19  N   UNL A   1      30.482  27.247  24.292  1.00  0.00    -0.198 NA
BRANCH  19  20
ATOM     20  S   UNL A   1      30.889  28.247  22.952  1.00  0.00     0.245 S 
ATOM     21  O   UNL A   1      32.203  28.811  23.175  1.00  0.00    -0.207 OA
ATOM     22  O   UNL A   1      30.654  27.438  21.772  1.00  0.00    -0.207 OA
BRANCH  20  23
ATOM     23  C   UNL A   1      29.716  29.571  22.922  1.00  0.00     0.118 A 
ATOM     24  C   UNL A   1      28.825  29.700  21.849  1.00  0.00     0.025 A 
ATOM     25  C   UNL A   1      29.750  30.558  23.904  1.00  0.00     0.143 A 
ATOM     26  C   UNL A   1      27.947  30.789  21.802  1.00  0.00     0.002 A 
ATOM     27  C   UNL A   1      28.851  31.621  23.878  1.00  0.00     0.041 A 
ATOM     28  F   UNL A   1      30.616  30.508  24.922  1.00  0.00    -0.206 F 
ATOM     29  C   UNL A   1      27.949  31.739  22.824  1.00  0.00     0.003 A 
ENDBRANCH  20  23
ENDBRANCH  19  20
ENDBRANCH   6   8
ENDBRANCH   5   6
ENDBRANCH   4   5
ENDBRANCH   3   4
ENDBRANCH   2   3
ENDBRANCH   1   2
BRANCH   1  30
ATOM     30  C   UNL A   1      37.263  20.356  25.250  1.00  0.00     0.261 C 
BRANCH  30  31
ATOM     31  O   UNL A   1      38.342  21.297  25.135  1.00  0.00    -0.460 OA
BRANCH  31  32
ATOM     32  C   UNL A   1      39.369  21.045  25.979  1.00  0.00     0.338 C 
ATOM     33  O   UNL A   1      40.020  20.018  26.044  1.00  0.00    -0.246 OA
BRANCH  32  34
ATOM     34  C   UNL A   1      39.712  22.271  26.721  1.00  0.00     0.060 A 
ATOM     35  C   UNL A   1      39.045  23.458  26.391  1.00  0.00     0.016 A 
ATOM     36  C   UNL A   1      40.782  22.283  27.617  1.00  0.00     0.016 A 
ATOM     37  C   UNL A   1      39.497  24.674  26.905  1.00  0.00     0.010 A 
ATOM     38  C   UNL A   1      41.224  23.505  28.140  1.00  0.00     0.010 A 
ATOM     39  C   UNL A   1      40.619  24.713  27.746  1.00  0.00    -0.014 A 
BRANCH  39  40
ATOM     40  C   UNL A   1      41.236  26.027  28.077  1.00  0.00     0.031 A 
ATOM     41  C   UNL A   1      42.645  26.317  27.621  1.00  0.00     0.074 A 
ATOM     42  C   UNL A   1      40.538  26.973  28.732  1.00  0.00     0.049 A 
ATOM     43  N   UNL A   1      43.340  27.420  27.728  1.00  0.00    -0.248 NA
ATOM     44  C   UNL A   1      43.366  25.219  26.955  1.00  0.00     0.031 C 
ATOM     45  C   UNL A   1      39.176  26.816  29.239  1.00  0.00     0.029 A 
ATOM     46  N   UNL A   1      40.885  28.253  29.090  1.00  0.00    -0.354 N 
ATOM     47  C   UNL A   1      44.581  27.147  27.161  1.00  0.00     0.074 A 
ATOM     48  C   UNL A   1      44.552  25.766  26.732  1.00  0.00     0.031 C 
ATOM     49  C   UNL A   1      38.804  27.954  29.851  1.00  0.00     0.029 A 
ATOM     50  C   UNL A   1      39.904  28.915  29.791  1.00  0.00     0.049 A 
ATOM     51  H   UNL A   1      41.753  28.658  28.866  1.00  0.00     0.167 HD
ATOM     52  C   UNL A   1      45.640  27.975  26.990  1.00  0.00     0.034 A 
ATOM     53  C   UNL A   1      39.895  30.154  30.326  1.00  0.00     0.034 A 
ATOM     54  C   UNL A   1      45.664  29.354  27.398  1.00  0.00     0.049 A 
ATOM     55  C   UNL A   1      41.090  31.051  30.129  1.00  0.00     0.074 A 
ATOM     56  C   UNL A   1      46.671  30.285  27.223  1.00  0.00     0.029 A 
ATOM     57  N   UNL A   1      44.639  29.996  28.075  1.00  0.00    -0.354 N 
ATOM     58  N   UNL A   1      42.197  30.820  29.466  1.00  0.00    -0.248 NA
ATOM     59  C   UNL A   1      41.019  32.394  30.723  1.00  0.00     0.031 C 
ATOM     60  C   UNL A   1      46.266  31.485  27.818  1.00  0.00     0.029 A 
ATOM     61  C   UNL A   1      44.994  31.308  28.338  1.00  0.00     0.049 A 
ATOM     62  H   UNL A   1      43.785  29.580  28.332  1.00  0.00     0.167 HD
ATOM     63  C   UNL A   1      42.937  31.996  29.535  1.00  0.00     0.074 A 
ATOM     64  C   UNL A   1      42.141  32.947  30.282  1.00  0.00     0.031 C 
ATOM     65  C   UNL A   1      44.172  32.260  29.038  1.00  0.00     0.034 A 
BRANCH  52  66
ATOM     66  C   UNL A   1      46.857  27.420  26.295  1.00  0.00     0.023 A 
ATOM     67  C   UNL A   1      47.019  27.624  24.909  1.00  0.00     0.012 A 
ATOM     68  C   UNL A   1      47.866  26.753  27.018  1.00  0.00     0.148 A 
ATOM     69  C   UNL A   1      48.151  27.148  24.249  1.00  0.00     0.002 A 
ATOM     70  C   UNL A   1      49.010  26.317  26.360  1.00  0.00     0.091 A 
ATOM     71  F   UNL A   1      47.685  26.552  28.331  1.00  0.00    -0.205 F 
ATOM     72  C   UNL A   1      49.150  26.504  24.975  1.00  0.00     0.022 A 
BRANCH  70  73
ATOM     73  S   UNL A   1      50.386  25.541  27.216  1.00  0.00     0.127 S 
ATOM     74  O   UNL A   1      49.765  24.319  27.723  1.00  0.00    -0.237 OA
ATOM     75  O   UNL A   1      51.344  25.331  26.130  1.00  0.00    -0.237 OA
ATOM     76  O   UNL A   1      50.815  26.492  28.231  1.00  0.00    -0.744 OA
ENDBRANCH  70  73
ENDBRANCH  52  66
BRANCH  53  77
ATOM     77  C   UNL A   1      38.693  30.641  31.062  1.00  0.00     0.023 A 
ATOM     78  C   UNL A   1      38.603  30.454  32.456  1.00  0.00     0.012 A 
ATOM     79  C   UNL A   1      37.642  31.295  30.389  1.00  0.00     0.148 A 
ATOM     80  C   UNL A   1      37.476  30.880  33.160  1.00  0.00     0.002 A 
ATOM     81  C   UNL A   1      36.548  31.766  31.105  1.00  0.00     0.091 A 
ATOM     82  F   UNL A   1      37.735  31.443  29.060  1.00  0.00    -0.205 F 
ATOM     83  C   UNL A   1      36.454  31.545  32.487  1.00  0.00     0.022 A 
BRANCH  81  84
ATOM     84  S   UNL A   1      35.249  32.744  30.340  1.00  0.00     0.127 S 
ATOM     85  O   UNL A   1      34.706  31.805  29.362  1.00  0.00    -0.237 OA
ATOM     86  O   UNL A   1      34.374  33.025  31.478  1.00  0.00    -0.237 OA
ATOM     87  O   UNL A   1      35.916  33.917  29.792  1.00  0.00    -0.744 OA
ENDBRANCH  81  84
ENDBRANCH  53  77
BRANCH  65  88
ATOM     88  C   UNL A   1      44.734  33.642  29.257  1.00  0.00     0.023 A 
ATOM     89  C   UNL A   1      44.482  34.658  28.313  1.00  0.00     0.012 A 
ATOM     90  C   UNL A   1      45.447  33.952  30.432  1.00  0.00     0.148 A 
ATOM     91  C   UNL A   1      44.961  35.952  28.518  1.00  0.00     0.002 A 
ATOM     92  C   UNL A   1      45.879  35.255  30.653  1.00  0.00     0.091 A 
ATOM     93  F   UNL A   1      45.692  32.969  31.311  1.00  0.00    -0.205 F 
ATOM     94  C   UNL A   1      45.648  36.253  29.692  1.00  0.00     0.022 A 
BRANCH  92  95
ATOM     95  S   UNL A   1      46.685  35.755  32.179  1.00  0.00     0.127 S 
ATOM     96  O   UNL A   1      47.884  34.917  32.171  1.00  0.00    -0.237 OA
ATOM     97  O   UNL A   1      46.935  37.178  31.948  1.00  0.00    -0.237 OA
ATOM     98  O   UNL A   1      45.733  35.475  33.245  1.00  0.00    -0.744 OA
ENDBRANCH  92  95
ENDBRANCH  65  88
ENDBRANCH  39  40
ENDBRANCH  32  34
ENDBRANCH  31  32
ENDBRANCH  30  31
ENDBRANCH   1  30
TORSDOF 19
ENDMDL
MODEL 3
REMARK VINA RESULT:     -12.3      4.803     10.395
REMARK SMILES CN1C(=O)C[C@@H](C(=O)OCCOCCOC(=O)c2ccc(-c3c4nc(c(-c5cccc(S(=O)(=O)[O-])c5F)c5ccc([nH]5)c(-c5cccc(S(=O)(=O)[O-])c5F)c5nc(c(-c6cccc(S(=O)(=O)[O-])c6F)c6ccc3[nH]6)C=C5)C=C4)cc2)C12CCN(S(=O)(=O)c1ccccc1F)CC2
REMARK SMILES IDX 13 1 12 2 11 3 10 4 9 5 7 6 8 7 6 8 1 9 2 10 3 11 81 12 4 13
REMARK SMILES IDX 5 14 82 15 96 16 83 17 95 18 84 19 85 20 86 21 87 22 88 23
REMARK SMILES IDX 89 24 93 25 90 26 92 27 94 28 91 29 14 30 15 31 16 32 17 33
REMARK SMILES IDX 18 34 19 35 80 36 20 37 79 38 21 39 22 40 23 41 73 42 24 43
REMARK SMILES IDX 78 44 72 45 74 46 25 47 77 48 71 49 70 50 26 52 58 53 38 54
REMARK SMILES IDX 57 55 39 56 42 57 56 58 75 59 40 60 41 61 55 63 76 64 43 65
REMARK SMILES IDX 27 66 28 67 36 68 29 69 31 70 37 71 30 72 32 73 33 74 34 75
REMARK SMILES IDX 35 76 59 77 60 78 68 79 61 80 63 81 69 82 62 83 64 84 65 85
REMARK SMILES IDX 66 86 67 87 44 88 45 89 53 90 46 91 48 92 54 93 47 94 49 95
REMARK SMILES IDX 50 96 51 97 52 98
REMARK H PARENT 74 51 42 62
REMARK Flexibility Score: inf
ROOT
ATOM      1  C   UNL A   1      31.405  30.451  26.236  1.00  0.00     0.202 C 
ENDROOT
BRANCH   1   2
ATOM      2  O   UNL A   1      31.969  29.832  25.082  1.00  0.00    -0.374 OA
BRANCH   2   3
ATOM      3  C   UNL A   1      33.302  29.337  25.179  1.00  0.00     0.202 C 
BRANCH   3   4
ATOM      4  C   UNL A   1      33.675  28.111  24.328  1.00  0.00     0.261 C 
BRANCH   4   5
ATOM      5  O   UNL A   1      32.790  27.791  23.230  1.00  0.00    -0.463 OA
BRANCH   5   6
ATOM      6  C   UNL A   1      33.117  26.685  22.521  1.00  0.00     0.311 C 
ATOM      7  O   UNL A   1      34.044  26.637  21.716  1.00  0.00    -0.252 OA
BRANCH   6   8
ATOM      8  C   UNL A   1      32.196  25.485  22.685  1.00  0.00     0.134 C 
ATOM      9  C   UNL A   1      30.505  24.921  25.997  1.00  0.00     0.147 C 
ATOM     10  N   UNL A   1      30.904  25.220  24.629  1.00  0.00    -0.339 N 
ATOM     11  C   UNL A   1      30.124  25.987  23.783  1.00  0.00     0.223 C 
ATOM     12  C   UNL A   1      32.075  24.626  23.972  1.00  0.00     0.059 C 
ATOM     13  O   UNL A   1      29.059  26.519  24.045  1.00  0.00    -0.275 OA
ATOM     14  C   UNL A   1      30.772  26.001  22.428  1.00  0.00     0.118 C 
ATOM     15  C   UNL A   1      33.302  24.612  24.892  1.00  0.00     0.046 C 
ATOM     16  C   UNL A   1      31.716  23.149  23.581  1.00  0.00     0.046 C 
ATOM     17  C   UNL A   1      34.434  23.774  24.331  1.00  0.00     0.105 C 
ATOM     18  C   UNL A   1      32.908  22.274  23.175  1.00  0.00     0.105 C 
ATOM     19  N   UNL A   1      34.029  22.365  24.153  1.00  0.00    -0.198 NA
BRANCH  19  20
ATOM     20  S   UNL A   1      33.866  21.344  25.528  1.00  0.00     0.245 S 
ATOM     21  O   UNL A   1      35.074  21.436  26.321  1.00  0.00    -0.207 OA
ATOM     22  O   UNL A   1      32.594  21.695  26.130  1.00  0.00    -0.207 OA
BRANCH  20  23
ATOM     23  C   UNL A   1      33.723  19.687  24.926  1.00  0.00     0.118 A 
ATOM     24  C   UNL A   1      32.465  19.081  24.822  1.00  0.00     0.025 A 
ATOM     25  C   UNL A   1      34.866  18.937  24.664  1.00  0.00     0.143 A 
ATOM     26  C   UNL A   1      32.368  17.747  24.409  1.00  0.00     0.002 A 
ATOM     27  C   UNL A   1      34.770  17.623  24.216  1.00  0.00     0.041 A 
ATOM     28  F   UNL A   1      36.093  19.454  24.797  1.00  0.00    -0.206 F 
ATOM     29  C   UNL A   1      33.519  17.025  24.090  1.00  0.00     0.003 A 
ENDBRANCH  20  23
ENDBRANCH  19  20
ENDBRANCH   6   8
ENDBRANCH   5   6
ENDBRANCH   4   5
ENDBRANCH   3   4
ENDBRANCH   2   3
ENDBRANCH   1   2
BRANCH   1  30
ATOM     30  C   UNL A   1      31.802  31.908  26.479  1.00  0.00     0.261 C 
BRANCH  30  31
ATOM     31  O   UNL A   1      32.448  32.055  27.753  1.00  0.00    -0.460 OA
BRANCH  31  32
ATOM     32  C   UNL A   1      33.415  33.001  27.762  1.00  0.00     0.338 C 
ATOM     33  O   UNL A   1      33.251  34.207  27.721  1.00  0.00    -0.246 OA
BRANCH  32  34
ATOM     34  C   UNL A   1      34.726  32.368  27.996  1.00  0.00     0.060 A 
ATOM     35  C   UNL A   1      34.756  31.019  28.371  1.00  0.00     0.016 A 
ATOM     36  C   UNL A   1      35.893  33.132  27.997  1.00  0.00     0.016 A 
ATOM     37  C   UNL A   1      35.948  30.450  28.820  1.00  0.00     0.010 A 
ATOM     38  C   UNL A   1      37.091  32.553  28.437  1.00  0.00     0.010 A 
ATOM     39  C   UNL A   1      37.115  31.225  28.902  1.00  0.00    -0.014 A 
BRANCH  39  40
ATOM     40  C   UNL A   1      38.302  30.680  29.615  1.00  0.00     0.031 A 
ATOM     41  C   UNL A   1      38.561  31.095  31.042  1.00  0.00     0.074 A 
ATOM     42  C   UNL A   1      39.117  29.789  29.021  1.00  0.00     0.049 A 
ATOM     43  N   UNL A   1      39.484  30.679  31.873  1.00  0.00    -0.248 NA
ATOM     44  C   UNL A   1      37.660  32.111  31.612  1.00  0.00     0.031 C 
ATOM     45  C   UNL A   1      38.988  29.317  27.643  1.00  0.00     0.029 A 
ATOM     46  N   UNL A   1      40.222  29.128  29.500  1.00  0.00    -0.354 N 
ATOM     47  C   UNL A   1      39.287  31.391  33.051  1.00  0.00     0.074 A 
ATOM     48  C   UNL A   1      38.171  32.283  32.823  1.00  0.00     0.031 C 
ATOM     49  C   UNL A   1      39.980  28.447  27.385  1.00  0.00     0.029 A 
ATOM     50  C   UNL A   1      40.822  28.310  28.571  1.00  0.00     0.049 A 
ATOM     51  H   UNL A   1      40.552  29.231  30.421  1.00  0.00     0.167 HD
ATOM     52  C   UNL A   1      39.957  31.296  34.225  1.00  0.00     0.034 A 
ATOM     53  C   UNL A   1      41.927  27.542  28.666  1.00  0.00     0.034 A 
ATOM     54  C   UNL A   1      41.054  30.397  34.461  1.00  0.00     0.049 A 
ATOM     55  C   UNL A   1      42.658  27.461  29.981  1.00  0.00     0.074 A 
ATOM     56  C   UNL A   1      41.763  30.193  35.631  1.00  0.00     0.029 A 
ATOM     57  N   UNL A   1      41.611  29.561  33.506  1.00  0.00    -0.354 N 
ATOM     58  N   UNL A   1      42.370  28.034  31.125  1.00  0.00    -0.248 NA
ATOM     59  C   UNL A   1      43.848  26.597  30.030  1.00  0.00     0.031 C 
ATOM     60  C   UNL A   1      42.766  29.252  35.377  1.00  0.00     0.029 A 
ATOM     61  C   UNL A   1      42.664  28.850  34.055  1.00  0.00     0.049 A 
ATOM     62  H   UNL A   1      41.304  29.486  32.573  1.00  0.00     0.167 HD
ATOM     63  C   UNL A   1      43.319  27.576  32.033  1.00  0.00     0.074 A 
ATOM     64  C   UNL A   1      44.176  26.657  31.314  1.00  0.00     0.031 C 
ATOM     65  C   UNL A   1      43.477  27.899  33.342  1.00  0.00     0.034 A 
BRANCH  52  66
ATOM     66  C   UNL A   1      39.495  32.167  35.366  1.00  0.00     0.023 A 
ATOM     67  C   UNL A   1      38.643  31.627  36.352  1.00  0.00     0.012 A 
ATOM     68  C   UNL A   1      39.951  33.494  35.499  1.00  0.00     0.148 A 
ATOM     69  C   UNL A   1      38.227  32.402  37.434  1.00  0.00     0.002 A 
ATOM     70  C   UNL A   1      39.565  34.247  36.601  1.00  0.00     0.091 A 
ATOM     71  F   UNL A   1      40.745  33.995  34.542  1.00  0.00    -0.205 F 
ATOM     72  C   UNL A   1      38.695  33.707  37.563  1.00  0.00     0.022 A 
BRANCH  70  73
ATOM     73  S   UNL A   1      40.169  35.912  36.899  1.00  0.00     0.127 S 
ATOM     74  O   UNL A   1      39.497  36.249  38.153  1.00  0.00    -0.237 OA
ATOM     75  O   UNL A   1      41.612  35.698  37.021  1.00  0.00    -0.237 OA
ATOM     76  O   UNL A   1      39.767  36.699  35.743  1.00  0.00    -0.744 OA
ENDBRANCH  70  73
ENDBRANCH  52  66
BRANCH  53  77
ATOM     77  C   UNL A   1      42.386  26.745  27.492  1.00  0.00     0.023 A 
ATOM     78  C   UNL A   1      43.127  27.370  26.470  1.00  0.00     0.012 A 
ATOM     79  C   UNL A   1      42.097  25.370  27.388  1.00  0.00     0.148 A 
ATOM     80  C   UNL A   1      43.545  26.648  25.351  1.00  0.00     0.002 A 
ATOM     81  C   UNL A   1      42.564  24.645  26.298  1.00  0.00     0.091 A 
ATOM     82  F   UNL A   1      41.371  24.798  28.359  1.00  0.00    -0.205 F 
ATOM     83  C   UNL A   1      43.273  25.284  25.270  1.00  0.00     0.022 A 
BRANCH  81  84
ATOM     84  S   UNL A   1      42.370  22.863  26.175  1.00  0.00     0.127 S 
ATOM     85  O   UNL A   1      43.149  22.398  27.319  1.00  0.00    -0.237 OA
ATOM     86  O   UNL A   1      40.922  22.707  26.311  1.00  0.00    -0.237 OA
ATOM     87  O   UNL A   1      42.892  22.504  24.864  1.00  0.00    -0.744 OA
ENDBRANCH  81  84
ENDBRANCH  53  77
BRANCH  65  88
ATOM     88  C   UNL A   1      44.600  27.235  34.097  1.00  0.00     0.023 A 
ATOM     89  C   UNL A   1      45.906  27.756  34.009  1.00  0.00     0.012 A 
ATOM     90  C   UNL A   1      44.348  26.141  34.950  1.00  0.00     0.148 A 
ATOM     91  C   UNL A   1      46.951  27.179  34.732  1.00  0.00     0.002 A 
ATOM     92  C   UNL A   1      45.384  25.602  35.704  1.00  0.00     0.091 A 
ATOM     93  F   UNL A   1      43.103  25.648  35.007  1.00  0.00    -0.205 F 
ATOM     94  C   UNL A   1      46.687  26.111  35.587  1.00  0.00     0.022 A 
BRANCH  92  95
ATOM     95  S   UNL A   1      45.118  24.290  36.903  1.00  0.00     0.127 S 
ATOM     96  O   UNL A   1      44.866  23.141  36.035  1.00  0.00    -0.237 OA
ATOM     97  O   UNL A   1      46.398  24.251  37.611  1.00  0.00    -0.237 OA
ATOM     98  O   UNL A   1      43.991  24.717  37.720  1.00  0.00    -0.744 OA
ENDBRANCH  92  95
ENDBRANCH  65  88
ENDBRANCH  39  40
ENDBRANCH  32  34
ENDBRANCH  31  32
ENDBRANCH  30  31
ENDBRANCH   1  30
TORSDOF 19
ENDMDL
