MODEL 1
REMARK VINA RESULT:     -12.3      0.000      0.000
REMARK SMILES Cc1ccc(S(=O)(=O)N2c3ccc(C(=O)OCCOCCOC(=O)c4ccc(-c5c6nc(c(-c7cccc(S(=O)(=O)[O-])c7F)c7ccc([nH]7)c(-c7cccc(S(=O)(=O)[O-])c7F)c7nc(c(-c8cccc(S(=O)(=O)[O-])c8F)c8ccc5[nH]8)C=C7)C=C6)cc4)cc3C[C@H]2C)cc1
REMARK SMILES IDX 20 1 19 2 18 3 17 4 16 5 14 6 15 7 13 8 9 9 10 10 91 11
REMARK SMILES IDX 11 12 89 13 90 14 92 15 12 16 88 17 6 18 7 19 8 20 5 21 1 22
REMARK SMILES IDX 2 23 3 24 94 25 4 26 93 27 21 28 22 29 23 30 24 31 25 32
REMARK SMILES IDX 26 33 87 34 27 35 86 36 28 37 29 38 30 39 80 40 31 41 85 42
REMARK SMILES IDX 79 43 81 44 32 45 84 46 78 47 77 48 33 50 65 51 45 52 64 53
REMARK SMILES IDX 46 54 49 55 63 56 82 57 47 58 48 59 62 61 83 62 50 63 34 64
REMARK SMILES IDX 35 65 43 66 36 67 38 68 44 69 37 70 39 71 40 72 41 73 42 74
REMARK SMILES IDX 66 75 67 76 75 77 68 78 70 79 76 80 69 81 71 82 72 83 73 84
REMARK SMILES IDX 74 85 51 86 52 87 60 88 53 89 55 90 61 91 54 92 56 93 57 94
REMARK SMILES IDX 58 95 59 96
REMARK H PARENT 81 49 49 60
REMARK Flexibility Score: inf
ROOT
ATOM      1  C   UNL A   1      43.062  18.530  26.006  1.00  0.00     0.202 C 
ENDROOT
BRANCH   1   2
ATOM      2  O   UNL A   1      42.010  19.298  25.491  1.00  0.00    -0.374 OA
BRANCH   2   3
ATOM      3  C   UNL A   1      40.966  19.640  26.383  1.00  0.00     0.202 C 
BRANCH   3   4
ATOM      4  C   UNL A   1      40.799  21.106  26.190  1.00  0.00     0.261 C 
BRANCH   4   5
ATOM      5  O   UNL A   1      39.450  21.396  25.783  1.00  0.00    -0.460 OA
BRANCH   5   6
ATOM      6  C   UNL A   1      38.808  22.528  26.202  1.00  0.00     0.338 C 
ATOM      7  O   UNL A   1      39.200  23.468  26.838  1.00  0.00    -0.246 OA
BRANCH   6   8
ATOM      8  C   UNL A   1      37.519  22.515  25.500  1.00  0.00     0.060 A 
ATOM      9  N   UNL A   1      33.504  22.218  24.566  1.00  0.00    -0.263 N 
ATOM     10  C   UNL A   1      34.884  22.454  24.880  1.00  0.00     0.055 A 
ATOM     11  C   UNL A   1      33.340  20.727  24.810  1.00  0.00     0.101 C 
ATOM     12  C   UNL A   1      35.468  23.693  25.035  1.00  0.00     0.028 A 
ATOM     13  C   UNL A   1      35.601  21.259  24.962  1.00  0.00    -0.021 A 
ATOM     14  C   UNL A   1      34.733  20.085  24.683  1.00  0.00     0.063 C 
ATOM     15  C   UNL A   1      32.799  20.575  26.246  1.00  0.00     0.032 C 
ATOM     16  C   UNL A   1      36.817  23.722  25.313  1.00  0.00     0.018 A 
ATOM     17  C   UNL A   1      36.942  21.267  25.259  1.00  0.00     0.021 A 
BRANCH   9  18
ATOM     18  S   UNL A   1      33.198  22.837  22.990  1.00  0.00     0.264 S 
ATOM     19  O   UNL A   1      32.349  21.894  22.291  1.00  0.00    -0.201 OA
ATOM     20  O   UNL A   1      34.462  23.277  22.425  1.00  0.00    -0.201 OA
BRANCH  18  21
ATOM     21  C   UNL A   1      32.251  24.318  23.145  1.00  0.00     0.088 A 
ATOM     22  C   UNL A   1      29.996  27.929  22.781  1.00  0.00     0.044 C 
ATOM     23  C   UNL A   1      30.800  26.682  22.964  1.00  0.00    -0.051 A 
ATOM     24  C   UNL A   1      32.155  26.669  22.617  1.00  0.00     0.005 A 
ATOM     25  C   UNL A   1      30.208  25.528  23.490  1.00  0.00     0.005 A 
ATOM     26  C   UNL A   1      32.877  25.486  22.696  1.00  0.00     0.022 A 
ATOM     27  C   UNL A   1      30.944  24.353  23.614  1.00  0.00     0.022 A 
ENDBRANCH  18  21
ENDBRANCH   9  18
ENDBRANCH   6   8
ENDBRANCH   5   6
ENDBRANCH   4   5
ENDBRANCH   3   4
ENDBRANCH   2   3
ENDBRANCH   1   2
BRANCH   1  28
ATOM     28  C   UNL A   1      44.281  18.569  25.087  1.00  0.00     0.261 C 
BRANCH  28  29
ATOM     29  O   UNL A   1      44.339  19.856  24.433  1.00  0.00    -0.460 OA
BRANCH  29  30
ATOM     30  C   UNL A   1      45.244  20.741  24.950  1.00  0.00     0.338 C 
ATOM     31  O   UNL A   1      46.375  20.431  25.289  1.00  0.00    -0.246 OA
BRANCH  30  32
ATOM     32  C   UNL A   1      44.581  22.051  25.243  1.00  0.00     0.060 A 
ATOM     33  C   UNL A   1      44.587  23.085  24.287  1.00  0.00     0.016 A 
ATOM     34  C   UNL A   1      44.234  22.343  26.559  1.00  0.00     0.016 A 
ATOM     35  C   UNL A   1      44.436  24.427  24.682  1.00  0.00     0.010 A 
ATOM     36  C   UNL A   1      44.168  23.666  26.952  1.00  0.00     0.010 A 
ATOM     37  C   UNL A   1      44.336  24.722  26.034  1.00  0.00    -0.014 A 
BRANCH  37  38
ATOM     38  C   UNL A   1      44.361  26.057  26.647  1.00  0.00     0.031 A 
ATOM     39  C   UNL A   1      43.052  26.730  26.755  1.00  0.00     0.074 A 
ATOM     40  C   UNL A   1      45.405  26.500  27.395  1.00  0.00     0.049 A 
ATOM     41  N   UNL A   1      42.871  27.905  27.239  1.00  0.00    -0.248 NA
ATOM     42  C   UNL A   1      41.817  26.104  26.289  1.00  0.00     0.031 C 
ATOM     43  C   UNL A   1      45.346  27.283  28.634  1.00  0.00     0.029 A 
ATOM     44  N   UNL A   1      46.768  26.285  27.238  1.00  0.00    -0.354 N 
ATOM     45  C   UNL A   1      41.521  28.051  27.454  1.00  0.00     0.074 A 
ATOM     46  C   UNL A   1      40.901  26.938  26.781  1.00  0.00     0.031 C 
ATOM     47  C   UNL A   1      46.591  27.610  29.033  1.00  0.00     0.029 A 
ATOM     48  C   UNL A   1      47.513  27.196  27.988  1.00  0.00     0.049 A 
ATOM     49  H   UNL A   1      47.159  25.581  26.671  1.00  0.00     0.167 HD
ATOM     50  C   UNL A   1      41.104  29.010  28.326  1.00  0.00     0.034 A 
ATOM     51  C   UNL A   1      48.478  27.934  27.376  1.00  0.00     0.034 A 
ATOM     52  C   UNL A   1      42.264  29.783  28.827  1.00  0.00     0.049 A 
ATOM     53  C   UNL A   1      47.971  29.348  27.275  1.00  0.00     0.074 A 
ATOM     54  C   UNL A   1      43.013  29.710  29.993  1.00  0.00     0.029 A 
ATOM     55  N   UNL A   1      43.044  30.514  27.923  1.00  0.00    -0.354 N 
ATOM     56  N   UNL A   1      46.745  29.662  27.590  1.00  0.00    -0.248 NA
ATOM     57  C   UNL A   1      48.760  30.518  26.915  1.00  0.00     0.031 C 
ATOM     58  C   UNL A   1      44.283  30.312  29.743  1.00  0.00     0.029 A 
ATOM     59  C   UNL A   1      44.309  30.786  28.437  1.00  0.00     0.049 A 
ATOM     60  H   UNL A   1      42.736  30.801  27.033  1.00  0.00     0.167 HD
ATOM     61  C   UNL A   1      46.537  30.988  27.464  1.00  0.00     0.074 A 
ATOM     62  C   UNL A   1      47.843  31.495  27.059  1.00  0.00     0.031 C 
ATOM     63  C   UNL A   1      45.302  31.538  27.660  1.00  0.00     0.034 A 
BRANCH  50  64
ATOM     64  C   UNL A   1      39.718  28.994  28.956  1.00  0.00     0.023 A 
ATOM     65  C   UNL A   1      38.612  29.207  28.107  1.00  0.00     0.012 A 
ATOM     66  C   UNL A   1      39.415  28.840  30.333  1.00  0.00     0.148 A 
ATOM     67  C   UNL A   1      37.304  29.343  28.592  1.00  0.00     0.002 A 
ATOM     68  C   UNL A   1      38.123  29.058  30.830  1.00  0.00     0.091 A 
ATOM     69  F   UNL A   1      40.348  28.378  31.173  1.00  0.00    -0.205 F 
ATOM     70  C   UNL A   1      37.063  29.307  29.958  1.00  0.00     0.022 A 
BRANCH  68  71
ATOM     71  S   UNL A   1      37.766  29.130  32.598  1.00  0.00     0.127 S 
ATOM     72  O   UNL A   1      36.434  29.742  32.627  1.00  0.00    -0.237 OA
ATOM     73  O   UNL A   1      37.791  27.722  32.983  1.00  0.00    -0.237 OA
ATOM     74  O   UNL A   1      38.809  29.969  33.177  1.00  0.00    -0.744 OA
ENDBRANCH  68  71
ENDBRANCH  50  64
BRANCH  51  75
ATOM     75  C   UNL A   1      49.258  27.117  26.382  1.00  0.00     0.023 A 
ATOM     76  C   UNL A   1      48.960  27.359  25.011  1.00  0.00     0.012 A 
ATOM     77  C   UNL A   1      50.515  26.568  26.701  1.00  0.00     0.148 A 
ATOM     78  C   UNL A   1      49.917  27.166  24.007  1.00  0.00     0.002 A 
ATOM     79  C   UNL A   1      51.485  26.440  25.702  1.00  0.00     0.091 A 
ATOM     80  F   UNL A   1      50.774  26.268  27.980  1.00  0.00    -0.205 F 
ATOM     81  C   UNL A   1      51.193  26.746  24.361  1.00  0.00     0.022 A 
BRANCH  79  82
ATOM     82  S   UNL A   1      53.219  26.129  26.080  1.00  0.00     0.127 S 
ATOM     83  O   UNL A   1      53.176  24.759  26.580  1.00  0.00    -0.237 OA
ATOM     84  O   UNL A   1      53.847  26.280  24.766  1.00  0.00    -0.237 OA
ATOM     85  O   UNL A   1      53.600  27.147  27.048  1.00  0.00    -0.744 OA
ENDBRANCH  79  82
ENDBRANCH  51  75
BRANCH  63  86
ATOM     86  C   UNL A   1      44.967  32.891  27.112  1.00  0.00     0.023 A 
ATOM     87  C   UNL A   1      44.690  33.070  25.741  1.00  0.00     0.012 A 
ATOM     88  C   UNL A   1      44.746  33.987  27.972  1.00  0.00     0.148 A 
ATOM     89  C   UNL A   1      44.323  34.308  25.223  1.00  0.00     0.002 A 
ATOM     90  C   UNL A   1      44.243  35.176  27.469  1.00  0.00     0.091 A 
ATOM     91  F   UNL A   1      45.030  33.882  29.277  1.00  0.00    -0.205 F 
ATOM     92  C   UNL A   1      44.079  35.358  26.092  1.00  0.00     0.022 A 
BRANCH  90  93
ATOM     93  S   UNL A   1      43.620  36.454  28.564  1.00  0.00     0.127 S 
ATOM     94  O   UNL A   1      42.707  35.697  29.416  1.00  0.00    -0.237 OA
ATOM     95  O   UNL A   1      44.843  36.909  29.228  1.00  0.00    -0.237 OA
ATOM     96  O   UNL A   1      43.008  37.448  27.694  1.00  0.00    -0.744 OA
ENDBRANCH  90  93
ENDBRANCH  63  86
ENDBRANCH  37  38
ENDBRANCH  30  32
ENDBRANCH  29  30
ENDBRANCH  28  29
ENDBRANCH   1  28
TORSDOF 19
ENDMDL
MODEL 2
REMARK VINA RESULT:     -11.9      4.630     10.094
REMARK SMILES Cc1ccc(S(=O)(=O)N2c3ccc(C(=O)OCCOCCOC(=O)c4ccc(-c5c6nc(c(-c7cccc(S(=O)(=O)[O-])c7F)c7ccc([nH]7)c(-c7cccc(S(=O)(=O)[O-])c7F)c7nc(c(-c8cccc(S(=O)(=O)[O-])c8F)c8ccc5[nH]8)C=C7)C=C6)cc4)cc3C[C@H]2C)cc1
REMARK SMILES IDX 20 1 19 2 18 3 17 4 16 5 14 6 15 7 13 8 9 9 10 10 91 11
REMARK SMILES IDX 11 12 89 13 90 14 92 15 12 16 88 17 6 18 7 19 8 20 5 21 1 22
REMARK SMILES IDX 2 23 3 24 94 25 4 26 93 27 21 28 22 29 23 30 24 31 25 32
REMARK SMILES IDX 26 33 87 34 27 35 86 36 28 37 29 38 30 39 80 40 31 41 85 42
REMARK SMILES IDX 79 43 81 44 32 45 84 46 78 47 77 48 33 50 65 51 45 52 64 53
REMARK SMILES IDX 46 54 49 55 63 56 82 57 47 58 48 59 62 61 83 62 50 63 34 64
REMARK SMILES IDX 35 65 43 66 36 67 38 68 44 69 37 70 39 71 40 72 41 73 42 74
REMARK SMILES IDX 66 75 67 76 75 77 68 78 70 79 76 80 69 81 71 82 72 83 73 84
REMARK SMILES IDX 74 85 51 86 52 87 60 88 53 89 55 90 61 91 54 92 56 93 57 94
REMARK SMILES IDX 58 95 59 96
REMARK H PARENT 81 49 49 60
REMARK Flexibility Score: inf
ROOT
ATOM      1  C   UNL A   1      33.495  29.019  26.800  1.00  0.00     0.202 C 
ENDROOT
BRANCH   1   2
ATOM      2  O   UNL A   1      33.533  28.812  25.415  1.00  0.00    -0.374 OA
BRANCH   2   3
ATOM      3  C   UNL A   1      32.444  29.310  24.661  1.00  0.00     0.202 C 
BRANCH   3   4
ATOM      4  C   UNL A   1      32.959  29.330  23.265  1.00  0.00     0.261 C 
BRANCH   4   5
ATOM      5  O   UNL A   1      32.925  28.003  22.711  1.00  0.00    -0.460 OA
BRANCH   5   6
ATOM      6  C   UNL A   1      31.772  27.268  22.692  1.00  0.00     0.338 C 
ATOM      7  O   UNL A   1      30.730  27.449  22.124  1.00  0.00    -0.246 OA
BRANCH   6   8
ATOM      8  C   UNL A   1      32.117  26.004  23.353  1.00  0.00     0.060 A 
ATOM      9  N   UNL A   1      34.130  22.911  25.216  1.00  0.00    -0.263 N 
ATOM     10  C   UNL A   1      33.380  24.015  24.688  1.00  0.00     0.055 A 
ATOM     11  C   UNL A   1      35.000  22.489  24.043  1.00  0.00     0.101 C 
ATOM     12  C   UNL A   1      32.614  24.889  25.431  1.00  0.00     0.028 A 
ATOM     13  C   UNL A   1      33.469  24.076  23.297  1.00  0.00    -0.021 A 
ATOM     14  C   UNL A   1      34.303  22.971  22.757  1.00  0.00     0.063 C 
ATOM     15  C   UNL A   1      36.357  23.199  24.225  1.00  0.00     0.032 C 
ATOM     16  C   UNL A   1      31.943  25.877  24.745  1.00  0.00     0.018 A 
ATOM     17  C   UNL A   1      32.824  25.067  22.598  1.00  0.00     0.021 A 
BRANCH   9  18
ATOM     18  S   UNL A   1      33.022  21.774  25.876  1.00  0.00     0.264 S 
ATOM     19  O   UNL A   1      31.703  22.077  25.362  1.00  0.00    -0.201 OA
ATOM     20  O   UNL A   1      33.271  21.678  27.304  1.00  0.00    -0.201 OA
BRANCH  18  21
ATOM     21  C   UNL A   1      33.427  20.173  25.254  1.00  0.00     0.088 A 
ATOM     22  C   UNL A   1      34.161  16.556  23.101  1.00  0.00     0.044 C 
ATOM     23  C   UNL A   1      33.901  17.789  23.905  1.00  0.00    -0.051 A 
ATOM     24  C   UNL A   1      32.587  18.225  24.106  1.00  0.00     0.005 A 
ATOM     25  C   UNL A   1      34.963  18.507  24.466  1.00  0.00     0.005 A 
ATOM     26  C   UNL A   1      32.351  19.422  24.769  1.00  0.00     0.022 A 
ATOM     27  C   UNL A   1      34.724  19.682  25.172  1.00  0.00     0.022 A 
ENDBRANCH  18  21
ENDBRANCH   9  18
ENDBRANCH   6   8
ENDBRANCH   5   6
ENDBRANCH   4   5
ENDBRANCH   3   4
ENDBRANCH   2   3
ENDBRANCH   1   2
BRANCH   1  28
ATOM     28  C   UNL A   1      33.223  30.482  27.137  1.00  0.00     0.261 C 
BRANCH  28  29
ATOM     29  O   UNL A   1      34.479  31.190  27.219  1.00  0.00    -0.460 OA
BRANCH  29  30
ATOM     30  C   UNL A   1      35.038  31.260  28.464  1.00  0.00     0.338 C 
ATOM     31  O   UNL A   1      34.820  32.164  29.255  1.00  0.00    -0.246 OA
BRANCH  30  32
ATOM     32  C   UNL A   1      36.102  30.217  28.616  1.00  0.00     0.060 A 
ATOM     33  C   UNL A   1      36.267  29.536  29.837  1.00  0.00     0.016 A 
ATOM     34  C   UNL A   1      37.108  30.145  27.655  1.00  0.00     0.016 A 
ATOM     35  C   UNL A   1      37.503  28.952  30.171  1.00  0.00     0.010 A 
ATOM     36  C   UNL A   1      38.342  29.642  28.020  1.00  0.00     0.010 A 
ATOM     37  C   UNL A   1      38.574  29.103  29.302  1.00  0.00    -0.014 A 
BRANCH  37  38
ATOM     38  C   UNL A   1      39.973  28.733  29.556  1.00  0.00     0.031 A 
ATOM     39  C   UNL A   1      40.329  27.339  29.228  1.00  0.00     0.074 A 
ATOM     40  C   UNL A   1      40.957  29.656  29.717  1.00  0.00     0.049 A 
ATOM     41  N   UNL A   1      41.491  26.821  29.401  1.00  0.00    -0.248 NA
ATOM     42  C   UNL A   1      39.356  26.397  28.680  1.00  0.00     0.031 C 
ATOM     43  C   UNL A   1      42.326  29.600  29.195  1.00  0.00     0.029 A 
ATOM     44  N   UNL A   1      40.922  30.896  30.342  1.00  0.00    -0.354 N 
ATOM     45  C   UNL A   1      41.514  25.636  28.704  1.00  0.00     0.074 A 
ATOM     46  C   UNL A   1      40.145  25.379  28.336  1.00  0.00     0.031 C 
ATOM     47  C   UNL A   1      43.034  30.656  29.641  1.00  0.00     0.029 A 
ATOM     48  C   UNL A   1      42.209  31.364  30.606  1.00  0.00     0.049 A 
ATOM     49  H   UNL A   1      40.095  31.382  30.568  1.00  0.00     0.167 HD
ATOM     50  C   UNL A   1      42.722  25.100  28.376  1.00  0.00     0.034 A 
ATOM     51  C   UNL A   1      42.534  31.748  31.871  1.00  0.00     0.034 A 
ATOM     52  C   UNL A   1      43.816  25.925  28.940  1.00  0.00     0.049 A 
ATOM     53  C   UNL A   1      43.447  30.697  32.442  1.00  0.00     0.074 A 
ATOM     54  C   UNL A   1      44.629  26.909  28.397  1.00  0.00     0.029 A 
ATOM     55  N   UNL A   1      43.917  26.074  30.328  1.00  0.00    -0.354 N 
ATOM     56  N   UNL A   1      43.680  29.576  31.817  1.00  0.00    -0.248 NA
ATOM     57  C   UNL A   1      44.228  30.812  33.665  1.00  0.00     0.031 C 
ATOM     58  C   UNL A   1      45.134  27.708  29.468  1.00  0.00     0.029 A 
ATOM     59  C   UNL A   1      44.661  27.201  30.671  1.00  0.00     0.049 A 
ATOM     60  H   UNL A   1      43.513  25.459  30.982  1.00  0.00     0.167 HD
ATOM     61  C   UNL A   1      44.561  28.816  32.497  1.00  0.00     0.074 A 
ATOM     62  C   UNL A   1      44.902  29.645  33.648  1.00  0.00     0.031 C 
ATOM     63  C   UNL A   1      44.895  27.560  32.076  1.00  0.00     0.034 A 
BRANCH  50  64
ATOM     64  C   UNL A   1      42.881  24.056  27.279  1.00  0.00     0.023 A 
ATOM     65  C   UNL A   1      43.375  24.490  26.031  1.00  0.00     0.012 A 
ATOM     66  C   UNL A   1      42.533  22.683  27.359  1.00  0.00     0.148 A 
ATOM     67  C   UNL A   1      43.440  23.649  24.913  1.00  0.00     0.002 A 
ATOM     68  C   UNL A   1      42.518  21.863  26.223  1.00  0.00     0.091 A 
ATOM     69  F   UNL A   1      42.309  22.120  28.552  1.00  0.00    -0.205 F 
ATOM     70  C   UNL A   1      42.976  22.344  24.996  1.00  0.00     0.022 A 
BRANCH  68  71
ATOM     71  S   UNL A   1      41.829  20.194  26.244  1.00  0.00     0.127 S 
ATOM     72  O   UNL A   1      42.286  19.679  27.539  1.00  0.00    -0.237 OA
ATOM     73  O   UNL A   1      40.392  20.445  26.169  1.00  0.00    -0.237 OA
ATOM     74  O   UNL A   1      42.418  19.509  25.100  1.00  0.00    -0.744 OA
ENDBRANCH  68  71
ENDBRANCH  50  64
BRANCH  51  75
ATOM     75  C   UNL A   1      41.415  32.511  32.526  1.00  0.00     0.023 A 
ATOM     76  C   UNL A   1      41.008  33.705  31.866  1.00  0.00     0.012 A 
ATOM     77  C   UNL A   1      40.492  31.878  33.381  1.00  0.00     0.148 A 
ATOM     78  C   UNL A   1      39.698  34.189  31.967  1.00  0.00     0.002 A 
ATOM     79  C   UNL A   1      39.169  32.331  33.425  1.00  0.00     0.091 A 
ATOM     80  F   UNL A   1      40.891  30.798  34.063  1.00  0.00    -0.205 F 
ATOM     81  C   UNL A   1      38.769  33.476  32.714  1.00  0.00     0.022 A 
BRANCH  79  82
ATOM     82  S   UNL A   1      37.844  31.361  34.167  1.00  0.00     0.127 S 
ATOM     83  O   UNL A   1      37.180  32.354  35.006  1.00  0.00    -0.237 OA
ATOM     84  O   UNL A   1      37.079  30.944  32.991  1.00  0.00    -0.237 OA
ATOM     85  O   UNL A   1      38.501  30.272  34.873  1.00  0.00    -0.744 OA
ENDBRANCH  79  82
ENDBRANCH  51  75
BRANCH  63  86
ATOM     86  C   UNL A   1      45.507  26.569  33.018  1.00  0.00     0.023 A 
ATOM     87  C   UNL A   1      46.904  26.510  33.202  1.00  0.00     0.012 A 
ATOM     88  C   UNL A   1      44.701  25.791  33.874  1.00  0.00     0.148 A 
ATOM     89  C   UNL A   1      47.486  25.634  34.112  1.00  0.00     0.002 A 
ATOM     90  C   UNL A   1      45.281  25.029  34.875  1.00  0.00     0.091 A 
ATOM     91  F   UNL A   1      43.370  25.781  33.716  1.00  0.00    -0.205 F 
ATOM     92  C   UNL A   1      46.672  24.906  34.965  1.00  0.00     0.022 A 
BRANCH  90  93
ATOM     93  S   UNL A   1      44.291  24.318  36.191  1.00  0.00     0.127 S 
ATOM     94  O   UNL A   1      43.480  23.346  35.462  1.00  0.00    -0.237 OA
ATOM     95  O   UNL A   1      45.313  23.732  37.060  1.00  0.00    -0.237 OA
ATOM     96  O   UNL A   1      43.571  25.435  36.785  1.00  0.00    -0.744 OA
ENDBRANCH  90  93
ENDBRANCH  63  86
ENDBRANCH  37  38
ENDBRANCH  30  32
ENDBRANCH  29  30
ENDBRANCH  28  29
ENDBRANCH   1  28
TORSDOF 19
ENDMDL
MODEL 3
REMARK VINA RESULT:     -11.9      3.701      5.461
REMARK SMILES Cc1ccc(S(=O)(=O)N2c3ccc(C(=O)OCCOCCOC(=O)c4ccc(-c5c6nc(c(-c7cccc(S(=O)(=O)[O-])c7F)c7ccc([nH]7)c(-c7cccc(S(=O)(=O)[O-])c7F)c7nc(c(-c8cccc(S(=O)(=O)[O-])c8F)c8ccc5[nH]8)C=C7)C=C6)cc4)cc3C[C@H]2C)cc1
REMARK SMILES IDX 20 1 19 2 18 3 17 4 16 5 14 6 15 7 13 8 9 9 10 10 91 11
REMARK SMILES IDX 11 12 89 13 90 14 92 15 12 16 88 17 6 18 7 19 8 20 5 21 1 22
REMARK SMILES IDX 2 23 3 24 94 25 4 26 93 27 21 28 22 29 23 30 24 31 25 32
REMARK SMILES IDX 26 33 87 34 27 35 86 36 28 37 29 38 30 39 80 40 31 41 85 42
REMARK SMILES IDX 79 43 81 44 32 45 84 46 78 47 77 48 33 50 65 51 45 52 64 53
REMARK SMILES IDX 46 54 49 55 63 56 82 57 47 58 48 59 62 61 83 62 50 63 34 64
REMARK SMILES IDX 35 65 43 66 36 67 38 68 44 69 37 70 39 71 40 72 41 73 42 74
REMARK SMILES IDX 66 75 67 76 75 77 68 78 70 79 76 80 69 81 71 82 72 83 73 84
REMARK SMILES IDX 74 85 51 86 52 87 60 88 53 89 55 90 61 91 54 92 56 93 57 94
REMARK SMILES IDX 58 95 59 96
REMARK H PARENT 81 49 49 60
REMARK Flexibility Score: inf
ROOT
ATOM      1  C   UNL A   1      37.139  20.879  25.324  1.00  0.00     0.202 C 
ENDROOT
BRANCH   1   2
ATOM      2  O   UNL A   1      35.960  20.820  24.569  1.00  0.00    -0.374 OA
BRANCH   2   3
ATOM      3  C   UNL A   1      35.071  19.754  24.847  1.00  0.00     0.202 C 
BRANCH   3   4
ATOM      4  C   UNL A   1      33.727  20.389  24.791  1.00  0.00     0.261 C 
BRANCH   4   5
ATOM      5  O   UNL A   1      33.834  21.791  25.096  1.00  0.00    -0.460 OA
BRANCH   5   6
ATOM      6  C   UNL A   1      32.973  22.397  25.969  1.00  0.00     0.338 C 
ATOM      7  O   UNL A   1      32.772  22.208  27.138  1.00  0.00    -0.246 OA
BRANCH   6   8
ATOM      8  C   UNL A   1      32.454  23.562  25.243  1.00  0.00     0.060 A 
ATOM      9  N   UNL A   1      31.187  26.169  22.296  1.00  0.00    -0.263 N 
ATOM     10  C   UNL A   1      31.498  25.245  23.349  1.00  0.00     0.055 A 
ATOM     11  C   UNL A   1      32.532  26.405  21.630  1.00  0.00     0.101 C 
ATOM     12  C   UNL A   1      30.575  24.546  24.098  1.00  0.00     0.028 A 
ATOM     13  C   UNL A   1      32.873  25.169  23.573  1.00  0.00    -0.021 A 
ATOM     14  C   UNL A   1      33.622  26.079  22.668  1.00  0.00     0.063 C 
ATOM     15  C   UNL A   1      32.608  25.430  20.438  1.00  0.00     0.032 C 
ATOM     16  C   UNL A   1      31.063  23.720  25.086  1.00  0.00     0.018 A 
ATOM     17  C   UNL A   1      33.379  24.334  24.539  1.00  0.00     0.021 A 
BRANCH   9  18
ATOM     18  S   UNL A   1      30.359  27.510  22.985  1.00  0.00     0.264 S 
ATOM     19  O   UNL A   1      29.165  27.016  23.640  1.00  0.00    -0.201 OA
ATOM     20  O   UNL A   1      30.289  28.560  21.983  1.00  0.00    -0.201 OA
BRANCH  18  21
ATOM     21  C   UNL A   1      31.365  28.193  24.263  1.00  0.00     0.088 A 
ATOM     22  C   UNL A   1      34.050  29.155  27.444  1.00  0.00     0.044 C 
ATOM     23  C   UNL A   1      33.078  28.867  26.345  1.00  0.00    -0.051 A 
ATOM     24  C   UNL A   1      31.966  28.056  26.594  1.00  0.00     0.005 A 
ATOM     25  C   UNL A   1      33.268  29.410  25.070  1.00  0.00     0.005 A 
ATOM     26  C   UNL A   1      31.117  27.709  25.552  1.00  0.00     0.022 A 
ATOM     27  C   UNL A   1      32.391  29.101  24.035  1.00  0.00     0.022 A 
ENDBRANCH  18  21
ENDBRANCH   9  18
ENDBRANCH   6   8
ENDBRANCH   5   6
ENDBRANCH   4   5
ENDBRANCH   3   4
ENDBRANCH   2   3
ENDBRANCH   1   2
BRANCH   1  28
ATOM     28  C   UNL A   1      37.551  22.322  25.598  1.00  0.00     0.261 C 
BRANCH  28  29
ATOM     29  O   UNL A   1      38.985  22.438  25.462  1.00  0.00    -0.460 OA
BRANCH  29  30
ATOM     30  C   UNL A   1      39.663  22.753  26.606  1.00  0.00     0.338 C 
ATOM     31  O   UNL A   1      40.113  21.920  27.378  1.00  0.00    -0.246 OA
BRANCH  30  32
ATOM     32  C   UNL A   1      39.570  24.222  26.879  1.00  0.00     0.060 A 
ATOM     33  C   UNL A   1      40.286  25.143  26.090  1.00  0.00     0.016 A 
ATOM     34  C   UNL A   1      39.024  24.643  28.089  1.00  0.00     0.016 A 
ATOM     35  C   UNL A   1      40.617  26.414  26.595  1.00  0.00     0.010 A 
ATOM     36  C   UNL A   1      39.419  25.859  28.611  1.00  0.00     0.010 A 
ATOM     37  C   UNL A   1      40.274  26.728  27.902  1.00  0.00    -0.014 A 
BRANCH  37  38
ATOM     38  C   UNL A   1      40.691  27.915  28.660  1.00  0.00     0.031 A 
ATOM     39  C   UNL A   1      39.765  29.062  28.601  1.00  0.00     0.074 A 
ATOM     40  C   UNL A   1      41.635  27.867  29.635  1.00  0.00     0.049 A 
ATOM     41  N   UNL A   1      39.963  30.193  29.176  1.00  0.00    -0.248 NA
ATOM     42  C   UNL A   1      38.515  29.014  27.845  1.00  0.00     0.031 C 
ATOM     43  C   UNL A   1      41.624  28.567  30.924  1.00  0.00     0.029 A 
ATOM     44  N   UNL A   1      42.802  27.116  29.710  1.00  0.00    -0.354 N 
ATOM     45  C   UNL A   1      38.768  30.874  29.153  1.00  0.00     0.074 A 
ATOM     46  C   UNL A   1      37.920  30.135  28.251  1.00  0.00     0.031 C 
ATOM     47  C   UNL A   1      42.778  28.342  31.582  1.00  0.00     0.029 A 
ATOM     48  C   UNL A   1      43.663  27.618  30.686  1.00  0.00     0.049 A 
ATOM     49  H   UNL A   1      42.995  26.331  29.147  1.00  0.00     0.167 HD
ATOM     50  C   UNL A   1      38.586  31.893  30.037  1.00  0.00     0.034 A 
ATOM     51  C   UNL A   1      44.950  27.913  30.353  1.00  0.00     0.034 A 
ATOM     52  C   UNL A   1      39.819  32.106  30.831  1.00  0.00     0.049 A 
ATOM     53  C   UNL A   1      45.078  29.412  30.325  1.00  0.00     0.074 A 
ATOM     54  C   UNL A   1      40.205  31.696  32.099  1.00  0.00     0.029 A 
ATOM     55  N   UNL A   1      40.999  32.479  30.178  1.00  0.00    -0.354 N 
ATOM     56  N   UNL A   1      44.039  30.193  30.441  1.00  0.00    -0.248 NA
ATOM     57  C   UNL A   1      46.322  30.166  30.256  1.00  0.00     0.031 C 
ATOM     58  C   UNL A   1      41.632  31.731  32.160  1.00  0.00     0.029 A 
ATOM     59  C   UNL A   1      42.124  32.191  30.946  1.00  0.00     0.049 A 
ATOM     60  H   UNL A   1      41.031  32.893  29.286  1.00  0.00     0.167 HD
ATOM     61  C   UNL A   1      44.404  31.490  30.433  1.00  0.00     0.074 A 
ATOM     62  C   UNL A   1      45.859  31.428  30.339  1.00  0.00     0.031 C 
ATOM     63  C   UNL A   1      43.477  32.493  30.460  1.00  0.00     0.034 A 
BRANCH  50  64
ATOM     64  C   UNL A   1      37.206  32.429  30.393  1.00  0.00     0.023 A 
ATOM     65  C   UNL A   1      36.628  31.993  31.603  1.00  0.00     0.012 A 
ATOM     66  C   UNL A   1      36.401  33.290  29.602  1.00  0.00     0.148 A 
ATOM     67  C   UNL A   1      35.315  32.314  31.970  1.00  0.00     0.002 A 
ATOM     68  C   UNL A   1      35.062  33.544  29.926  1.00  0.00     0.091 A 
ATOM     69  F   UNL A   1      36.947  33.961  28.582  1.00  0.00    -0.205 F 
ATOM     70  C   UNL A   1      34.516  33.059  31.114  1.00  0.00     0.022 A 
BRANCH  68  71
ATOM     71  S   UNL A   1      33.945  34.414  28.805  1.00  0.00     0.127 S 
ATOM     72  O   UNL A   1      34.503  35.770  28.791  1.00  0.00    -0.237 OA
ATOM     73  O   UNL A   1      34.117  33.680  27.555  1.00  0.00    -0.237 OA
ATOM     74  O   UNL A   1      32.625  34.330  29.418  1.00  0.00    -0.744 OA
ENDBRANCH  68  71
ENDBRANCH  50  64
BRANCH  51  75
ATOM     75  C   UNL A   1      45.538  26.878  29.433  1.00  0.00     0.023 A 
ATOM     76  C   UNL A   1      45.457  25.530  29.882  1.00  0.00     0.012 A 
ATOM     77  C   UNL A   1      45.670  27.110  28.050  1.00  0.00     0.148 A 
ATOM     78  C   UNL A   1      45.397  24.459  28.982  1.00  0.00     0.002 A 
ATOM     79  C   UNL A   1      45.544  26.041  27.156  1.00  0.00     0.091 A 
ATOM     80  F   UNL A   1      45.823  28.370  27.626  1.00  0.00    -0.205 F 
ATOM     81  C   UNL A   1      45.399  24.721  27.618  1.00  0.00     0.022 A 
BRANCH  79  82
ATOM     82  S   UNL A   1      45.304  26.290  25.388  1.00  0.00     0.127 S 
ATOM     83  O   UNL A   1      46.473  27.089  25.036  1.00  0.00    -0.237 OA
ATOM     84  O   UNL A   1      45.330  24.915  24.884  1.00  0.00    -0.237 OA
ATOM     85  O   UNL A   1      44.017  26.954  25.255  1.00  0.00    -0.744 OA
ENDBRANCH  79  82
ENDBRANCH  51  75
BRANCH  63  86
ATOM     86  C   UNL A   1      43.831  33.880  30.020  1.00  0.00     0.023 A 
ATOM     87  C   UNL A   1      43.950  34.929  30.955  1.00  0.00     0.012 A 
ATOM     88  C   UNL A   1      44.224  34.141  28.691  1.00  0.00     0.148 A 
ATOM     89  C   UNL A   1      44.330  36.212  30.573  1.00  0.00     0.002 A 
ATOM     90  C   UNL A   1      44.738  35.381  28.348  1.00  0.00     0.091 A 
ATOM     91  F   UNL A   1      44.094  33.191  27.755  1.00  0.00    -0.205 F 
ATOM     92  C   UNL A   1      44.745  36.433  29.270  1.00  0.00     0.022 A 
BRANCH  90  93
ATOM     93  S   UNL A   1      45.570  35.637  26.779  1.00  0.00     0.127 S 
ATOM     94  O   UNL A   1      45.574  37.094  26.678  1.00  0.00    -0.237 OA
ATOM     95  O   UNL A   1      46.882  35.037  27.029  1.00  0.00    -0.237 OA
ATOM     96  O   UNL A   1      44.768  34.929  25.792  1.00  0.00    -0.744 OA
ENDBRANCH  90  93
ENDBRANCH  63  86
ENDBRANCH  37  38
ENDBRANCH  30  32
ENDBRANCH  29  30
ENDBRANCH  28  29
ENDBRANCH   1  28
TORSDOF 19
ENDMDL
