MODEL 1
REMARK VINA RESULT:     -10.6      0.000      0.000
REMARK SMILES CC(C)N(C(=O)c1c(C(=O)OCCOCCOC(=O)c2ccc(-c3c4nc(c(-c5cccc(S(=O)(=O)[O-])c5F)c5ccc([nH]5)c(-c5cccc(S(=O)(=O)[O-])c5F)c5nc(c(-c6cccc(S(=O)(=O)[O-])c6F)c6ccc3[nH]6)C=C5)C=C4)cc2)cnn1C)C(C)C
REMARK SMILES IDX 15 1 14 2 13 3 12 4 11 5 9 6 10 7 8 8 7 9 85 10 83 11 84 12
REMARK SMILES IDX 86 13 5 14 4 15 6 16 2 17 1 18 3 19 87 20 88 21 89 22 16 23
REMARK SMILES IDX 17 24 18 25 19 26 20 27 21 28 82 29 22 30 81 31 23 32 24 33
REMARK SMILES IDX 25 34 75 35 26 36 80 37 74 38 76 39 27 40 79 41 73 42 72 43
REMARK SMILES IDX 28 45 60 46 40 47 59 48 41 49 44 50 58 51 77 52 42 53 43 54
REMARK SMILES IDX 57 56 78 57 45 58 29 59 30 60 38 61 31 62 33 63 39 64 32 65
REMARK SMILES IDX 34 66 35 67 36 68 37 69 61 70 62 71 70 72 63 73 65 74 71 75
REMARK SMILES IDX 64 76 66 77 67 78 68 79 69 80 46 81 47 82 55 83 48 84 50 85
REMARK SMILES IDX 56 86 49 87 51 88 52 89 53 90 54 91
REMARK H PARENT 76 44 44 55
REMARK Flexibility Score: inf
ROOT
ATOM      1  C   UNL A   1      35.836  20.126  25.028  1.00  0.00     0.202 C 
ENDROOT
BRANCH   1   2
ATOM      2  O   UNL A   1      35.108  21.351  25.120  1.00  0.00    -0.374 OA
BRANCH   2   3
ATOM      3  C   UNL A   1      34.544  21.853  23.903  1.00  0.00     0.202 C 
BRANCH   3   4
ATOM      4  C   UNL A   1      35.317  23.005  23.258  1.00  0.00     0.261 C 
BRANCH   4   5
ATOM      5  O   UNL A   1      34.453  24.136  23.049  1.00  0.00    -0.460 OA
BRANCH   5   6
ATOM      6  C   UNL A   1      33.960  24.710  24.178  1.00  0.00     0.342 C 
ATOM      7  O   UNL A   1      34.650  25.144  25.094  1.00  0.00    -0.246 OA
BRANCH   6   8
ATOM      8  C   UNL A   1      32.522  24.915  24.166  1.00  0.00     0.111 A 
ATOM      9  C   UNL A   1      31.720  25.930  24.695  1.00  0.00     0.140 A 
ATOM     10  N   UNL A   1      30.492  25.696  24.117  1.00  0.00    -0.262 N 
ATOM     11  C   UNL A   1      31.615  24.022  23.554  1.00  0.00     0.151 A 
ATOM     12  N   UNL A   1      30.359  24.460  23.599  1.00  0.00    -0.180 NA
ATOM     13  C   UNL A   1      29.416  26.632  23.885  1.00  0.00     0.174 C 
BRANCH   9  14
ATOM     14  C   UNL A   1      32.130  27.124  25.411  1.00  0.00     0.273 C 
ATOM     15  N   UNL A   1      32.575  28.287  24.710  1.00  0.00    -0.332 N 
ATOM     16  O   UNL A   1      32.076  27.108  26.640  1.00  0.00    -0.267 OA
BRANCH  15  17
ATOM     17  C   UNL A   1      32.769  28.349  23.233  1.00  0.00     0.079 C 
ATOM     18  C   UNL A   1      31.726  29.155  22.456  1.00  0.00     0.031 C 
ATOM     19  C   UNL A   1      34.184  28.779  22.833  1.00  0.00     0.031 C 
ENDBRANCH  15  17
BRANCH  15  20
ATOM     20  C   UNL A   1      32.929  29.450  25.588  1.00  0.00     0.079 C 
ATOM     21  C   UNL A   1      31.698  30.150  26.170  1.00  0.00     0.031 C 
ATOM     22  C   UNL A   1      33.954  29.169  26.683  1.00  0.00     0.031 C 
ENDBRANCH  15  20
ENDBRANCH   9  14
ENDBRANCH   6   8
ENDBRANCH   5   6
ENDBRANCH   4   5
ENDBRANCH   3   4
ENDBRANCH   2   3
ENDBRANCH   1   2
BRANCH   1  23
ATOM     23  C   UNL A   1      37.325  20.260  24.694  1.00  0.00     0.261 C 
BRANCH  23  24
ATOM     24  O   UNL A   1      37.914  21.403  25.339  1.00  0.00    -0.460 OA
BRANCH  24  25
ATOM     25  C   UNL A   1      39.063  21.146  26.011  1.00  0.00     0.338 C 
ATOM     26  O   UNL A   1      39.700  20.105  26.005  1.00  0.00    -0.246 OA
BRANCH  25  27
ATOM     27  C   UNL A   1      39.559  22.380  26.654  1.00  0.00     0.060 A 
ATOM     28  C   UNL A   1      38.969  23.589  26.268  1.00  0.00     0.016 A 
ATOM     29  C   UNL A   1      40.607  22.369  27.577  1.00  0.00     0.016 A 
ATOM     30  C   UNL A   1      39.458  24.795  26.769  1.00  0.00     0.010 A 
ATOM     31  C   UNL A   1      41.092  23.580  28.084  1.00  0.00     0.010 A 
ATOM     32  C   UNL A   1      40.546  24.800  27.652  1.00  0.00    -0.014 A 
BRANCH  32  33
ATOM     33  C   UNL A   1      41.184  26.093  28.008  1.00  0.00     0.031 A 
ATOM     34  C   UNL A   1      42.590  26.372  27.550  1.00  0.00     0.074 A 
ATOM     35  C   UNL A   1      40.506  27.027  28.701  1.00  0.00     0.049 A 
ATOM     36  N   UNL A   1      43.301  27.462  27.676  1.00  0.00    -0.248 NA
ATOM     37  C   UNL A   1      43.291  25.275  26.860  1.00  0.00     0.031 C 
ATOM     38  C   UNL A   1      39.150  26.873  29.224  1.00  0.00     0.029 A 
ATOM     39  N   UNL A   1      40.876  28.291  29.088  1.00  0.00    -0.354 N 
ATOM     40  C   UNL A   1      44.532  27.183  27.098  1.00  0.00     0.074 A 
ATOM     41  C   UNL A   1      44.485  25.811  26.643  1.00  0.00     0.031 C 
ATOM     42  C   UNL A   1      38.804  27.997  29.875  1.00  0.00     0.029 A 
ATOM     43  C   UNL A   1      39.912  28.949  29.815  1.00  0.00     0.049 A 
ATOM     44  H   UNL A   1      41.748  28.689  28.867  1.00  0.00     0.167 HD
ATOM     45  C   UNL A   1      45.598  28.001  26.929  1.00  0.00     0.034 A 
ATOM     46  C   UNL A   1      39.921  30.180  30.364  1.00  0.00     0.034 A 
ATOM     47  C   UNL A   1      45.639  29.376  27.351  1.00  0.00     0.049 A 
ATOM     48  C   UNL A   1      41.115  31.074  30.154  1.00  0.00     0.074 A 
ATOM     49  C   UNL A   1      46.653  30.300  27.172  1.00  0.00     0.029 A 
ATOM     50  N   UNL A   1      44.627  30.021  28.041  1.00  0.00    -0.354 N 
ATOM     51  N   UNL A   1      42.210  30.845  29.469  1.00  0.00    -0.248 NA
ATOM     52  C   UNL A   1      41.058  32.415  30.758  1.00  0.00     0.031 C 
ATOM     53  C   UNL A   1      46.256  31.505  27.765  1.00  0.00     0.029 A 
ATOM     54  C   UNL A   1      44.992  31.330  28.304  1.00  0.00     0.049 A 
ATOM     55  H   UNL A   1      43.772  29.610  28.306  1.00  0.00     0.167 HD
ATOM     56  C   UNL A   1      42.957  32.017  29.537  1.00  0.00     0.074 A 
ATOM     57  C   UNL A   1      42.176  32.965  30.306  1.00  0.00     0.031 C 
ATOM     58  C   UNL A   1      44.185  32.280  29.025  1.00  0.00     0.034 A 
BRANCH  45  59
ATOM     59  C   UNL A   1      46.793  27.443  26.204  1.00  0.00     0.023 A 
ATOM     60  C   UNL A   1      46.899  27.628  24.811  1.00  0.00     0.012 A 
ATOM     61  C   UNL A   1      47.825  26.783  26.897  1.00  0.00     0.148 A 
ATOM     62  C   UNL A   1      48.004  27.142  24.113  1.00  0.00     0.002 A 
ATOM     63  C   UNL A   1      48.940  26.332  26.200  1.00  0.00     0.091 A 
ATOM     64  F   UNL A   1      47.690  26.592  28.217  1.00  0.00    -0.205 F 
ATOM     65  C   UNL A   1      49.028  26.503  24.808  1.00  0.00     0.022 A 
BRANCH  63  66
ATOM     66  S   UNL A   1      50.337  25.555  27.018  1.00  0.00     0.127 S 
ATOM     67  O   UNL A   1      51.248  25.328  25.897  1.00  0.00    -0.237 OA
ATOM     68  O   UNL A   1      50.769  26.594  27.953  1.00  0.00    -0.237 OA
ATOM     69  O   UNL A   1      49.808  24.355  27.651  1.00  0.00    -0.744 OA
ENDBRANCH  63  66
ENDBRANCH  45  59
BRANCH  46  70
ATOM     70  C   UNL A   1      38.727  30.669  31.108  1.00  0.00     0.023 A 
ATOM     71  C   UNL A   1      38.665  30.498  32.505  1.00  0.00     0.012 A 
ATOM     72  C   UNL A   1      37.666  31.315  30.447  1.00  0.00     0.148 A 
ATOM     73  C   UNL A   1      37.556  30.941  33.227  1.00  0.00     0.002 A 
ATOM     74  C   UNL A   1      36.587  31.799  31.178  1.00  0.00     0.091 A 
ATOM     75  F   UNL A   1      37.732  31.446  29.115  1.00  0.00    -0.205 F 
ATOM     76  C   UNL A   1      36.522  31.601  32.566  1.00  0.00     0.022 A 
BRANCH  74  77
ATOM     77  S   UNL A   1      35.274  32.762  30.419  1.00  0.00     0.127 S 
ATOM     78  O   UNL A   1      36.004  33.926  29.925  1.00  0.00    -0.237 OA
ATOM     79  O   UNL A   1      34.788  31.853  29.379  1.00  0.00    -0.237 OA
ATOM     80  O   UNL A   1      34.315  33.015  31.485  1.00  0.00    -0.744 OA
ENDBRANCH  74  77
ENDBRANCH  46  70
BRANCH  58  81
ATOM     81  C   UNL A   1      44.765  33.649  29.270  1.00  0.00     0.023 A 
ATOM     82  C   UNL A   1      45.533  33.879  30.428  1.00  0.00     0.012 A 
ATOM     83  C   UNL A   1      44.613  34.683  28.325  1.00  0.00     0.148 A 
ATOM     84  C   UNL A   1      46.113  35.126  30.658  1.00  0.00     0.002 A 
ATOM     85  C   UNL A   1      45.229  35.911  28.542  1.00  0.00     0.091 A 
ATOM     86  F   UNL A   1      43.860  34.456  27.239  1.00  0.00    -0.205 F 
ATOM     87  C   UNL A   1      45.972  36.138  29.712  1.00  0.00     0.022 A 
BRANCH  85  88
ATOM     88  S   UNL A   1      45.166  37.233  27.325  1.00  0.00     0.127 S 
ATOM     89  O   UNL A   1      45.710  38.360  28.080  1.00  0.00    -0.237 OA
ATOM     90  O   UNL A   1      46.042  36.731  26.265  1.00  0.00    -0.237 OA
ATOM     91  O   UNL A   1      43.765  37.344  26.941  1.00  0.00    -0.744 OA
ENDBRANCH  85  88
ENDBRANCH  58  81
ENDBRANCH  32  33
ENDBRANCH  25  27
ENDBRANCH  24  25
ENDBRANCH  23  24
ENDBRANCH   1  23
TORSDOF 20
ENDMDL
MODEL 2
REMARK VINA RESULT:     -10.4      1.467      2.062
REMARK SMILES CC(C)N(C(=O)c1c(C(=O)OCCOCCOC(=O)c2ccc(-c3c4nc(c(-c5cccc(S(=O)(=O)[O-])c5F)c5ccc([nH]5)c(-c5cccc(S(=O)(=O)[O-])c5F)c5nc(c(-c6cccc(S(=O)(=O)[O-])c6F)c6ccc3[nH]6)C=C5)C=C4)cc2)cnn1C)C(C)C
REMARK SMILES IDX 15 1 14 2 13 3 12 4 11 5 9 6 10 7 8 8 7 9 85 10 83 11 84 12
REMARK SMILES IDX 86 13 5 14 4 15 6 16 2 17 1 18 3 19 87 20 88 21 89 22 16 23
REMARK SMILES IDX 17 24 18 25 19 26 20 27 21 28 82 29 22 30 81 31 23 32 24 33
REMARK SMILES IDX 25 34 75 35 26 36 80 37 74 38 76 39 27 40 79 41 73 42 72 43
REMARK SMILES IDX 28 45 60 46 40 47 59 48 41 49 44 50 58 51 77 52 42 53 43 54
REMARK SMILES IDX 57 56 78 57 45 58 29 59 30 60 38 61 31 62 33 63 39 64 32 65
REMARK SMILES IDX 34 66 35 67 36 68 37 69 61 70 62 71 70 72 63 73 65 74 71 75
REMARK SMILES IDX 64 76 66 77 67 78 68 79 69 80 46 81 47 82 55 83 48 84 50 85
REMARK SMILES IDX 56 86 49 87 51 88 52 89 53 90 54 91
REMARK H PARENT 76 44 44 55
REMARK Flexibility Score: inf
ROOT
ATOM      1  C   UNL A   1      36.344  21.158  25.399  1.00  0.00     0.202 C 
ENDROOT
BRANCH   1   2
ATOM      2  O   UNL A   1      35.692  21.602  24.209  1.00  0.00    -0.374 OA
BRANCH   2   3
ATOM      3  C   UNL A   1      36.152  22.837  23.650  1.00  0.00     0.202 C 
BRANCH   3   4
ATOM      4  C   UNL A   1      35.313  24.065  24.013  1.00  0.00     0.261 C 
BRANCH   4   5
ATOM      5  O   UNL A   1      34.453  24.429  22.920  1.00  0.00    -0.460 OA
BRANCH   5   6
ATOM      6  C   UNL A   1      33.263  23.773  22.869  1.00  0.00     0.342 C 
ATOM      7  O   UNL A   1      32.941  22.987  21.984  1.00  0.00    -0.246 OA
BRANCH   6   8
ATOM      8  C   UNL A   1      32.429  23.957  24.043  1.00  0.00     0.111 A 
ATOM      9  C   UNL A   1      31.768  25.080  24.552  1.00  0.00     0.140 A 
ATOM     10  N   UNL A   1      30.937  24.548  25.513  1.00  0.00    -0.262 N 
ATOM     11  C   UNL A   1      32.126  22.919  24.952  1.00  0.00     0.151 A 
ATOM     12  N   UNL A   1      31.279  23.304  25.903  1.00  0.00    -0.180 NA
ATOM     13  C   UNL A   1      29.706  25.092  26.035  1.00  0.00     0.174 C 
BRANCH   9  14
ATOM     14  C   UNL A   1      31.714  26.422  24.003  1.00  0.00     0.273 C 
ATOM     15  N   UNL A   1      32.183  27.544  24.753  1.00  0.00    -0.332 N 
ATOM     16  O   UNL A   1      31.260  26.565  22.869  1.00  0.00    -0.267 OA
BRANCH  15  17
ATOM     17  C   UNL A   1      32.647  27.468  26.169  1.00  0.00     0.079 C 
ATOM     18  C   UNL A   1      34.073  27.958  26.431  1.00  0.00     0.031 C 
ATOM     19  C   UNL A   1      31.669  28.116  27.155  1.00  0.00     0.031 C 
ENDBRANCH  15  17
BRANCH  15  20
ATOM     20  C   UNL A   1      32.095  28.858  24.036  1.00  0.00     0.079 C 
ATOM     21  C   UNL A   1      33.055  28.950  22.847  1.00  0.00     0.031 C 
ATOM     22  C   UNL A   1      30.693  29.301  23.629  1.00  0.00     0.031 C 
ENDBRANCH  15  20
ENDBRANCH   9  14
ENDBRANCH   6   8
ENDBRANCH   5   6
ENDBRANCH   4   5
ENDBRANCH   3   4
ENDBRANCH   2   3
ENDBRANCH   1   2
BRANCH   1  23
ATOM     23  C   UNL A   1      37.756  20.595  25.214  1.00  0.00     0.261 C 
BRANCH  23  24
ATOM     24  O   UNL A   1      38.759  21.615  25.360  1.00  0.00    -0.460 OA
BRANCH  24  25
ATOM     25  C   UNL A   1      39.682  21.371  26.323  1.00  0.00     0.338 C 
ATOM     26  O   UNL A   1      40.229  20.306  26.562  1.00  0.00    -0.246 OA
BRANCH  25  27
ATOM     27  C   UNL A   1      40.083  22.636  26.972  1.00  0.00     0.060 A 
ATOM     28  C   UNL A   1      39.392  23.796  26.603  1.00  0.00     0.016 A 
ATOM     29  C   UNL A   1      41.138  22.703  27.884  1.00  0.00     0.016 A 
ATOM     30  C   UNL A   1      39.787  25.033  27.109  1.00  0.00     0.010 A 
ATOM     31  C   UNL A   1      41.528  23.946  28.397  1.00  0.00     0.010 A 
ATOM     32  C   UNL A   1      40.880  25.121  27.982  1.00  0.00    -0.014 A 
BRANCH  32  33
ATOM     33  C   UNL A   1      41.414  26.459  28.343  1.00  0.00     0.031 A 
ATOM     34  C   UNL A   1      42.838  26.801  27.996  1.00  0.00     0.074 A 
ATOM     35  C   UNL A   1      40.629  27.374  28.940  1.00  0.00     0.049 A 
ATOM     36  N   UNL A   1      43.475  27.934  28.143  1.00  0.00    -0.248 NA
ATOM     37  C   UNL A   1      43.654  25.725  27.410  1.00  0.00     0.031 C 
ATOM     38  C   UNL A   1      39.243  27.160  29.352  1.00  0.00     0.029 A 
ATOM     39  N   UNL A   1      40.895  28.669  29.311  1.00  0.00    -0.354 N 
ATOM     40  C   UNL A   1      44.766  27.707  27.683  1.00  0.00     0.074 A 
ATOM     41  C   UNL A   1      44.832  26.320  27.276  1.00  0.00     0.031 C 
ATOM     42  C   UNL A   1      38.781  28.283  29.929  1.00  0.00     0.029 A 
ATOM     43  C   UNL A   1      39.838  29.294  29.928  1.00  0.00     0.049 A 
ATOM     44  H   UNL A   1      41.760  29.108  29.150  1.00  0.00     0.167 HD
ATOM     45  C   UNL A   1      45.797  28.578  27.576  1.00  0.00     0.034 A 
ATOM     46  C   UNL A   1      39.732  30.541  30.430  1.00  0.00     0.034 A 
ATOM     47  C   UNL A   1      45.727  29.966  27.949  1.00  0.00     0.049 A 
ATOM     48  C   UNL A   1      40.891  31.494  30.290  1.00  0.00     0.074 A 
ATOM     49  C   UNL A   1      46.701  30.940  27.823  1.00  0.00     0.029 A 
ATOM     50  N   UNL A   1      44.625  30.574  28.525  1.00  0.00    -0.354 N 
ATOM     51  N   UNL A   1      42.052  31.305  29.711  1.00  0.00    -0.248 NA
ATOM     52  C   UNL A   1      40.709  32.848  30.838  1.00  0.00     0.031 C 
ATOM     53  C   UNL A   1      46.190  32.138  28.335  1.00  0.00     0.029 A 
ATOM     54  C   UNL A   1      44.895  31.910  28.771  1.00  0.00     0.049 A 
ATOM     55  H   UNL A   1      43.773  30.124  28.731  1.00  0.00     0.167 HD
ATOM     56  C   UNL A   1      42.726  32.520  29.799  1.00  0.00     0.074 A 
ATOM     57  C   UNL A   1      41.831  33.446  30.463  1.00  0.00     0.031 C 
ATOM     58  C   UNL A   1      43.978  32.835  29.384  1.00  0.00     0.034 A 
BRANCH  45  59
ATOM     59  C   UNL A   1      47.078  28.066  26.976  1.00  0.00     0.023 A 
ATOM     60  C   UNL A   1      48.120  27.652  27.829  1.00  0.00     0.012 A 
ATOM     61  C   UNL A   1      47.235  27.949  25.582  1.00  0.00     0.148 A 
ATOM     62  C   UNL A   1      49.311  27.152  27.305  1.00  0.00     0.002 A 
ATOM     63  C   UNL A   1      48.413  27.417  25.067  1.00  0.00     0.091 A 
ATOM     64  F   UNL A   1      46.244  28.376  24.787  1.00  0.00    -0.205 F 
ATOM     65  C   UNL A   1      49.453  27.025  25.926  1.00  0.00     0.022 A 
BRANCH  63  66
ATOM     66  S   UNL A   1      48.662  27.157  23.307  1.00  0.00     0.127 S 
ATOM     67  O   UNL A   1      48.057  25.839  23.115  1.00  0.00    -0.237 OA
ATOM     68  O   UNL A   1      47.910  28.265  22.719  1.00  0.00    -0.237 OA
ATOM     69  O   UNL A   1      50.101  27.224  23.097  1.00  0.00    -0.744 OA
ENDBRANCH  63  66
ENDBRANCH  45  59
BRANCH  46  70
ATOM     70  C   UNL A   1      38.454  30.985  31.052  1.00  0.00     0.023 A 
ATOM     71  C   UNL A   1      38.267  30.828  32.438  1.00  0.00     0.012 A 
ATOM     72  C   UNL A   1      37.433  31.575  30.283  1.00  0.00     0.148 A 
ATOM     73  C   UNL A   1      37.077  31.229  33.046  1.00  0.00     0.002 A 
ATOM     74  C   UNL A   1      36.270  32.019  30.902  1.00  0.00     0.091 A 
ATOM     75  F   UNL A   1      37.619  31.693  28.961  1.00  0.00    -0.205 F 
ATOM     76  C   UNL A   1      36.083  31.835  32.281  1.00  0.00     0.022 A 
BRANCH  74  77
ATOM     77  S   UNL A   1      34.994  32.914  30.008  1.00  0.00     0.127 S 
ATOM     78  O   UNL A   1      34.084  33.295  31.084  1.00  0.00    -0.237 OA
ATOM     79  O   UNL A   1      35.751  34.020  29.419  1.00  0.00    -0.237 OA
ATOM     80  O   UNL A   1      34.468  31.967  29.033  1.00  0.00    -0.744 OA
ENDBRANCH  74  77
ENDBRANCH  46  70
BRANCH  58  81
ATOM     81  C   UNL A   1      44.460  34.242  29.627  1.00  0.00     0.023 A 
ATOM     82  C   UNL A   1      45.061  34.565  30.860  1.00  0.00     0.012 A 
ATOM     83  C   UNL A   1      44.385  35.221  28.617  1.00  0.00     0.148 A 
ATOM     84  C   UNL A   1      45.551  35.849  31.094  1.00  0.00     0.002 A 
ATOM     85  C   UNL A   1      44.912  36.487  28.844  1.00  0.00     0.091 A 
ATOM     86  F   UNL A   1      43.790  34.905  27.457  1.00  0.00    -0.205 F 
ATOM     87  C   UNL A   1      45.487  36.807  30.085  1.00  0.00     0.022 A 
BRANCH  85  88
ATOM     88  S   UNL A   1      44.948  37.746  27.561  1.00  0.00     0.127 S 
ATOM     89  O   UNL A   1      43.539  37.830  27.184  1.00  0.00    -0.237 OA
ATOM     90  O   UNL A   1      45.457  38.917  28.278  1.00  0.00    -0.237 OA
ATOM     91  O   UNL A   1      45.849  37.235  26.537  1.00  0.00    -0.744 OA
ENDBRANCH  85  88
ENDBRANCH  58  81
ENDBRANCH  32  33
ENDBRANCH  25  27
ENDBRANCH  24  25
ENDBRANCH  23  24
ENDBRANCH   1  23
TORSDOF 20
ENDMDL
MODEL 3
REMARK VINA RESULT:     -10.1      4.662     10.027
REMARK SMILES CC(C)N(C(=O)c1c(C(=O)OCCOCCOC(=O)c2ccc(-c3c4nc(c(-c5cccc(S(=O)(=O)[O-])c5F)c5ccc([nH]5)c(-c5cccc(S(=O)(=O)[O-])c5F)c5nc(c(-c6cccc(S(=O)(=O)[O-])c6F)c6ccc3[nH]6)C=C5)C=C4)cc2)cnn1C)C(C)C
REMARK SMILES IDX 15 1 14 2 13 3 12 4 11 5 9 6 10 7 8 8 7 9 85 10 83 11 84 12
REMARK SMILES IDX 86 13 5 14 4 15 6 16 2 17 1 18 3 19 87 20 88 21 89 22 16 23
REMARK SMILES IDX 17 24 18 25 19 26 20 27 21 28 82 29 22 30 81 31 23 32 24 33
REMARK SMILES IDX 25 34 75 35 26 36 80 37 74 38 76 39 27 40 79 41 73 42 72 43
REMARK SMILES IDX 28 45 60 46 40 47 59 48 41 49 44 50 58 51 77 52 42 53 43 54
REMARK SMILES IDX 57 56 78 57 45 58 29 59 30 60 38 61 31 62 33 63 39 64 32 65
REMARK SMILES IDX 34 66 35 67 36 68 37 69 61 70 62 71 70 72 63 73 65 74 71 75
REMARK SMILES IDX 64 76 66 77 67 78 68 79 69 80 46 81 47 82 55 83 48 84 50 85
REMARK SMILES IDX 56 86 49 87 51 88 52 89 53 90 54 91
REMARK H PARENT 76 44 44 55
REMARK Flexibility Score: inf
ROOT
ATOM      1  C   UNL A   1      31.188  30.982  26.177  1.00  0.00     0.202 C 
ENDROOT
BRANCH   1   2
ATOM      2  O   UNL A   1      32.038  29.856  25.955  1.00  0.00    -0.374 OA
BRANCH   2   3
ATOM      3  C   UNL A   1      31.477  28.768  25.211  1.00  0.00     0.202 C 
BRANCH   3   4
ATOM      4  C   UNL A   1      32.447  28.067  24.258  1.00  0.00     0.261 C 
BRANCH   4   5
ATOM      5  O   UNL A   1      32.940  26.851  24.846  1.00  0.00    -0.460 OA
BRANCH   5   6
ATOM      6  C   UNL A   1      32.349  25.709  24.408  1.00  0.00     0.342 C 
ATOM      7  O   UNL A   1      32.081  25.472  23.234  1.00  0.00    -0.246 OA
BRANCH   6   8
ATOM      8  C   UNL A   1      32.181  24.691  25.431  1.00  0.00     0.111 A 
ATOM      9  C   UNL A   1      33.016  23.657  25.864  1.00  0.00     0.140 A 
ATOM     10  N   UNL A   1      32.412  23.230  27.026  1.00  0.00    -0.262 N 
ATOM     11  C   UNL A   1      31.021  24.576  26.229  1.00  0.00     0.151 A 
ATOM     12  N   UNL A   1      31.130  23.623  27.151  1.00  0.00    -0.180 NA
ATOM     13  C   UNL A   1      33.011  22.551  28.151  1.00  0.00     0.174 C 
BRANCH   9  14
ATOM     14  C   UNL A   1      34.351  23.322  25.405  1.00  0.00     0.273 C 
ATOM     15  N   UNL A   1      34.623  22.062  24.788  1.00  0.00    -0.332 N 
ATOM     16  O   UNL A   1      35.242  24.157  25.554  1.00  0.00    -0.267 OA
BRANCH  15  17
ATOM     17  C   UNL A   1      33.627  20.958  24.668  1.00  0.00     0.079 C 
ATOM     18  C   UNL A   1      32.620  21.090  23.523  1.00  0.00     0.031 C 
ATOM     19  C   UNL A   1      34.271  19.568  24.656  1.00  0.00     0.031 C 
ENDBRANCH  15  17
BRANCH  15  20
ATOM     20  C   UNL A   1      36.041  21.879  24.335  1.00  0.00     0.079 C 
ATOM     21  C   UNL A   1      36.439  22.856  23.225  1.00  0.00     0.031 C 
ATOM     22  C   UNL A   1      37.095  21.862  25.437  1.00  0.00     0.031 C 
ENDBRANCH  15  20
ENDBRANCH   9  14
ENDBRANCH   6   8
ENDBRANCH   5   6
ENDBRANCH   4   5
ENDBRANCH   3   4
ENDBRANCH   2   3
ENDBRANCH   1   2
BRANCH   1  23
ATOM     23  C   UNL A   1      31.830  32.167  26.904  1.00  0.00     0.261 C 
BRANCH  23  24
ATOM     24  O   UNL A   1      33.264  32.056  26.939  1.00  0.00    -0.460 OA
BRANCH  24  25
ATOM     25  C   UNL A   1      33.869  32.815  27.886  1.00  0.00     0.338 C 
ATOM     26  O   UNL A   1      33.388  33.764  28.484  1.00  0.00    -0.246 OA
BRANCH  25  27
ATOM     27  C   UNL A   1      35.181  32.232  28.238  1.00  0.00     0.060 A 
ATOM     28  C   UNL A   1      35.222  30.862  28.520  1.00  0.00     0.016 A 
ATOM     29  C   UNL A   1      36.337  33.009  28.338  1.00  0.00     0.016 A 
ATOM     30  C   UNL A   1      36.411  30.275  28.951  1.00  0.00     0.010 A 
ATOM     31  C   UNL A   1      37.531  32.416  28.763  1.00  0.00     0.010 A 
ATOM     32  C   UNL A   1      37.565  31.054  29.109  1.00  0.00    -0.014 A 
BRANCH  32  33
ATOM     33  C   UNL A   1      38.757  30.459  29.764  1.00  0.00     0.031 A 
ATOM     34  C   UNL A   1      39.110  30.872  31.168  1.00  0.00     0.074 A 
ATOM     35  C   UNL A   1      39.499  29.532  29.130  1.00  0.00     0.049 A 
ATOM     36  N   UNL A   1      40.052  30.416  31.951  1.00  0.00    -0.248 NA
ATOM     37  C   UNL A   1      38.295  31.943  31.767  1.00  0.00     0.031 C 
ATOM     38  C   UNL A   1      39.281  29.065  27.762  1.00  0.00     0.029 A 
ATOM     39  N   UNL A   1      40.595  28.825  29.558  1.00  0.00    -0.354 N 
ATOM     40  C   UNL A   1      39.956  31.149  33.128  1.00  0.00     0.074 A 
ATOM     41  C   UNL A   1      38.880  32.099  32.947  1.00  0.00     0.031 C 
ATOM     42  C   UNL A   1      40.220  28.153  27.458  1.00  0.00     0.029 A 
ATOM     43  C   UNL A   1      41.106  27.973  28.607  1.00  0.00     0.049 A 
ATOM     44  H   UNL A   1      40.978  28.917  30.459  1.00  0.00     0.167 HD
ATOM     45  C   UNL A   1      40.673  31.024  34.269  1.00  0.00     0.034 A 
ATOM     46  C   UNL A   1      42.165  27.140  28.660  1.00  0.00     0.034 A 
ATOM     47  C   UNL A   1      41.723  30.060  34.465  1.00  0.00     0.049 A 
ATOM     48  C   UNL A   1      42.941  27.012  29.945  1.00  0.00     0.074 A 
ATOM     49  C   UNL A   1      42.467  29.820  35.606  1.00  0.00     0.029 A 
ATOM     50  N   UNL A   1      42.180  29.182  33.497  1.00  0.00    -0.354 N 
ATOM     51  N   UNL A   1      42.736  27.603  31.098  1.00  0.00    -0.248 NA
ATOM     52  C   UNL A   1      44.072  26.071  29.949  1.00  0.00     0.031 C 
ATOM     53  C   UNL A   1      43.385  28.801  35.323  1.00  0.00     0.029 A 
ATOM     54  C   UNL A   1      43.204  28.403  34.009  1.00  0.00     0.049 A 
ATOM     55  H   UNL A   1      41.830  29.121  32.578  1.00  0.00     0.167 HD
ATOM     56  C   UNL A   1      43.691  27.086  31.968  1.00  0.00     0.074 A 
ATOM     57  C   UNL A   1      44.457  26.113  31.217  1.00  0.00     0.031 C 
ATOM     58  C   UNL A   1      43.924  27.401  33.267  1.00  0.00     0.034 A 
BRANCH  45  59
ATOM     59  C   UNL A   1      40.305  31.920  35.421  1.00  0.00     0.023 A 
ATOM     60  C   UNL A   1      41.031  33.110  35.625  1.00  0.00     0.012 A 
ATOM     61  C   UNL A   1      39.222  31.614  36.266  1.00  0.00     0.148 A 
ATOM     62  C   UNL A   1      40.701  33.972  36.670  1.00  0.00     0.002 A 
ATOM     63  C   UNL A   1      38.877  32.496  37.284  1.00  0.00     0.091 A 
ATOM     64  F   UNL A   1      38.564  30.463  36.074  1.00  0.00    -0.205 F 
ATOM     65  C   UNL A   1      39.619  33.671  37.492  1.00  0.00     0.022 A 
BRANCH  63  66
ATOM     66  S   UNL A   1      37.460  32.223  38.354  1.00  0.00     0.127 S 
ATOM     67  O   UNL A   1      37.955  32.729  39.634  1.00  0.00    -0.237 OA
ATOM     68  O   UNL A   1      36.431  33.053  37.728  1.00  0.00    -0.237 OA
ATOM     69  O   UNL A   1      37.195  30.792  38.304  1.00  0.00    -0.744 OA
ENDBRANCH  63  66
ENDBRANCH  45  59
BRANCH  46  70
ATOM     70  C   UNL A   1      42.512  26.305  27.477  1.00  0.00     0.023 A 
ATOM     71  C   UNL A   1      43.276  26.864  26.435  1.00  0.00     0.012 A 
ATOM     72  C   UNL A   1      42.105  24.960  27.386  1.00  0.00     0.148 A 
ATOM     73  C   UNL A   1      43.611  26.106  25.312  1.00  0.00     0.002 A 
ATOM     74  C   UNL A   1      42.483  24.196  26.288  1.00  0.00     0.091 A 
ATOM     75  F   UNL A   1      41.356  24.453  28.375  1.00  0.00    -0.205 F 
ATOM     76  C   UNL A   1      43.224  24.769  25.243  1.00  0.00     0.022 A 
BRANCH  74  77
ATOM     77  S   UNL A   1      42.127  22.438  26.179  1.00  0.00     0.127 S 
ATOM     78  O   UNL A   1      42.844  22.061  24.965  1.00  0.00    -0.237 OA
ATOM     79  O   UNL A   1      42.709  21.930  27.422  1.00  0.00    -0.237 OA
ATOM     80  O   UNL A   1      40.674  22.341  26.118  1.00  0.00    -0.744 OA
ENDBRANCH  74  77
ENDBRANCH  46  70
BRANCH  58  81
ATOM     81  C   UNL A   1      45.049  26.684  33.968  1.00  0.00     0.023 A 
ATOM     82  C   UNL A   1      44.784  25.478  34.646  1.00  0.00     0.012 A 
ATOM     83  C   UNL A   1      46.372  27.161  33.896  1.00  0.00     0.148 A 
ATOM     84  C   UNL A   1      45.815  24.775  35.269  1.00  0.00     0.002 A 
ATOM     85  C   UNL A   1      47.400  26.432  34.484  1.00  0.00     0.091 A 
ATOM     86  F   UNL A   1      46.605  28.322  33.266  1.00  0.00    -0.205 F 
ATOM     87  C   UNL A   1      47.123  25.244  35.180  1.00  0.00     0.022 A 
BRANCH  85  88
ATOM     88  S   UNL A   1      49.122  26.927  34.334  1.00  0.00     0.127 S 
ATOM     89  O   UNL A   1      49.133  28.198  35.055  1.00  0.00    -0.237 OA
ATOM     90  O   UNL A   1      49.826  25.836  35.012  1.00  0.00    -0.237 OA
ATOM     91  O   UNL A   1      49.382  27.006  32.903  1.00  0.00    -0.744 OA
ENDBRANCH  85  88
ENDBRANCH  58  81
ENDBRANCH  32  33
ENDBRANCH  25  27
ENDBRANCH  24  25
ENDBRANCH  23  24
ENDBRANCH   1  23
TORSDOF 20
ENDMDL
