MODEL 1
REMARK VINA RESULT:     -12.1      0.000      0.000
REMARK SMILES Cc1cc(C)c2c(c1)C=C(C(=O)OCCOCCOC(=O)c1ccc(-c3c4nc(c(-c5cccc(S(=O)(=O)[O-])c5F)c5ccc([nH]5)c(-c5cccc(S(=O)(=O)[O-])c5F)c5nc(c(-c6cccc(S(=O)(=O)[O-])c6F)c6ccc3[nH]6)C=C5)C=C4)cc1)[C@@H](C(F)(F)F)O2
REMARK SMILES IDX 17 1 16 2 15 3 14 4 13 5 11 6 12 7 10 8 1 9 2 10 3 11 8 12
REMARK SMILES IDX 4 13 7 14 5 15 6 16 9 17 90 18 85 19 86 20 87 21 88 22 89 23
REMARK SMILES IDX 18 24 19 25 20 26 21 27 22 28 23 29 84 30 24 31 83 32 25 33
REMARK SMILES IDX 26 34 27 35 77 36 28 37 82 38 76 39 78 40 29 41 81 42 75 43
REMARK SMILES IDX 74 44 30 46 62 47 42 48 61 49 43 50 46 51 60 52 79 53 44 54
REMARK SMILES IDX 45 55 59 57 80 58 47 59 31 60 32 61 40 62 33 63 35 64 41 65
REMARK SMILES IDX 34 66 36 67 37 68 38 69 39 70 63 71 64 72 72 73 65 74 67 75
REMARK SMILES IDX 73 76 66 77 68 78 69 79 70 80 71 81 48 82 49 83 57 84 50 85
REMARK SMILES IDX 52 86 58 87 51 88 53 89 54 90 55 91 56 92
REMARK H PARENT 78 45 46 56
REMARK Flexibility Score: inf
ROOT
ATOM      1  C   UNL A   1      35.345  21.130  24.751  1.00  0.00     0.202 C 
ENDROOT
BRANCH   1   2
ATOM      2  O   UNL A   1      34.347  21.025  25.766  1.00  0.00    -0.374 OA
BRANCH   2   3
ATOM      3  C   UNL A   1      34.432  21.923  26.873  1.00  0.00     0.202 C 
BRANCH   3   4
ATOM      4  C   UNL A   1      33.107  22.382  27.489  1.00  0.00     0.261 C 
BRANCH   4   5
ATOM      5  O   UNL A   1      32.051  22.400  26.514  1.00  0.00    -0.460 OA
BRANCH   5   6
ATOM      6  C   UNL A   1      31.219  23.460  26.601  1.00  0.00     0.338 C 
ATOM      7  O   UNL A   1      30.154  23.510  27.203  1.00  0.00    -0.246 OA
BRANCH   6   8
ATOM      8  C   UNL A   1      31.839  24.640  25.970  1.00  0.00     0.087 C 
ATOM      9  C   UNL A   1      32.006  30.744  26.668  1.00  0.00     0.044 C 
ATOM     10  C   UNL A   1      32.318  29.425  26.026  1.00  0.00    -0.050 A 
ATOM     11  C   UNL A   1      32.887  29.374  24.747  1.00  0.00     0.010 A 
ATOM     12  C   UNL A   1      31.968  28.231  26.660  1.00  0.00     0.015 A 
ATOM     13  C   UNL A   1      33.137  28.144  24.115  1.00  0.00    -0.008 A 
ATOM     14  C   UNL A   1      32.193  27.001  26.032  1.00  0.00     0.018 A 
ATOM     15  C   UNL A   1      33.724  28.117  22.731  1.00  0.00     0.048 C 
ATOM     16  C   UNL A   1      32.797  26.953  24.773  1.00  0.00     0.130 A 
ATOM     17  C   UNL A   1      31.730  25.781  26.662  1.00  0.00     0.027 C 
ATOM     18  O   UNL A   1      33.088  25.778  24.136  1.00  0.00    -0.475 OA
ATOM     19  C   UNL A   1      32.505  24.537  24.627  1.00  0.00     0.316 C 
BRANCH  19  20
ATOM     20  C   UNL A   1      31.565  23.983  23.547  1.00  0.00     0.430 C 
ATOM     21  F   UNL A   1      31.910  24.431  22.317  1.00  0.00    -0.167 F 
ATOM     22  F   UNL A   1      31.600  22.631  23.500  1.00  0.00    -0.167 F 
ATOM     23  F   UNL A   1      30.280  24.346  23.767  1.00  0.00    -0.167 F 
ENDBRANCH  19  20
ENDBRANCH   6   8
ENDBRANCH   5   6
ENDBRANCH   4   5
ENDBRANCH   3   4
ENDBRANCH   2   3
ENDBRANCH   1   2
BRANCH   1  24
ATOM     24  C   UNL A   1      36.713  20.498  25.037  1.00  0.00     0.261 C 
BRANCH  24  25
ATOM     25  O   UNL A   1      37.777  21.465  25.034  1.00  0.00    -0.460 OA
BRANCH  25  26
ATOM     26  C   UNL A   1      38.834  21.140  25.813  1.00  0.00     0.338 C 
ATOM     27  O   UNL A   1      39.425  20.066  25.844  1.00  0.00    -0.246 OA
BRANCH  26  28
ATOM     28  C   UNL A   1      39.333  22.328  26.525  1.00  0.00     0.060 A 
ATOM     29  C   UNL A   1      38.768  23.567  26.191  1.00  0.00     0.016 A 
ATOM     30  C   UNL A   1      40.401  22.250  27.420  1.00  0.00     0.016 A 
ATOM     31  C   UNL A   1      39.312  24.742  26.701  1.00  0.00     0.010 A 
ATOM     32  C   UNL A   1      40.956  23.432  27.920  1.00  0.00     0.010 A 
ATOM     33  C   UNL A   1      40.443  24.681  27.524  1.00  0.00    -0.014 A 
BRANCH  33  34
ATOM     34  C   UNL A   1      41.206  25.919  27.811  1.00  0.00     0.031 A 
ATOM     35  C   UNL A   1      40.528  27.018  28.582  1.00  0.00     0.074 A 
ATOM     36  C   UNL A   1      42.479  26.056  27.405  1.00  0.00     0.049 A 
ATOM     37  N   UNL A   1      40.969  28.209  28.888  1.00  0.00    -0.248 NA
ATOM     38  C   UNL A   1      39.169  26.735  29.075  1.00  0.00     0.031 C 
ATOM     39  C   UNL A   1      43.251  25.045  26.688  1.00  0.00     0.029 A 
ATOM     40  N   UNL A   1      43.339  27.118  27.525  1.00  0.00    -0.354 N 
ATOM     41  C   UNL A   1      39.940  28.825  29.589  1.00  0.00     0.074 A 
ATOM     42  C   UNL A   1      38.845  27.883  29.654  1.00  0.00     0.031 C 
ATOM     43  C   UNL A   1      44.467  25.544  26.408  1.00  0.00     0.029 A 
ATOM     44  C   UNL A   1      44.547  26.919  26.899  1.00  0.00     0.049 A 
ATOM     45  H   UNL A   1      43.114  27.943  28.014  1.00  0.00     0.167 HD
ATOM     46  C   UNL A   1      39.914  30.059  30.145  1.00  0.00     0.034 A 
ATOM     47  C   UNL A   1      45.585  27.761  26.725  1.00  0.00     0.034 A 
ATOM     48  C   UNL A   1      41.010  30.989  30.091  1.00  0.00     0.049 A 
ATOM     49  C   UNL A   1      45.510  29.151  27.305  1.00  0.00     0.074 A 
ATOM     50  C   UNL A   1      41.084  32.261  30.630  1.00  0.00     0.029 A 
ATOM     51  N   UNL A   1      42.219  30.749  29.458  1.00  0.00    -0.354 N 
ATOM     52  N   UNL A   1      44.560  29.695  28.026  1.00  0.00    -0.248 NA
ATOM     53  C   UNL A   1      46.662  30.033  27.065  1.00  0.00     0.031 C 
ATOM     54  C   UNL A   1      42.335  32.798  30.307  1.00  0.00     0.029 A 
ATOM     55  C   UNL A   1      43.046  31.852  29.585  1.00  0.00     0.049 A 
ATOM     56  H   UNL A   1      42.455  29.918  28.987  1.00  0.00     0.167 HD
ATOM     57  C   UNL A   1      45.007  30.974  28.346  1.00  0.00     0.074 A 
ATOM     58  C   UNL A   1      46.328  31.109  27.766  1.00  0.00     0.031 C 
ATOM     59  C   UNL A   1      44.375  31.956  29.037  1.00  0.00     0.034 A 
BRANCH  46  60
ATOM     60  C   UNL A   1      38.672  30.464  30.894  1.00  0.00     0.023 A 
ATOM     61  C   UNL A   1      38.568  30.174  32.270  1.00  0.00     0.012 A 
ATOM     62  C   UNL A   1      37.642  31.183  30.258  1.00  0.00     0.148 A 
ATOM     63  C   UNL A   1      37.448  30.575  32.997  1.00  0.00     0.002 A 
ATOM     64  C   UNL A   1      36.547  31.616  30.999  1.00  0.00     0.091 A 
ATOM     65  F   UNL A   1      37.748  31.425  28.943  1.00  0.00    -0.205 F 
ATOM     66  C   UNL A   1      36.445  31.306  32.365  1.00  0.00     0.022 A 
BRANCH  64  67
ATOM     67  S   UNL A   1      35.239  32.627  30.297  1.00  0.00     0.127 S 
ATOM     68  O   UNL A   1      34.836  31.826  29.141  1.00  0.00    -0.237 OA
ATOM     69  O   UNL A   1      34.261  32.661  31.384  1.00  0.00    -0.237 OA
ATOM     70  O   UNL A   1      35.846  33.912  29.983  1.00  0.00    -0.744 OA
ENDBRANCH  64  67
ENDBRANCH  46  60
BRANCH  47  71
ATOM     71  C   UNL A   1      46.802  27.297  25.999  1.00  0.00     0.023 A 
ATOM     72  C   UNL A   1      46.907  27.524  24.613  1.00  0.00     0.012 A 
ATOM     73  C   UNL A   1      47.866  26.667  26.675  1.00  0.00     0.148 A 
ATOM     74  C   UNL A   1      48.041  27.115  23.910  1.00  0.00     0.002 A 
ATOM     75  C   UNL A   1      49.016  26.315  25.979  1.00  0.00     0.091 A 
ATOM     76  F   UNL A   1      47.736  26.440  27.990  1.00  0.00    -0.205 F 
ATOM     77  C   UNL A   1      49.100  26.523  24.594  1.00  0.00     0.022 A 
BRANCH  75  78
ATOM     78  S   UNL A   1      50.482  25.673  26.797  1.00  0.00     0.127 S 
ATOM     79  O   UNL A   1      49.974  24.442  27.398  1.00  0.00    -0.237 OA
ATOM     80  O   UNL A   1      51.393  25.479  25.670  1.00  0.00    -0.237 OA
ATOM     81  O   UNL A   1      50.894  26.709  27.734  1.00  0.00    -0.744 OA
ENDBRANCH  75  78
ENDBRANCH  47  71
BRANCH  59  82
ATOM     82  C   UNL A   1      45.099  33.268  29.209  1.00  0.00     0.023 A 
ATOM     83  C   UNL A   1      45.978  33.437  30.298  1.00  0.00     0.012 A 
ATOM     84  C   UNL A   1      44.975  34.299  28.257  1.00  0.00     0.148 A 
ATOM     85  C   UNL A   1      46.695  34.622  30.455  1.00  0.00     0.002 A 
ATOM     86  C   UNL A   1      45.730  35.459  28.394  1.00  0.00     0.091 A 
ATOM     87  F   UNL A   1      44.121  34.131  27.236  1.00  0.00    -0.205 F 
ATOM     88  C   UNL A   1      46.580  35.627  29.498  1.00  0.00     0.022 A 
BRANCH  86  89
ATOM     89  S   UNL A   1      45.721  36.759  27.153  1.00  0.00     0.127 S 
ATOM     90  O   UNL A   1      44.288  36.997  26.980  1.00  0.00    -0.237 OA
ATOM     91  O   UNL A   1      46.441  37.841  27.825  1.00  0.00    -0.237 OA
ATOM     92  O   UNL A   1      46.412  36.206  25.997  1.00  0.00    -0.744 OA
ENDBRANCH  86  89
ENDBRANCH  59  82
ENDBRANCH  33  34
ENDBRANCH  26  28
ENDBRANCH  25  26
ENDBRANCH  24  25
ENDBRANCH   1  24
TORSDOF 18
ENDMDL
MODEL 2
REMARK VINA RESULT:     -11.9      1.801      2.376
REMARK SMILES Cc1cc(C)c2c(c1)C=C(C(=O)OCCOCCOC(=O)c1ccc(-c3c4nc(c(-c5cccc(S(=O)(=O)[O-])c5F)c5ccc([nH]5)c(-c5cccc(S(=O)(=O)[O-])c5F)c5nc(c(-c6cccc(S(=O)(=O)[O-])c6F)c6ccc3[nH]6)C=C5)C=C4)cc1)[C@@H](C(F)(F)F)O2
REMARK SMILES IDX 17 1 16 2 15 3 14 4 13 5 11 6 12 7 10 8 1 9 2 10 3 11 8 12
REMARK SMILES IDX 4 13 7 14 5 15 6 16 9 17 90 18 85 19 86 20 87 21 88 22 89 23
REMARK SMILES IDX 18 24 19 25 20 26 21 27 22 28 23 29 84 30 24 31 83 32 25 33
REMARK SMILES IDX 26 34 27 35 77 36 28 37 82 38 76 39 78 40 29 41 81 42 75 43
REMARK SMILES IDX 74 44 30 46 62 47 42 48 61 49 43 50 46 51 60 52 79 53 44 54
REMARK SMILES IDX 45 55 59 57 80 58 47 59 31 60 32 61 40 62 33 63 35 64 41 65
REMARK SMILES IDX 34 66 36 67 37 68 38 69 39 70 63 71 64 72 72 73 65 74 67 75
REMARK SMILES IDX 73 76 66 77 68 78 69 79 70 80 71 81 48 82 49 83 57 84 50 85
REMARK SMILES IDX 52 86 58 87 51 88 53 89 54 90 55 91 56 92
REMARK H PARENT 78 45 46 56
REMARK Flexibility Score: inf
ROOT
ATOM      1  C   UNL A   1      35.212  21.351  24.748  1.00  0.00     0.202 C 
ENDROOT
BRANCH   1   2
ATOM      2  O   UNL A   1      35.197  22.413  23.793  1.00  0.00    -0.374 OA
BRANCH   2   3
ATOM      3  C   UNL A   1      33.928  22.839  23.296  1.00  0.00     0.202 C 
BRANCH   3   4
ATOM      4  C   UNL A   1      33.234  23.968  24.062  1.00  0.00     0.261 C 
BRANCH   4   5
ATOM      5  O   UNL A   1      33.131  25.159  23.264  1.00  0.00    -0.460 OA
BRANCH   5   6
ATOM      6  C   UNL A   1      32.870  26.286  23.962  1.00  0.00     0.338 C 
ATOM      7  O   UNL A   1      33.659  26.923  24.649  1.00  0.00    -0.246 OA
BRANCH   6   8
ATOM      8  C   UNL A   1      31.500  26.752  23.675  1.00  0.00     0.087 C 
ATOM      9  C   UNL A   1      28.652  31.621  21.237  1.00  0.00     0.044 C 
ATOM     10  C   UNL A   1      28.757  30.280  21.901  1.00  0.00    -0.050 A 
ATOM     11  C   UNL A   1      27.630  29.684  22.482  1.00  0.00     0.010 A 
ATOM     12  C   UNL A   1      29.995  29.647  22.020  1.00  0.00     0.015 A 
ATOM     13  C   UNL A   1      27.727  28.452  23.151  1.00  0.00    -0.008 A 
ATOM     14  C   UNL A   1      30.108  28.430  22.701  1.00  0.00     0.018 A 
ATOM     15  C   UNL A   1      26.508  27.846  23.789  1.00  0.00     0.048 C 
ATOM     16  C   UNL A   1      28.976  27.820  23.245  1.00  0.00     0.130 A 
ATOM     17  C   UNL A   1      31.417  27.841  22.903  1.00  0.00     0.027 C 
ATOM     18  O   UNL A   1      29.019  26.606  23.875  1.00  0.00    -0.475 OA
ATOM     19  C   UNL A   1      30.308  26.047  24.258  1.00  0.00     0.316 C 
BRANCH  19  20
ATOM     20  C   UNL A   1      30.366  25.965  25.790  1.00  0.00     0.430 C 
ATOM     21  F   UNL A   1      31.230  25.008  26.200  1.00  0.00    -0.167 F 
ATOM     22  F   UNL A   1      30.779  27.131  26.337  1.00  0.00    -0.167 F 
ATOM     23  F   UNL A   1      29.156  25.675  26.322  1.00  0.00    -0.167 F 
ENDBRANCH  19  20
ENDBRANCH   6   8
ENDBRANCH   5   6
ENDBRANCH   4   5
ENDBRANCH   3   4
ENDBRANCH   2   3
ENDBRANCH   1   2
BRANCH   1  24
ATOM     24  C   UNL A   1      36.551  20.649  25.003  1.00  0.00     0.261 C 
BRANCH  24  25
ATOM     25  O   UNL A   1      37.664  21.557  24.966  1.00  0.00    -0.460 OA
BRANCH  25  26
ATOM     26  C   UNL A   1      38.712  21.195  25.742  1.00  0.00     0.338 C 
ATOM     27  O   UNL A   1      39.276  20.107  25.757  1.00  0.00    -0.246 OA
BRANCH  26  28
ATOM     28  C   UNL A   1      39.238  22.360  26.472  1.00  0.00     0.060 A 
ATOM     29  C   UNL A   1      38.657  23.607  26.205  1.00  0.00     0.016 A 
ATOM     30  C   UNL A   1      40.342  22.255  27.319  1.00  0.00     0.016 A 
ATOM     31  C   UNL A   1      39.220  24.766  26.731  1.00  0.00     0.010 A 
ATOM     32  C   UNL A   1      40.915  23.420  27.835  1.00  0.00     0.010 A 
ATOM     33  C   UNL A   1      40.384  24.681  27.504  1.00  0.00    -0.014 A 
BRANCH  33  34
ATOM     34  C   UNL A   1      41.156  25.910  27.801  1.00  0.00     0.031 A 
ATOM     35  C   UNL A   1      40.479  27.019  28.559  1.00  0.00     0.074 A 
ATOM     36  C   UNL A   1      42.437  26.033  27.415  1.00  0.00     0.049 A 
ATOM     37  N   UNL A   1      40.928  28.205  28.870  1.00  0.00    -0.248 NA
ATOM     38  C   UNL A   1      39.109  26.751  29.031  1.00  0.00     0.031 C 
ATOM     39  C   UNL A   1      43.209  25.012  26.712  1.00  0.00     0.029 A 
ATOM     40  N   UNL A   1      43.307  27.086  27.547  1.00  0.00    -0.354 N 
ATOM     41  C   UNL A   1      39.895  28.834  29.554  1.00  0.00     0.074 A 
ATOM     42  C   UNL A   1      38.788  27.904  29.603  1.00  0.00     0.031 C 
ATOM     43  C   UNL A   1      44.435  25.497  26.451  1.00  0.00     0.029 A 
ATOM     44  C   UNL A   1      44.522  26.872  26.941  1.00  0.00     0.049 A 
ATOM     45  H   UNL A   1      43.084  27.914  28.031  1.00  0.00     0.167 HD
ATOM     46  C   UNL A   1      39.874  30.069  30.107  1.00  0.00     0.034 A 
ATOM     47  C   UNL A   1      45.572  27.701  26.782  1.00  0.00     0.034 A 
ATOM     48  C   UNL A   1      40.981  30.987  30.069  1.00  0.00     0.049 A 
ATOM     49  C   UNL A   1      45.504  29.093  27.358  1.00  0.00     0.074 A 
ATOM     50  C   UNL A   1      41.061  32.259  30.607  1.00  0.00     0.029 A 
ATOM     51  N   UNL A   1      42.197  30.732  29.456  1.00  0.00    -0.354 N 
ATOM     52  N   UNL A   1      44.549  29.650  28.063  1.00  0.00    -0.248 NA
ATOM     53  C   UNL A   1      46.669  29.962  27.136  1.00  0.00     0.031 C 
ATOM     54  C   UNL A   1      42.322  32.781  30.303  1.00  0.00     0.029 A 
ATOM     55  C   UNL A   1      43.035  31.826  29.594  1.00  0.00     0.049 A 
ATOM     56  H   UNL A   1      42.431  29.898  28.990  1.00  0.00     0.167 HD
ATOM     57  C   UNL A   1      45.005  30.924  28.388  1.00  0.00     0.074 A 
ATOM     58  C   UNL A   1      46.336  31.043  27.829  1.00  0.00     0.031 C 
ATOM     59  C   UNL A   1      44.373  31.914  29.067  1.00  0.00     0.034 A 
BRANCH  46  60
ATOM     60  C   UNL A   1      38.624  30.489  30.835  1.00  0.00     0.023 A 
ATOM     61  C   UNL A   1      38.515  30.246  32.220  1.00  0.00     0.012 A 
ATOM     62  C   UNL A   1      37.592  31.178  30.170  1.00  0.00     0.148 A 
ATOM     63  C   UNL A   1      37.388  30.662  32.927  1.00  0.00     0.002 A 
ATOM     64  C   UNL A   1      36.490  31.628  30.890  1.00  0.00     0.091 A 
ATOM     65  F   UNL A   1      37.704  31.376  28.848  1.00  0.00    -0.205 F 
ATOM     66  C   UNL A   1      36.383  31.363  32.265  1.00  0.00     0.022 A 
BRANCH  64  67
ATOM     67  S   UNL A   1      35.178  32.603  30.148  1.00  0.00     0.127 S 
ATOM     68  O   UNL A   1      34.269  32.783  31.279  1.00  0.00    -0.237 OA
ATOM     69  O   UNL A   1      35.889  33.815  29.738  1.00  0.00    -0.237 OA
ATOM     70  O   UNL A   1      34.654  31.804  29.049  1.00  0.00    -0.744 OA
ENDBRANCH  64  67
ENDBRANCH  46  60
BRANCH  47  71
ATOM     71  C   UNL A   1      46.795  27.223  26.076  1.00  0.00     0.023 A 
ATOM     72  C   UNL A   1      46.917  27.429  24.688  1.00  0.00     0.012 A 
ATOM     73  C   UNL A   1      47.850  26.600  26.773  1.00  0.00     0.148 A 
ATOM     74  C   UNL A   1      48.057  27.005  24.003  1.00  0.00     0.002 A 
ATOM     75  C   UNL A   1      49.006  26.233  26.095  1.00  0.00     0.091 A 
ATOM     76  F   UNL A   1      47.706  26.393  28.089  1.00  0.00    -0.205 F 
ATOM     77  C   UNL A   1      49.106  26.420  24.708  1.00  0.00     0.022 A 
BRANCH  75  78
ATOM     78  S   UNL A   1      50.461  25.599  26.938  1.00  0.00     0.127 S 
ATOM     79  O   UNL A   1      49.940  24.384  27.561  1.00  0.00    -0.237 OA
ATOM     80  O   UNL A   1      51.380  25.375  25.823  1.00  0.00    -0.237 OA
ATOM     81  O   UNL A   1      50.873  26.651  27.857  1.00  0.00    -0.744 OA
ENDBRANCH  75  78
ENDBRANCH  47  71
BRANCH  59  82
ATOM     82  C   UNL A   1      45.109  33.218  29.248  1.00  0.00     0.023 A 
ATOM     83  C   UNL A   1      45.946  33.392  30.369  1.00  0.00     0.012 A 
ATOM     84  C   UNL A   1      45.039  34.236  28.277  1.00  0.00     0.148 A 
ATOM     85  C   UNL A   1      46.673  34.570  30.538  1.00  0.00     0.002 A 
ATOM     86  C   UNL A   1      45.805  35.387  28.426  1.00  0.00     0.091 A 
ATOM     87  F   UNL A   1      44.224  34.064  27.225  1.00  0.00    -0.205 F 
ATOM     88  C   UNL A   1      46.611  35.561  29.562  1.00  0.00     0.022 A 
BRANCH  86  89
ATOM     89  S   UNL A   1      45.865  36.667  27.166  1.00  0.00     0.127 S 
ATOM     90  O   UNL A   1      46.416  35.938  26.025  1.00  0.00    -0.237 OA
ATOM     91  O   UNL A   1      44.456  37.040  27.029  1.00  0.00    -0.237 OA
ATOM     92  O   UNL A   1      46.712  37.718  27.712  1.00  0.00    -0.744 OA
ENDBRANCH  86  89
ENDBRANCH  59  82
ENDBRANCH  33  34
ENDBRANCH  26  28
ENDBRANCH  25  26
ENDBRANCH  24  25
ENDBRANCH   1  24
TORSDOF 18
ENDMDL
MODEL 3
REMARK VINA RESULT:     -11.9      1.714      2.108
REMARK SMILES Cc1cc(C)c2c(c1)C=C(C(=O)OCCOCCOC(=O)c1ccc(-c3c4nc(c(-c5cccc(S(=O)(=O)[O-])c5F)c5ccc([nH]5)c(-c5cccc(S(=O)(=O)[O-])c5F)c5nc(c(-c6cccc(S(=O)(=O)[O-])c6F)c6ccc3[nH]6)C=C5)C=C4)cc1)[C@@H](C(F)(F)F)O2
REMARK SMILES IDX 17 1 16 2 15 3 14 4 13 5 11 6 12 7 10 8 1 9 2 10 3 11 8 12
REMARK SMILES IDX 4 13 7 14 5 15 6 16 9 17 90 18 85 19 86 20 87 21 88 22 89 23
REMARK SMILES IDX 18 24 19 25 20 26 21 27 22 28 23 29 84 30 24 31 83 32 25 33
REMARK SMILES IDX 26 34 27 35 77 36 28 37 82 38 76 39 78 40 29 41 81 42 75 43
REMARK SMILES IDX 74 44 30 46 62 47 42 48 61 49 43 50 46 51 60 52 79 53 44 54
REMARK SMILES IDX 45 55 59 57 80 58 47 59 31 60 32 61 40 62 33 63 35 64 41 65
REMARK SMILES IDX 34 66 36 67 37 68 38 69 39 70 63 71 64 72 72 73 65 74 67 75
REMARK SMILES IDX 73 76 66 77 68 78 69 79 70 80 71 81 48 82 49 83 57 84 50 85
REMARK SMILES IDX 52 86 58 87 51 88 53 89 54 90 55 91 56 92
REMARK H PARENT 78 45 46 56
REMARK Flexibility Score: inf
ROOT
ATOM      1  C   UNL A   1      35.775  20.993  25.272  1.00  0.00     0.202 C 
ENDROOT
BRANCH   1   2
ATOM      2  O   UNL A   1      34.642  20.141  25.093  1.00  0.00    -0.374 OA
BRANCH   2   3
ATOM      3  C   UNL A   1      33.439  20.487  25.780  1.00  0.00     0.202 C 
BRANCH   3   4
ATOM      4  C   UNL A   1      32.192  20.704  24.917  1.00  0.00     0.261 C 
BRANCH   4   5
ATOM      5  O   UNL A   1      31.637  22.014  25.114  1.00  0.00    -0.460 OA
BRANCH   5   6
ATOM      6  C   UNL A   1      31.736  22.837  24.048  1.00  0.00     0.338 C 
ATOM      7  O   UNL A   1      31.819  22.506  22.871  1.00  0.00    -0.246 OA
BRANCH   6   8
ATOM      8  C   UNL A   1      31.587  24.239  24.477  1.00  0.00     0.087 C 
ATOM      9  C   UNL A   1      29.613  29.611  22.236  1.00  0.00     0.044 C 
ATOM     10  C   UNL A   1      30.207  28.680  23.251  1.00  0.00    -0.050 A 
ATOM     11  C   UNL A   1      30.856  29.185  24.385  1.00  0.00     0.010 A 
ATOM     12  C   UNL A   1      30.193  27.300  23.037  1.00  0.00     0.015 A 
ATOM     13  C   UNL A   1      31.460  28.324  25.316  1.00  0.00    -0.008 A 
ATOM     14  C   UNL A   1      30.809  26.434  23.947  1.00  0.00     0.018 A 
ATOM     15  C   UNL A   1      32.173  28.892  26.512  1.00  0.00     0.048 C 
ATOM     16  C   UNL A   1      31.421  26.939  25.096  1.00  0.00     0.130 A 
ATOM     17  C   UNL A   1      30.873  25.016  23.654  1.00  0.00     0.027 C 
ATOM     18  O   UNL A   1      31.992  26.135  26.045  1.00  0.00    -0.475 OA
ATOM     19  C   UNL A   1      32.239  24.734  25.738  1.00  0.00     0.316 C 
BRANCH  19  20
ATOM     20  C   UNL A   1      33.755  24.495  25.747  1.00  0.00     0.430 C 
ATOM     21  F   UNL A   1      34.175  23.952  24.580  1.00  0.00    -0.167 F 
ATOM     22  F   UNL A   1      34.442  25.648  25.916  1.00  0.00    -0.167 F 
ATOM     23  F   UNL A   1      34.124  23.655  26.742  1.00  0.00    -0.167 F 
ENDBRANCH  19  20
ENDBRANCH   6   8
ENDBRANCH   5   6
ENDBRANCH   4   5
ENDBRANCH   3   4
ENDBRANCH   2   3
ENDBRANCH   1   2
BRANCH   1  24
ATOM     24  C   UNL A   1      37.163  20.373  25.074  1.00  0.00     0.261 C 
BRANCH  24  25
ATOM     25  O   UNL A   1      38.211  21.357  25.082  1.00  0.00    -0.460 OA
BRANCH  25  26
ATOM     26  C   UNL A   1      39.235  21.081  25.922  1.00  0.00     0.338 C 
ATOM     27  O   UNL A   1      39.851  20.025  26.012  1.00  0.00    -0.246 OA
BRANCH  26  28
ATOM     28  C   UNL A   1      39.666  22.300  26.625  1.00  0.00     0.060 A 
ATOM     29  C   UNL A   1      39.101  23.516  26.217  1.00  0.00     0.016 A 
ATOM     30  C   UNL A   1      40.676  22.272  27.588  1.00  0.00     0.016 A 
ATOM     31  C   UNL A   1      39.590  24.718  26.723  1.00  0.00     0.010 A 
ATOM     32  C   UNL A   1      41.176  23.479  28.083  1.00  0.00     0.010 A 
ATOM     33  C   UNL A   1      40.667  24.705  27.617  1.00  0.00    -0.014 A 
BRANCH  33  34
ATOM     34  C   UNL A   1      41.387  25.966  27.911  1.00  0.00     0.031 A 
ATOM     35  C   UNL A   1      40.654  27.060  28.638  1.00  0.00     0.074 A 
ATOM     36  C   UNL A   1      42.671  26.130  27.551  1.00  0.00     0.049 A 
ATOM     37  N   UNL A   1      41.053  28.266  28.940  1.00  0.00    -0.248 NA
ATOM     38  C   UNL A   1      39.284  26.750  29.084  1.00  0.00     0.031 C 
ATOM     39  C   UNL A   1      43.495  25.127  26.881  1.00  0.00     0.029 A 
ATOM     40  N   UNL A   1      43.500  27.215  27.686  1.00  0.00    -0.354 N 
ATOM     41  C   UNL A   1      39.983  28.867  29.592  1.00  0.00     0.074 A 
ATOM     42  C   UNL A   1      38.910  27.898  29.631  1.00  0.00     0.031 C 
ATOM     43  C   UNL A   1      44.708  25.653  26.639  1.00  0.00     0.029 A 
ATOM     44  C   UNL A   1      44.734  27.037  27.109  1.00  0.00     0.049 A 
ATOM     45  H   UNL A   1      43.236  28.042  28.152  1.00  0.00     0.167 HD
ATOM     46  C   UNL A   1      39.905  30.108  30.126  1.00  0.00     0.034 A 
ATOM     47  C   UNL A   1      45.757  27.902  26.960  1.00  0.00     0.034 A 
ATOM     48  C   UNL A   1      40.979  31.065  30.097  1.00  0.00     0.049 A 
ATOM     49  C   UNL A   1      45.626  29.298  27.513  1.00  0.00     0.074 A 
ATOM     50  C   UNL A   1      41.001  32.346  30.617  1.00  0.00     0.029 A 
ATOM     51  N   UNL A   1      42.217  30.846  29.514  1.00  0.00    -0.354 N 
ATOM     52  N   UNL A   1      44.636  29.830  28.189  1.00  0.00    -0.248 NA
ATOM     53  C   UNL A   1      46.764  30.206  27.303  1.00  0.00     0.031 C 
ATOM     54  C   UNL A   1      42.249  32.910  30.333  1.00  0.00     0.029 A 
ATOM     55  C   UNL A   1      43.011  31.972  29.654  1.00  0.00     0.049 A 
ATOM     56  H   UNL A   1      42.491  30.014  29.067  1.00  0.00     0.167 HD
ATOM     57  C   UNL A   1      45.038  31.125  28.504  1.00  0.00     0.074 A 
ATOM     58  C   UNL A   1      46.376  31.284  27.972  1.00  0.00     0.031 C 
ATOM     59  C   UNL A   1      44.356  32.101  29.154  1.00  0.00     0.034 A 
BRANCH  46  60
ATOM     60  C   UNL A   1      38.625  30.493  30.820  1.00  0.00     0.023 A 
ATOM     61  C   UNL A   1      38.460  30.186  32.186  1.00  0.00     0.012 A 
ATOM     62  C   UNL A   1      37.620  31.211  30.146  1.00  0.00     0.148 A 
ATOM     63  C   UNL A   1      37.304  30.568  32.865  1.00  0.00     0.002 A 
ATOM     64  C   UNL A   1      36.488  31.626  30.839  1.00  0.00     0.091 A 
ATOM     65  F   UNL A   1      37.785  31.470  28.840  1.00  0.00    -0.205 F 
ATOM     66  C   UNL A   1      36.325  31.298  32.195  1.00  0.00     0.022 A 
BRANCH  64  67
ATOM     67  S   UNL A   1      35.204  32.634  30.089  1.00  0.00     0.127 S 
ATOM     68  O   UNL A   1      34.713  31.747  29.035  1.00  0.00    -0.237 OA
ATOM     69  O   UNL A   1      34.276  32.828  31.203  1.00  0.00    -0.237 OA
ATOM     70  O   UNL A   1      35.863  33.846  29.626  1.00  0.00    -0.744 OA
ENDBRANCH  64  67
ENDBRANCH  46  60
BRANCH  47  71
ATOM     71  C   UNL A   1      47.012  27.458  26.289  1.00  0.00     0.023 A 
ATOM     72  C   UNL A   1      47.959  26.713  27.019  1.00  0.00     0.012 A 
ATOM     73  C   UNL A   1      47.257  27.736  24.929  1.00  0.00     0.148 A 
ATOM     74  C   UNL A   1      49.136  26.270  26.413  1.00  0.00     0.002 A 
ATOM     75  C   UNL A   1      48.403  27.243  24.318  1.00  0.00     0.091 A 
ATOM     76  F   UNL A   1      46.355  28.465  24.258  1.00  0.00    -0.205 F 
ATOM     77  C   UNL A   1      49.352  26.523  25.060  1.00  0.00     0.022 A 
BRANCH  75  78
ATOM     78  S   UNL A   1      48.701  27.401  22.552  1.00  0.00     0.127 S 
ATOM     79  O   UNL A   1      50.105  27.805  22.521  1.00  0.00    -0.237 OA
ATOM     80  O   UNL A   1      48.439  26.042  22.081  1.00  0.00    -0.237 OA
ATOM     81  O   UNL A   1      47.748  28.396  22.081  1.00  0.00    -0.744 OA
ENDBRANCH  75  78
ENDBRANCH  47  71
BRANCH  59  82
ATOM     82  C   UNL A   1      45.040  33.433  29.332  1.00  0.00     0.023 A 
ATOM     83  C   UNL A   1      45.843  33.655  30.469  1.00  0.00     0.012 A 
ATOM     84  C   UNL A   1      44.958  34.433  28.342  1.00  0.00     0.148 A 
ATOM     85  C   UNL A   1      46.523  34.861  30.636  1.00  0.00     0.002 A 
ATOM     86  C   UNL A   1      45.678  35.613  28.490  1.00  0.00     0.091 A 
ATOM     87  F   UNL A   1      44.176  34.215  27.274  1.00  0.00    -0.205 F 
ATOM     88  C   UNL A   1      46.450  35.833  29.642  1.00  0.00     0.022 A 
BRANCH  86  89
ATOM     89  S   UNL A   1      45.723  36.874  27.211  1.00  0.00     0.127 S 
ATOM     90  O   UNL A   1      44.309  37.224  27.086  1.00  0.00    -0.237 OA
ATOM     91  O   UNL A   1      46.556  37.912  27.821  1.00  0.00    -0.237 OA
ATOM     92  O   UNL A   1      46.320  36.234  26.047  1.00  0.00    -0.744 OA
ENDBRANCH  86  89
ENDBRANCH  59  82
ENDBRANCH  33  34
ENDBRANCH  26  28
ENDBRANCH  25  26
ENDBRANCH  24  25
ENDBRANCH   1  24
TORSDOF 18
ENDMDL
