MODEL 1
REMARK VINA RESULT:     -10.9      0.000      0.000
REMARK SMILES CC1(C(=O)N2CC(CC(=O)OCCOCCOC(=O)c3ccc(-c4c5nc(c(-c6cccc(S(=O)(=O)[O-])c6F)c6ccc([nH]6)c(-c6cccc(S(=O)(=O)[O-])c6F)c6nc(c(-c7cccc(S(=O)(=O)[O-])c7F)c7ccc4[nH]7)C=C6)C=C5)cc3)C2)CCCC1
REMARK SMILES IDX 15 1 14 2 13 3 12 4 11 5 9 6 10 7 8 8 7 9 3 10 4 11 5 12
REMARK SMILES IDX 6 13 83 14 2 15 1 16 84 17 87 18 85 19 86 20 16 21 17 22
REMARK SMILES IDX 18 23 19 24 20 25 21 26 82 27 22 28 81 29 23 30 24 31 25 32
REMARK SMILES IDX 75 33 26 34 80 35 74 36 76 37 27 38 79 39 73 40 72 41 28 43
REMARK SMILES IDX 60 44 40 45 59 46 41 47 44 48 58 49 77 50 42 51 43 52 57 54
REMARK SMILES IDX 78 55 45 56 29 57 30 58 38 59 31 60 33 61 39 62 32 63 34 64
REMARK SMILES IDX 35 65 36 66 37 67 61 68 62 69 70 70 63 71 65 72 71 73 64 74
REMARK SMILES IDX 66 75 67 76 68 77 69 78 46 79 47 80 55 81 48 82 50 83 56 84
REMARK SMILES IDX 49 85 51 86 52 87 53 88 54 89
REMARK H PARENT 76 42 44 53
REMARK Flexibility Score: inf
ROOT
ATOM      1  C   UNL A   1      35.614  20.955  25.284  1.00  0.00     0.202 C 
ENDROOT
BRANCH   1   2
ATOM      2  O   UNL A   1      35.596  22.367  25.095  1.00  0.00    -0.374 OA
BRANCH   2   3
ATOM      3  C   UNL A   1      35.593  22.849  23.750  1.00  0.00     0.202 C 
BRANCH   3   4
ATOM      4  C   UNL A   1      34.626  23.992  23.429  1.00  0.00     0.261 C 
BRANCH   4   5
ATOM      5  O   UNL A   1      33.293  23.512  23.168  1.00  0.00    -0.463 OA
BRANCH   5   6
ATOM      6  C   UNL A   1      32.342  23.916  24.049  1.00  0.00     0.306 C 
ATOM      7  O   UNL A   1      32.321  23.640  25.243  1.00  0.00    -0.252 OA
BRANCH   6   8
ATOM      8  C   UNL A   1      31.266  24.751  23.410  1.00  0.00     0.130 C 
BRANCH   8   9
ATOM      9  C   UNL A   1      31.475  26.261  23.388  1.00  0.00     0.039 C 
ATOM     10  C   UNL A   1      30.115  29.248  23.787  1.00  0.00     0.228 C 
ATOM     11  O   UNL A   1      30.823  29.861  24.587  1.00  0.00    -0.274 OA
ATOM     12  N   UNL A   1      30.211  27.882  23.654  1.00  0.00    -0.342 N 
ATOM     13  C   UNL A   1      30.845  26.970  24.588  1.00  0.00     0.125 C 
ATOM     14  C   UNL A   1      30.572  27.106  22.472  1.00  0.00     0.125 C 
BRANCH  10  15
ATOM     15  C   UNL A   1      28.952  29.912  23.029  1.00  0.00     0.047 C 
ATOM     16  C   UNL A   1      27.695  29.038  22.975  1.00  0.00     0.022 C 
ATOM     17  C   UNL A   1      29.381  30.323  21.606  1.00  0.00     0.016 C 
ATOM     18  C   UNL A   1      28.668  31.286  23.665  1.00  0.00     0.016 C 
ATOM     19  C   UNL A   1      28.493  31.509  21.240  1.00  0.00     0.001 C 
ATOM     20  C   UNL A   1      28.081  32.154  22.558  1.00  0.00     0.001 C 
ENDBRANCH  10  15
ENDBRANCH   8   9
ENDBRANCH   6   8
ENDBRANCH   5   6
ENDBRANCH   4   5
ENDBRANCH   3   4
ENDBRANCH   2   3
ENDBRANCH   1   2
BRANCH   1  21
ATOM     21  C   UNL A   1      36.940  20.231  25.011  1.00  0.00     0.261 C 
BRANCH  21  22
ATOM     22  O   UNL A   1      38.076  21.117  25.009  1.00  0.00    -0.460 OA
BRANCH  22  23
ATOM     23  C   UNL A   1      39.034  20.810  25.916  1.00  0.00     0.338 C 
ATOM     24  O   UNL A   1      39.522  19.708  26.133  1.00  0.00    -0.246 OA
BRANCH  23  25
ATOM     25  C   UNL A   1      39.583  22.041  26.517  1.00  0.00     0.060 A 
ATOM     26  C   UNL A   1      39.082  23.266  26.052  1.00  0.00     0.016 A 
ATOM     27  C   UNL A   1      40.614  22.006  27.458  1.00  0.00     0.016 A 
ATOM     28  C   UNL A   1      39.638  24.463  26.500  1.00  0.00     0.010 A 
ATOM     29  C   UNL A   1      41.174  23.212  27.898  1.00  0.00     0.010 A 
ATOM     30  C   UNL A   1      40.712  24.443  27.399  1.00  0.00    -0.014 A 
BRANCH  30  31
ATOM     31  C   UNL A   1      41.423  25.704  27.727  1.00  0.00     0.031 A 
ATOM     32  C   UNL A   1      40.696  26.783  28.483  1.00  0.00     0.074 A 
ATOM     33  C   UNL A   1      42.702  25.887  27.354  1.00  0.00     0.049 A 
ATOM     34  N   UNL A   1      41.115  27.968  28.838  1.00  0.00    -0.248 NA
ATOM     35  C   UNL A   1      39.312  26.487  28.890  1.00  0.00     0.031 C 
ATOM     36  C   UNL A   1      43.516  24.915  26.627  1.00  0.00     0.029 A 
ATOM     37  N   UNL A   1      43.532  26.969  27.515  1.00  0.00    -0.354 N 
ATOM     38  C   UNL A   1      40.045  28.572  29.486  1.00  0.00     0.074 A 
ATOM     39  C   UNL A   1      38.951  27.625  29.466  1.00  0.00     0.031 C 
ATOM     40  C   UNL A   1      44.721  25.456  26.377  1.00  0.00     0.029 A 
ATOM     41  C   UNL A   1      44.753  26.820  26.903  1.00  0.00     0.049 A 
ATOM     42  H   UNL A   1      43.276  27.774  28.021  1.00  0.00     0.167 HD
ATOM     43  C   UNL A   1      39.981  29.797  30.060  1.00  0.00     0.034 A 
ATOM     44  C   UNL A   1      45.772  27.692  26.761  1.00  0.00     0.034 A 
ATOM     45  C   UNL A   1      41.074  30.730  30.099  1.00  0.00     0.049 A 
ATOM     46  C   UNL A   1      45.664  29.062  27.380  1.00  0.00     0.074 A 
ATOM     47  C   UNL A   1      41.120  31.975  30.703  1.00  0.00     0.029 A 
ATOM     48  N   UNL A   1      42.307  30.531  29.500  1.00  0.00    -0.354 N 
ATOM     49  N   UNL A   1      44.689  29.570  28.096  1.00  0.00    -0.248 NA
ATOM     50  C   UNL A   1      46.806  29.969  27.196  1.00  0.00     0.031 C 
ATOM     51  C   UNL A   1      42.374  32.538  30.446  1.00  0.00     0.029 A 
ATOM     52  C   UNL A   1      43.117  31.635  29.704  1.00  0.00     0.049 A 
ATOM     53  H   UNL A   1      42.570  29.722  29.003  1.00  0.00     0.167 HD
ATOM     54  C   UNL A   1      45.115  30.838  28.476  1.00  0.00     0.074 A 
ATOM     55  C   UNL A   1      46.444  31.014  27.927  1.00  0.00     0.031 C 
ATOM     56  C   UNL A   1      44.459  31.778  29.201  1.00  0.00     0.034 A 
BRANCH  43  57
ATOM     57  C   UNL A   1      38.687  30.193  30.722  1.00  0.00     0.023 A 
ATOM     58  C   UNL A   1      38.468  29.862  32.074  1.00  0.00     0.012 A 
ATOM     59  C   UNL A   1      37.719  30.943  30.027  1.00  0.00     0.148 A 
ATOM     60  C   UNL A   1      37.293  30.248  32.717  1.00  0.00     0.002 A 
ATOM     61  C   UNL A   1      36.568  31.360  30.685  1.00  0.00     0.091 A 
ATOM     62  F   UNL A   1      37.937  31.226  28.734  1.00  0.00    -0.205 F 
ATOM     63  C   UNL A   1      36.349  31.005  32.026  1.00  0.00     0.022 A 
BRANCH  61  64
ATOM     64  S   UNL A   1      35.329  32.399  29.903  1.00  0.00     0.127 S 
ATOM     65  O   UNL A   1      34.874  31.542  28.810  1.00  0.00    -0.237 OA
ATOM     66  O   UNL A   1      34.356  32.581  30.980  1.00  0.00    -0.237 OA
ATOM     67  O   UNL A   1      36.022  33.614  29.500  1.00  0.00    -0.744 OA
ENDBRANCH  61  64
ENDBRANCH  43  57
BRANCH  44  68
ATOM     68  C   UNL A   1      47.000  27.286  26.021  1.00  0.00     0.023 A 
ATOM     69  C   UNL A   1      47.107  27.566  24.645  1.00  0.00     0.012 A 
ATOM     70  C   UNL A   1      48.067  26.642  26.676  1.00  0.00     0.148 A 
ATOM     71  C   UNL A   1      48.244  27.188  23.929  1.00  0.00     0.002 A 
ATOM     72  C   UNL A   1      49.220  26.319  25.969  1.00  0.00     0.091 A 
ATOM     73  F   UNL A   1      47.938  26.365  27.981  1.00  0.00    -0.205 F 
ATOM     74  C   UNL A   1      49.303  26.575  24.592  1.00  0.00     0.022 A 
BRANCH  72  75
ATOM     75  S   UNL A   1      50.681  25.651  26.772  1.00  0.00     0.127 S 
ATOM     76  O   UNL A   1      51.579  25.447  25.639  1.00  0.00    -0.237 OA
ATOM     77  O   UNL A   1      51.059  26.743  27.670  1.00  0.00    -0.237 OA
ATOM     78  O   UNL A   1      50.236  24.443  27.455  1.00  0.00    -0.744 OA
ENDBRANCH  72  75
ENDBRANCH  44  68
BRANCH  56  79
ATOM     79  C   UNL A   1      45.171  33.077  29.478  1.00  0.00     0.023 A 
ATOM     80  C   UNL A   1      45.966  33.205  30.634  1.00  0.00     0.012 A 
ATOM     81  C   UNL A   1      45.124  34.137  28.551  1.00  0.00     0.148 A 
ATOM     82  C   UNL A   1      46.680  34.378  30.876  1.00  0.00     0.002 A 
ATOM     83  C   UNL A   1      45.877  35.284  28.774  1.00  0.00     0.091 A 
ATOM     84  F   UNL A   1      44.349  34.002  27.465  1.00  0.00    -0.205 F 
ATOM     85  C   UNL A   1      46.646  35.411  29.942  1.00  0.00     0.022 A 
BRANCH  83  86
ATOM     86  S   UNL A   1      45.968  36.626  27.583  1.00  0.00     0.127 S 
ATOM     87  O   UNL A   1      44.579  37.078  27.536  1.00  0.00    -0.237 OA
ATOM     88  O   UNL A   1      46.890  37.558  28.235  1.00  0.00    -0.237 OA
ATOM     89  O   UNL A   1      46.477  36.036  26.352  1.00  0.00    -0.744 OA
ENDBRANCH  83  86
ENDBRANCH  56  79
ENDBRANCH  30  31
ENDBRANCH  23  25
ENDBRANCH  22  23
ENDBRANCH  21  22
ENDBRANCH   1  21
TORSDOF 19
ENDMDL
MODEL 2
REMARK VINA RESULT:     -10.9      1.387      7.731
REMARK SMILES CC1(C(=O)N2CC(CC(=O)OCCOCCOC(=O)c3ccc(-c4c5nc(c(-c6cccc(S(=O)(=O)[O-])c6F)c6ccc([nH]6)c(-c6cccc(S(=O)(=O)[O-])c6F)c6nc(c(-c7cccc(S(=O)(=O)[O-])c7F)c7ccc4[nH]7)C=C6)C=C5)cc3)C2)CCCC1
REMARK SMILES IDX 15 1 14 2 13 3 12 4 11 5 9 6 10 7 8 8 7 9 3 10 4 11 5 12
REMARK SMILES IDX 6 13 83 14 2 15 1 16 84 17 87 18 85 19 86 20 16 21 17 22
REMARK SMILES IDX 18 23 19 24 20 25 21 26 82 27 22 28 81 29 23 30 24 31 25 32
REMARK SMILES IDX 75 33 26 34 80 35 74 36 76 37 27 38 79 39 73 40 72 41 28 43
REMARK SMILES IDX 60 44 40 45 59 46 41 47 44 48 58 49 77 50 42 51 43 52 57 54
REMARK SMILES IDX 78 55 45 56 29 57 30 58 38 59 31 60 33 61 39 62 32 63 34 64
REMARK SMILES IDX 35 65 36 66 37 67 61 68 62 69 70 70 63 71 65 72 71 73 64 74
REMARK SMILES IDX 66 75 67 76 68 77 69 78 46 79 47 80 55 81 48 82 50 83 56 84
REMARK SMILES IDX 49 85 51 86 52 87 53 88 54 89
REMARK H PARENT 76 42 44 53
REMARK Flexibility Score: inf
ROOT
ATOM      1  C   UNL A   1      35.878  20.647  25.023  1.00  0.00     0.202 C 
ENDROOT
BRANCH   1   2
ATOM      2  O   UNL A   1      35.583  21.790  24.224  1.00  0.00    -0.374 OA
BRANCH   2   3
ATOM      3  C   UNL A   1      34.993  22.914  24.879  1.00  0.00     0.202 C 
BRANCH   3   4
ATOM      4  C   UNL A   1      33.477  22.870  25.094  1.00  0.00     0.261 C 
BRANCH   4   5
ATOM      5  O   UNL A   1      32.884  24.181  25.023  1.00  0.00    -0.463 OA
BRANCH   5   6
ATOM      6  C   UNL A   1      31.605  24.221  24.570  1.00  0.00     0.306 C 
ATOM      7  O   UNL A   1      30.639  23.719  25.133  1.00  0.00    -0.252 OA
BRANCH   6   8
ATOM      8  C   UNL A   1      31.469  24.949  23.261  1.00  0.00     0.130 C 
BRANCH   8   9
ATOM      9  C   UNL A   1      31.603  26.467  23.289  1.00  0.00     0.039 C 
ATOM     10  C   UNL A   1      30.088  29.370  23.746  1.00  0.00     0.228 C 
ATOM     11  O   UNL A   1      30.748  29.993  24.579  1.00  0.00    -0.274 OA
ATOM     12  N   UNL A   1      30.255  28.016  23.573  1.00  0.00    -0.342 N 
ATOM     13  C   UNL A   1      30.913  27.107  24.495  1.00  0.00     0.125 C 
ATOM     14  C   UNL A   1      30.679  27.295  22.378  1.00  0.00     0.125 C 
BRANCH  10  15
ATOM     15  C   UNL A   1      28.911  30.000  22.980  1.00  0.00     0.047 C 
ATOM     16  C   UNL A   1      27.671  29.102  22.945  1.00  0.00     0.022 C 
ATOM     17  C   UNL A   1      29.328  30.397  21.550  1.00  0.00     0.016 C 
ATOM     18  C   UNL A   1      28.602  31.379  23.596  1.00  0.00     0.016 C 
ATOM     19  C   UNL A   1      28.416  31.559  21.168  1.00  0.00     0.001 C 
ATOM     20  C   UNL A   1      27.996  32.218  22.477  1.00  0.00     0.001 C 
ENDBRANCH  10  15
ENDBRANCH   8   9
ENDBRANCH   6   8
ENDBRANCH   5   6
ENDBRANCH   4   5
ENDBRANCH   3   4
ENDBRANCH   2   3
ENDBRANCH   1   2
BRANCH   1  21
ATOM     21  C   UNL A   1      37.326  20.138  25.006  1.00  0.00     0.261 C 
BRANCH  21  22
ATOM     22  O   UNL A   1      38.296  21.199  25.099  1.00  0.00    -0.460 OA
BRANCH  22  23
ATOM     23  C   UNL A   1      39.272  20.994  26.018  1.00  0.00     0.338 C 
ATOM     24  O   UNL A   1      39.853  19.942  26.256  1.00  0.00    -0.246 OA
BRANCH  23  25
ATOM     25  C   UNL A   1      39.705  22.278  26.599  1.00  0.00     0.060 A 
ATOM     26  C   UNL A   1      39.087  23.445  26.125  1.00  0.00     0.016 A 
ATOM     27  C   UNL A   1      40.742  22.353  27.532  1.00  0.00     0.016 A 
ATOM     28  C   UNL A   1      39.530  24.694  26.555  1.00  0.00     0.010 A 
ATOM     29  C   UNL A   1      41.189  23.611  27.953  1.00  0.00     0.010 A 
ATOM     30  C   UNL A   1      40.607  24.787  27.445  1.00  0.00    -0.014 A 
BRANCH  30  31
ATOM     31  C   UNL A   1      41.197  26.114  27.752  1.00  0.00     0.031 A 
ATOM     32  C   UNL A   1      42.611  26.407  27.327  1.00  0.00     0.074 A 
ATOM     33  C   UNL A   1      40.482  27.047  28.404  1.00  0.00     0.049 A 
ATOM     34  N   UNL A   1      43.327  27.482  27.525  1.00  0.00    -0.248 NA
ATOM     35  C   UNL A   1      43.309  25.347  26.581  1.00  0.00     0.031 C 
ATOM     36  C   UNL A   1      39.103  26.888  28.859  1.00  0.00     0.029 A 
ATOM     37  N   UNL A   1      40.831  28.309  28.820  1.00  0.00    -0.354 N 
ATOM     38  C   UNL A   1      44.567  27.222  26.956  1.00  0.00     0.074 A 
ATOM     39  C   UNL A   1      44.510  25.883  26.412  1.00  0.00     0.031 C 
ATOM     40  C   UNL A   1      38.731  27.998  29.520  1.00  0.00     0.029 A 
ATOM     41  C   UNL A   1      39.853  28.935  29.555  1.00  0.00     0.049 A 
ATOM     42  H   UNL A   1      41.699  28.725  28.610  1.00  0.00     0.167 HD
ATOM     43  C   UNL A   1      45.651  28.030  26.878  1.00  0.00     0.034 A 
ATOM     44  C   UNL A   1      39.869  30.117  30.204  1.00  0.00     0.034 A 
ATOM     45  C   UNL A   1      45.702  29.369  27.400  1.00  0.00     0.049 A 
ATOM     46  C   UNL A   1      41.100  30.983  30.131  1.00  0.00     0.074 A 
ATOM     47  C   UNL A   1      46.739  30.283  27.323  1.00  0.00     0.029 A 
ATOM     48  N   UNL A   1      44.681  29.982  28.106  1.00  0.00    -0.354 N 
ATOM     49  N   UNL A   1      42.220  30.773  29.483  1.00  0.00    -0.248 NA
ATOM     50  C   UNL A   1      41.059  32.263  30.854  1.00  0.00     0.031 C 
ATOM     51  C   UNL A   1      46.352  31.440  28.007  1.00  0.00     0.029 A 
ATOM     52  C   UNL A   1      45.067  31.256  28.487  1.00  0.00     0.049 A 
ATOM     53  H   UNL A   1      43.808  29.573  28.308  1.00  0.00     0.167 HD
ATOM     54  C   UNL A   1      43.001  31.905  29.691  1.00  0.00     0.074 A 
ATOM     55  C   UNL A   1      42.218  32.807  30.510  1.00  0.00     0.031 C 
ATOM     56  C   UNL A   1      44.258  32.168  29.256  1.00  0.00     0.034 A 
BRANCH  43  57
ATOM     57  C   UNL A   1      46.872  27.496  26.176  1.00  0.00     0.023 A 
ATOM     58  C   UNL A   1      47.719  26.590  26.845  1.00  0.00     0.012 A 
ATOM     59  C   UNL A   1      47.146  27.841  24.838  1.00  0.00     0.148 A 
ATOM     60  C   UNL A   1      48.836  26.058  26.203  1.00  0.00     0.002 A 
ATOM     61  C   UNL A   1      48.237  27.274  24.191  1.00  0.00     0.091 A 
ATOM     62  F   UNL A   1      46.340  28.722  24.227  1.00  0.00    -0.205 F 
ATOM     63  C   UNL A   1      49.088  26.390  24.875  1.00  0.00     0.022 A 
BRANCH  61  64
ATOM     64  S   UNL A   1      48.603  27.583  22.460  1.00  0.00     0.127 S 
ATOM     65  O   UNL A   1      48.780  26.224  21.949  1.00  0.00    -0.237 OA
ATOM     66  O   UNL A   1      47.386  28.253  22.002  1.00  0.00    -0.237 OA
ATOM     67  O   UNL A   1      49.796  28.418  22.445  1.00  0.00    -0.744 OA
ENDBRANCH  61  64
ENDBRANCH  43  57
BRANCH  44  68
ATOM     68  C   UNL A   1      38.666  30.565  30.961  1.00  0.00     0.023 A 
ATOM     69  C   UNL A   1      38.593  30.335  32.349  1.00  0.00     0.012 A 
ATOM     70  C   UNL A   1      37.607  31.233  30.319  1.00  0.00     0.148 A 
ATOM     71  C   UNL A   1      37.473  30.739  33.077  1.00  0.00     0.002 A 
ATOM     72  C   UNL A   1      36.520  31.682  31.060  1.00  0.00     0.091 A 
ATOM     73  F   UNL A   1      37.685  31.423  28.994  1.00  0.00    -0.205 F 
ATOM     74  C   UNL A   1      36.443  31.421  32.436  1.00  0.00     0.022 A 
BRANCH  72  75
ATOM     75  S   UNL A   1      35.215  32.684  30.338  1.00  0.00     0.127 S 
ATOM     76  O   UNL A   1      34.362  32.944  31.494  1.00  0.00    -0.237 OA
ATOM     77  O   UNL A   1      35.961  33.844  29.848  1.00  0.00    -0.237 OA
ATOM     78  O   UNL A   1      34.628  31.864  29.287  1.00  0.00    -0.744 OA
ENDBRANCH  72  75
ENDBRANCH  44  68
BRANCH  56  79
ATOM     79  C   UNL A   1      44.868  33.497  29.624  1.00  0.00     0.023 A 
ATOM     80  C   UNL A   1      45.689  33.597  30.763  1.00  0.00     0.012 A 
ATOM     81  C   UNL A   1      44.699  34.622  28.792  1.00  0.00     0.148 A 
ATOM     82  C   UNL A   1      46.311  34.803  31.085  1.00  0.00     0.002 A 
ATOM     83  C   UNL A   1      45.360  35.807  29.092  1.00  0.00     0.091 A 
ATOM     84  F   UNL A   1      43.900  34.510  27.721  1.00  0.00    -0.205 F 
ATOM     85  C   UNL A   1      46.157  35.903  30.244  1.00  0.00     0.022 A 
BRANCH  83  86
ATOM     86  S   UNL A   1      45.296  37.247  28.018  1.00  0.00     0.127 S 
ATOM     87  O   UNL A   1      43.925  37.711  28.224  1.00  0.00    -0.237 OA
ATOM     88  O   UNL A   1      46.325  38.111  28.596  1.00  0.00    -0.237 OA
ATOM     89  O   UNL A   1      45.597  36.761  26.679  1.00  0.00    -0.744 OA
ENDBRANCH  83  86
ENDBRANCH  56  79
ENDBRANCH  30  31
ENDBRANCH  23  25
ENDBRANCH  22  23
ENDBRANCH  21  22
ENDBRANCH   1  21
TORSDOF 19
ENDMDL
MODEL 3
REMARK VINA RESULT:     -10.7      1.519      8.082
REMARK SMILES CC1(C(=O)N2CC(CC(=O)OCCOCCOC(=O)c3ccc(-c4c5nc(c(-c6cccc(S(=O)(=O)[O-])c6F)c6ccc([nH]6)c(-c6cccc(S(=O)(=O)[O-])c6F)c6nc(c(-c7cccc(S(=O)(=O)[O-])c7F)c7ccc4[nH]7)C=C6)C=C5)cc3)C2)CCCC1
REMARK SMILES IDX 15 1 14 2 13 3 12 4 11 5 9 6 10 7 8 8 7 9 3 10 4 11 5 12
REMARK SMILES IDX 6 13 83 14 2 15 1 16 84 17 87 18 85 19 86 20 16 21 17 22
REMARK SMILES IDX 18 23 19 24 20 25 21 26 82 27 22 28 81 29 23 30 24 31 25 32
REMARK SMILES IDX 75 33 26 34 80 35 74 36 76 37 27 38 79 39 73 40 72 41 28 43
REMARK SMILES IDX 60 44 40 45 59 46 41 47 44 48 58 49 77 50 42 51 43 52 57 54
REMARK SMILES IDX 78 55 45 56 29 57 30 58 38 59 31 60 33 61 39 62 32 63 34 64
REMARK SMILES IDX 35 65 36 66 37 67 61 68 62 69 70 70 63 71 65 72 71 73 64 74
REMARK SMILES IDX 66 75 67 76 68 77 69 78 46 79 47 80 55 81 48 82 50 83 56 84
REMARK SMILES IDX 49 85 51 86 52 87 53 88 54 89
REMARK H PARENT 76 42 44 53
REMARK Flexibility Score: inf
ROOT
ATOM      1  C   UNL A   1      36.480  19.448  24.993  1.00  0.00     0.202 C 
ENDROOT
BRANCH   1   2
ATOM      2  O   UNL A   1      35.695  20.629  24.856  1.00  0.00    -0.374 OA
BRANCH   2   3
ATOM      3  C   UNL A   1      34.356  20.589  25.354  1.00  0.00     0.202 C 
BRANCH   3   4
ATOM      4  C   UNL A   1      33.296  21.338  24.541  1.00  0.00     0.261 C 
BRANCH   4   5
ATOM      5  O   UNL A   1      33.856  22.454  23.824  1.00  0.00    -0.463 OA
BRANCH   5   6
ATOM      6  C   UNL A   1      33.136  22.885  22.756  1.00  0.00     0.306 C 
ATOM      7  O   UNL A   1      33.609  23.293  21.702  1.00  0.00    -0.252 OA
BRANCH   6   8
ATOM      8  C   UNL A   1      31.650  22.829  22.990  1.00  0.00     0.130 C 
BRANCH   8   9
ATOM      9  C   UNL A   1      30.992  24.064  23.594  1.00  0.00     0.039 C 
ATOM     10  C   UNL A   1      31.310  27.255  24.398  1.00  0.00     0.228 C 
ATOM     11  O   UNL A   1      30.357  27.850  23.892  1.00  0.00    -0.274 OA
ATOM     12  N   UNL A   1      31.655  25.988  23.990  1.00  0.00    -0.342 N 
ATOM     13  C   UNL A   1      31.225  25.331  22.769  1.00  0.00     0.125 C 
ATOM     14  C   UNL A   1      31.694  24.757  24.775  1.00  0.00     0.125 C 
BRANCH  10  15
ATOM     15  C   UNL A   1      32.294  27.935  25.366  1.00  0.00     0.047 C 
ATOM     16  C   UNL A   1      33.637  27.205  25.466  1.00  0.00     0.022 C 
ATOM     17  C   UNL A   1      31.668  28.103  26.765  1.00  0.00     0.016 C 
ATOM     18  C   UNL A   1      32.471  29.405  24.939  1.00  0.00     0.016 C 
ATOM     19  C   UNL A   1      32.358  29.319  27.377  1.00  0.00     0.001 C 
ATOM     20  C   UNL A   1      32.824  30.176  26.206  1.00  0.00     0.001 C 
ENDBRANCH  10  15
ENDBRANCH   8   9
ENDBRANCH   6   8
ENDBRANCH   5   6
ENDBRANCH   4   5
ENDBRANCH   3   4
ENDBRANCH   2   3
ENDBRANCH   1   2
BRANCH   1  21
ATOM     21  C   UNL A   1      38.002  19.602  24.855  1.00  0.00     0.261 C 
BRANCH  21  22
ATOM     22  O   UNL A   1      38.494  20.844  25.394  1.00  0.00    -0.460 OA
BRANCH  22  23
ATOM     23  C   UNL A   1      39.555  20.718  26.227  1.00  0.00     0.338 C 
ATOM     24  O   UNL A   1      40.225  19.712  26.423  1.00  0.00    -0.246 OA
BRANCH  23  25
ATOM     25  C   UNL A   1      39.946  22.036  26.761  1.00  0.00     0.060 A 
ATOM     26  C   UNL A   1      39.316  23.166  26.219  1.00  0.00     0.016 A 
ATOM     27  C   UNL A   1      40.955  22.176  27.716  1.00  0.00     0.016 A 
ATOM     28  C   UNL A   1      39.721  24.443  26.603  1.00  0.00     0.010 A 
ATOM     29  C   UNL A   1      41.364  23.461  28.091  1.00  0.00     0.010 A 
ATOM     30  C   UNL A   1      40.772  24.600  27.514  1.00  0.00    -0.014 A 
BRANCH  30  31
ATOM     31  C   UNL A   1      41.326  25.951  27.777  1.00  0.00     0.031 A 
ATOM     32  C   UNL A   1      42.726  26.272  27.329  1.00  0.00     0.074 A 
ATOM     33  C   UNL A   1      40.590  26.883  28.408  1.00  0.00     0.049 A 
ATOM     34  N   UNL A   1      43.412  27.373  27.488  1.00  0.00    -0.248 NA
ATOM     35  C   UNL A   1      43.448  25.211  26.608  1.00  0.00     0.031 C 
ATOM     36  C   UNL A   1      39.220  26.697  28.881  1.00  0.00     0.029 A 
ATOM     37  N   UNL A   1      40.905  28.166  28.783  1.00  0.00    -0.354 N 
ATOM     38  C   UNL A   1      44.654  27.133  26.914  1.00  0.00     0.074 A 
ATOM     39  C   UNL A   1      44.631  25.777  26.411  1.00  0.00     0.031 C 
ATOM     40  C   UNL A   1      38.822  27.816  29.512  1.00  0.00     0.029 A 
ATOM     41  C   UNL A   1      39.916  28.785  29.508  1.00  0.00     0.049 A 
ATOM     42  H   UNL A   1      41.758  28.600  28.552  1.00  0.00     0.167 HD
ATOM     43  C   UNL A   1      45.714  27.969  26.801  1.00  0.00     0.034 A 
ATOM     44  C   UNL A   1      39.904  29.986  30.122  1.00  0.00     0.034 A 
ATOM     45  C   UNL A   1      45.730  29.324  27.283  1.00  0.00     0.049 A 
ATOM     46  C   UNL A   1      41.108  30.885  30.011  1.00  0.00     0.074 A 
ATOM     47  C   UNL A   1      46.739  30.264  27.168  1.00  0.00     0.029 A 
ATOM     48  N   UNL A   1      44.698  29.928  27.981  1.00  0.00    -0.354 N 
ATOM     49  N   UNL A   1      42.228  30.688  29.358  1.00  0.00    -0.248 NA
ATOM     50  C   UNL A   1      41.036  32.184  30.696  1.00  0.00     0.031 C 
ATOM     51  C   UNL A   1      46.325  31.430  27.821  1.00  0.00     0.029 A 
ATOM     52  C   UNL A   1      45.050  31.224  28.320  1.00  0.00     0.049 A 
ATOM     53  H   UNL A   1      43.839  29.500  28.203  1.00  0.00     0.167 HD
ATOM     54  C   UNL A   1      42.977  31.848  29.525  1.00  0.00     0.074 A 
ATOM     55  C   UNL A   1      42.176  32.751  30.324  1.00  0.00     0.031 C 
ATOM     56  C   UNL A   1      44.222  32.134  29.069  1.00  0.00     0.034 A 
BRANCH  43  57
ATOM     57  C   UNL A   1      46.943  27.450  26.103  1.00  0.00     0.023 A 
ATOM     58  C   UNL A   1      47.130  27.719  24.732  1.00  0.00     0.012 A 
ATOM     59  C   UNL A   1      47.939  26.754  26.814  1.00  0.00     0.148 A 
ATOM     60  C   UNL A   1      48.276  27.278  24.073  1.00  0.00     0.002 A 
ATOM     61  C   UNL A   1      49.099  26.353  26.160  1.00  0.00     0.091 A 
ATOM     62  F   UNL A   1      47.731  26.488  28.112  1.00  0.00    -0.205 F 
ATOM     63  C   UNL A   1      49.264  26.606  24.788  1.00  0.00     0.022 A 
BRANCH  61  64
ATOM     64  S   UNL A   1      50.459  25.547  27.011  1.00  0.00     0.127 S 
ATOM     65  O   UNL A   1      50.836  26.563  27.993  1.00  0.00    -0.237 OA
ATOM     66  O   UNL A   1      49.811  24.364  27.577  1.00  0.00    -0.237 OA
ATOM     67  O   UNL A   1      51.457  25.261  25.990  1.00  0.00    -0.744 OA
ENDBRANCH  61  64
ENDBRANCH  43  57
BRANCH  44  68
ATOM     68  C   UNL A   1      38.695  30.421  30.878  1.00  0.00     0.023 A 
ATOM     69  C   UNL A   1      38.606  30.159  32.258  1.00  0.00     0.012 A 
ATOM     70  C   UNL A   1      37.645  31.110  30.241  1.00  0.00     0.148 A 
ATOM     71  C   UNL A   1      37.482  30.550  32.985  1.00  0.00     0.002 A 
ATOM     72  C   UNL A   1      36.553  31.546  30.981  1.00  0.00     0.091 A 
ATOM     73  F   UNL A   1      37.738  31.332  28.922  1.00  0.00    -0.205 F 
ATOM     74  C   UNL A   1      36.461  31.253  32.350  1.00  0.00     0.022 A 
BRANCH  72  75
ATOM     75  S   UNL A   1      35.260  32.572  30.271  1.00  0.00     0.127 S 
ATOM     76  O   UNL A   1      36.005  33.762  29.873  1.00  0.00    -0.237 OA
ATOM     77  O   UNL A   1      34.788  31.739  29.164  1.00  0.00    -0.237 OA
ATOM     78  O   UNL A   1      34.282  32.761  31.334  1.00  0.00    -0.744 OA
ENDBRANCH  72  75
ENDBRANCH  44  68
BRANCH  56  79
ATOM     79  C   UNL A   1      44.796  33.490  29.392  1.00  0.00     0.023 A 
ATOM     80  C   UNL A   1      45.528  33.675  30.580  1.00  0.00     0.012 A 
ATOM     81  C   UNL A   1      44.686  34.555  28.475  1.00  0.00     0.148 A 
ATOM     82  C   UNL A   1      46.118  34.906  30.866  1.00  0.00     0.002 A 
ATOM     83  C   UNL A   1      45.317  35.765  28.744  1.00  0.00     0.091 A 
ATOM     84  F   UNL A   1      43.971  34.364  27.357  1.00  0.00    -0.205 F 
ATOM     85  C   UNL A   1      46.023  35.945  29.944  1.00  0.00     0.022 A 
BRANCH  83  86
ATOM     86  S   UNL A   1      45.328  37.128  27.573  1.00  0.00     0.127 S 
ATOM     87  O   UNL A   1      46.019  36.534  26.430  1.00  0.00    -0.237 OA
ATOM     88  O   UNL A   1      43.899  37.369  27.363  1.00  0.00    -0.237 OA
ATOM     89  O   UNL A   1      46.033  38.218  28.234  1.00  0.00    -0.744 OA
ENDBRANCH  83  86
ENDBRANCH  56  79
ENDBRANCH  30  31
ENDBRANCH  23  25
ENDBRANCH  22  23
ENDBRANCH  21  22
ENDBRANCH   1  21
TORSDOF 19
ENDMDL
