MODEL 1
REMARK VINA RESULT:     -10.6      0.000      0.000
REMARK SMILES CC(C)[NH2+][C@]1(C(=O)OCCOCCOC(=O)c2ccc(-c3c4nc(c(-c5cccc(S(=O)(=O)[O-])c5F)c5ccc([nH]5)c(-c5cccc(S(=O)(=O)[O-])c5F)c5nc(c(-c6cccc(S(=O)(=O)[O-])c6F)c6ccc3[nH]6)C=C5)C=C4)cc2)CC[C@H]([N@H+](C)C2CCCC2)C1
REMARK SMILES IDX 12 1 11 2 10 3 9 4 8 5 6 6 7 7 5 8 80 9 90 10 81 11 82 12
REMARK SMILES IDX 4 13 2 16 1 17 3 18 83 19 84 20 85 22 86 23 89 24 87 25
REMARK SMILES IDX 88 26 13 27 14 28 15 29 16 30 17 31 18 32 79 33 19 34 78 35
REMARK SMILES IDX 20 36 21 37 22 38 72 39 23 40 77 41 71 42 73 43 24 44 76 45
REMARK SMILES IDX 70 46 69 47 25 49 57 50 37 51 56 52 38 53 41 54 55 55 74 56
REMARK SMILES IDX 39 57 40 58 54 60 75 61 42 62 26 63 27 64 35 65 28 66 30 67
REMARK SMILES IDX 36 68 29 69 31 70 32 71 33 72 34 73 58 74 59 75 67 76 60 77
REMARK SMILES IDX 62 78 68 79 61 80 63 81 64 82 65 83 66 84 43 85 44 86 52 87
REMARK SMILES IDX 45 88 47 89 53 90 46 91 48 92 49 93 50 94 51 95
REMARK H PARENT 4 14 4 15 83 21 73 48 41 59
REMARK Flexibility Score: inf
ROOT
ATOM      1  C   UNL A   1      30.975  30.581  24.984  1.00  0.00     0.202 C 
ENDROOT
BRANCH   1   2
ATOM      2  O   UNL A   1      30.365  29.688  24.052  1.00  0.00    -0.374 OA
BRANCH   2   3
ATOM      3  C   UNL A   1      31.247  28.953  23.205  1.00  0.00     0.202 C 
BRANCH   3   4
ATOM      4  C   UNL A   1      31.177  27.421  23.223  1.00  0.00     0.261 C 
BRANCH   4   5
ATOM      5  O   UNL A   1      32.464  26.781  23.197  1.00  0.00    -0.459 OA
BRANCH   5   6
ATOM      6  C   UNL A   1      32.862  26.331  24.411  1.00  0.00     0.368 C 
ATOM      7  O   UNL A   1      33.057  27.057  25.388  1.00  0.00    -0.245 OA
BRANCH   6   8
ATOM      8  C   UNL A   1      33.092  24.810  24.496  1.00  0.00     0.200 C 
ATOM      9  C   UNL A   1      32.397  24.209  23.231  1.00  0.00     0.087 C 
ATOM     10  C   UNL A   1      34.500  24.212  24.328  1.00  0.00     0.146 C 
ATOM     11  C   UNL A   1      33.158  22.954  22.804  1.00  0.00     0.072 C 
ATOM     12  C   UNL A   1      34.288  22.759  23.814  1.00  0.00     0.191 C 
BRANCH   8  13
ATOM     13  N   UNL A   1      32.362  24.360  25.706  1.00  0.00    -0.330 N 
ATOM     14  H   UNL A   1      32.769  23.470  25.995  1.00  0.00     0.347 HD
ATOM     15  H   UNL A   1      32.468  25.123  26.375  1.00  0.00     0.347 HD
BRANCH  13  16
ATOM     16  C   UNL A   1      30.908  24.162  25.585  1.00  0.00     0.176 C 
ATOM     17  C   UNL A   1      30.582  22.860  26.327  1.00  0.00     0.075 C 
ATOM     18  C   UNL A   1      30.068  25.299  26.159  1.00  0.00     0.075 C 
ENDBRANCH  13  16
ENDBRANCH   8  13
BRANCH  12  19
ATOM     19  N   UNL A   1      34.126  21.788  24.929  1.00  0.00    -0.332 N 
ATOM     20  C   UNL A   1      35.281  21.921  25.833  1.00  0.00     0.333 C 
ATOM     21  H   UNL A   1      33.246  22.060  25.366  1.00  0.00     0.348 HD
BRANCH  19  22
ATOM     22  C   UNL A   1      33.834  20.374  24.618  1.00  0.00     0.184 C 
ATOM     23  C   UNL A   1      33.180  19.587  25.778  1.00  0.00     0.065 C 
ATOM     24  C   UNL A   1      32.755  20.129  23.552  1.00  0.00     0.065 C 
ATOM     25  C   UNL A   1      32.561  18.340  25.141  1.00  0.00     0.006 C 
ATOM     26  C   UNL A   1      32.400  18.659  23.664  1.00  0.00     0.006 C 
ENDBRANCH  19  22
ENDBRANCH  12  19
ENDBRANCH   6   8
ENDBRANCH   5   6
ENDBRANCH   4   5
ENDBRANCH   3   4
ENDBRANCH   2   3
ENDBRANCH   1   2
BRANCH   1  27
ATOM     27  C   UNL A   1      32.302  30.154  25.611  1.00  0.00     0.261 C 
BRANCH  27  28
ATOM     28  O   UNL A   1      32.348  30.518  27.002  1.00  0.00    -0.460 OA
BRANCH  28  29
ATOM     29  C   UNL A   1      33.008  31.669  27.263  1.00  0.00     0.338 C 
ATOM     30  O   UNL A   1      32.540  32.801  27.274  1.00  0.00    -0.246 OA
BRANCH  29  31
ATOM     31  C   UNL A   1      34.357  31.356  27.772  1.00  0.00     0.060 A 
ATOM     32  C   UNL A   1      34.639  30.014  28.063  1.00  0.00     0.016 A 
ATOM     33  C   UNL A   1      35.318  32.346  27.976  1.00  0.00     0.016 A 
ATOM     34  C   UNL A   1      35.871  29.658  28.599  1.00  0.00     0.010 A 
ATOM     35  C   UNL A   1      36.548  31.990  28.534  1.00  0.00     0.010 A 
ATOM     36  C   UNL A   1      36.817  30.650  28.875  1.00  0.00    -0.014 A 
BRANCH  36  37
ATOM     37  C   UNL A   1      38.036  30.314  29.644  1.00  0.00     0.031 A 
ATOM     38  C   UNL A   1      39.022  29.349  29.047  1.00  0.00     0.074 A 
ATOM     39  C   UNL A   1      38.241  30.841  30.863  1.00  0.00     0.049 A 
ATOM     40  N   UNL A   1      40.102  28.841  29.577  1.00  0.00    -0.248 NA
ATOM     41  C   UNL A   1      38.754  28.894  27.672  1.00  0.00     0.031 C 
ATOM     42  C   UNL A   1      37.362  31.802  31.528  1.00  0.00     0.029 A 
ATOM     43  N   UNL A   1      39.239  30.609  31.776  1.00  0.00    -0.354 N 
ATOM     44  C   UNL A   1      40.615  27.970  28.624  1.00  0.00     0.074 A 
ATOM     45  C   UNL A   1      39.739  28.028  27.476  1.00  0.00     0.031 C 
ATOM     46  C   UNL A   1      37.836  32.045  32.762  1.00  0.00     0.029 A 
ATOM     47  C   UNL A   1      39.027  31.228  32.987  1.00  0.00     0.049 A 
ATOM     48  H   UNL A   1      40.029  30.055  31.584  1.00  0.00     0.167 HD
ATOM     49  C   UNL A   1      41.718  27.192  28.705  1.00  0.00     0.034 A 
ATOM     50  C   UNL A   1      39.693  31.110  34.152  1.00  0.00     0.034 A 
ATOM     51  C   UNL A   1      42.599  27.163  29.839  1.00  0.00     0.049 A 
ATOM     52  C   UNL A   1      40.893  30.200  34.220  1.00  0.00     0.074 A 
ATOM     53  C   UNL A   1      43.790  26.472  29.983  1.00  0.00     0.029 A 
ATOM     54  N   UNL A   1      42.374  27.828  31.032  1.00  0.00    -0.354 N 
ATOM     55  N   UNL A   1      41.452  29.496  33.266  1.00  0.00    -0.248 NA
ATOM     56  C   UNL A   1      41.568  30.082  35.522  1.00  0.00     0.031 C 
ATOM     57  C   UNL A   1      44.258  26.680  31.282  1.00  0.00     0.029 A 
ATOM     58  C   UNL A   1      43.382  27.534  31.933  1.00  0.00     0.049 A 
ATOM     59  H   UNL A   1      41.610  28.423  31.213  1.00  0.00     0.167 HD
ATOM     60  C   UNL A   1      42.557  28.880  33.842  1.00  0.00     0.074 A 
ATOM     61  C   UNL A   1      42.606  29.315  35.222  1.00  0.00     0.031 C 
ATOM     62  C   UNL A   1      43.444  28.017  33.287  1.00  0.00     0.034 A 
BRANCH  49  63
ATOM     63  C   UNL A   1      42.048  26.297  27.542  1.00  0.00     0.023 A 
ATOM     64  C   UNL A   1      42.826  26.785  26.474  1.00  0.00     0.012 A 
ATOM     65  C   UNL A   1      41.675  24.938  27.565  1.00  0.00     0.148 A 
ATOM     66  C   UNL A   1      43.218  25.936  25.439  1.00  0.00     0.002 A 
ATOM     67  C   UNL A   1      42.105  24.090  26.554  1.00  0.00     0.091 A 
ATOM     68  F   UNL A   1      40.916  24.504  28.581  1.00  0.00    -0.205 F 
ATOM     69  C   UNL A   1      42.870  24.587  25.487  1.00  0.00     0.022 A 
BRANCH  67  70
ATOM     70  S   UNL A   1      41.780  22.323  26.567  1.00  0.00     0.127 S 
ATOM     71  O   UNL A   1      42.491  21.903  27.775  1.00  0.00    -0.237 OA
ATOM     72  O   UNL A   1      40.322  22.282  26.672  1.00  0.00    -0.237 OA
ATOM     73  O   UNL A   1      42.319  21.803  25.319  1.00  0.00    -0.744 OA
ENDBRANCH  67  70
ENDBRANCH  49  63
BRANCH  50  74
ATOM     74  C   UNL A   1      39.243  31.860  35.360  1.00  0.00     0.023 A 
ATOM     75  C   UNL A   1      38.354  31.251  36.266  1.00  0.00     0.012 A 
ATOM     76  C   UNL A   1      39.672  33.179  35.603  1.00  0.00     0.148 A 
ATOM     77  C   UNL A   1      37.865  31.955  37.367  1.00  0.00     0.002 A 
ATOM     78  C   UNL A   1      39.228  33.855  36.733  1.00  0.00     0.091 A 
ATOM     79  F   UNL A   1      40.503  33.752  34.720  1.00  0.00    -0.205 F 
ATOM     80  C   UNL A   1      38.309  33.254  37.606  1.00  0.00     0.022 A 
BRANCH  78  81
ATOM     81  S   UNL A   1      39.847  35.480  37.184  1.00  0.00     0.127 S 
ATOM     82  O   UNL A   1      39.112  35.750  38.416  1.00  0.00    -0.237 OA
ATOM     83  O   UNL A   1      41.277  35.221  37.362  1.00  0.00    -0.237 OA
ATOM     84  O   UNL A   1      39.533  36.345  36.054  1.00  0.00    -0.744 OA
ENDBRANCH  78  81
ENDBRANCH  50  74
BRANCH  62  85
ATOM     85  C   UNL A   1      44.565  27.505  34.153  1.00  0.00     0.023 A 
ATOM     86  C   UNL A   1      45.773  28.225  34.232  1.00  0.00     0.012 A 
ATOM     87  C   UNL A   1      44.383  26.365  34.961  1.00  0.00     0.148 A 
ATOM     88  C   UNL A   1      46.794  27.802  35.081  1.00  0.00     0.002 A 
ATOM     89  C   UNL A   1      45.385  25.981  35.844  1.00  0.00     0.091 A 
ATOM     90  F   UNL A   1      43.230  25.690  34.862  1.00  0.00    -0.205 F 
ATOM     91  C   UNL A   1      46.596  26.689  35.897  1.00  0.00     0.022 A 
BRANCH  89  92
ATOM     92  S   UNL A   1      45.184  24.623  37.003  1.00  0.00     0.127 S 
ATOM     93  O   UNL A   1      46.502  24.574  37.635  1.00  0.00    -0.237 OA
ATOM     94  O   UNL A   1      44.111  25.114  37.868  1.00  0.00    -0.237 OA
ATOM     95  O   UNL A   1      44.836  23.456  36.204  1.00  0.00    -0.744 OA
ENDBRANCH  89  92
ENDBRANCH  62  85
ENDBRANCH  36  37
ENDBRANCH  29  31
ENDBRANCH  28  29
ENDBRANCH  27  28
ENDBRANCH   1  27
TORSDOF 21
ENDMDL
MODEL 2
REMARK VINA RESULT:     -10.6      5.046      8.308
REMARK SMILES CC(C)[NH2+][C@]1(C(=O)OCCOCCOC(=O)c2ccc(-c3c4nc(c(-c5cccc(S(=O)(=O)[O-])c5F)c5ccc([nH]5)c(-c5cccc(S(=O)(=O)[O-])c5F)c5nc(c(-c6cccc(S(=O)(=O)[O-])c6F)c6ccc3[nH]6)C=C5)C=C4)cc2)CC[C@H]([N@H+](C)C2CCCC2)C1
REMARK SMILES IDX 12 1 11 2 10 3 9 4 8 5 6 6 7 7 5 8 80 9 90 10 81 11 82 12
REMARK SMILES IDX 4 13 2 16 1 17 3 18 83 19 84 20 85 22 86 23 89 24 87 25
REMARK SMILES IDX 88 26 13 27 14 28 15 29 16 30 17 31 18 32 79 33 19 34 78 35
REMARK SMILES IDX 20 36 21 37 22 38 72 39 23 40 77 41 71 42 73 43 24 44 76 45
REMARK SMILES IDX 70 46 69 47 25 49 57 50 37 51 56 52 38 53 41 54 55 55 74 56
REMARK SMILES IDX 39 57 40 58 54 60 75 61 42 62 26 63 27 64 35 65 28 66 30 67
REMARK SMILES IDX 36 68 29 69 31 70 32 71 33 72 34 73 58 74 59 75 67 76 60 77
REMARK SMILES IDX 62 78 68 79 61 80 63 81 64 82 65 83 66 84 43 85 44 86 52 87
REMARK SMILES IDX 45 88 47 89 53 90 46 91 48 92 49 93 50 94 51 95
REMARK H PARENT 4 14 4 15 83 21 73 48 41 59
REMARK Flexibility Score: inf
ROOT
ATOM      1  C   UNL A   1      37.427  20.386  24.644  1.00  0.00     0.202 C 
ENDROOT
BRANCH   1   2
ATOM      2  O   UNL A   1      36.143  19.877  24.999  1.00  0.00    -0.374 OA
BRANCH   2   3
ATOM      3  C   UNL A   1      35.150  20.841  25.346  1.00  0.00     0.202 C 
BRANCH   3   4
ATOM      4  C   UNL A   1      35.554  22.320  25.421  1.00  0.00     0.261 C 
BRANCH   4   5
ATOM      5  O   UNL A   1      34.624  23.208  24.778  1.00  0.00    -0.459 OA
BRANCH   5   6
ATOM      6  C   UNL A   1      34.723  24.489  25.211  1.00  0.00     0.368 C 
ATOM      7  O   UNL A   1      35.614  24.900  25.958  1.00  0.00    -0.245 OA
BRANCH   6   8
ATOM      8  C   UNL A   1      33.602  25.426  24.723  1.00  0.00     0.200 C 
ATOM      9  C   UNL A   1      33.620  26.646  25.701  1.00  0.00     0.087 C 
ATOM     10  C   UNL A   1      33.719  26.168  23.380  1.00  0.00     0.146 C 
ATOM     11  C   UNL A   1      33.167  27.891  24.940  1.00  0.00     0.072 C 
ATOM     12  C   UNL A   1      32.836  27.442  23.518  1.00  0.00     0.191 C 
BRANCH   8  13
ATOM     13  N   UNL A   1      32.338  24.675  24.915  1.00  0.00    -0.330 N 
ATOM     14  H   UNL A   1      31.648  25.069  24.274  1.00  0.00     0.347 HD
ATOM     15  H   UNL A   1      32.583  23.700  24.742  1.00  0.00     0.347 HD
BRANCH  13  16
ATOM     16  C   UNL A   1      31.744  24.682  26.263  1.00  0.00     0.176 C 
ATOM     17  C   UNL A   1      30.354  25.316  26.122  1.00  0.00     0.075 C 
ATOM     18  C   UNL A   1      31.612  23.302  26.899  1.00  0.00     0.075 C 
ENDBRANCH  13  16
ENDBRANCH   8  13
BRANCH  12  19
ATOM     19  N   UNL A   1      31.423  27.187  23.131  1.00  0.00    -0.332 N 
ATOM     20  C   UNL A   1      31.406  26.620  21.772  1.00  0.00     0.333 C 
ATOM     21  H   UNL A   1      31.088  26.533  23.838  1.00  0.00     0.348 HD
BRANCH  19  22
ATOM     22  C   UNL A   1      30.426  28.267  23.286  1.00  0.00     0.184 C 
ATOM     23  C   UNL A   1      30.468  29.339  22.173  1.00  0.00     0.065 C 
ATOM     24  C   UNL A   1      28.955  27.850  23.135  1.00  0.00     0.065 C 
ATOM     25  C   UNL A   1      29.129  30.076  22.251  1.00  0.00     0.006 C 
ATOM     26  C   UNL A   1      28.180  29.146  22.988  1.00  0.00     0.006 C 
ENDBRANCH  19  22
ENDBRANCH  12  19
ENDBRANCH   6   8
ENDBRANCH   5   6
ENDBRANCH   4   5
ENDBRANCH   3   4
ENDBRANCH   2   3
ENDBRANCH   1   2
BRANCH   1  27
ATOM     27  C   UNL A   1      38.651  19.743  25.297  1.00  0.00     0.261 C 
BRANCH  27  28
ATOM     28  O   UNL A   1      39.013  20.446  26.499  1.00  0.00    -0.460 OA
BRANCH  28  29
ATOM     29  C   UNL A   1      40.344  20.581  26.695  1.00  0.00     0.338 C 
ATOM     30  O   UNL A   1      41.217  19.769  26.413  1.00  0.00    -0.246 OA
BRANCH  29  31
ATOM     31  C   UNL A   1      40.642  21.968  27.098  1.00  0.00     0.060 A 
ATOM     32  C   UNL A   1      39.931  22.991  26.455  1.00  0.00     0.016 A 
ATOM     33  C   UNL A   1      41.600  22.267  28.067  1.00  0.00     0.016 A 
ATOM     34  C   UNL A   1      40.204  24.323  26.748  1.00  0.00     0.010 A 
ATOM     35  C   UNL A   1      41.887  23.605  28.345  1.00  0.00     0.010 A 
ATOM     36  C   UNL A   1      41.212  24.637  27.664  1.00  0.00    -0.014 A 
BRANCH  36  37
ATOM     37  C   UNL A   1      41.659  26.039  27.818  1.00  0.00     0.031 A 
ATOM     38  C   UNL A   1      43.045  26.408  27.372  1.00  0.00     0.074 A 
ATOM     39  C   UNL A   1      40.847  26.957  28.371  1.00  0.00     0.049 A 
ATOM     40  N   UNL A   1      43.677  27.544  27.497  1.00  0.00    -0.248 NA
ATOM     41  C   UNL A   1      43.827  25.356  26.699  1.00  0.00     0.031 C 
ATOM     42  C   UNL A   1      39.476  26.713  28.818  1.00  0.00     0.029 A 
ATOM     43  N   UNL A   1      41.076  28.273  28.685  1.00  0.00    -0.354 N 
ATOM     44  C   UNL A   1      44.943  27.332  26.967  1.00  0.00     0.074 A 
ATOM     45  C   UNL A   1      44.989  25.964  26.503  1.00  0.00     0.031 C 
ATOM     46  C   UNL A   1      38.999  27.833  29.390  1.00  0.00     0.029 A 
ATOM     47  C   UNL A   1      40.044  28.855  29.385  1.00  0.00     0.049 A 
ATOM     48  H   UNL A   1      41.898  28.753  28.435  1.00  0.00     0.167 HD
ATOM     49  C   UNL A   1      45.973  28.204  26.877  1.00  0.00     0.034 A 
ATOM     50  C   UNL A   1      39.972  30.057  29.989  1.00  0.00     0.034 A 
ATOM     51  C   UNL A   1      45.909  29.571  27.314  1.00  0.00     0.049 A 
ATOM     52  C   UNL A   1      41.155  30.988  29.908  1.00  0.00     0.074 A 
ATOM     53  C   UNL A   1      46.870  30.558  27.188  1.00  0.00     0.029 A 
ATOM     54  N   UNL A   1      44.837  30.137  27.985  1.00  0.00    -0.354 N 
ATOM     55  N   UNL A   1      42.292  30.828  29.275  1.00  0.00    -0.248 NA
ATOM     56  C   UNL A   1      41.039  32.276  30.609  1.00  0.00     0.031 C 
ATOM     57  C   UNL A   1      46.400  31.707  27.829  1.00  0.00     0.029 A 
ATOM     58  C   UNL A   1      45.128  31.449  28.316  1.00  0.00     0.049 A 
ATOM     59  H   UNL A   1      43.993  29.675  28.195  1.00  0.00     0.167 HD
ATOM     60  C   UNL A   1      43.010  32.002  29.474  1.00  0.00     0.074 A 
ATOM     61  C   UNL A   1      42.170  32.877  30.264  1.00  0.00     0.031 C 
ATOM     62  C   UNL A   1      44.260  32.324  29.057  1.00  0.00     0.034 A 
BRANCH  49  63
ATOM     63  C   UNL A   1      47.271  27.720  26.289  1.00  0.00     0.023 A 
ATOM     64  C   UNL A   1      48.218  27.073  27.106  1.00  0.00     0.012 A 
ATOM     65  C   UNL A   1      47.497  27.814  24.902  1.00  0.00     0.148 A 
ATOM     66  C   UNL A   1      49.380  26.537  26.551  1.00  0.00     0.002 A 
ATOM     67  C   UNL A   1      48.635  27.240  24.351  1.00  0.00     0.091 A 
ATOM     68  F   UNL A   1      46.591  28.455  24.150  1.00  0.00    -0.205 F 
ATOM     69  C   UNL A   1      49.581  26.608  25.173  1.00  0.00     0.022 A 
BRANCH  67  70
ATOM     70  S   UNL A   1      48.944  27.206  22.581  1.00  0.00     0.127 S 
ATOM     71  O   UNL A   1      50.406  27.170  22.540  1.00  0.00    -0.237 OA
ATOM     72  O   UNL A   1      48.292  25.960  22.182  1.00  0.00    -0.237 OA
ATOM     73  O   UNL A   1      48.339  28.414  22.041  1.00  0.00    -0.744 OA
ENDBRANCH  67  70
ENDBRANCH  49  63
BRANCH  50  74
ATOM     74  C   UNL A   1      38.746  30.457  30.737  1.00  0.00     0.023 A 
ATOM     75  C   UNL A   1      38.598  30.080  32.085  1.00  0.00     0.012 A 
ATOM     76  C   UNL A   1      37.715  31.187  30.113  1.00  0.00     0.148 A 
ATOM     77  C   UNL A   1      37.430  30.383  32.786  1.00  0.00     0.002 A 
ATOM     78  C   UNL A   1      36.579  31.537  30.833  1.00  0.00     0.091 A 
ATOM     79  F   UNL A   1      37.861  31.521  28.822  1.00  0.00    -0.205 F 
ATOM     80  C   UNL A   1      36.424  31.118  32.163  1.00  0.00     0.022 A 
BRANCH  78  81
ATOM     81  S   UNL A   1      35.296  32.591  30.148  1.00  0.00     0.127 S 
ATOM     82  O   UNL A   1      36.052  33.785  29.782  1.00  0.00    -0.237 OA
ATOM     83  O   UNL A   1      34.818  31.792  29.019  1.00  0.00    -0.237 OA
ATOM     84  O   UNL A   1      34.319  32.760  31.216  1.00  0.00    -0.744 OA
ENDBRANCH  78  81
ENDBRANCH  50  74
BRANCH  62  85
ATOM     85  C   UNL A   1      44.792  33.687  29.413  1.00  0.00     0.023 A 
ATOM     86  C   UNL A   1      45.542  33.859  30.592  1.00  0.00     0.012 A 
ATOM     87  C   UNL A   1      44.629  34.774  28.530  1.00  0.00     0.148 A 
ATOM     88  C   UNL A   1      46.099  35.099  30.902  1.00  0.00     0.002 A 
ATOM     89  C   UNL A   1      45.232  35.992  28.819  1.00  0.00     0.091 A 
ATOM     90  F   UNL A   1      43.902  34.589  27.419  1.00  0.00    -0.205 F 
ATOM     91  C   UNL A   1      45.956  36.160  30.010  1.00  0.00     0.022 A 
BRANCH  89  92
ATOM     92  S   UNL A   1      45.188  37.385  27.687  1.00  0.00     0.127 S 
ATOM     93  O   UNL A   1      45.927  38.401  28.436  1.00  0.00    -0.237 OA
ATOM     94  O   UNL A   1      45.892  36.855  26.520  1.00  0.00    -0.237 OA
ATOM     95  O   UNL A   1      43.779  37.683  27.465  1.00  0.00    -0.744 OA
ENDBRANCH  89  92
ENDBRANCH  62  85
ENDBRANCH  36  37
ENDBRANCH  29  31
ENDBRANCH  28  29
ENDBRANCH  27  28
ENDBRANCH   1  27
TORSDOF 21
ENDMDL
MODEL 3
REMARK VINA RESULT:     -10.6      1.407      2.269
REMARK SMILES CC(C)[NH2+][C@]1(C(=O)OCCOCCOC(=O)c2ccc(-c3c4nc(c(-c5cccc(S(=O)(=O)[O-])c5F)c5ccc([nH]5)c(-c5cccc(S(=O)(=O)[O-])c5F)c5nc(c(-c6cccc(S(=O)(=O)[O-])c6F)c6ccc3[nH]6)C=C5)C=C4)cc2)CC[C@H]([N@H+](C)C2CCCC2)C1
REMARK SMILES IDX 12 1 11 2 10 3 9 4 8 5 6 6 7 7 5 8 80 9 90 10 81 11 82 12
REMARK SMILES IDX 4 13 2 16 1 17 3 18 83 19 84 20 85 22 86 23 89 24 87 25
REMARK SMILES IDX 88 26 13 27 14 28 15 29 16 30 17 31 18 32 79 33 19 34 78 35
REMARK SMILES IDX 20 36 21 37 22 38 72 39 23 40 77 41 71 42 73 43 24 44 76 45
REMARK SMILES IDX 70 46 69 47 25 49 57 50 37 51 56 52 38 53 41 54 55 55 74 56
REMARK SMILES IDX 39 57 40 58 54 60 75 61 42 62 26 63 27 64 35 65 28 66 30 67
REMARK SMILES IDX 36 68 29 69 31 70 32 71 33 72 34 73 58 74 59 75 67 76 60 77
REMARK SMILES IDX 62 78 68 79 61 80 63 81 64 82 65 83 66 84 43 85 44 86 52 87
REMARK SMILES IDX 45 88 47 89 53 90 46 91 48 92 49 93 50 94 51 95
REMARK H PARENT 4 14 4 15 83 21 73 48 41 59
REMARK Flexibility Score: inf
ROOT
ATOM      1  C   UNL A   1      31.039  30.593  25.213  1.00  0.00     0.202 C 
ENDROOT
BRANCH   1   2
ATOM      2  O   UNL A   1      30.365  29.632  24.402  1.00  0.00    -0.374 OA
BRANCH   2   3
ATOM      3  C   UNL A   1      30.958  29.337  23.138  1.00  0.00     0.202 C 
BRANCH   3   4
ATOM      4  C   UNL A   1      31.599  27.958  22.931  1.00  0.00     0.261 C 
BRANCH   4   5
ATOM      5  O   UNL A   1      31.784  27.216  24.148  1.00  0.00    -0.459 OA
BRANCH   5   6
ATOM      6  C   UNL A   1      31.107  26.042  24.167  1.00  0.00     0.368 C 
ATOM      7  O   UNL A   1      29.889  25.944  24.008  1.00  0.00    -0.245 OA
BRANCH   6   8
ATOM      8  C   UNL A   1      31.974  24.798  24.436  1.00  0.00     0.200 C 
ATOM      9  C   UNL A   1      32.671  25.060  25.810  1.00  0.00     0.087 C 
ATOM     10  C   UNL A   1      31.329  23.432  24.729  1.00  0.00     0.146 C 
ATOM     11  C   UNL A   1      32.891  23.722  26.512  1.00  0.00     0.072 C 
ATOM     12  C   UNL A   1      32.371  22.638  25.569  1.00  0.00     0.191 C 
BRANCH   8  13
ATOM     13  N   UNL A   1      33.003  24.786  23.368  1.00  0.00    -0.330 N 
ATOM     14  H   UNL A   1      33.349  25.741  23.267  1.00  0.00     0.347 HD
ATOM     15  H   UNL A   1      33.696  24.104  23.679  1.00  0.00     0.347 HD
BRANCH  13  16
ATOM     16  C   UNL A   1      32.589  24.322  22.033  1.00  0.00     0.176 C 
ATOM     17  C   UNL A   1      32.905  25.463  21.058  1.00  0.00     0.075 C 
ATOM     18  C   UNL A   1      33.284  23.046  21.567  1.00  0.00     0.075 C 
ENDBRANCH  13  16
ENDBRANCH   8  13
BRANCH  12  19
ATOM     19  N   UNL A   1      33.323  21.883  24.711  1.00  0.00    -0.332 N 
ATOM     20  C   UNL A   1      32.766  20.542  24.466  1.00  0.00     0.333 C 
ATOM     21  H   UNL A   1      33.389  22.446  23.862  1.00  0.00     0.348 HD
BRANCH  19  22
ATOM     22  C   UNL A   1      34.748  21.824  25.093  1.00  0.00     0.184 C 
ATOM     23  C   UNL A   1      35.387  20.422  24.959  1.00  0.00     0.065 C 
ATOM     24  C   UNL A   1      35.720  22.595  24.187  1.00  0.00     0.065 C 
ATOM     25  C   UNL A   1      36.900  20.650  24.954  1.00  0.00     0.006 C 
ATOM     26  C   UNL A   1      37.104  22.105  24.567  1.00  0.00     0.006 C 
ENDBRANCH  19  22
ENDBRANCH  12  19
ENDBRANCH   6   8
ENDBRANCH   5   6
ENDBRANCH   4   5
ENDBRANCH   3   4
ENDBRANCH   2   3
ENDBRANCH   1   2
BRANCH   1  27
ATOM     27  C   UNL A   1      32.422  30.224  25.749  1.00  0.00     0.261 C 
BRANCH  27  28
ATOM     28  O   UNL A   1      32.539  30.574  27.139  1.00  0.00    -0.460 OA
BRANCH  28  29
ATOM     29  C   UNL A   1      33.216  31.720  27.379  1.00  0.00     0.338 C 
ATOM     30  O   UNL A   1      32.761  32.856  27.391  1.00  0.00    -0.246 OA
BRANCH  29  31
ATOM     31  C   UNL A   1      34.572  31.395  27.862  1.00  0.00     0.060 A 
ATOM     32  C   UNL A   1      34.828  30.062  28.211  1.00  0.00     0.016 A 
ATOM     33  C   UNL A   1      35.565  32.367  27.987  1.00  0.00     0.016 A 
ATOM     34  C   UNL A   1      36.067  29.699  28.727  1.00  0.00     0.010 A 
ATOM     35  C   UNL A   1      36.802  32.005  28.525  1.00  0.00     0.010 A 
ATOM     36  C   UNL A   1      37.046  30.677  28.925  1.00  0.00    -0.014 A 
BRANCH  36  37
ATOM     37  C   UNL A   1      38.279  30.346  29.672  1.00  0.00     0.031 A 
ATOM     38  C   UNL A   1      39.228  29.338  29.088  1.00  0.00     0.074 A 
ATOM     39  C   UNL A   1      38.530  30.916  30.864  1.00  0.00     0.049 A 
ATOM     40  N   UNL A   1      40.313  28.828  29.607  1.00  0.00    -0.248 NA
ATOM     41  C   UNL A   1      38.913  28.835  27.739  1.00  0.00     0.031 C 
ATOM     42  C   UNL A   1      37.689  31.921  31.513  1.00  0.00     0.029 A 
ATOM     43  N   UNL A   1      39.549  30.700  31.757  1.00  0.00    -0.354 N 
ATOM     44  C   UNL A   1      40.781  27.910  28.676  1.00  0.00     0.074 A 
ATOM     45  C   UNL A   1      39.874  27.941  27.551  1.00  0.00     0.031 C 
ATOM     46  C   UNL A   1      38.203  32.203  32.723  1.00  0.00     0.029 A 
ATOM     47  C   UNL A   1      39.383  31.370  32.947  1.00  0.00     0.049 A 
ATOM     48  H   UNL A   1      40.321  30.121  31.566  1.00  0.00     0.167 HD
ATOM     49  C   UNL A   1      41.870  27.112  28.757  1.00  0.00     0.034 A 
ATOM     50  C   UNL A   1      40.079  31.284  34.097  1.00  0.00     0.034 A 
ATOM     51  C   UNL A   1      42.783  27.110  29.867  1.00  0.00     0.049 A 
ATOM     52  C   UNL A   1      41.262  30.352  34.169  1.00  0.00     0.074 A 
ATOM     53  C   UNL A   1      43.963  26.400  30.006  1.00  0.00     0.029 A 
ATOM     54  N   UNL A   1      42.605  27.826  31.039  1.00  0.00    -0.354 N 
ATOM     55  N   UNL A   1      41.780  29.599  33.228  1.00  0.00    -0.248 NA
ATOM     56  C   UNL A   1      41.971  30.272  35.455  1.00  0.00     0.031 C 
ATOM     57  C   UNL A   1      44.472  26.649  31.282  1.00  0.00     0.029 A 
ATOM     58  C   UNL A   1      43.632  27.547  31.923  1.00  0.00     0.049 A 
ATOM     59  H   UNL A   1      41.858  28.443  31.217  1.00  0.00     0.167 HD
ATOM     60  C   UNL A   1      42.888  28.984  33.798  1.00  0.00     0.074 A 
ATOM     61  C   UNL A   1      42.985  29.471  35.158  1.00  0.00     0.031 C 
ATOM     62  C   UNL A   1      43.742  28.081  33.254  1.00  0.00     0.034 A 
BRANCH  49  63
ATOM     63  C   UNL A   1      42.150  26.166  27.622  1.00  0.00     0.023 A 
ATOM     64  C   UNL A   1      42.924  26.589  26.524  1.00  0.00     0.012 A 
ATOM     65  C   UNL A   1      41.733  24.822  27.702  1.00  0.00     0.148 A 
ATOM     66  C   UNL A   1      43.268  25.690  25.515  1.00  0.00     0.002 A 
ATOM     67  C   UNL A   1      42.116  23.924  26.715  1.00  0.00     0.091 A 
ATOM     68  F   UNL A   1      40.978  24.451  28.746  1.00  0.00    -0.205 F 
ATOM     69  C   UNL A   1      42.877  24.357  25.617  1.00  0.00     0.022 A 
BRANCH  67  70
ATOM     70  S   UNL A   1      41.733  22.170  26.798  1.00  0.00     0.127 S 
ATOM     71  O   UNL A   1      40.431  22.123  26.132  1.00  0.00    -0.237 OA
ATOM     72  O   UNL A   1      42.831  21.582  26.033  1.00  0.00    -0.237 OA
ATOM     73  O   UNL A   1      41.718  21.826  28.213  1.00  0.00    -0.744 OA
ENDBRANCH  67  70
ENDBRANCH  49  63
BRANCH  50  74
ATOM     74  C   UNL A   1      39.679  32.090  35.287  1.00  0.00     0.023 A 
ATOM     75  C   UNL A   1      40.155  33.407  35.427  1.00  0.00     0.012 A 
ATOM     76  C   UNL A   1      38.852  31.549  36.291  1.00  0.00     0.148 A 
ATOM     77  C   UNL A   1      39.851  34.157  36.565  1.00  0.00     0.002 A 
ATOM     78  C   UNL A   1      38.505  32.321  37.393  1.00  0.00     0.091 A 
ATOM     79  F   UNL A   1      38.425  30.286  36.153  1.00  0.00    -0.205 F 
ATOM     80  C   UNL A   1      39.020  33.618  37.543  1.00  0.00     0.022 A 
BRANCH  78  81
ATOM     81  S   UNL A   1      37.338  31.751  38.634  1.00  0.00     0.127 S 
ATOM     82  O   UNL A   1      38.102  31.927  39.866  1.00  0.00    -0.237 OA
ATOM     83  O   UNL A   1      36.227  32.687  38.458  1.00  0.00    -0.237 OA
ATOM     84  O   UNL A   1      37.024  30.375  38.272  1.00  0.00    -0.744 OA
ENDBRANCH  78  81
ENDBRANCH  50  74
BRANCH  62  85
ATOM     85  C   UNL A   1      44.877  27.580  34.109  1.00  0.00     0.023 A 
ATOM     86  C   UNL A   1      46.091  28.293  34.148  1.00  0.00     0.012 A 
ATOM     87  C   UNL A   1      44.704  26.459  34.945  1.00  0.00     0.148 A 
ATOM     88  C   UNL A   1      47.126  27.882  34.985  1.00  0.00     0.002 A 
ATOM     89  C   UNL A   1      45.720  26.087  35.816  1.00  0.00     0.091 A 
ATOM     90  F   UNL A   1      43.544  25.791  34.884  1.00  0.00    -0.205 F 
ATOM     91  C   UNL A   1      46.936  26.788  35.829  1.00  0.00     0.022 A 
BRANCH  89  92
ATOM     92  S   UNL A   1      45.533  24.757  37.008  1.00  0.00     0.127 S 
ATOM     93  O   UNL A   1      44.335  25.176  37.735  1.00  0.00    -0.237 OA
ATOM     94  O   UNL A   1      45.345  23.593  36.142  1.00  0.00    -0.237 OA
ATOM     95  O   UNL A   1      46.760  24.740  37.794  1.00  0.00    -0.744 OA
ENDBRANCH  89  92
ENDBRANCH  62  85
ENDBRANCH  36  37
ENDBRANCH  29  31
ENDBRANCH  28  29
ENDBRANCH  27  28
ENDBRANCH   1  27
TORSDOF 21
ENDMDL
