MODEL 1
REMARK VINA RESULT:      -9.0      0.000      0.000
REMARK SMILES COc1ccc(C2=NN(C(=O)CCC(=O)OCCOCCOC(=O)c3ccc(-c4c5nc(c(-c6cccc(S(=O)(=O)[O-])c6F)c6ccc([nH]6)c(-c6cccc(S(=O)(=O)[O-])c6F)c6nc(c(-c7cccc(S(=O)(=O)[O-])c7F)c7ccc4[nH]7)C=C6)C=C5)cc3)[C@@H](c3ccc(Cl)cc3Cl)C2)cc1
REMARK SMILES IDX 18 1 17 2 16 3 14 4 15 5 13 6 12 7 10 8 11 9 9 10 7 11 8 12
REMARK SMILES IDX 97 13 88 14 6 15 3 16 4 17 99 18 5 19 98 20 2 21 1 22 89 23
REMARK SMILES IDX 90 24 95 25 91 26 94 27 96 28 92 29 93 30 19 31 20 32 21 33
REMARK SMILES IDX 22 34 23 35 24 36 25 37 26 38 87 39 27 40 86 41 28 42 29 43
REMARK SMILES IDX 30 44 80 45 31 46 85 47 79 48 81 49 32 50 84 51 78 52 77 53
REMARK SMILES IDX 33 55 65 56 45 57 64 58 46 59 49 60 63 61 82 62 47 63 48 64
REMARK SMILES IDX 62 66 83 67 50 68 34 69 35 70 43 71 36 72 38 73 44 74 37 75
REMARK SMILES IDX 39 76 40 77 41 78 42 79 66 80 67 81 75 82 68 83 70 84 76 85
REMARK SMILES IDX 69 86 71 87 72 88 73 89 74 90 51 91 52 92 60 93 53 94 55 95
REMARK SMILES IDX 61 96 54 97 56 98 57 99 58 100 59 101
REMARK H PARENT 81 54 49 65
REMARK Flexibility Score: inf
ROOT
ATOM      1  C   UNL A   1      47.689  20.955  39.236  1.00  0.00     0.202 C 
ENDROOT
BRANCH   1   2
ATOM      2  C   UNL A   1      46.429  20.359  38.565  1.00  0.00     0.261 C 
BRANCH   2   3
ATOM      3  O   UNL A   1      46.493  20.512  37.161  1.00  0.00    -0.463 OA
BRANCH   3   4
ATOM      4  C   UNL A   1      45.829  21.511  36.580  1.00  0.00     0.306 C 
ATOM      5  O   UNL A   1      45.524  22.557  37.121  1.00  0.00    -0.252 OA
BRANCH   4   6
ATOM      6  C   UNL A   1      45.687  21.248  35.107  1.00  0.00     0.132 C 
BRANCH   6   7
ATOM      7  C   UNL A   1      45.488  22.364  34.075  1.00  0.00     0.114 C 
BRANCH   7   8
ATOM      8  C   UNL A   1      45.383  23.920  34.193  1.00  0.00     0.243 C 
ATOM      9  O   UNL A   1      44.214  24.343  34.238  1.00  0.00    -0.273 OA
BRANCH   8  10
ATOM     10  N   UNL A   1      46.492  24.765  34.025  1.00  0.00    -0.225 N 
ATOM     11  C   UNL A   1      48.614  24.300  34.339  1.00  0.00     0.071 C 
ATOM     12  N   UNL A   1      47.454  24.204  34.882  1.00  0.00    -0.174 NA
ATOM     13  C   UNL A   1      48.797  25.167  33.146  1.00  0.00     0.091 C 
ATOM     14  C   UNL A   1      47.352  25.509  32.768  1.00  0.00     0.149 C 
BRANCH  11  15
ATOM     15  C   UNL A   1      49.765  23.551  34.794  1.00  0.00    -0.002 A 
ATOM     16  C   UNL A   1      51.761  21.662  35.020  1.00  0.00     0.118 A 
ATOM     17  C   UNL A   1      50.483  21.385  35.497  1.00  0.00     0.047 A 
ATOM     18  C   UNL A   1      52.039  22.915  34.463  1.00  0.00     0.047 A 
ATOM     19  C   UNL A   1      49.485  22.346  35.421  1.00  0.00     0.014 A 
ATOM     20  C   UNL A   1      51.035  23.870  34.338  1.00  0.00     0.014 A 
BRANCH  16  21
ATOM     21  O   UNL A   1      52.794  20.768  35.010  1.00  0.00    -0.497 OA
ATOM     22  C   UNL A   1      52.609  19.618  35.832  1.00  0.00     0.278 C 
ENDBRANCH  16  21
ENDBRANCH  11  15
BRANCH  14  23
ATOM     23  C   UNL A   1      47.169  26.609  31.423  1.00  0.00    -0.004 A 
ATOM     24  C   UNL A   1      46.849  25.861  30.243  1.00  0.00     0.009 A 
ATOM     25  C   UNL A   1      47.402  28.007  31.072  1.00  0.00     0.047 A 
ATOM     26  C   UNL A   1      46.899  26.351  28.917  1.00  0.00     0.021 A 
ATOM     27  C   UNL A   1      47.502  28.464  29.721  1.00  0.00     0.041 A 
ATOM     28  Cl  UNL A   1      47.541  29.522  31.907  1.00  0.00    -0.084 Cl
ATOM     29  C   UNL A   1      47.273  27.644  28.656  1.00  0.00     0.042 A 
ATOM     30  Cl  UNL A   1      47.428  28.255  27.061  1.00  0.00    -0.084 Cl
ENDBRANCH  14  23
ENDBRANCH   8  10
ENDBRANCH   7   8
ENDBRANCH   6   7
ENDBRANCH   4   6
ENDBRANCH   3   4
ENDBRANCH   2   3
ENDBRANCH   1   2
BRANCH   1  31
ATOM     31  O   UNL A   1      47.575  22.254  39.862  1.00  0.00    -0.374 OA
BRANCH  31  32
ATOM     32  C   UNL A   1      48.262  23.427  39.426  1.00  0.00     0.202 C 
BRANCH  32  33
ATOM     33  C   UNL A   1      47.481  24.888  39.099  1.00  0.00     0.261 C 
BRANCH  33  34
ATOM     34  O   UNL A   1      47.794  25.809  37.850  1.00  0.00    -0.460 OA
BRANCH  34  35
ATOM     35  C   UNL A   1      47.724  27.124  37.402  1.00  0.00     0.338 C 
ATOM     36  O   UNL A   1      48.575  27.992  37.550  1.00  0.00    -0.246 OA
BRANCH  35  37
ATOM     37  C   UNL A   1      46.470  27.580  36.636  1.00  0.00     0.060 A 
ATOM     38  C   UNL A   1      45.236  26.912  36.646  1.00  0.00     0.016 A 
ATOM     39  C   UNL A   1      46.620  28.540  35.624  1.00  0.00     0.016 A 
ATOM     40  C   UNL A   1      44.146  27.310  35.809  1.00  0.00     0.010 A 
ATOM     41  C   UNL A   1      45.564  28.887  34.734  1.00  0.00     0.010 A 
ATOM     42  C   UNL A   1      44.289  28.312  34.831  1.00  0.00    -0.014 A 
BRANCH  42  43
ATOM     43  C   UNL A   1      43.138  28.746  33.940  1.00  0.00     0.031 A 
ATOM     44  C   UNL A   1      42.186  29.850  34.356  1.00  0.00     0.074 A 
ATOM     45  C   UNL A   1      42.950  28.193  32.716  1.00  0.00     0.049 A 
ATOM     46  N   UNL A   1      41.129  30.311  33.729  1.00  0.00    -0.248 NA
ATOM     47  C   UNL A   1      42.432  30.499  35.651  1.00  0.00     0.031 C 
ATOM     48  C   UNL A   1      43.786  27.142  32.145  1.00  0.00     0.029 A 
ATOM     49  N   UNL A   1      42.075  28.495  31.686  1.00  0.00    -0.354 N 
ATOM     50  C   UNL A   1      40.498  31.174  34.622  1.00  0.00     0.074 A 
ATOM     51  C   UNL A   1      41.381  31.301  35.762  1.00  0.00     0.031 C 
ATOM     52  C   UNL A   1      43.515  27.020  30.834  1.00  0.00     0.029 A 
ATOM     53  C   UNL A   1      42.400  27.892  30.480  1.00  0.00     0.049 A 
ATOM     54  H   UNL A   1      41.293  29.082  31.800  1.00  0.00     0.167 HD
ATOM     55  C   UNL A   1      39.254  31.717  34.550  1.00  0.00     0.034 A 
ATOM     56  C   UNL A   1      41.875  28.045  29.240  1.00  0.00     0.034 A 
ATOM     57  C   UNL A   1      38.378  31.587  33.415  1.00  0.00     0.049 A 
ATOM     58  C   UNL A   1      40.587  28.825  29.104  1.00  0.00     0.074 A 
ATOM     59  C   UNL A   1      37.050  31.960  33.292  1.00  0.00     0.029 A 
ATOM     60  N   UNL A   1      38.751  31.046  32.194  1.00  0.00    -0.354 N 
ATOM     61  N   UNL A   1      39.982  29.580  29.987  1.00  0.00    -0.248 NA
ATOM     62  C   UNL A   1      39.876  28.722  27.817  1.00  0.00     0.031 C 
ATOM     63  C   UNL A   1      36.616  31.625  32.002  1.00  0.00     0.029 A 
ATOM     64  C   UNL A   1      37.685  31.079  31.312  1.00  0.00     0.049 A 
ATOM     65  H   UNL A   1      39.644  30.689  31.986  1.00  0.00     0.167 HD
ATOM     66  C   UNL A   1      38.791  29.983  29.389  1.00  0.00     0.074 A 
ATOM     67  C   UNL A   1      38.813  29.488  28.029  1.00  0.00     0.031 C 
ATOM     68  C   UNL A   1      37.737  30.627  29.946  1.00  0.00     0.034 A 
BRANCH  55  69
ATOM     69  C   UNL A   1      38.714  32.351  35.808  1.00  0.00     0.023 A 
ATOM     70  C   UNL A   1      38.890  33.722  36.071  1.00  0.00     0.012 A 
ATOM     71  C   UNL A   1      38.052  31.544  36.760  1.00  0.00     0.148 A 
ATOM     72  C   UNL A   1      38.466  34.267  37.286  1.00  0.00     0.002 A 
ATOM     73  C   UNL A   1      37.601  32.101  37.949  1.00  0.00     0.091 A 
ATOM     74  F   UNL A   1      37.896  30.240  36.491  1.00  0.00    -0.205 F 
ATOM     75  C   UNL A   1      37.824  33.459  38.223  1.00  0.00     0.022 A 
BRANCH  73  76
ATOM     76  S   UNL A   1      36.720  31.152  39.195  1.00  0.00     0.127 S 
ATOM     77  O   UNL A   1      37.741  31.007  40.231  1.00  0.00    -0.237 OA
ATOM     78  O   UNL A   1      35.622  32.052  39.544  1.00  0.00    -0.237 OA
ATOM     79  O   UNL A   1      36.311  29.913  38.547  1.00  0.00    -0.744 OA
ENDBRANCH  73  76
ENDBRANCH  55  69
BRANCH  56  80
ATOM     80  C   UNL A   1      42.553  27.512  28.006  1.00  0.00     0.023 A 
ATOM     81  C   UNL A   1      43.352  28.394  27.242  1.00  0.00     0.012 A 
ATOM     82  C   UNL A   1      42.449  26.179  27.571  1.00  0.00     0.148 A 
ATOM     83  C   UNL A   1      44.012  27.968  26.084  1.00  0.00     0.002 A 
ATOM     84  C   UNL A   1      43.188  25.735  26.474  1.00  0.00     0.091 A 
ATOM     85  F   UNL A   1      41.615  25.351  28.218  1.00  0.00    -0.205 F 
ATOM     86  C   UNL A   1      43.951  26.631  25.714  1.00  0.00     0.022 A 
BRANCH  84  87
ATOM     87  S   UNL A   1      43.309  23.983  26.091  1.00  0.00     0.127 S 
ATOM     88  O   UNL A   1      41.915  23.623  25.859  1.00  0.00    -0.237 OA
ATOM     89  O   UNL A   1      44.155  23.976  24.896  1.00  0.00    -0.237 OA
ATOM     90  O   UNL A   1      43.944  23.400  27.268  1.00  0.00    -0.744 OA
ENDBRANCH  84  87
ENDBRANCH  56  80
BRANCH  68  91
ATOM     91  C   UNL A   1      36.495  30.801  29.111  1.00  0.00     0.023 A 
ATOM     92  C   UNL A   1      35.855  29.660  28.583  1.00  0.00     0.012 A 
ATOM     93  C   UNL A   1      35.901  32.065  28.945  1.00  0.00     0.148 A 
ATOM     94  C   UNL A   1      34.652  29.777  27.890  1.00  0.00     0.002 A 
ATOM     95  C   UNL A   1      34.680  32.170  28.289  1.00  0.00     0.091 A 
ATOM     96  F   UNL A   1      36.538  33.138  29.436  1.00  0.00    -0.205 F 
ATOM     97  C   UNL A   1      34.058  31.029  27.755  1.00  0.00     0.022 A 
BRANCH  95  98
ATOM     98  S   UNL A   1      33.794  33.726  28.143  1.00  0.00     0.127 S 
ATOM     99  O   UNL A   1      32.609  33.324  27.389  1.00  0.00    -0.237 OA
ATOM    100  O   UNL A   1      33.541  34.070  29.542  1.00  0.00    -0.237 OA
ATOM    101  O   UNL A   1      34.696  34.637  27.449  1.00  0.00    -0.744 OA
ENDBRANCH  95  98
ENDBRANCH  68  91
ENDBRANCH  42  43
ENDBRANCH  35  37
ENDBRANCH  34  35
ENDBRANCH  33  34
ENDBRANCH  32  33
ENDBRANCH  31  32
ENDBRANCH   1  31
TORSDOF 23
ENDMDL
MODEL 2
REMARK VINA RESULT:      -8.4      7.666     13.204
REMARK SMILES COc1ccc(C2=NN(C(=O)CCC(=O)OCCOCCOC(=O)c3ccc(-c4c5nc(c(-c6cccc(S(=O)(=O)[O-])c6F)c6ccc([nH]6)c(-c6cccc(S(=O)(=O)[O-])c6F)c6nc(c(-c7cccc(S(=O)(=O)[O-])c7F)c7ccc4[nH]7)C=C6)C=C5)cc3)[C@@H](c3ccc(Cl)cc3Cl)C2)cc1
REMARK SMILES IDX 18 1 17 2 16 3 14 4 15 5 13 6 12 7 10 8 11 9 9 10 7 11 8 12
REMARK SMILES IDX 97 13 88 14 6 15 3 16 4 17 99 18 5 19 98 20 2 21 1 22 89 23
REMARK SMILES IDX 90 24 95 25 91 26 94 27 96 28 92 29 93 30 19 31 20 32 21 33
REMARK SMILES IDX 22 34 23 35 24 36 25 37 26 38 87 39 27 40 86 41 28 42 29 43
REMARK SMILES IDX 30 44 80 45 31 46 85 47 79 48 81 49 32 50 84 51 78 52 77 53
REMARK SMILES IDX 33 55 65 56 45 57 64 58 46 59 49 60 63 61 82 62 47 63 48 64
REMARK SMILES IDX 62 66 83 67 50 68 34 69 35 70 43 71 36 72 38 73 44 74 37 75
REMARK SMILES IDX 39 76 40 77 41 78 42 79 66 80 67 81 75 82 68 83 70 84 76 85
REMARK SMILES IDX 69 86 71 87 72 88 73 89 74 90 51 91 52 92 60 93 53 94 55 95
REMARK SMILES IDX 61 96 54 97 56 98 57 99 58 100 59 101
REMARK H PARENT 81 54 49 65
REMARK Flexibility Score: inf
ROOT
ATOM      1  C   UNL A   1      39.268  29.922  31.275  1.00  0.00     0.202 C 
ENDROOT
BRANCH   1   2
ATOM      2  C   UNL A   1      39.506  30.383  29.818  1.00  0.00     0.261 C 
BRANCH   2   3
ATOM      3  O   UNL A   1      38.862  29.513  28.908  1.00  0.00    -0.463 OA
BRANCH   3   4
ATOM      4  C   UNL A   1      39.500  28.423  28.482  1.00  0.00     0.306 C 
ATOM      5  O   UNL A   1      39.358  27.304  28.938  1.00  0.00    -0.252 OA
BRANCH   4   6
ATOM      6  C   UNL A   1      40.268  28.733  27.228  1.00  0.00     0.132 C 
BRANCH   6   7
ATOM      7  C   UNL A   1      40.904  27.649  26.349  1.00  0.00     0.114 C 
BRANCH   7   8
ATOM      8  C   UNL A   1      42.367  27.397  25.858  1.00  0.00     0.243 C 
ATOM      9  O   UNL A   1      42.557  27.698  24.666  1.00  0.00    -0.273 OA
BRANCH   8  10
ATOM     10  N   UNL A   1      43.305  26.680  26.620  1.00  0.00    -0.225 N 
ATOM     11  C   UNL A   1      43.824  26.948  28.736  1.00  0.00     0.071 C 
ATOM     12  N   UNL A   1      43.651  27.588  27.636  1.00  0.00    -0.174 NA
ATOM     13  C   UNL A   1      43.920  25.465  28.716  1.00  0.00     0.091 C 
ATOM     14  C   UNL A   1      43.498  25.131  27.281  1.00  0.00     0.149 C 
BRANCH  11  15
ATOM     15  C   UNL A   1      43.873  27.595  30.029  1.00  0.00    -0.002 A 
ATOM     16  C   UNL A   1      43.263  28.429  32.585  1.00  0.00     0.118 A 
ATOM     17  C   UNL A   1      42.663  29.044  31.490  1.00  0.00     0.047 A 
ATOM     18  C   UNL A   1      44.205  27.415  32.383  1.00  0.00     0.047 A 
ATOM     19  C   UNL A   1      42.995  28.655  30.201  1.00  0.00     0.014 A 
ATOM     20  C   UNL A   1      44.512  26.984  31.097  1.00  0.00     0.014 A 
BRANCH  16  21
ATOM     21  O   UNL A   1      42.969  28.711  33.889  1.00  0.00    -0.497 OA
ATOM     22  C   UNL A   1      41.795  29.496  34.090  1.00  0.00     0.278 C 
ENDBRANCH  16  21
ENDBRANCH  11  15
BRANCH  14  23
ATOM     23  C   UNL A   1      43.570  23.439  26.852  1.00  0.00    -0.004 A 
ATOM     24  C   UNL A   1      44.810  23.175  26.185  1.00  0.00     0.009 A 
ATOM     25  C   UNL A   1      42.717  22.255  26.796  1.00  0.00     0.047 A 
ATOM     26  C   UNL A   1      45.117  22.008  25.446  1.00  0.00     0.021 A 
ATOM     27  C   UNL A   1      43.027  21.111  25.996  1.00  0.00     0.041 A 
ATOM     28  Cl  UNL A   1      41.269  21.691  27.569  1.00  0.00    -0.084 Cl
ATOM     29  C   UNL A   1      44.202  20.995  25.315  1.00  0.00     0.042 A 
ATOM     30  Cl  UNL A   1      44.501  19.602  24.360  1.00  0.00    -0.084 Cl
ENDBRANCH  14  23
ENDBRANCH   8  10
ENDBRANCH   7   8
ENDBRANCH   6   7
ENDBRANCH   4   6
ENDBRANCH   3   4
ENDBRANCH   2   3
ENDBRANCH   1   2
BRANCH   1  31
ATOM     31  O   UNL A   1      38.030  29.238  31.577  1.00  0.00    -0.374 OA
BRANCH  31  32
ATOM     32  C   UNL A   1      37.089  29.662  32.564  1.00  0.00     0.202 C 
BRANCH  32  33
ATOM     33  C   UNL A   1      36.833  31.283  32.962  1.00  0.00     0.261 C 
BRANCH  33  34
ATOM     34  O   UNL A   1      37.326  32.506  32.087  1.00  0.00    -0.460 OA
BRANCH  34  35
ATOM     35  C   UNL A   1      38.047  33.694  32.155  1.00  0.00     0.338 C 
ATOM     36  O   UNL A   1      37.706  34.723  32.724  1.00  0.00    -0.246 OA
BRANCH  35  37
ATOM     37  C   UNL A   1      39.417  33.770  31.462  1.00  0.00     0.060 A 
ATOM     38  C   UNL A   1      40.649  33.522  32.088  1.00  0.00     0.016 A 
ATOM     39  C   UNL A   1      39.500  34.415  30.218  1.00  0.00     0.016 A 
ATOM     40  C   UNL A   1      41.899  33.739  31.425  1.00  0.00     0.010 A 
ATOM     41  C   UNL A   1      40.743  34.707  29.587  1.00  0.00     0.010 A 
ATOM     42  C   UNL A   1      41.971  34.338  30.154  1.00  0.00    -0.014 A 
BRANCH  42  43
ATOM     43  C   UNL A   1      43.292  34.569  29.440  1.00  0.00     0.031 A 
ATOM     44  C   UNL A   1      44.044  33.432  28.778  1.00  0.00     0.074 A 
ATOM     45  C   UNL A   1      43.821  35.812  29.327  1.00  0.00     0.049 A 
ATOM     46  N   UNL A   1      45.204  33.454  28.163  1.00  0.00    -0.248 NA
ATOM     47  C   UNL A   1      43.436  32.096  28.839  1.00  0.00     0.031 C 
ATOM     48  C   UNL A   1      43.218  37.022  29.876  1.00  0.00     0.029 A 
ATOM     49  N   UNL A   1      44.919  36.294  28.633  1.00  0.00    -0.354 N 
ATOM     50  C   UNL A   1      45.535  32.124  27.918  1.00  0.00     0.074 A 
ATOM     51  C   UNL A   1      44.379  31.338  28.295  1.00  0.00     0.031 C 
ATOM     52  C   UNL A   1      43.828  38.101  29.356  1.00  0.00     0.029 A 
ATOM     53  C   UNL A   1      44.951  37.676  28.526  1.00  0.00     0.049 A 
ATOM     54  H   UNL A   1      45.613  35.709  28.252  1.00  0.00     0.167 HD
ATOM     55  C   UNL A   1      46.725  31.599  27.524  1.00  0.00     0.034 A 
ATOM     56  C   UNL A   1      45.774  38.494  27.826  1.00  0.00     0.034 A 
ATOM     57  C   UNL A   1      47.873  32.383  27.151  1.00  0.00     0.049 A 
ATOM     58  C   UNL A   1      47.011  37.892  27.200  1.00  0.00     0.074 A 
ATOM     59  C   UNL A   1      49.167  31.965  26.887  1.00  0.00     0.029 A 
ATOM     60  N   UNL A   1      47.861  33.759  26.980  1.00  0.00    -0.354 N 
ATOM     61  N   UNL A   1      47.326  36.631  27.039  1.00  0.00    -0.248 NA
ATOM     62  C   UNL A   1      48.039  38.831  26.713  1.00  0.00     0.031 C 
ATOM     63  C   UNL A   1      49.939  33.091  26.575  1.00  0.00     0.029 A 
ATOM     64  C   UNL A   1      49.117  34.205  26.608  1.00  0.00     0.049 A 
ATOM     65  H   UNL A   1      47.072  34.334  27.105  1.00  0.00     0.167 HD
ATOM     66  C   UNL A   1      48.609  36.624  26.502  1.00  0.00     0.074 A 
ATOM     67  C   UNL A   1      48.969  38.004  26.252  1.00  0.00     0.031 C 
ATOM     68  C   UNL A   1      49.447  35.576  26.316  1.00  0.00     0.034 A 
BRANCH  55  69
ATOM     69  C   UNL A   1      46.884  30.104  27.650  1.00  0.00     0.023 A 
ATOM     70  C   UNL A   1      47.075  29.490  28.901  1.00  0.00     0.012 A 
ATOM     71  C   UNL A   1      46.880  29.307  26.483  1.00  0.00     0.148 A 
ATOM     72  C   UNL A   1      47.317  28.115  28.984  1.00  0.00     0.002 A 
ATOM     73  C   UNL A   1      47.084  27.937  26.576  1.00  0.00     0.091 A 
ATOM     74  F   UNL A   1      46.698  29.912  25.300  1.00  0.00    -0.205 F 
ATOM     75  C   UNL A   1      47.322  27.341  27.824  1.00  0.00     0.022 A 
BRANCH  73  76
ATOM     76  S   UNL A   1      47.060  26.850  25.145  1.00  0.00     0.127 S 
ATOM     77  O   UNL A   1      48.201  27.347  24.379  1.00  0.00    -0.237 OA
ATOM     78  O   UNL A   1      47.262  25.537  25.757  1.00  0.00    -0.237 OA
ATOM     79  O   UNL A   1      45.759  27.037  24.516  1.00  0.00    -0.744 OA
ENDBRANCH  73  76
ENDBRANCH  55  69
BRANCH  56  80
ATOM     80  C   UNL A   1      45.470  39.953  27.613  1.00  0.00     0.023 A 
ATOM     81  C   UNL A   1      46.004  40.893  28.525  1.00  0.00     0.012 A 
ATOM     82  C   UNL A   1      44.691  40.442  26.551  1.00  0.00     0.148 A 
ATOM     83  C   UNL A   1      45.764  42.265  28.389  1.00  0.00     0.002 A 
ATOM     84  C   UNL A   1      44.536  41.816  26.362  1.00  0.00     0.091 A 
ATOM     85  F   UNL A   1      44.087  39.565  25.734  1.00  0.00    -0.205 F 
ATOM     86  C   UNL A   1      45.051  42.729  27.291  1.00  0.00     0.022 A 
BRANCH  84  87
ATOM     87  S   UNL A   1      43.811  42.464  24.850  1.00  0.00     0.127 S 
ATOM     88  O   UNL A   1      44.614  41.815  23.821  1.00  0.00    -0.237 OA
ATOM     89  O   UNL A   1      42.425  42.000  24.937  1.00  0.00    -0.237 OA
ATOM     90  O   UNL A   1      43.957  43.912  24.973  1.00  0.00    -0.744 OA
ENDBRANCH  84  87
ENDBRANCH  56  80
BRANCH  68  91
ATOM     91  C   UNL A   1      50.853  35.868  25.862  1.00  0.00     0.023 A 
ATOM     92  C   UNL A   1      51.130  35.946  24.481  1.00  0.00     0.012 A 
ATOM     93  C   UNL A   1      51.867  36.177  26.788  1.00  0.00     0.148 A 
ATOM     94  C   UNL A   1      52.396  36.312  24.029  1.00  0.00     0.002 A 
ATOM     95  C   UNL A   1      53.116  36.581  26.331  1.00  0.00     0.091 A 
ATOM     96  F   UNL A   1      51.588  36.075  28.096  1.00  0.00    -0.205 F 
ATOM     97  C   UNL A   1      53.385  36.642  24.953  1.00  0.00     0.022 A 
BRANCH  95  98
ATOM     98  S   UNL A   1      54.424  37.111  27.442  1.00  0.00     0.127 S 
ATOM     99  O   UNL A   1      55.443  37.573  26.502  1.00  0.00    -0.237 OA
ATOM    100  O   UNL A   1      53.770  38.174  28.204  1.00  0.00    -0.237 OA
ATOM    101  O   UNL A   1      54.785  35.937  28.226  1.00  0.00    -0.744 OA
ENDBRANCH  95  98
ENDBRANCH  68  91
ENDBRANCH  42  43
ENDBRANCH  35  37
ENDBRANCH  34  35
ENDBRANCH  33  34
ENDBRANCH  32  33
ENDBRANCH  31  32
ENDBRANCH   1  31
TORSDOF 23
ENDMDL
MODEL 3
REMARK VINA RESULT:      -7.9      7.468     12.228
REMARK SMILES COc1ccc(C2=NN(C(=O)CCC(=O)OCCOCCOC(=O)c3ccc(-c4c5nc(c(-c6cccc(S(=O)(=O)[O-])c6F)c6ccc([nH]6)c(-c6cccc(S(=O)(=O)[O-])c6F)c6nc(c(-c7cccc(S(=O)(=O)[O-])c7F)c7ccc4[nH]7)C=C6)C=C5)cc3)[C@@H](c3ccc(Cl)cc3Cl)C2)cc1
REMARK SMILES IDX 18 1 17 2 16 3 14 4 15 5 13 6 12 7 10 8 11 9 9 10 7 11 8 12
REMARK SMILES IDX 97 13 88 14 6 15 3 16 4 17 99 18 5 19 98 20 2 21 1 22 89 23
REMARK SMILES IDX 90 24 95 25 91 26 94 27 96 28 92 29 93 30 19 31 20 32 21 33
REMARK SMILES IDX 22 34 23 35 24 36 25 37 26 38 87 39 27 40 86 41 28 42 29 43
REMARK SMILES IDX 30 44 80 45 31 46 85 47 79 48 81 49 32 50 84 51 78 52 77 53
REMARK SMILES IDX 33 55 65 56 45 57 64 58 46 59 49 60 63 61 82 62 47 63 48 64
REMARK SMILES IDX 62 66 83 67 50 68 34 69 35 70 43 71 36 72 38 73 44 74 37 75
REMARK SMILES IDX 39 76 40 77 41 78 42 79 66 80 67 81 75 82 68 83 70 84 76 85
REMARK SMILES IDX 69 86 71 87 72 88 73 89 74 90 51 91 52 92 60 93 53 94 55 95
REMARK SMILES IDX 61 96 54 97 56 98 57 99 58 100 59 101
REMARK H PARENT 81 54 49 65
REMARK Flexibility Score: inf
ROOT
ATOM      1  C   UNL A   1      39.197  30.117  31.177  1.00  0.00     0.202 C 
ENDROOT
BRANCH   1   2
ATOM      2  C   UNL A   1      39.652  30.613  29.784  1.00  0.00     0.261 C 
BRANCH   2   3
ATOM      3  O   UNL A   1      38.939  29.947  28.761  1.00  0.00    -0.463 OA
BRANCH   3   4
ATOM      4  C   UNL A   1      39.425  28.815  28.253  1.00  0.00     0.306 C 
ATOM      5  O   UNL A   1      39.112  27.695  28.611  1.00  0.00    -0.252 OA
BRANCH   4   6
ATOM      6  C   UNL A   1      40.264  29.112  27.042  1.00  0.00     0.132 C 
BRANCH   6   7
ATOM      7  C   UNL A   1      40.840  28.017  26.136  1.00  0.00     0.114 C 
BRANCH   7   8
ATOM      8  C   UNL A   1      42.300  27.600  25.764  1.00  0.00     0.243 C 
ATOM      9  O   UNL A   1      42.653  27.964  24.627  1.00  0.00    -0.273 OA
BRANCH   8  10
ATOM     10  N   UNL A   1      43.050  26.702  26.542  1.00  0.00    -0.225 N 
ATOM     11  C   UNL A   1      43.304  26.679  28.722  1.00  0.00     0.071 C 
ATOM     12  N   UNL A   1      43.347  27.449  27.694  1.00  0.00    -0.174 NA
ATOM     13  C   UNL A   1      43.251  25.206  28.534  1.00  0.00     0.091 C 
ATOM     14  C   UNL A   1      42.993  25.079  27.029  1.00  0.00     0.149 C 
BRANCH  11  15
ATOM     15  C   UNL A   1      43.245  27.175  30.080  1.00  0.00    -0.002 A 
ATOM     16  C   UNL A   1      43.790  28.531  32.417  1.00  0.00     0.118 A 
ATOM     17  C   UNL A   1      44.503  27.379  32.099  1.00  0.00     0.047 A 
ATOM     18  C   UNL A   1      42.770  28.975  31.569  1.00  0.00     0.047 A 
ATOM     19  C   UNL A   1      44.207  26.671  30.943  1.00  0.00     0.014 A 
ATOM     20  C   UNL A   1      42.495  28.301  30.384  1.00  0.00     0.014 A 
BRANCH  16  21
ATOM     21  O   UNL A   1      44.037  29.319  33.506  1.00  0.00    -0.497 OA
ATOM     22  C   UNL A   1      42.914  30.054  33.990  1.00  0.00     0.278 C 
ENDBRANCH  16  21
ENDBRANCH  11  15
BRANCH  14  23
ATOM     23  C   UNL A   1      42.950  23.446  26.410  1.00  0.00    -0.004 A 
ATOM     24  C   UNL A   1      41.641  22.899  26.615  1.00  0.00     0.009 A 
ATOM     25  C   UNL A   1      43.847  22.406  25.914  1.00  0.00     0.047 A 
ATOM     26  C   UNL A   1      41.292  21.533  26.509  1.00  0.00     0.021 A 
ATOM     27  C   UNL A   1      43.484  21.023  25.870  1.00  0.00     0.041 A 
ATOM     28  Cl  UNL A   1      45.420  22.323  25.185  1.00  0.00    -0.084 Cl
ATOM     29  C   UNL A   1      42.230  20.588  26.180  1.00  0.00     0.042 A 
ATOM     30  Cl  UNL A   1      41.870  18.913  26.122  1.00  0.00    -0.084 Cl
ENDBRANCH  14  23
ENDBRANCH   8  10
ENDBRANCH   7   8
ENDBRANCH   6   7
ENDBRANCH   4   6
ENDBRANCH   3   4
ENDBRANCH   2   3
ENDBRANCH   1   2
BRANCH   1  31
ATOM     31  O   UNL A   1      37.940  29.408  31.269  1.00  0.00    -0.374 OA
BRANCH  31  32
ATOM     32  C   UNL A   1      36.821  29.840  32.043  1.00  0.00     0.202 C 
BRANCH  32  33
ATOM     33  C   UNL A   1      36.490  31.464  32.366  1.00  0.00     0.261 C 
BRANCH  33  34
ATOM     34  O   UNL A   1      37.060  32.676  31.522  1.00  0.00    -0.460 OA
BRANCH  34  35
ATOM     35  C   UNL A   1      37.607  33.949  31.647  1.00  0.00     0.338 C 
ATOM     36  O   UNL A   1      37.094  34.913  32.201  1.00  0.00    -0.246 OA
BRANCH  35  37
ATOM     37  C   UNL A   1      38.996  34.221  31.045  1.00  0.00     0.060 A 
ATOM     38  C   UNL A   1      39.252  34.431  29.682  1.00  0.00     0.016 A 
ATOM     39  C   UNL A   1      40.127  33.949  31.830  1.00  0.00     0.016 A 
ATOM     40  C   UNL A   1      40.582  34.546  29.164  1.00  0.00     0.010 A 
ATOM     41  C   UNL A   1      41.451  33.984  31.305  1.00  0.00     0.010 A 
ATOM     42  C   UNL A   1      41.714  34.325  29.970  1.00  0.00    -0.014 A 
BRANCH  42  43
ATOM     43  C   UNL A   1      43.130  34.449  29.434  1.00  0.00     0.031 A 
ATOM     44  C   UNL A   1      43.834  35.789  29.359  1.00  0.00     0.074 A 
ATOM     45  C   UNL A   1      43.832  33.356  29.047  1.00  0.00     0.049 A 
ATOM     46  N   UNL A   1      45.027  36.071  28.889  1.00  0.00    -0.248 NA
ATOM     47  C   UNL A   1      43.099  36.965  29.845  1.00  0.00     0.031 C 
ATOM     48  C   UNL A   1      43.322  31.989  29.079  1.00  0.00     0.029 A 
ATOM     49  N   UNL A   1      45.149  33.191  28.652  1.00  0.00    -0.354 N 
ATOM     50  C   UNL A   1      45.113  37.461  28.868  1.00  0.00     0.074 A 
ATOM     51  C   UNL A   1      43.924  37.955  29.530  1.00  0.00     0.031 C 
ATOM     52  C   UNL A   1      44.339  31.128  28.907  1.00  0.00     0.029 A 
ATOM     53  C   UNL A   1      45.566  31.869  28.627  1.00  0.00     0.049 A 
ATOM     54  H   UNL A   1      45.736  33.944  28.409  1.00  0.00     0.167 HD
ATOM     55  C   UNL A   1      46.035  38.251  28.257  1.00  0.00     0.034 A 
ATOM     56  C   UNL A   1      46.791  31.327  28.426  1.00  0.00     0.034 A 
ATOM     57  C   UNL A   1      47.215  37.756  27.598  1.00  0.00     0.049 A 
ATOM     58  C   UNL A   1      47.898  32.233  27.937  1.00  0.00     0.074 A 
ATOM     59  C   UNL A   1      48.132  38.443  26.819  1.00  0.00     0.029 A 
ATOM     60  N   UNL A   1      47.650  36.441  27.650  1.00  0.00    -0.354 N 
ATOM     61  N   UNL A   1      47.926  33.540  27.869  1.00  0.00    -0.248 NA
ATOM     62  C   UNL A   1      49.122  31.581  27.435  1.00  0.00     0.031 C 
ATOM     63  C   UNL A   1      49.108  37.537  26.385  1.00  0.00     0.029 A 
ATOM     64  C   UNL A   1      48.820  36.295  26.926  1.00  0.00     0.049 A 
ATOM     65  H   UNL A   1      47.191  35.716  28.133  1.00  0.00     0.167 HD
ATOM     66  C   UNL A   1      49.133  33.864  27.256  1.00  0.00     0.074 A 
ATOM     67  C   UNL A   1      49.861  32.625  27.080  1.00  0.00     0.031 C 
ATOM     68  C   UNL A   1      49.559  35.066  26.801  1.00  0.00     0.034 A 
BRANCH  55  69
ATOM     69  C   UNL A   1      45.700  39.716  28.130  1.00  0.00     0.023 A 
ATOM     70  C   UNL A   1      45.908  40.610  29.197  1.00  0.00     0.012 A 
ATOM     71  C   UNL A   1      45.130  40.195  26.929  1.00  0.00     0.148 A 
ATOM     72  C   UNL A   1      45.501  41.943  29.091  1.00  0.00     0.002 A 
ATOM     73  C   UNL A   1      44.762  41.529  26.818  1.00  0.00     0.091 A 
ATOM     74  F   UNL A   1      44.939  39.327  25.926  1.00  0.00    -0.205 F 
ATOM     75  C   UNL A   1      44.929  42.402  27.905  1.00  0.00     0.022 A 
BRANCH  73  76
ATOM     76  S   UNL A   1      44.063  42.223  25.316  1.00  0.00     0.127 S 
ATOM     77  O   UNL A   1      44.154  43.657  25.582  1.00  0.00    -0.237 OA
ATOM     78  O   UNL A   1      44.988  41.733  24.295  1.00  0.00    -0.237 OA
ATOM     79  O   UNL A   1      42.709  41.694  25.216  1.00  0.00    -0.744 OA
ENDBRANCH  73  76
ENDBRANCH  55  69
BRANCH  56  80
ATOM     80  C   UNL A   1      47.092  29.881  28.721  1.00  0.00     0.023 A 
ATOM     81  C   UNL A   1      47.333  29.503  30.063  1.00  0.00     0.012 A 
ATOM     82  C   UNL A   1      47.137  28.876  27.739  1.00  0.00     0.148 A 
ATOM     83  C   UNL A   1      47.618  28.178  30.411  1.00  0.00     0.002 A 
ATOM     84  C   UNL A   1      47.322  27.542  28.103  1.00  0.00     0.091 A 
ATOM     85  F   UNL A   1      47.016  29.226  26.450  1.00  0.00    -0.205 F 
ATOM     86  C   UNL A   1      47.586  27.191  29.433  1.00  0.00     0.022 A 
BRANCH  84  87
ATOM     87  S   UNL A   1      47.077  26.218  26.911  1.00  0.00     0.127 S 
ATOM     88  O   UNL A   1      48.433  25.985  26.429  1.00  0.00    -0.237 OA
ATOM     89  O   UNL A   1      46.523  25.145  27.738  1.00  0.00    -0.237 OA
ATOM     90  O   UNL A   1      46.130  26.771  25.948  1.00  0.00    -0.744 OA
ENDBRANCH  84  87
ENDBRANCH  56  80
BRANCH  68  91
ATOM     91  C   UNL A   1      50.850  35.110  26.025  1.00  0.00     0.023 A 
ATOM     92  C   UNL A   1      50.819  34.928  24.626  1.00  0.00     0.012 A 
ATOM     93  C   UNL A   1      52.065  35.442  26.652  1.00  0.00     0.148 A 
ATOM     94  C   UNL A   1      51.980  35.060  23.866  1.00  0.00     0.002 A 
ATOM     95  C   UNL A   1      53.211  35.613  25.883  1.00  0.00     0.091 A 
ATOM     96  F   UNL A   1      52.075  35.589  27.985  1.00  0.00    -0.205 F 
ATOM     97  C   UNL A   1      53.172  35.415  24.492  1.00  0.00     0.022 A 
BRANCH  95  98
ATOM     98  S   UNL A   1      54.771  36.157  26.587  1.00  0.00     0.127 S 
ATOM     99  O   UNL A   1      55.264  34.927  27.202  1.00  0.00    -0.237 OA
ATOM    100  O   UNL A   1      55.512  36.588  25.402  1.00  0.00    -0.237 OA
ATOM    101  O   UNL A   1      54.439  37.229  27.517  1.00  0.00    -0.744 OA
ENDBRANCH  95  98
ENDBRANCH  68  91
ENDBRANCH  42  43
ENDBRANCH  35  37
ENDBRANCH  34  35
ENDBRANCH  33  34
ENDBRANCH  32  33
ENDBRANCH  31  32
ENDBRANCH   1  31
TORSDOF 23
ENDMDL
