MODEL 1
REMARK VINA RESULT:     -12.0      0.000      0.000
REMARK SMILES C[C@@H](C(=O)OCCOCCOC(=O)c1ccc(-c2c3nc(c(-c4cccc(S(=O)(=O)[O-])c4F)c4ccc([nH]4)c(-c4cccc(S(=O)(=O)[O-])c4F)c4nc(c(-c5cccc(S(=O)(=O)[O-])c5F)c5ccc2[nH]5)C=C4)C=C3)cc1)c1ccc2c(c1)[nH]c1ccc(Cl)cc12
REMARK SMILES IDX 9 1 8 2 7 3 6 4 5 5 3 6 4 7 2 8 1 9 77 10 78 11 82 12 79 13
REMARK SMILES IDX 81 14 80 15 83 16 90 17 84 18 89 20 85 21 87 22 86 23 88 24
REMARK SMILES IDX 10 25 11 26 12 27 13 28 14 29 15 30 76 31 16 32 75 33 17 34
REMARK SMILES IDX 18 35 19 36 69 37 20 38 74 39 68 40 70 41 21 42 73 43 67 44
REMARK SMILES IDX 66 45 22 47 54 48 34 49 53 50 35 51 38 52 52 53 71 54 36 55
REMARK SMILES IDX 37 56 51 58 72 59 39 60 23 61 24 62 32 63 25 64 27 65 33 66
REMARK SMILES IDX 26 67 28 68 29 69 30 70 31 71 55 72 56 73 64 74 57 75 59 76
REMARK SMILES IDX 65 77 58 78 60 79 61 80 62 81 63 82 40 83 41 84 49 85 42 86
REMARK SMILES IDX 44 87 50 88 43 89 45 90 46 91 47 92 48 93
REMARK H PARENT 83 19 70 46 38 57
REMARK Flexibility Score: inf
ROOT
ATOM      1  C   UNL A   1      31.894  29.596  25.294  1.00  0.00     0.202 C 
ENDROOT
BRANCH   1   2
ATOM      2  O   UNL A   1      30.897  29.241  24.344  1.00  0.00    -0.374 OA
BRANCH   2   3
ATOM      3  C   UNL A   1      31.361  28.944  23.020  1.00  0.00     0.202 C 
BRANCH   3   4
ATOM      4  C   UNL A   1      30.942  27.587  22.434  1.00  0.00     0.261 C 
BRANCH   4   5
ATOM      5  O   UNL A   1      32.068  26.686  22.369  1.00  0.00    -0.463 OA
BRANCH   5   6
ATOM      6  C   UNL A   1      32.560  26.240  23.559  1.00  0.00     0.313 C 
ATOM      7  O   UNL A   1      33.625  26.606  24.044  1.00  0.00    -0.252 OA
BRANCH   6   8
ATOM      8  C   UNL A   1      31.611  25.255  24.266  1.00  0.00     0.126 C 
ATOM      9  C   UNL A   1      31.186  25.676  25.680  1.00  0.00     0.025 C 
BRANCH   8  10
ATOM     10  C   UNL A   1      32.196  23.840  24.233  1.00  0.00    -0.032 A 
ATOM     11  C   UNL A   1      33.084  23.415  25.231  1.00  0.00     0.005 A 
ATOM     12  C   UNL A   1      31.784  22.916  23.261  1.00  0.00     0.031 A 
ATOM     13  C   UNL A   1      33.532  22.083  25.297  1.00  0.00     0.011 A 
ATOM     14  C   UNL A   1      32.198  21.586  23.367  1.00  0.00     0.047 A 
ATOM     15  C   UNL A   1      33.061  21.138  24.360  1.00  0.00     0.007 A 
ATOM     16  N   UNL A   1      31.862  20.504  22.591  1.00  0.00    -0.355 N 
ATOM     17  C   UNL A   1      33.265  19.734  24.138  1.00  0.00     0.009 A 
ATOM     18  C   UNL A   1      32.529  19.379  23.006  1.00  0.00     0.047 A 
ATOM     19  H   UNL A   1      31.230  20.533  21.837  1.00  0.00     0.167 HD
ATOM     20  C   UNL A   1      34.015  18.732  24.787  1.00  0.00     0.031 A 
ATOM     21  C   UNL A   1      32.526  18.090  22.464  1.00  0.00     0.028 A 
ATOM     22  C   UNL A   1      34.023  17.438  24.253  1.00  0.00     0.041 A 
ATOM     23  C   UNL A   1      33.301  17.122  23.104  1.00  0.00     0.022 A 
ATOM     24  Cl  UNL A   1      34.949  16.208  25.027  1.00  0.00    -0.084 Cl
ENDBRANCH   8  10
ENDBRANCH   6   8
ENDBRANCH   5   6
ENDBRANCH   4   5
ENDBRANCH   3   4
ENDBRANCH   2   3
ENDBRANCH   1   2
BRANCH   1  25
ATOM     25  C   UNL A   1      31.746  30.950  26.003  1.00  0.00     0.261 C 
BRANCH  25  26
ATOM     26  O   UNL A   1      32.405  30.985  27.271  1.00  0.00    -0.460 OA
BRANCH  26  27
ATOM     27  C   UNL A   1      33.241  32.041  27.417  1.00  0.00     0.338 C 
ATOM     28  O   UNL A   1      32.945  33.229  27.361  1.00  0.00    -0.246 OA
BRANCH  27  29
ATOM     29  C   UNL A   1      34.569  31.573  27.838  1.00  0.00     0.060 A 
ATOM     30  C   UNL A   1      34.724  30.196  28.039  1.00  0.00     0.016 A 
ATOM     31  C   UNL A   1      35.622  32.456  28.081  1.00  0.00     0.016 A 
ATOM     32  C   UNL A   1      35.919  29.700  28.546  1.00  0.00     0.010 A 
ATOM     33  C   UNL A   1      36.821  31.956  28.595  1.00  0.00     0.010 A 
ATOM     34  C   UNL A   1      36.958  30.583  28.870  1.00  0.00    -0.014 A 
BRANCH  34  35
ATOM     35  C   UNL A   1      38.121  30.079  29.634  1.00  0.00     0.031 A 
ATOM     36  C   UNL A   1      38.336  30.570  31.039  1.00  0.00     0.074 A 
ATOM     37  C   UNL A   1      38.958  29.178  29.091  1.00  0.00     0.049 A 
ATOM     38  N   UNL A   1      39.281  30.264  31.887  1.00  0.00    -0.248 NA
ATOM     39  C   UNL A   1      37.352  31.538  31.557  1.00  0.00     0.031 C 
ATOM     40  C   UNL A   1      38.841  28.624  27.743  1.00  0.00     0.029 A 
ATOM     41  N   UNL A   1      40.082  28.585  29.604  1.00  0.00    -0.354 N 
ATOM     42  C   UNL A   1      39.029  31.023  33.024  1.00  0.00     0.074 A 
ATOM     43  C   UNL A   1      37.848  31.811  32.756  1.00  0.00     0.031 C 
ATOM     44  C   UNL A   1      39.868  27.784  27.527  1.00  0.00     0.029 A 
ATOM     45  C   UNL A   1      40.727  27.765  28.710  1.00  0.00     0.049 A 
ATOM     46  H   UNL A   1      40.398  28.733  30.525  1.00  0.00     0.167 HD
ATOM     47  C   UNL A   1      39.715  31.049  34.191  1.00  0.00     0.034 A 
ATOM     48  C   UNL A   1      41.889  27.092  28.827  1.00  0.00     0.034 A 
ATOM     49  C   UNL A   1      40.877  30.245  34.459  1.00  0.00     0.049 A 
ATOM     50  C   UNL A   1      42.645  27.159  30.129  1.00  0.00     0.074 A 
ATOM     51  C   UNL A   1      41.610  30.158  35.628  1.00  0.00     0.029 A 
ATOM     52  N   UNL A   1      41.485  29.405  33.540  1.00  0.00    -0.354 N 
ATOM     53  N   UNL A   1      42.330  27.788  31.235  1.00  0.00    -0.248 NA
ATOM     54  C   UNL A   1      43.900  26.398  30.208  1.00  0.00     0.031 C 
ATOM     55  C   UNL A   1      42.685  29.292  35.405  1.00  0.00     0.029 A 
ATOM     56  C   UNL A   1      42.597  28.808  34.108  1.00  0.00     0.049 A 
ATOM     57  H   UNL A   1      41.172  29.253  32.619  1.00  0.00     0.167 HD
ATOM     58  C   UNL A   1      43.326  27.468  32.154  1.00  0.00     0.074 A 
ATOM     59  C   UNL A   1      44.243  26.575  31.477  1.00  0.00     0.031 C 
ATOM     60  C   UNL A   1      43.473  27.882  33.437  1.00  0.00     0.034 A 
BRANCH  47  61
ATOM     61  C   UNL A   1      39.221  31.973  35.274  1.00  0.00     0.023 A 
ATOM     62  C   UNL A   1      38.270  31.516  36.209  1.00  0.00     0.012 A 
ATOM     63  C   UNL A   1      39.740  33.276  35.397  1.00  0.00     0.148 A 
ATOM     64  C   UNL A   1      37.820  32.352  37.229  1.00  0.00     0.002 A 
ATOM     65  C   UNL A   1      39.322  34.088  36.443  1.00  0.00     0.091 A 
ATOM     66  F   UNL A   1      40.625  33.700  34.483  1.00  0.00    -0.205 F 
ATOM     67  C   UNL A   1      38.354  33.633  37.353  1.00  0.00     0.022 A 
BRANCH  65  68
ATOM     68  S   UNL A   1      40.007  35.723  36.734  1.00  0.00     0.127 S 
ATOM     69  O   UNL A   1      41.432  35.423  36.876  1.00  0.00    -0.237 OA
ATOM     70  O   UNL A   1      39.653  36.427  35.501  1.00  0.00    -0.237 OA
ATOM     71  O   UNL A   1      39.353  36.227  37.932  1.00  0.00    -0.744 OA
ENDBRANCH  65  68
ENDBRANCH  47  61
BRANCH  48  72
ATOM     72  C   UNL A   1      42.394  26.272  27.691  1.00  0.00     0.023 A 
ATOM     73  C   UNL A   1      43.318  26.829  26.786  1.00  0.00     0.012 A 
ATOM     74  C   UNL A   1      41.977  24.938  27.512  1.00  0.00     0.148 A 
ATOM     75  C   UNL A   1      43.791  26.084  25.705  1.00  0.00     0.002 A 
ATOM     76  C   UNL A   1      42.495  24.184  26.468  1.00  0.00     0.091 A 
ATOM     77  F   UNL A   1      41.087  24.431  28.377  1.00  0.00    -0.205 F 
ATOM     78  C   UNL A   1      43.388  24.760  25.552  1.00  0.00     0.022 A 
BRANCH  76  79
ATOM     79  S   UNL A   1      42.132  22.436  26.269  1.00  0.00     0.127 S 
ATOM     80  O   UNL A   1      42.651  21.879  27.516  1.00  0.00    -0.237 OA
ATOM     81  O   UNL A   1      40.673  22.444  26.156  1.00  0.00    -0.237 OA
ATOM     82  O   UNL A   1      42.826  22.025  25.056  1.00  0.00    -0.744 OA
ENDBRANCH  76  79
ENDBRANCH  48  72
BRANCH  60  83
ATOM     83  C   UNL A   1      44.644  27.342  34.218  1.00  0.00     0.023 A 
ATOM     84  C   UNL A   1      45.869  28.038  34.223  1.00  0.00     0.012 A 
ATOM     85  C   UNL A   1      44.503  26.184  35.007  1.00  0.00     0.148 A 
ATOM     86  C   UNL A   1      46.946  27.570  34.974  1.00  0.00     0.002 A 
ATOM     87  C   UNL A   1      45.564  25.753  35.794  1.00  0.00     0.091 A 
ATOM     88  F   UNL A   1      43.335  25.526  34.976  1.00  0.00    -0.205 F 
ATOM     89  C   UNL A   1      46.790  26.436  35.768  1.00  0.00     0.022 A 
BRANCH  87  90
ATOM     90  S   UNL A   1      45.423  24.363  36.924  1.00  0.00     0.127 S 
ATOM     91  O   UNL A   1      44.385  24.831  37.842  1.00  0.00    -0.237 OA
ATOM     92  O   UNL A   1      45.007  23.281  36.032  1.00  0.00    -0.237 OA
ATOM     93  O   UNL A   1      46.743  24.187  37.513  1.00  0.00    -0.744 OA
ENDBRANCH  87  90
ENDBRANCH  60  83
ENDBRANCH  34  35
ENDBRANCH  27  29
ENDBRANCH  26  27
ENDBRANCH  25  26
ENDBRANCH   1  25
TORSDOF 18
ENDMDL
MODEL 2
REMARK VINA RESULT:     -11.9      5.141     10.562
REMARK SMILES C[C@@H](C(=O)OCCOCCOC(=O)c1ccc(-c2c3nc(c(-c4cccc(S(=O)(=O)[O-])c4F)c4ccc([nH]4)c(-c4cccc(S(=O)(=O)[O-])c4F)c4nc(c(-c5cccc(S(=O)(=O)[O-])c5F)c5ccc2[nH]5)C=C4)C=C3)cc1)c1ccc2c(c1)[nH]c1ccc(Cl)cc12
REMARK SMILES IDX 9 1 8 2 7 3 6 4 5 5 3 6 4 7 2 8 1 9 77 10 78 11 82 12 79 13
REMARK SMILES IDX 81 14 80 15 83 16 90 17 84 18 89 20 85 21 87 22 86 23 88 24
REMARK SMILES IDX 10 25 11 26 12 27 13 28 14 29 15 30 76 31 16 32 75 33 17 34
REMARK SMILES IDX 18 35 19 36 69 37 20 38 74 39 68 40 70 41 21 42 73 43 67 44
REMARK SMILES IDX 66 45 22 47 54 48 34 49 53 50 35 51 38 52 52 53 71 54 36 55
REMARK SMILES IDX 37 56 51 58 72 59 39 60 23 61 24 62 32 63 25 64 27 65 33 66
REMARK SMILES IDX 26 67 28 68 29 69 30 70 31 71 55 72 56 73 64 74 57 75 59 76
REMARK SMILES IDX 65 77 58 78 60 79 61 80 62 81 63 82 40 83 41 84 49 85 42 86
REMARK SMILES IDX 44 87 50 88 43 89 45 90 46 91 47 92 48 93
REMARK H PARENT 83 19 70 46 38 57
REMARK Flexibility Score: inf
ROOT
ATOM      1  C   UNL A   1      36.178  20.103  25.014  1.00  0.00     0.202 C 
ENDROOT
BRANCH   1   2
ATOM      2  O   UNL A   1      35.698  21.413  24.737  1.00  0.00    -0.374 OA
BRANCH   2   3
ATOM      3  C   UNL A   1      35.343  22.212  25.873  1.00  0.00     0.202 C 
BRANCH   3   4
ATOM      4  C   UNL A   1      34.028  21.855  26.581  1.00  0.00     0.261 C 
BRANCH   4   5
ATOM      5  O   UNL A   1      32.941  21.770  25.634  1.00  0.00    -0.463 OA
BRANCH   5   6
ATOM      6  C   UNL A   1      32.192  22.896  25.464  1.00  0.00     0.313 C 
ATOM      7  O   UNL A   1      31.844  23.635  26.379  1.00  0.00    -0.252 OA
BRANCH   6   8
ATOM      8  C   UNL A   1      31.863  23.177  23.988  1.00  0.00     0.126 C 
ATOM      9  C   UNL A   1      32.995  22.848  23.004  1.00  0.00     0.025 C 
BRANCH   8  10
ATOM     10  C   UNL A   1      31.351  24.611  23.823  1.00  0.00    -0.032 A 
ATOM     11  C   UNL A   1      32.216  25.631  23.405  1.00  0.00     0.005 A 
ATOM     12  C   UNL A   1      29.991  24.911  23.995  1.00  0.00     0.031 A 
ATOM     13  C   UNL A   1      31.742  26.925  23.120  1.00  0.00     0.011 A 
ATOM     14  C   UNL A   1      29.527  26.186  23.663  1.00  0.00     0.047 A 
ATOM     15  C   UNL A   1      30.364  27.206  23.227  1.00  0.00     0.007 A 
ATOM     16  N   UNL A   1      28.245  26.677  23.674  1.00  0.00    -0.355 N 
ATOM     17  C   UNL A   1      29.538  28.358  22.999  1.00  0.00     0.009 A 
ATOM     18  C   UNL A   1      28.226  28.002  23.320  1.00  0.00     0.047 A 
ATOM     19  H   UNL A   1      27.447  26.149  23.905  1.00  0.00     0.167 HD
ATOM     20  C   UNL A   1      29.782  29.676  22.561  1.00  0.00     0.031 A 
ATOM     21  C   UNL A   1      27.151  28.895  23.263  1.00  0.00     0.028 A 
ATOM     22  C   UNL A   1      28.715  30.580  22.500  1.00  0.00     0.041 A 
ATOM     23  C   UNL A   1      27.422  30.202  22.857  1.00  0.00     0.022 A 
ATOM     24  Cl  UNL A   1      29.004  32.198  21.982  1.00  0.00    -0.084 Cl
ENDBRANCH   8  10
ENDBRANCH   6   8
ENDBRANCH   5   6
ENDBRANCH   4   5
ENDBRANCH   3   4
ENDBRANCH   2   3
ENDBRANCH   1   2
BRANCH   1  25
ATOM     25  C   UNL A   1      37.696  19.882  24.972  1.00  0.00     0.261 C 
BRANCH  25  26
ATOM     26  O   UNL A   1      38.436  21.072  25.256  1.00  0.00    -0.460 OA
BRANCH  26  27
ATOM     27  C   UNL A   1      39.477  20.872  26.099  1.00  0.00     0.338 C 
ATOM     28  O   UNL A   1      40.116  19.838  26.251  1.00  0.00    -0.246 OA
BRANCH  27  29
ATOM     29  C   UNL A   1      39.876  22.147  26.712  1.00  0.00     0.060 A 
ATOM     30  C   UNL A   1      39.213  23.299  26.272  1.00  0.00     0.016 A 
ATOM     31  C   UNL A   1      40.903  22.227  27.653  1.00  0.00     0.016 A 
ATOM     32  C   UNL A   1      39.618  24.548  26.726  1.00  0.00     0.010 A 
ATOM     33  C   UNL A   1      41.313  23.483  28.106  1.00  0.00     0.010 A 
ATOM     34  C   UNL A   1      40.700  24.650  27.611  1.00  0.00    -0.014 A 
BRANCH  34  35
ATOM     35  C   UNL A   1      41.279  25.983  27.892  1.00  0.00     0.031 A 
ATOM     36  C   UNL A   1      42.669  26.289  27.405  1.00  0.00     0.074 A 
ATOM     37  C   UNL A   1      40.566  26.913  28.549  1.00  0.00     0.049 A 
ATOM     38  N   UNL A   1      43.369  27.384  27.536  1.00  0.00    -0.248 NA
ATOM     39  C   UNL A   1      43.363  25.215  26.672  1.00  0.00     0.031 C 
ATOM     40  C   UNL A   1      39.207  26.731  29.057  1.00  0.00     0.029 A 
ATOM     41  N   UNL A   1      40.897  28.192  28.916  1.00  0.00    -0.354 N 
ATOM     42  C   UNL A   1      44.595  27.124  26.935  1.00  0.00     0.074 A 
ATOM     43  C   UNL A   1      44.548  25.764  26.447  1.00  0.00     0.031 C 
ATOM     44  C   UNL A   1      38.825  27.854  29.690  1.00  0.00     0.029 A 
ATOM     45  C   UNL A   1      39.922  28.820  29.656  1.00  0.00     0.049 A 
ATOM     46  H   UNL A   1      41.750  28.620  28.675  1.00  0.00     0.167 HD
ATOM     47  C   UNL A   1      45.658  27.949  26.794  1.00  0.00     0.034 A 
ATOM     48  C   UNL A   1      39.926  30.028  30.252  1.00  0.00     0.034 A 
ATOM     49  C   UNL A   1      45.690  29.308  27.262  1.00  0.00     0.049 A 
ATOM     50  C   UNL A   1      41.133  30.917  30.099  1.00  0.00     0.074 A 
ATOM     51  C   UNL A   1      46.698  30.243  27.119  1.00  0.00     0.029 A 
ATOM     52  N   UNL A   1      44.675  29.919  27.982  1.00  0.00    -0.354 N 
ATOM     53  N   UNL A   1      42.238  30.701  29.427  1.00  0.00    -0.248 NA
ATOM     54  C   UNL A   1      41.081  32.229  30.760  1.00  0.00     0.031 C 
ATOM     55  C   UNL A   1      46.308  31.410  27.784  1.00  0.00     0.029 A 
ATOM     56  C   UNL A   1      45.039  31.214  28.306  1.00  0.00     0.049 A 
ATOM     57  H   UNL A   1      43.820  29.495  28.225  1.00  0.00     0.167 HD
ATOM     58  C   UNL A   1      42.995  31.862  29.551  1.00  0.00     0.074 A 
ATOM     59  C   UNL A   1      42.212  32.784  30.349  1.00  0.00     0.031 C 
ATOM     60  C   UNL A   1      44.228  32.138  29.059  1.00  0.00     0.034 A 
BRANCH  47  61
ATOM     61  C   UNL A   1      46.878  27.408  26.093  1.00  0.00     0.023 A 
ATOM     62  C   UNL A   1      47.053  27.630  24.712  1.00  0.00     0.012 A 
ATOM     63  C   UNL A   1      47.876  26.725  26.815  1.00  0.00     0.148 A 
ATOM     64  C   UNL A   1      48.187  27.153  24.055  1.00  0.00     0.002 A 
ATOM     65  C   UNL A   1      49.025  26.294  26.164  1.00  0.00     0.091 A 
ATOM     66  F   UNL A   1      47.679  26.503  28.123  1.00  0.00    -0.205 F 
ATOM     67  C   UNL A   1      49.176  26.496  24.782  1.00  0.00     0.022 A 
BRANCH  65  68
ATOM     68  S   UNL A   1      50.391  25.509  27.027  1.00  0.00     0.127 S 
ATOM     69  O   UNL A   1      51.319  25.245  25.928  1.00  0.00    -0.237 OA
ATOM     70  O   UNL A   1      50.819  26.564  27.946  1.00  0.00    -0.237 OA
ATOM     71  O   UNL A   1      49.835  24.329  27.672  1.00  0.00    -0.744 OA
ENDBRANCH  65  68
ENDBRANCH  47  61
BRANCH  48  72
ATOM     72  C   UNL A   1      38.736  30.482  31.024  1.00  0.00     0.023 A 
ATOM     73  C   UNL A   1      38.679  30.259  32.413  1.00  0.00     0.012 A 
ATOM     74  C   UNL A   1      37.667  31.148  30.392  1.00  0.00     0.148 A 
ATOM     75  C   UNL A   1      37.566  30.660  33.154  1.00  0.00     0.002 A 
ATOM     76  C   UNL A   1      36.588  31.596  31.144  1.00  0.00     0.091 A 
ATOM     77  F   UNL A   1      37.734  31.340  29.067  1.00  0.00    -0.205 F 
ATOM     78  C   UNL A   1      36.527  31.337  32.521  1.00  0.00     0.022 A 
BRANCH  76  79
ATOM     79  S   UNL A   1      35.268  32.588  30.437  1.00  0.00     0.127 S 
ATOM     80  O   UNL A   1      34.325  32.667  31.551  1.00  0.00    -0.237 OA
ATOM     81  O   UNL A   1      35.964  33.838  30.128  1.00  0.00    -0.237 OA
ATOM     82  O   UNL A   1      34.805  31.854  29.269  1.00  0.00    -0.744 OA
ENDBRANCH  76  79
ENDBRANCH  48  72
BRANCH  60  83
ATOM     83  C   UNL A   1      44.799  33.507  29.325  1.00  0.00     0.023 A 
ATOM     84  C   UNL A   1      45.478  33.765  30.531  1.00  0.00     0.012 A 
ATOM     85  C   UNL A   1      44.727  34.514  28.342  1.00  0.00     0.148 A 
ATOM     86  C   UNL A   1      46.045  35.016  30.771  1.00  0.00     0.002 A 
ATOM     87  C   UNL A   1      45.340  35.741  28.566  1.00  0.00     0.091 A 
ATOM     88  F   UNL A   1      44.062  34.254  27.207  1.00  0.00    -0.205 F 
ATOM     89  C   UNL A   1      45.988  35.998  29.785  1.00  0.00     0.022 A 
BRANCH  87  90
ATOM     90  S   UNL A   1      45.404  37.028  27.315  1.00  0.00     0.127 S 
ATOM     91  O   UNL A   1      45.976  36.308  26.177  1.00  0.00    -0.237 OA
ATOM     92  O   UNL A   1      43.993  37.384  27.165  1.00  0.00    -0.237 OA
ATOM     93  O   UNL A   1      46.239  38.085  27.867  1.00  0.00    -0.744 OA
ENDBRANCH  87  90
ENDBRANCH  60  83
ENDBRANCH  34  35
ENDBRANCH  27  29
ENDBRANCH  26  27
ENDBRANCH  25  26
ENDBRANCH   1  25
TORSDOF 18
ENDMDL
MODEL 3
REMARK VINA RESULT:     -11.8      5.509     10.667
REMARK SMILES C[C@@H](C(=O)OCCOCCOC(=O)c1ccc(-c2c3nc(c(-c4cccc(S(=O)(=O)[O-])c4F)c4ccc([nH]4)c(-c4cccc(S(=O)(=O)[O-])c4F)c4nc(c(-c5cccc(S(=O)(=O)[O-])c5F)c5ccc2[nH]5)C=C4)C=C3)cc1)c1ccc2c(c1)[nH]c1ccc(Cl)cc12
REMARK SMILES IDX 9 1 8 2 7 3 6 4 5 5 3 6 4 7 2 8 1 9 77 10 78 11 82 12 79 13
REMARK SMILES IDX 81 14 80 15 83 16 90 17 84 18 89 20 85 21 87 22 86 23 88 24
REMARK SMILES IDX 10 25 11 26 12 27 13 28 14 29 15 30 76 31 16 32 75 33 17 34
REMARK SMILES IDX 18 35 19 36 69 37 20 38 74 39 68 40 70 41 21 42 73 43 67 44
REMARK SMILES IDX 66 45 22 47 54 48 34 49 53 50 35 51 38 52 52 53 71 54 36 55
REMARK SMILES IDX 37 56 51 58 72 59 39 60 23 61 24 62 32 63 25 64 27 65 33 66
REMARK SMILES IDX 26 67 28 68 29 69 30 70 31 71 55 72 56 73 64 74 57 75 59 76
REMARK SMILES IDX 65 77 58 78 60 79 61 80 62 81 63 82 40 83 41 84 49 85 42 86
REMARK SMILES IDX 44 87 50 88 43 89 45 90 46 91 47 92 48 93
REMARK H PARENT 83 19 70 46 38 57
REMARK Flexibility Score: inf
ROOT
ATOM      1  C   UNL A   1      35.707  19.891  25.125  1.00  0.00     0.202 C 
ENDROOT
BRANCH   1   2
ATOM      2  O   UNL A   1      34.753  20.933  25.289  1.00  0.00    -0.374 OA
BRANCH   2   3
ATOM      3  C   UNL A   1      33.654  20.937  24.368  1.00  0.00     0.202 C 
BRANCH   3   4
ATOM      4  C   UNL A   1      33.644  22.055  23.315  1.00  0.00     0.261 C 
BRANCH   4   5
ATOM      5  O   UNL A   1      34.465  23.166  23.736  1.00  0.00    -0.463 OA
BRANCH   5   6
ATOM      6  C   UNL A   1      34.157  24.384  23.210  1.00  0.00     0.313 C 
ATOM      7  O   UNL A   1      33.861  24.571  22.034  1.00  0.00    -0.252 OA
BRANCH   6   8
ATOM      8  C   UNL A   1      34.171  25.509  24.260  1.00  0.00     0.126 C 
ATOM      9  C   UNL A   1      34.026  25.034  25.712  1.00  0.00     0.025 C 
BRANCH   8  10
ATOM     10  C   UNL A   1      33.144  26.586  23.896  1.00  0.00    -0.032 A 
ATOM     11  C   UNL A   1      33.539  27.741  23.208  1.00  0.00     0.005 A 
ATOM     12  C   UNL A   1      31.779  26.393  24.161  1.00  0.00     0.031 A 
ATOM     13  C   UNL A   1      32.597  28.680  22.748  1.00  0.00     0.011 A 
ATOM     14  C   UNL A   1      30.852  27.309  23.657  1.00  0.00     0.047 A 
ATOM     15  C   UNL A   1      31.220  28.450  22.954  1.00  0.00     0.007 A 
ATOM     16  N   UNL A   1      29.481  27.285  23.720  1.00  0.00    -0.355 N 
ATOM     17  C   UNL A   1      30.009  29.143  22.615  1.00  0.00     0.009 A 
ATOM     18  C   UNL A   1      28.945  28.405  23.138  1.00  0.00     0.047 A 
ATOM     19  H   UNL A   1      28.954  26.562  24.130  1.00  0.00     0.167 HD
ATOM     20  C   UNL A   1      29.716  30.335  21.921  1.00  0.00     0.031 A 
ATOM     21  C   UNL A   1      27.609  28.807  23.040  1.00  0.00     0.028 A 
ATOM     22  C   UNL A   1      28.383  30.750  21.816  1.00  0.00     0.041 A 
ATOM     23  C   UNL A   1      27.346  30.006  22.376  1.00  0.00     0.022 A 
ATOM     24  Cl  UNL A   1      28.014  32.214  20.985  1.00  0.00    -0.084 Cl
ENDBRANCH   8  10
ENDBRANCH   6   8
ENDBRANCH   5   6
ENDBRANCH   4   5
ENDBRANCH   3   4
ENDBRANCH   2   3
ENDBRANCH   1   2
BRANCH   1  25
ATOM     25  C   UNL A   1      37.110  20.285  24.641  1.00  0.00     0.261 C 
BRANCH  25  26
ATOM     26  O   UNL A   1      37.633  21.423  25.331  1.00  0.00    -0.460 OA
BRANCH  26  27
ATOM     27  C   UNL A   1      38.855  21.211  25.874  1.00  0.00     0.338 C 
ATOM     28  O   UNL A   1      39.550  20.209  25.759  1.00  0.00    -0.246 OA
BRANCH  27  29
ATOM     29  C   UNL A   1      39.342  22.446  26.505  1.00  0.00     0.060 A 
ATOM     30  C   UNL A   1      38.705  23.639  26.144  1.00  0.00     0.016 A 
ATOM     31  C   UNL A   1      40.425  22.450  27.386  1.00  0.00     0.016 A 
ATOM     32  C   UNL A   1      39.190  24.853  26.615  1.00  0.00     0.010 A 
ATOM     33  C   UNL A   1      40.914  23.671  27.855  1.00  0.00     0.010 A 
ATOM     34  C   UNL A   1      40.325  24.879  27.436  1.00  0.00    -0.014 A 
BRANCH  34  35
ATOM     35  C   UNL A   1      40.976  26.177  27.727  1.00  0.00     0.031 A 
ATOM     36  C   UNL A   1      42.384  26.405  27.252  1.00  0.00     0.074 A 
ATOM     37  C   UNL A   1      40.311  27.143  28.382  1.00  0.00     0.049 A 
ATOM     38  N   UNL A   1      43.144  27.459  27.393  1.00  0.00    -0.248 NA
ATOM     39  C   UNL A   1      43.022  25.296  26.521  1.00  0.00     0.031 C 
ATOM     40  C   UNL A   1      38.940  27.037  28.879  1.00  0.00     0.029 A 
ATOM     41  N   UNL A   1      40.710  28.400  28.757  1.00  0.00    -0.354 N 
ATOM     42  C   UNL A   1      44.358  27.131  26.801  1.00  0.00     0.074 A 
ATOM     43  C   UNL A   1      44.239  25.778  26.307  1.00  0.00     0.031 C 
ATOM     44  C   UNL A   1      38.617  28.177  29.513  1.00  0.00     0.029 A 
ATOM     45  C   UNL A   1      39.767  29.079  29.492  1.00  0.00     0.049 A 
ATOM     46  H   UNL A   1      41.588  28.780  28.524  1.00  0.00     0.167 HD
ATOM     47  C   UNL A   1      45.467  27.896  26.671  1.00  0.00     0.034 A 
ATOM     48  C   UNL A   1      39.834  30.283  30.092  1.00  0.00     0.034 A 
ATOM     49  C   UNL A   1      45.572  29.249  27.145  1.00  0.00     0.049 A 
ATOM     50  C   UNL A   1      41.090  31.103  29.953  1.00  0.00     0.074 A 
ATOM     51  C   UNL A   1      46.632  30.127  27.013  1.00  0.00     0.029 A 
ATOM     52  N   UNL A   1      44.587  29.914  27.859  1.00  0.00    -0.354 N 
ATOM     53  N   UNL A   1      42.186  30.827  29.288  1.00  0.00    -0.248 NA
ATOM     54  C   UNL A   1      41.107  32.413  30.618  1.00  0.00     0.031 C 
ATOM     55  C   UNL A   1      46.303  31.311  27.680  1.00  0.00     0.029 A 
ATOM     56  C   UNL A   1      45.021  31.185  28.191  1.00  0.00     0.049 A 
ATOM     57  H   UNL A   1      43.707  29.538  28.094  1.00  0.00     0.167 HD
ATOM     58  C   UNL A   1      43.007  31.943  29.423  1.00  0.00     0.074 A 
ATOM     59  C   UNL A   1      42.271  32.905  30.218  1.00  0.00     0.031 C 
ATOM     60  C   UNL A   1      44.257  32.151  28.941  1.00  0.00     0.034 A 
BRANCH  47  61
ATOM     61  C   UNL A   1      46.660  27.289  25.978  1.00  0.00     0.023 A 
ATOM     62  C   UNL A   1      47.404  26.275  26.616  1.00  0.00     0.012 A 
ATOM     63  C   UNL A   1      47.010  27.685  24.673  1.00  0.00     0.148 A 
ATOM     64  C   UNL A   1      48.496  25.690  25.978  1.00  0.00     0.002 A 
ATOM     65  C   UNL A   1      48.071  27.065  24.026  1.00  0.00     0.091 A 
ATOM     66  F   UNL A   1      46.305  28.668  24.093  1.00  0.00    -0.205 F 
ATOM     67  C   UNL A   1      48.823  26.076  24.681  1.00  0.00     0.022 A 
BRANCH  65  68
ATOM     68  S   UNL A   1      48.520  27.437  22.326  1.00  0.00     0.127 S 
ATOM     69  O   UNL A   1      48.646  26.096  21.756  1.00  0.00    -0.237 OA
ATOM     70  O   UNL A   1      47.355  28.191  21.860  1.00  0.00    -0.237 OA
ATOM     71  O   UNL A   1      49.754  28.205  22.394  1.00  0.00    -0.744 OA
ENDBRANCH  65  68
ENDBRANCH  47  61
BRANCH  48  72
ATOM     72  C   UNL A   1      38.665  30.801  30.857  1.00  0.00     0.023 A 
ATOM     73  C   UNL A   1      38.647  30.693  32.261  1.00  0.00     0.012 A 
ATOM     74  C   UNL A   1      37.579  31.415  30.202  1.00  0.00     0.148 A 
ATOM     75  C   UNL A   1      37.554  31.155  32.996  1.00  0.00     0.002 A 
ATOM     76  C   UNL A   1      36.521  31.925  30.944  1.00  0.00     0.091 A 
ATOM     77  F   UNL A   1      37.609  31.496  28.865  1.00  0.00    -0.205 F 
ATOM     78  C   UNL A   1      36.498  31.780  32.339  1.00  0.00     0.022 A 
BRANCH  76  79
ATOM     79  S   UNL A   1      35.181  32.856  30.195  1.00  0.00     0.127 S 
ATOM     80  O   UNL A   1      35.897  33.979  29.593  1.00  0.00    -0.237 OA
ATOM     81  O   UNL A   1      34.639  31.888  29.241  1.00  0.00    -0.237 OA
ATOM     82  O   UNL A   1      34.277  33.195  31.286  1.00  0.00    -0.744 OA
ENDBRANCH  76  79
ENDBRANCH  48  72
BRANCH  60  83
ATOM     83  C   UNL A   1      44.903  33.484  29.217  1.00  0.00     0.023 A 
ATOM     84  C   UNL A   1      45.679  33.665  30.378  1.00  0.00     0.012 A 
ATOM     85  C   UNL A   1      44.800  34.534  28.283  1.00  0.00     0.148 A 
ATOM     86  C   UNL A   1      46.314  34.882  30.623  1.00  0.00     0.002 A 
ATOM     87  C   UNL A   1      45.479  35.726  28.508  1.00  0.00     0.091 A 
ATOM     88  F   UNL A   1      44.043  34.348  27.192  1.00  0.00    -0.205 F 
ATOM     89  C   UNL A   1      46.224  35.907  29.684  1.00  0.00     0.022 A 
BRANCH  87  90
ATOM     90  S   UNL A   1      45.503  37.062  27.308  1.00  0.00     0.127 S 
ATOM     91  O   UNL A   1      46.288  38.077  28.008  1.00  0.00    -0.237 OA
ATOM     92  O   UNL A   1      46.183  36.442  26.170  1.00  0.00    -0.237 OA
ATOM     93  O   UNL A   1      44.110  37.409  27.063  1.00  0.00    -0.744 OA
ENDBRANCH  87  90
ENDBRANCH  60  83
ENDBRANCH  34  35
ENDBRANCH  27  29
ENDBRANCH  26  27
ENDBRANCH  25  26
ENDBRANCH   1  25
TORSDOF 18
ENDMDL
