MODEL 1
REMARK VINA RESULT:     -10.1      0.000      0.000
REMARK SMILES C=CCN1C(=O)/C(=C/c2ccc(OCc3cccc(C(=O)OCCOCCOC(=O)c4ccc(-c5c6nc(c(-c7cccc(S(=O)(=O)[O-])c7F)c7ccc([nH]7)c(-c7cccc(S(=O)(=O)[O-])c7F)c7nc(c(-c8cccc(S(=O)(=O)[O-])c8F)c8ccc5[nH]8)C=C7)C=C6)cc4)c3)cc2)C(=O)NC1=S
REMARK SMILES IDX 23 1 22 2 20 3 21 4 19 5 15 6 16 7 94 8 17 9 18 10 14 11
REMARK SMILES IDX 13 12 12 13 9 14 10 15 96 16 11 17 95 18 8 19 4 20 5 21
REMARK SMILES IDX 100 22 6 23 7 24 99 25 101 26 97 27 98 29 3 30 2 31 1 32
REMARK SMILES IDX 24 33 25 34 26 35 27 36 28 37 29 38 30 39 31 40 32 41 93 42
REMARK SMILES IDX 33 43 92 44 34 45 35 46 36 47 86 48 37 49 91 50 85 51 87 52
REMARK SMILES IDX 38 53 90 54 84 55 83 56 39 58 71 59 51 60 70 61 52 62 55 63
REMARK SMILES IDX 69 64 88 65 53 66 54 67 68 69 89 70 56 71 40 72 41 73 49 74
REMARK SMILES IDX 42 75 44 76 50 77 43 78 45 79 46 80 47 81 48 82 72 83 73 84
REMARK SMILES IDX 81 85 74 86 76 87 82 88 75 89 77 90 78 91 79 92 80 93 57 94
REMARK SMILES IDX 58 95 66 96 59 97 61 98 67 99 60 100 62 101 63 102 64 103
REMARK SMILES IDX 65 104
REMARK H PARENT 99 28 87 57 55 68
REMARK Flexibility Score: inf
ROOT
ATOM      1  C   UNL A   1      42.787  18.904  26.202  1.00  0.00     0.261 C 
ENDROOT
BRANCH   1   2
ATOM      2  O   UNL A   1      42.046  20.076  26.569  1.00  0.00    -0.460 OA
BRANCH   2   3
ATOM      3  C   UNL A   1      40.748  20.103  26.173  1.00  0.00     0.338 C 
ATOM      4  O   UNL A   1      40.092  19.154  25.764  1.00  0.00    -0.246 OA
BRANCH   3   5
ATOM      5  C   UNL A   1      40.152  21.433  26.474  1.00  0.00     0.060 A 
ATOM      6  C   UNL A   1      40.230  23.633  27.529  1.00  0.00    -0.010 A 
ATOM      7  C   UNL A   1      39.015  23.953  26.907  1.00  0.00     0.007 A 
ATOM      8  C   UNL A   1      40.758  22.343  27.345  1.00  0.00     0.023 A 
ATOM      9  C   UNL A   1      38.358  23.015  26.106  1.00  0.00     0.001 A 
ATOM     10  C   UNL A   1      38.935  21.766  25.873  1.00  0.00     0.016 A 
BRANCH   6  11
ATOM     11  C   UNL A   1      41.010  24.680  28.301  1.00  0.00     0.265 C 
BRANCH  11  12
ATOM     12  O   UNL A   1      40.722  26.024  27.878  1.00  0.00    -0.489 OA
BRANCH  12  13
ATOM     13  C   UNL A   1      40.395  26.928  28.856  1.00  0.00     0.119 A 
ATOM     14  C   UNL A   1      39.418  28.853  30.638  1.00  0.00    -0.024 A 
ATOM     15  C   UNL A   1      38.639  27.738  30.310  1.00  0.00     0.012 A 
ATOM     16  C   UNL A   1      40.720  28.949  30.153  1.00  0.00     0.012 A 
ATOM     17  C   UNL A   1      39.127  26.780  29.417  1.00  0.00     0.047 A 
ATOM     18  C   UNL A   1      41.218  27.966  29.296  1.00  0.00     0.047 A 
BRANCH  14  19
ATOM     19  C   UNL A   1      38.854  29.903  31.481  1.00  0.00     0.027 C 
ATOM     20  N   UNL A   1      36.223  32.264  31.703  1.00  0.00    -0.281 N 
ATOM     21  C   UNL A   1      37.452  31.736  32.098  1.00  0.00     0.265 C 
ATOM     22  C   UNL A   1      35.921  32.558  30.381  1.00  0.00     0.183 C 
ATOM     23  O   UNL A   1      37.904  31.839  33.235  1.00  0.00    -0.268 OA
ATOM     24  C   UNL A   1      38.153  30.968  31.045  1.00  0.00     0.106 C 
ATOM     25  N   UNL A   1      36.826  32.136  29.441  1.00  0.00    -0.298 N 
ATOM     26  S   UNL A   1      34.565  33.367  29.812  1.00  0.00    -0.040 S 
ATOM     27  C   UNL A   1      37.909  31.318  29.632  1.00  0.00     0.263 C 
ATOM     28  H   UNL A   1      36.681  32.459  28.522  1.00  0.00     0.172 HD
ATOM     29  O   UNL A   1      38.575  30.933  28.681  1.00  0.00    -0.269 OA
BRANCH  20  30
ATOM     30  C   UNL A   1      35.270  32.460  32.797  1.00  0.00     0.155 C 
BRANCH  30  31
ATOM     31  C   UNL A   1      35.464  33.876  33.287  1.00  0.00    -0.013 C 
ATOM     32  C   UNL A   1      35.541  34.230  34.577  1.00  0.00     0.006 C 
ENDBRANCH  30  31
ENDBRANCH  20  30
ENDBRANCH  14  19
ENDBRANCH  12  13
ENDBRANCH  11  12
ENDBRANCH   6  11
ENDBRANCH   3   5
ENDBRANCH   2   3
ENDBRANCH   1   2
BRANCH   1  33
ATOM     33  C   UNL A   1      43.726  19.186  25.023  1.00  0.00     0.202 C 
BRANCH  33  34
ATOM     34  O   UNL A   1      45.002  18.543  25.045  1.00  0.00    -0.374 OA
BRANCH  34  35
ATOM     35  C   UNL A   1      46.156  19.384  25.088  1.00  0.00     0.202 C 
BRANCH  35  36
ATOM     36  C   UNL A   1      46.007  20.810  24.544  1.00  0.00     0.261 C 
BRANCH  36  37
ATOM     37  O   UNL A   1      46.473  21.808  25.466  1.00  0.00    -0.460 OA
BRANCH  37  38
ATOM     38  C   UNL A   1      46.262  23.082  25.066  1.00  0.00     0.338 C 
ATOM     39  O   UNL A   1      46.211  23.497  23.912  1.00  0.00    -0.246 OA
BRANCH  38  40
ATOM     40  C   UNL A   1      45.924  23.928  26.222  1.00  0.00     0.060 A 
ATOM     41  C   UNL A   1      44.574  24.238  26.426  1.00  0.00     0.016 A 
ATOM     42  C   UNL A   1      46.910  24.468  27.051  1.00  0.00     0.016 A 
ATOM     43  C   UNL A   1      44.207  25.136  27.425  1.00  0.00     0.010 A 
ATOM     44  C   UNL A   1      46.540  25.372  28.051  1.00  0.00     0.010 A 
ATOM     45  C   UNL A   1      45.192  25.740  28.216  1.00  0.00    -0.014 A 
BRANCH  45  46
ATOM     46  C   UNL A   1      44.823  26.851  29.127  1.00  0.00     0.031 A 
ATOM     47  C   UNL A   1      44.840  28.262  28.605  1.00  0.00     0.074 A 
ATOM     48  C   UNL A   1      44.476  26.604  30.402  1.00  0.00     0.049 A 
ATOM     49  N   UNL A   1      44.583  29.379  29.233  1.00  0.00    -0.248 NA
ATOM     50  C   UNL A   1      45.200  28.437  27.188  1.00  0.00     0.031 C 
ATOM     51  C   UNL A   1      44.419  25.281  31.020  1.00  0.00     0.029 A 
ATOM     52  N   UNL A   1      44.130  27.466  31.413  1.00  0.00    -0.354 N 
ATOM     53  C   UNL A   1      44.780  30.392  28.301  1.00  0.00     0.074 A 
ATOM     54  C   UNL A   1      45.192  29.756  27.068  1.00  0.00     0.031 C 
ATOM     55  C   UNL A   1      44.084  25.419  32.314  1.00  0.00     0.029 A 
ATOM     56  C   UNL A   1      43.929  26.840  32.620  1.00  0.00     0.049 A 
ATOM     57  H   UNL A   1      44.033  28.437  31.285  1.00  0.00     0.167 HD
ATOM     58  C   UNL A   1      44.618  31.728  28.453  1.00  0.00     0.034 A 
ATOM     59  C   UNL A   1      43.674  27.358  33.838  1.00  0.00     0.034 A 
ATOM     60  C   UNL A   1      44.191  32.353  29.675  1.00  0.00     0.049 A 
ATOM     61  C   UNL A   1      43.525  28.850  33.988  1.00  0.00     0.074 A 
ATOM     62  C   UNL A   1      43.946  33.694  29.916  1.00  0.00     0.029 A 
ATOM     63  N   UNL A   1      43.960  31.686  30.868  1.00  0.00    -0.354 N 
ATOM     64  N   UNL A   1      43.597  29.784  33.071  1.00  0.00    -0.248 NA
ATOM     65  C   UNL A   1      43.224  29.356  35.335  1.00  0.00     0.031 C 
ATOM     66  C   UNL A   1      43.601  33.841  31.263  1.00  0.00     0.029 A 
ATOM     67  C   UNL A   1      43.592  32.587  31.853  1.00  0.00     0.049 A 
ATOM     68  H   UNL A   1      44.045  30.714  30.997  1.00  0.00     0.167 HD
ATOM     69  C   UNL A   1      43.315  30.981  33.721  1.00  0.00     0.074 A 
ATOM     70  C   UNL A   1      43.053  30.650  35.106  1.00  0.00     0.031 C 
ATOM     71  C   UNL A   1      43.286  32.241  33.219  1.00  0.00     0.034 A 
BRANCH  58  72
ATOM     72  C   UNL A   1      44.891  32.604  27.258  1.00  0.00     0.023 A 
ATOM     73  C   UNL A   1      43.929  32.711  26.233  1.00  0.00     0.012 A 
ATOM     74  C   UNL A   1      46.078  33.357  27.171  1.00  0.00     0.148 A 
ATOM     75  C   UNL A   1      44.160  33.523  25.124  1.00  0.00     0.002 A 
ATOM     76  C   UNL A   1      46.281  34.200  26.084  1.00  0.00     0.091 A 
ATOM     77  F   UNL A   1      46.992  33.225  28.143  1.00  0.00    -0.205 F 
ATOM     78  C   UNL A   1      45.330  34.274  25.054  1.00  0.00     0.022 A 
BRANCH  76  79
ATOM     79  S   UNL A   1      47.719  35.267  25.944  1.00  0.00     0.127 S 
ATOM     80  O   UNL A   1      48.378  34.720  24.759  1.00  0.00    -0.237 OA
ATOM     81  O   UNL A   1      47.109  36.582  25.749  1.00  0.00    -0.237 OA
ATOM     82  O   UNL A   1      48.453  35.119  27.193  1.00  0.00    -0.744 OA
ENDBRANCH  76  79
ENDBRANCH  58  72
BRANCH  59  83
ATOM     83  C   UNL A   1      43.514  26.452  35.010  1.00  0.00     0.023 A 
ATOM     84  C   UNL A   1      42.269  25.841  35.251  1.00  0.00     0.012 A 
ATOM     85  C   UNL A   1      44.594  26.178  35.870  1.00  0.00     0.148 A 
ATOM     86  C   UNL A   1      42.095  24.993  36.345  1.00  0.00     0.002 A 
ATOM     87  C   UNL A   1      44.429  25.290  36.927  1.00  0.00     0.091 A 
ATOM     88  F   UNL A   1      45.766  26.783  35.630  1.00  0.00    -0.205 F 
ATOM     89  C   UNL A   1      43.176  24.709  37.176  1.00  0.00     0.022 A 
BRANCH  87  90
ATOM     90  S   UNL A   1      45.794  24.771  37.972  1.00  0.00     0.127 S 
ATOM     91  O   UNL A   1      45.130  23.857  38.899  1.00  0.00    -0.237 OA
ATOM     92  O   UNL A   1      46.684  24.130  37.004  1.00  0.00    -0.237 OA
ATOM     93  O   UNL A   1      46.325  25.993  38.562  1.00  0.00    -0.744 OA
ENDBRANCH  87  90
ENDBRANCH  59  83
BRANCH  71  94
ATOM     94  C   UNL A   1      42.918  33.362  34.157  1.00  0.00     0.023 A 
ATOM     95  C   UNL A   1      43.926  34.163  34.729  1.00  0.00     0.012 A 
ATOM     96  C   UNL A   1      41.565  33.668  34.411  1.00  0.00     0.148 A 
ATOM     97  C   UNL A   1      43.595  35.228  35.566  1.00  0.00     0.002 A 
ATOM     98  C   UNL A   1      41.243  34.763  35.203  1.00  0.00     0.091 A 
ATOM     99  F   UNL A   1      40.621  32.885  33.871  1.00  0.00    -0.205 F 
ATOM    100  C   UNL A   1      42.256  35.536  35.793  1.00  0.00     0.022 A 
BRANCH  98 101
ATOM    101  S   UNL A   1      39.547  35.293  35.472  1.00  0.00     0.127 S 
ATOM    102  O   UNL A   1      39.143  34.446  36.593  1.00  0.00    -0.237 OA
ATOM    103  O   UNL A   1      39.714  36.708  35.805  1.00  0.00    -0.237 OA
ATOM    104  O   UNL A   1      38.846  35.047  34.219  1.00  0.00    -0.744 OA
ENDBRANCH  98 101
ENDBRANCH  71  94
ENDBRANCH  45  46
ENDBRANCH  38  40
ENDBRANCH  37  38
ENDBRANCH  36  37
ENDBRANCH  35  36
ENDBRANCH  34  35
ENDBRANCH  33  34
ENDBRANCH   1  33
TORSDOF 23
ENDMDL
MODEL 2
REMARK VINA RESULT:      -9.5      1.710      7.337
REMARK SMILES C=CCN1C(=O)/C(=C/c2ccc(OCc3cccc(C(=O)OCCOCCOC(=O)c4ccc(-c5c6nc(c(-c7cccc(S(=O)(=O)[O-])c7F)c7ccc([nH]7)c(-c7cccc(S(=O)(=O)[O-])c7F)c7nc(c(-c8cccc(S(=O)(=O)[O-])c8F)c8ccc5[nH]8)C=C7)C=C6)cc4)c3)cc2)C(=O)NC1=S
REMARK SMILES IDX 23 1 22 2 20 3 21 4 19 5 15 6 16 7 94 8 17 9 18 10 14 11
REMARK SMILES IDX 13 12 12 13 9 14 10 15 96 16 11 17 95 18 8 19 4 20 5 21
REMARK SMILES IDX 100 22 6 23 7 24 99 25 101 26 97 27 98 29 3 30 2 31 1 32
REMARK SMILES IDX 24 33 25 34 26 35 27 36 28 37 29 38 30 39 31 40 32 41 93 42
REMARK SMILES IDX 33 43 92 44 34 45 35 46 36 47 86 48 37 49 91 50 85 51 87 52
REMARK SMILES IDX 38 53 90 54 84 55 83 56 39 58 71 59 51 60 70 61 52 62 55 63
REMARK SMILES IDX 69 64 88 65 53 66 54 67 68 69 89 70 56 71 40 72 41 73 49 74
REMARK SMILES IDX 42 75 44 76 50 77 43 78 45 79 46 80 47 81 48 82 72 83 73 84
REMARK SMILES IDX 81 85 74 86 76 87 82 88 75 89 77 90 78 91 79 92 80 93 57 94
REMARK SMILES IDX 58 95 66 96 59 97 61 98 67 99 60 100 62 101 63 102 64 103
REMARK SMILES IDX 65 104
REMARK H PARENT 99 28 87 57 55 68
REMARK Flexibility Score: inf
ROOT
ATOM      1  C   UNL A   1      42.667  18.891  26.250  1.00  0.00     0.261 C 
ENDROOT
BRANCH   1   2
ATOM      2  O   UNL A   1      41.947  20.129  26.319  1.00  0.00    -0.460 OA
BRANCH   2   3
ATOM      3  C   UNL A   1      40.622  20.060  26.035  1.00  0.00     0.338 C 
ATOM      4  O   UNL A   1      39.992  19.051  25.745  1.00  0.00    -0.246 OA
BRANCH   3   5
ATOM      5  C   UNL A   1      39.975  21.373  26.301  1.00  0.00     0.060 A 
ATOM      6  C   UNL A   1      39.996  23.629  27.232  1.00  0.00    -0.010 A 
ATOM      7  C   UNL A   1      38.733  23.853  26.668  1.00  0.00     0.007 A 
ATOM      8  C   UNL A   1      40.581  22.359  27.085  1.00  0.00     0.023 A 
ATOM      9  C   UNL A   1      38.081  22.840  25.960  1.00  0.00     0.001 A 
ATOM     10  C   UNL A   1      38.709  21.611  25.758  1.00  0.00     0.016 A 
BRANCH   6  11
ATOM     11  C   UNL A   1      40.763  24.755  27.900  1.00  0.00     0.265 C 
BRANCH  11  12
ATOM     12  O   UNL A   1      40.155  26.044  27.707  1.00  0.00    -0.489 OA
BRANCH  12  13
ATOM     13  C   UNL A   1      40.003  26.834  28.817  1.00  0.00     0.119 A 
ATOM     14  C   UNL A   1      39.904  28.182  31.268  1.00  0.00    -0.024 A 
ATOM     15  C   UNL A   1      41.136  27.904  30.668  1.00  0.00     0.012 A 
ATOM     16  C   UNL A   1      38.725  27.876  30.593  1.00  0.00     0.012 A 
ATOM     17  C   UNL A   1      41.184  27.227  29.446  1.00  0.00     0.047 A 
ATOM     18  C   UNL A   1      38.779  27.239  29.351  1.00  0.00     0.047 A 
BRANCH  14  19
ATOM     19  C   UNL A   1      39.869  28.787  32.597  1.00  0.00     0.027 C 
ATOM     20  N   UNL A   1      38.747  31.619  34.402  1.00  0.00    -0.281 N 
ATOM     21  C   UNL A   1      39.516  30.465  34.259  1.00  0.00     0.265 C 
ATOM     22  C   UNL A   1      38.737  32.638  33.461  1.00  0.00     0.183 C 
ATOM     23  O   UNL A   1      39.868  29.759  35.200  1.00  0.00    -0.268 OA
ATOM     24  C   UNL A   1      39.825  30.108  32.856  1.00  0.00     0.106 C 
ATOM     25  N   UNL A   1      39.385  32.382  32.279  1.00  0.00    -0.298 N 
ATOM     26  S   UNL A   1      38.010  34.144  33.610  1.00  0.00    -0.040 S 
ATOM     27  C   UNL A   1      39.901  31.187  31.851  1.00  0.00     0.263 C 
ATOM     28  H   UNL A   1      39.493  33.146  31.668  1.00  0.00     0.172 HD
ATOM     29  O   UNL A   1      40.362  31.074  30.724  1.00  0.00    -0.269 OA
BRANCH  20  30
ATOM     30  C   UNL A   1      37.933  31.656  35.619  1.00  0.00     0.155 C 
BRANCH  30  31
ATOM     31  C   UNL A   1      38.705  32.471  36.629  1.00  0.00    -0.013 C 
ATOM     32  C   UNL A   1      40.034  32.649  36.606  1.00  0.00     0.006 C 
ENDBRANCH  30  31
ENDBRANCH  20  30
ENDBRANCH  14  19
ENDBRANCH  12  13
ENDBRANCH  11  12
ENDBRANCH   6  11
ENDBRANCH   3   5
ENDBRANCH   2   3
ENDBRANCH   1   2
BRANCH   1  33
ATOM     33  C   UNL A   1      43.694  18.907  25.112  1.00  0.00     0.202 C 
BRANCH  33  34
ATOM     34  O   UNL A   1      44.973  18.331  25.387  1.00  0.00    -0.374 OA
BRANCH  34  35
ATOM     35  C   UNL A   1      46.104  19.201  25.343  1.00  0.00     0.202 C 
BRANCH  35  36
ATOM     36  C   UNL A   1      45.905  20.583  24.707  1.00  0.00     0.261 C 
BRANCH  36  37
ATOM     37  O   UNL A   1      46.341  21.655  25.558  1.00  0.00    -0.460 OA
BRANCH  37  38
ATOM     38  C   UNL A   1      46.088  22.892  25.074  1.00  0.00     0.338 C 
ATOM     39  O   UNL A   1      45.947  23.212  23.898  1.00  0.00    -0.246 OA
BRANCH  38  40
ATOM     40  C   UNL A   1      45.829  23.826  26.182  1.00  0.00     0.060 A 
ATOM     41  C   UNL A   1      44.515  24.277  26.355  1.00  0.00     0.016 A 
ATOM     42  C   UNL A   1      46.859  24.311  26.991  1.00  0.00     0.016 A 
ATOM     43  C   UNL A   1      44.232  25.258  27.302  1.00  0.00     0.010 A 
ATOM     44  C   UNL A   1      46.573  25.298  27.938  1.00  0.00     0.010 A 
ATOM     45  C   UNL A   1      45.267  25.804  28.070  1.00  0.00    -0.014 A 
BRANCH  45  46
ATOM     46  C   UNL A   1      45.004  26.992  28.918  1.00  0.00     0.031 A 
ATOM     47  C   UNL A   1      44.602  26.793  30.354  1.00  0.00     0.074 A 
ATOM     48  C   UNL A   1      45.125  28.233  28.414  1.00  0.00     0.049 A 
ATOM     49  N   UNL A   1      44.299  27.686  31.259  1.00  0.00    -0.248 NA
ATOM     50  C   UNL A   1      44.527  25.402  30.831  1.00  0.00     0.031 C 
ATOM     51  C   UNL A   1      45.512  28.551  27.041  1.00  0.00     0.029 A 
ATOM     52  N   UNL A   1      44.909  29.456  28.999  1.00  0.00    -0.354 N 
ATOM     53  C   UNL A   1      43.965  26.968  32.402  1.00  0.00     0.074 A 
ATOM     54  C   UNL A   1      44.091  25.565  32.072  1.00  0.00     0.031 C 
ATOM     55  C   UNL A   1      45.481  29.886  26.879  1.00  0.00     0.029 A 
ATOM     56  C   UNL A   1      45.047  30.510  28.127  1.00  0.00     0.049 A 
ATOM     57  H   UNL A   1      44.679  29.567  29.949  1.00  0.00     0.167 HD
ATOM     58  C   UNL A   1      43.603  27.434  33.621  1.00  0.00     0.034 A 
ATOM     59  C   UNL A   1      44.824  31.827  28.311  1.00  0.00     0.034 A 
ATOM     60  C   UNL A   1      43.497  28.830  33.951  1.00  0.00     0.049 A 
ATOM     61  C   UNL A   1      44.396  32.319  29.669  1.00  0.00     0.074 A 
ATOM     62  C   UNL A   1      43.189  29.405  35.172  1.00  0.00     0.029 A 
ATOM     63  N   UNL A   1      43.681  29.872  33.055  1.00  0.00    -0.354 N 
ATOM     64  N   UNL A   1      44.200  31.637  30.771  1.00  0.00    -0.248 NA
ATOM     65  C   UNL A   1      44.191  33.767  29.816  1.00  0.00     0.031 C 
ATOM     66  C   UNL A   1      43.152  30.794  35.004  1.00  0.00     0.029 A 
ATOM     67  C   UNL A   1      43.476  31.086  33.689  1.00  0.00     0.049 A 
ATOM     68  H   UNL A   1      43.921  29.765  32.106  1.00  0.00     0.167 HD
ATOM     69  C   UNL A   1      43.886  32.575  31.750  1.00  0.00     0.074 A 
ATOM     70  C   UNL A   1      43.936  33.874  31.112  1.00  0.00     0.031 C 
ATOM     71  C   UNL A   1      43.575  32.377  33.056  1.00  0.00     0.034 A 
BRANCH  58  72
ATOM     72  C   UNL A   1      43.308  26.421  34.697  1.00  0.00     0.023 A 
ATOM     73  C   UNL A   1      41.977  26.025  34.941  1.00  0.00     0.012 A 
ATOM     74  C   UNL A   1      44.351  25.828  35.435  1.00  0.00     0.148 A 
ATOM     75  C   UNL A   1      41.685  25.083  35.926  1.00  0.00     0.002 A 
ATOM     76  C   UNL A   1      44.056  24.855  36.384  1.00  0.00     0.091 A 
ATOM     77  F   UNL A   1      45.608  26.234  35.206  1.00  0.00    -0.205 F 
ATOM     78  C   UNL A   1      42.724  24.492  36.640  1.00  0.00     0.022 A 
BRANCH  76  79
ATOM     79  S   UNL A   1      45.330  23.980  37.298  1.00  0.00     0.127 S 
ATOM     80  O   UNL A   1      45.316  22.671  36.645  1.00  0.00    -0.237 OA
ATOM     81  O   UNL A   1      46.518  24.787  37.020  1.00  0.00    -0.237 OA
ATOM     82  O   UNL A   1      44.904  23.988  38.690  1.00  0.00    -0.744 OA
ENDBRANCH  76  79
ENDBRANCH  58  72
BRANCH  59  83
ATOM     83  C   UNL A   1      45.033  32.777  27.183  1.00  0.00     0.023 A 
ATOM     84  C   UNL A   1      44.013  32.963  26.232  1.00  0.00     0.012 A 
ATOM     85  C   UNL A   1      46.228  33.511  27.063  1.00  0.00     0.148 A 
ATOM     86  C   UNL A   1      44.189  33.844  25.164  1.00  0.00     0.002 A 
ATOM     87  C   UNL A   1      46.377  34.428  26.028  1.00  0.00     0.091 A 
ATOM     88  F   UNL A   1      47.193  33.308  27.972  1.00  0.00    -0.205 F 
ATOM     89  C   UNL A   1      45.365  34.583  25.069  1.00  0.00     0.022 A 
BRANCH  87  90
ATOM     90  S   UNL A   1      47.804  35.511  25.897  1.00  0.00     0.127 S 
ATOM     91  O   UNL A   1      47.190  36.760  25.453  1.00  0.00    -0.237 OA
ATOM     92  O   UNL A   1      48.298  35.521  27.275  1.00  0.00    -0.237 OA
ATOM     93  O   UNL A   1      48.698  34.871  24.942  1.00  0.00    -0.744 OA
ENDBRANCH  87  90
ENDBRANCH  59  83
BRANCH  71  94
ATOM     94  C   UNL A   1      43.302  33.593  33.904  1.00  0.00     0.023 A 
ATOM     95  C   UNL A   1      42.019  34.175  33.912  1.00  0.00     0.012 A 
ATOM     96  C   UNL A   1      44.301  34.112  34.754  1.00  0.00     0.148 A 
ATOM     97  C   UNL A   1      41.744  35.274  34.723  1.00  0.00     0.002 A 
ATOM     98  C   UNL A   1      44.004  35.175  35.598  1.00  0.00     0.091 A 
ATOM     99  F   UNL A   1      45.520  33.556  34.721  1.00  0.00    -0.205 F 
ATOM    100  C   UNL A   1      42.731  35.767  35.574  1.00  0.00     0.022 A 
BRANCH  98 101
ATOM    101  S   UNL A   1      45.181  35.812  36.797  1.00  0.00     0.127 S 
ATOM    102  O   UNL A   1      44.605  37.118  37.116  1.00  0.00    -0.237 OA
ATOM    103  O   UNL A   1      45.091  34.825  37.874  1.00  0.00    -0.237 OA
ATOM    104  O   UNL A   1      46.469  35.847  36.117  1.00  0.00    -0.744 OA
ENDBRANCH  98 101
ENDBRANCH  71  94
ENDBRANCH  45  46
ENDBRANCH  38  40
ENDBRANCH  37  38
ENDBRANCH  36  37
ENDBRANCH  35  36
ENDBRANCH  34  35
ENDBRANCH  33  34
ENDBRANCH   1  33
TORSDOF 23
ENDMDL
MODEL 3
REMARK VINA RESULT:      -9.3      4.192      6.845
REMARK SMILES C=CCN1C(=O)/C(=C/c2ccc(OCc3cccc(C(=O)OCCOCCOC(=O)c4ccc(-c5c6nc(c(-c7cccc(S(=O)(=O)[O-])c7F)c7ccc([nH]7)c(-c7cccc(S(=O)(=O)[O-])c7F)c7nc(c(-c8cccc(S(=O)(=O)[O-])c8F)c8ccc5[nH]8)C=C7)C=C6)cc4)c3)cc2)C(=O)NC1=S
REMARK SMILES IDX 23 1 22 2 20 3 21 4 19 5 15 6 16 7 94 8 17 9 18 10 14 11
REMARK SMILES IDX 13 12 12 13 9 14 10 15 96 16 11 17 95 18 8 19 4 20 5 21
REMARK SMILES IDX 100 22 6 23 7 24 99 25 101 26 97 27 98 29 3 30 2 31 1 32
REMARK SMILES IDX 24 33 25 34 26 35 27 36 28 37 29 38 30 39 31 40 32 41 93 42
REMARK SMILES IDX 33 43 92 44 34 45 35 46 36 47 86 48 37 49 91 50 85 51 87 52
REMARK SMILES IDX 38 53 90 54 84 55 83 56 39 58 71 59 51 60 70 61 52 62 55 63
REMARK SMILES IDX 69 64 88 65 53 66 54 67 68 69 89 70 56 71 40 72 41 73 49 74
REMARK SMILES IDX 42 75 44 76 50 77 43 78 45 79 46 80 47 81 48 82 72 83 73 84
REMARK SMILES IDX 81 85 74 86 76 87 82 88 75 89 77 90 78 91 79 92 80 93 57 94
REMARK SMILES IDX 58 95 66 96 59 97 61 98 67 99 60 100 62 101 63 102 64 103
REMARK SMILES IDX 65 104
REMARK H PARENT 99 28 87 57 55 68
REMARK Flexibility Score: inf
ROOT
ATOM      1  C   UNL A   1      42.787  19.098  25.875  1.00  0.00     0.261 C 
ENDROOT
BRANCH   1   2
ATOM      2  O   UNL A   1      42.257  20.421  25.708  1.00  0.00    -0.460 OA
BRANCH   2   3
ATOM      3  C   UNL A   1      41.883  21.056  26.848  1.00  0.00     0.338 C 
ATOM      4  O   UNL A   1      42.487  21.058  27.912  1.00  0.00    -0.246 OA
BRANCH   3   5
ATOM      5  C   UNL A   1      40.702  21.921  26.583  1.00  0.00     0.060 A 
ATOM      6  C   UNL A   1      38.354  22.231  25.992  1.00  0.00    -0.010 A 
ATOM      7  C   UNL A   1      38.500  23.608  26.207  1.00  0.00     0.007 A 
ATOM      8  C   UNL A   1      39.483  21.406  26.131  1.00  0.00     0.023 A 
ATOM      9  C   UNL A   1      39.739  24.142  26.571  1.00  0.00     0.001 A 
ATOM     10  C   UNL A   1      40.831  23.299  26.780  1.00  0.00     0.016 A 
BRANCH   6  11
ATOM     11  C   UNL A   1      36.990  21.626  25.714  1.00  0.00     0.265 C 
BRANCH  11  12
ATOM     12  O   UNL A   1      36.554  21.817  24.357  1.00  0.00    -0.489 OA
BRANCH  12  13
ATOM     13  C   UNL A   1      35.336  22.418  24.173  1.00  0.00     0.119 A 
ATOM     14  C   UNL A   1      33.013  23.964  23.939  1.00  0.00    -0.024 A 
ATOM     15  C   UNL A   1      34.186  24.353  23.283  1.00  0.00     0.012 A 
ATOM     16  C   UNL A   1      32.979  22.752  24.625  1.00  0.00     0.012 A 
ATOM     17  C   UNL A   1      35.346  23.582  23.404  1.00  0.00     0.047 A 
ATOM     18  C   UNL A   1      34.128  21.964  24.706  1.00  0.00     0.047 A 
BRANCH  14  19
ATOM     19  C   UNL A   1      31.842  24.835  23.899  1.00  0.00     0.027 C 
ATOM     20  N   UNL A   1      30.735  28.140  24.528  1.00  0.00    -0.281 N 
ATOM     21  C   UNL A   1      30.517  26.785  24.281  1.00  0.00     0.265 C 
ATOM     22  C   UNL A   1      31.581  28.595  25.528  1.00  0.00     0.183 C 
ATOM     23  O   UNL A   1      29.517  26.347  23.718  1.00  0.00    -0.268 OA
ATOM     24  C   UNL A   1      31.631  25.902  24.694  1.00  0.00     0.106 C 
ATOM     25  N   UNL A   1      32.346  27.646  26.159  1.00  0.00    -0.298 N 
ATOM     26  S   UNL A   1      31.775  30.182  26.042  1.00  0.00    -0.040 S 
ATOM     27  C   UNL A   1      32.495  26.329  25.811  1.00  0.00     0.263 C 
ATOM     28  H   UNL A   1      32.844  27.946  26.953  1.00  0.00     0.172 HD
ATOM     29  O   UNL A   1      33.296  25.616  26.401  1.00  0.00    -0.269 OA
BRANCH  20  30
ATOM     30  C   UNL A   1      30.014  29.042  23.628  1.00  0.00     0.155 C 
BRANCH  30  31
ATOM     31  C   UNL A   1      30.928  29.297  22.452  1.00  0.00    -0.013 C 
ATOM     32  C   UNL A   1      32.204  28.895  22.379  1.00  0.00     0.006 C 
ENDBRANCH  30  31
ENDBRANCH  20  30
ENDBRANCH  14  19
ENDBRANCH  12  13
ENDBRANCH  11  12
ENDBRANCH   6  11
ENDBRANCH   3   5
ENDBRANCH   2   3
ENDBRANCH   1   2
BRANCH   1  33
ATOM     33  C   UNL A   1      43.901  18.814  24.861  1.00  0.00     0.202 C 
BRANCH  33  34
ATOM     34  O   UNL A   1      45.139  18.326  25.381  1.00  0.00    -0.374 OA
BRANCH  34  35
ATOM     35  C   UNL A   1      46.156  19.289  25.660  1.00  0.00     0.202 C 
BRANCH  35  36
ATOM     36  C   UNL A   1      46.193  20.546  24.781  1.00  0.00     0.261 C 
BRANCH  36  37
ATOM     37  O   UNL A   1      45.742  21.721  25.473  1.00  0.00    -0.460 OA
BRANCH  37  38
ATOM     38  C   UNL A   1      44.764  22.405  24.837  1.00  0.00     0.338 C 
ATOM     39  O   UNL A   1      44.146  22.054  23.837  1.00  0.00    -0.246 OA
BRANCH  38  40
ATOM     40  C   UNL A   1      44.395  23.601  25.611  1.00  0.00     0.060 A 
ATOM     41  C   UNL A   1      44.013  24.743  24.896  1.00  0.00     0.016 A 
ATOM     42  C   UNL A   1      44.489  23.634  27.004  1.00  0.00     0.016 A 
ATOM     43  C   UNL A   1      43.777  25.940  25.566  1.00  0.00     0.010 A 
ATOM     44  C   UNL A   1      44.256  24.838  27.675  1.00  0.00     0.010 A 
ATOM     45  C   UNL A   1      43.938  26.005  26.956  1.00  0.00    -0.014 A 
BRANCH  45  46
ATOM     46  C   UNL A   1      43.900  27.320  27.640  1.00  0.00     0.031 A 
ATOM     47  C   UNL A   1      45.185  28.072  27.853  1.00  0.00     0.074 A 
ATOM     48  C   UNL A   1      42.733  27.839  28.062  1.00  0.00     0.049 A 
ATOM     49  N   UNL A   1      45.384  29.218  28.450  1.00  0.00    -0.248 NA
ATOM     50  C   UNL A   1      46.410  27.446  27.328  1.00  0.00     0.031 C 
ATOM     51  C   UNL A   1      41.424  27.207  27.909  1.00  0.00     0.029 A 
ATOM     52  N   UNL A   1      42.469  29.008  28.731  1.00  0.00    -0.354 N 
ATOM     53  C   UNL A   1      46.756  29.437  28.402  1.00  0.00     0.074 A 
ATOM     54  C   UNL A   1      47.342  28.298  27.730  1.00  0.00     0.031 C 
ATOM     55  C   UNL A   1      40.495  27.984  28.493  1.00  0.00     0.029 A 
ATOM     56  C   UNL A   1      41.148  29.152  29.081  1.00  0.00     0.049 A 
ATOM     57  H   UNL A   1      43.159  29.679  28.939  1.00  0.00     0.167 HD
ATOM     58  C   UNL A   1      47.462  30.497  28.862  1.00  0.00     0.034 A 
ATOM     59  C   UNL A   1      40.539  30.106  29.814  1.00  0.00     0.034 A 
ATOM     60  C   UNL A   1      46.873  31.636  29.514  1.00  0.00     0.049 A 
ATOM     61  C   UNL A   1      41.350  31.262  30.338  1.00  0.00     0.074 A 
ATOM     62  C   UNL A   1      47.496  32.785  29.969  1.00  0.00     0.029 A 
ATOM     63  N   UNL A   1      45.527  31.766  29.818  1.00  0.00    -0.354 N 
ATOM     64  N   UNL A   1      42.628  31.513  30.182  1.00  0.00    -0.248 NA
ATOM     65  C   UNL A   1      40.629  32.284  31.110  1.00  0.00     0.031 C 
ATOM     66  C   UNL A   1      46.531  33.593  30.580  1.00  0.00     0.029 A 
ATOM     67  C   UNL A   1      45.301  32.966  30.470  1.00  0.00     0.049 A 
ATOM     68  H   UNL A   1      44.833  31.102  29.602  1.00  0.00     0.167 HD
ATOM     69  C   UNL A   1      42.855  32.737  30.803  1.00  0.00     0.074 A 
ATOM     70  C   UNL A   1      41.579  33.184  31.321  1.00  0.00     0.031 C 
ATOM     71  C   UNL A   1      44.017  33.424  30.940  1.00  0.00     0.034 A 
BRANCH  58  72
ATOM     72  C   UNL A   1      48.955  30.481  28.663  1.00  0.00     0.023 A 
ATOM     73  C   UNL A   1      49.792  29.962  29.672  1.00  0.00     0.012 A 
ATOM     74  C   UNL A   1      49.528  30.937  27.459  1.00  0.00     0.148 A 
ATOM     75  C   UNL A   1      51.175  29.931  29.502  1.00  0.00     0.002 A 
ATOM     76  C   UNL A   1      50.904  30.861  27.278  1.00  0.00     0.091 A 
ATOM     77  F   UNL A   1      48.719  31.449  26.520  1.00  0.00    -0.205 F 
ATOM     78  C   UNL A   1      51.730  30.371  28.302  1.00  0.00     0.022 A 
BRANCH  76  79
ATOM     79  S   UNL A   1      51.704  31.328  25.739  1.00  0.00     0.127 S 
ATOM     80  O   UNL A   1      51.425  30.166  24.897  1.00  0.00    -0.237 OA
ATOM     81  O   UNL A   1      50.973  32.539  25.368  1.00  0.00    -0.237 OA
ATOM     82  O   UNL A   1      53.107  31.542  26.065  1.00  0.00    -0.744 OA
ENDBRANCH  76  79
ENDBRANCH  58  72
BRANCH  59  83
ATOM     83  C   UNL A   1      39.074  30.021  30.069  1.00  0.00     0.023 A 
ATOM     84  C   UNL A   1      38.605  29.347  31.212  1.00  0.00     0.012 A 
ATOM     85  C   UNL A   1      38.148  30.623  29.196  1.00  0.00     0.148 A 
ATOM     86  C   UNL A   1      37.236  29.251  31.468  1.00  0.00     0.002 A 
ATOM     87  C   UNL A   1      36.789  30.570  29.484  1.00  0.00     0.091 A 
ATOM     88  F   UNL A   1      38.616  31.247  28.105  1.00  0.00    -0.205 F 
ATOM     89  C   UNL A   1      36.331  29.871  30.611  1.00  0.00     0.022 A 
BRANCH  87  90
ATOM     90  S   UNL A   1      35.561  31.443  28.507  1.00  0.00     0.127 S 
ATOM     91  O   UNL A   1      35.169  30.421  27.539  1.00  0.00    -0.237 OA
ATOM     92  O   UNL A   1      34.549  31.761  29.514  1.00  0.00    -0.237 OA
ATOM     93  O   UNL A   1      36.248  32.603  27.956  1.00  0.00    -0.744 OA
ENDBRANCH  87  90
ENDBRANCH  59  83
BRANCH  71  94
ATOM     94  C   UNL A   1      43.966  34.756  31.644  1.00  0.00     0.023 A 
ATOM     95  C   UNL A   1      43.738  35.935  30.908  1.00  0.00     0.012 A 
ATOM     96  C   UNL A   1      44.069  34.828  33.049  1.00  0.00     0.148 A 
ATOM     97  C   UNL A   1      43.649  37.167  31.554  1.00  0.00     0.002 A 
ATOM     98  C   UNL A   1      43.926  36.052  33.689  1.00  0.00     0.091 A 
ATOM     99  F   UNL A   1      44.301  33.697  33.731  1.00  0.00    -0.205 F 
ATOM    100  C   UNL A   1      43.729  37.225  32.943  1.00  0.00     0.022 A 
BRANCH  98 101
ATOM    101  S   UNL A   1      43.918  36.209  35.479  1.00  0.00     0.127 S 
ATOM    102  O   UNL A   1      45.058  37.098  35.706  1.00  0.00    -0.237 OA
ATOM    103  O   UNL A   1      42.611  36.816  35.731  1.00  0.00    -0.237 OA
ATOM    104  O   UNL A   1      44.067  34.858  36.002  1.00  0.00    -0.744 OA
ENDBRANCH  98 101
ENDBRANCH  71  94
ENDBRANCH  45  46
ENDBRANCH  38  40
ENDBRANCH  37  38
ENDBRANCH  36  37
ENDBRANCH  35  36
ENDBRANCH  34  35
ENDBRANCH  33  34
ENDBRANCH   1  33
TORSDOF 23
ENDMDL
