MODEL 1
REMARK VINA RESULT:     -11.8      0.000      0.000
REMARK SMILES Cc1cc(C)c2c(c1)C=C(C(=O)OCCOCCOC(=O)c1ccc(-c3c4nc(c(-c5cccc(S(=O)(=O)[O-])c5F)c5ccc([nH]5)c(-c5cccc(S(=O)(=O)[O-])c5F)c5nc(c(-c6cccc(S(=O)(=O)[O-])c6F)c6ccc3[nH]6)C=C5)C=C4)cc1)[C@@H](C(F)(F)F)O2
REMARK SMILES IDX 17 1 16 2 15 3 14 4 13 5 11 6 12 7 10 8 1 9 2 10 3 11 8 12
REMARK SMILES IDX 4 13 7 14 5 15 6 16 9 17 90 18 85 19 86 20 87 21 88 22 89 23
REMARK SMILES IDX 18 24 19 25 20 26 21 27 22 28 23 29 84 30 24 31 83 32 25 33
REMARK SMILES IDX 26 34 27 35 77 36 28 37 82 38 76 39 78 40 29 41 81 42 75 43
REMARK SMILES IDX 74 44 30 46 62 47 42 48 61 49 43 50 46 51 60 52 79 53 44 54
REMARK SMILES IDX 45 55 59 57 80 58 47 59 31 60 32 61 40 62 33 63 35 64 41 65
REMARK SMILES IDX 34 66 36 67 37 68 38 69 39 70 63 71 64 72 72 73 65 74 67 75
REMARK SMILES IDX 73 76 66 77 68 78 69 79 70 80 71 81 48 82 49 83 57 84 50 85
REMARK SMILES IDX 52 86 58 87 51 88 53 89 54 90 55 91 56 92
REMARK H PARENT 78 45 46 56
REMARK Flexibility Score: inf
ROOT
ATOM      1  C   UNL A   1      31.854  31.017  26.273  1.00  0.00     0.202 C 
ENDROOT
BRANCH   1   2
ATOM      2  O   UNL A   1      32.416  29.968  27.061  1.00  0.00    -0.374 OA
BRANCH   2   3
ATOM      3  C   UNL A   1      33.727  29.512  26.735  1.00  0.00     0.202 C 
BRANCH   3   4
ATOM      4  C   UNL A   1      33.858  28.147  26.051  1.00  0.00     0.261 C 
BRANCH   4   5
ATOM      5  O   UNL A   1      33.677  28.237  24.630  1.00  0.00    -0.460 OA
BRANCH   5   6
ATOM      6  C   UNL A   1      33.119  27.141  24.066  1.00  0.00     0.338 C 
ATOM      7  O   UNL A   1      33.625  26.034  23.956  1.00  0.00    -0.246 OA
BRANCH   6   8
ATOM      8  C   UNL A   1      31.712  27.417  23.724  1.00  0.00     0.087 C 
ATOM      9  C   UNL A   1      28.333  31.917  21.272  1.00  0.00     0.044 C 
ATOM     10  C   UNL A   1      28.578  30.596  21.937  1.00  0.00    -0.050 A 
ATOM     11  C   UNL A   1      27.524  29.838  22.462  1.00  0.00     0.010 A 
ATOM     12  C   UNL A   1      29.886  30.125  22.074  1.00  0.00     0.015 A 
ATOM     13  C   UNL A   1      27.766  28.612  23.105  1.00  0.00    -0.008 A 
ATOM     14  C   UNL A   1      30.141  28.919  22.735  1.00  0.00     0.018 A 
ATOM     15  C   UNL A   1      26.623  27.831  23.689  1.00  0.00     0.048 C 
ATOM     16  C   UNL A   1      29.085  28.148  23.223  1.00  0.00     0.130 A 
ATOM     17  C   UNL A   1      31.510  28.513  22.983  1.00  0.00     0.027 C 
ATOM     18  O   UNL A   1      29.268  26.933  23.823  1.00  0.00    -0.475 OA
ATOM     19  C   UNL A   1      30.609  26.521  24.216  1.00  0.00     0.316 C 
BRANCH  19  20
ATOM     20  C   UNL A   1      30.631  26.342  25.741  1.00  0.00     0.430 C 
ATOM     21  F   UNL A   1      29.476  25.795  26.184  1.00  0.00    -0.167 F 
ATOM     22  F   UNL A   1      31.635  25.525  26.131  1.00  0.00    -0.167 F 
ATOM     23  F   UNL A   1      30.796  27.524  26.379  1.00  0.00    -0.167 F 
ENDBRANCH  19  20
ENDBRANCH   6   8
ENDBRANCH   5   6
ENDBRANCH   4   5
ENDBRANCH   3   4
ENDBRANCH   2   3
ENDBRANCH   1   2
BRANCH   1  24
ATOM     24  C   UNL A   1      31.699  32.404  26.910  1.00  0.00     0.261 C 
BRANCH  24  25
ATOM     25  O   UNL A   1      32.880  33.215  26.792  1.00  0.00    -0.460 OA
BRANCH  25  26
ATOM     26  C   UNL A   1      33.324  33.749  27.955  1.00  0.00     0.338 C 
ATOM     27  O   UNL A   1      32.761  34.587  28.647  1.00  0.00    -0.246 OA
BRANCH  26  28
ATOM     28  C   UNL A   1      34.532  33.032  28.397  1.00  0.00     0.060 A 
ATOM     29  C   UNL A   1      34.376  31.986  29.314  1.00  0.00     0.016 A 
ATOM     30  C   UNL A   1      35.800  33.416  27.961  1.00  0.00     0.016 A 
ATOM     31  C   UNL A   1      35.498  31.329  29.815  1.00  0.00     0.010 A 
ATOM     32  C   UNL A   1      36.925  32.760  28.471  1.00  0.00     0.010 A 
ATOM     33  C   UNL A   1      36.781  31.730  29.418  1.00  0.00    -0.014 A 
BRANCH  33  34
ATOM     34  C   UNL A   1      37.968  31.118  30.062  1.00  0.00     0.031 A 
ATOM     35  C   UNL A   1      38.337  31.511  31.465  1.00  0.00     0.074 A 
ATOM     36  C   UNL A   1      38.694  30.197  29.401  1.00  0.00     0.049 A 
ATOM     37  N   UNL A   1      39.306  31.062  32.218  1.00  0.00    -0.248 NA
ATOM     38  C   UNL A   1      37.507  32.544  32.107  1.00  0.00     0.031 C 
ATOM     39  C   UNL A   1      38.432  29.742  28.035  1.00  0.00     0.029 A 
ATOM     40  N   UNL A   1      39.802  29.484  29.786  1.00  0.00    -0.354 N 
ATOM     41  C   UNL A   1      39.212  31.761  33.415  1.00  0.00     0.074 A 
ATOM     42  C   UNL A   1      38.109  32.687  33.279  1.00  0.00     0.031 C 
ATOM     43  C   UNL A   1      39.355  28.827  27.697  1.00  0.00     0.029 A 
ATOM     44  C   UNL A   1      40.285  28.645  28.809  1.00  0.00     0.049 A 
ATOM     45  H   UNL A   1      40.212  29.565  30.678  1.00  0.00     0.167 HD
ATOM     46  C   UNL A   1      39.960  31.623  34.534  1.00  0.00     0.034 A 
ATOM     47  C   UNL A   1      41.357  27.827  28.810  1.00  0.00     0.034 A 
ATOM     48  C   UNL A   1      41.043  30.687  34.666  1.00  0.00     0.049 A 
ATOM     49  C   UNL A   1      42.193  27.715  30.059  1.00  0.00     0.074 A 
ATOM     50  C   UNL A   1      41.836  30.447  35.774  1.00  0.00     0.029 A 
ATOM     51  N   UNL A   1      41.491  29.843  33.662  1.00  0.00    -0.354 N 
ATOM     52  N   UNL A   1      42.020  28.300  31.221  1.00  0.00    -0.248 NA
ATOM     53  C   UNL A   1      43.351  26.809  30.014  1.00  0.00     0.031 C 
ATOM     54  C   UNL A   1      42.784  29.482  35.430  1.00  0.00     0.029 A 
ATOM     55  C   UNL A   1      42.557  29.089  34.121  1.00  0.00     0.049 A 
ATOM     56  H   UNL A   1      41.107  29.787  32.758  1.00  0.00     0.167 HD
ATOM     57  C   UNL A   1      43.018  27.803  32.053  1.00  0.00     0.074 A 
ATOM     58  C   UNL A   1      43.787  26.861  31.267  1.00  0.00     0.031 C 
ATOM     59  C   UNL A   1      43.277  28.109  33.348  1.00  0.00     0.034 A 
BRANCH  46  60
ATOM     60  C   UNL A   1      39.611  32.466  35.733  1.00  0.00     0.023 A 
ATOM     61  C   UNL A   1      40.093  33.789  35.811  1.00  0.00     0.012 A 
ATOM     62  C   UNL A   1      38.724  31.994  36.721  1.00  0.00     0.148 A 
ATOM     63  C   UNL A   1      39.714  34.623  36.861  1.00  0.00     0.002 A 
ATOM     64  C   UNL A   1      38.313  32.847  37.739  1.00  0.00     0.091 A 
ATOM     65  F   UNL A   1      38.291  30.728  36.638  1.00  0.00    -0.205 F 
ATOM     66  C   UNL A   1      38.814  34.156  37.817  1.00  0.00     0.022 A 
BRANCH  64  67
ATOM     67  S   UNL A   1      37.089  32.376  38.967  1.00  0.00     0.127 S 
ATOM     68  O   UNL A   1      35.848  32.814  38.330  1.00  0.00    -0.237 OA
ATOM     69  O   UNL A   1      37.261  30.925  39.031  1.00  0.00    -0.237 OA
ATOM     70  O   UNL A   1      37.445  33.088  40.186  1.00  0.00    -0.744 OA
ENDBRANCH  64  67
ENDBRANCH  46  60
BRANCH  47  71
ATOM     71  C   UNL A   1      41.654  26.997  27.608  1.00  0.00     0.023 A 
ATOM     72  C   UNL A   1      42.237  27.601  26.477  1.00  0.00     0.012 A 
ATOM     73  C   UNL A   1      41.411  25.609  27.596  1.00  0.00     0.148 A 
ATOM     74  C   UNL A   1      42.555  26.843  25.349  1.00  0.00     0.002 A 
ATOM     75  C   UNL A   1      41.783  24.850  26.492  1.00  0.00     0.091 A 
ATOM     76  F   UNL A   1      40.843  25.055  28.676  1.00  0.00    -0.205 F 
ATOM     77  C   UNL A   1      42.341  25.467  25.361  1.00  0.00     0.022 A 
BRANCH  75  78
ATOM     78  S   UNL A   1      41.672  23.057  26.470  1.00  0.00     0.127 S 
ATOM     79  O   UNL A   1      40.226  22.848  26.488  1.00  0.00    -0.237 OA
ATOM     80  O   UNL A   1      42.326  22.733  25.202  1.00  0.00    -0.237 OA
ATOM     81  O   UNL A   1      42.389  22.603  27.653  1.00  0.00    -0.744 OA
ENDBRANCH  75  78
ENDBRANCH  47  71
BRANCH  59  82
ATOM     82  C   UNL A   1      44.417  27.407  34.040  1.00  0.00     0.023 A 
ATOM     83  C   UNL A   1      45.687  28.014  34.088  1.00  0.00     0.012 A 
ATOM     84  C   UNL A   1      44.183  26.229  34.781  1.00  0.00     0.148 A 
ATOM     85  C   UNL A   1      46.709  27.456  34.856  1.00  0.00     0.002 A 
ATOM     86  C   UNL A   1      45.191  25.709  35.585  1.00  0.00     0.091 A 
ATOM     87  F   UNL A   1      42.971  25.662  34.711  1.00  0.00    -0.205 F 
ATOM     88  C   UNL A   1      46.456  26.317  35.616  1.00  0.00     0.022 A 
BRANCH  86  89
ATOM     89  S   UNL A   1      44.927  24.316  36.689  1.00  0.00     0.127 S 
ATOM     90  O   UNL A   1      46.247  24.169  37.301  1.00  0.00    -0.237 OA
ATOM     91  O   UNL A   1      43.892  24.827  37.587  1.00  0.00    -0.237 OA
ATOM     92  O   UNL A   1      44.509  23.204  35.847  1.00  0.00    -0.744 OA
ENDBRANCH  86  89
ENDBRANCH  59  82
ENDBRANCH  33  34
ENDBRANCH  26  28
ENDBRANCH  25  26
ENDBRANCH  24  25
ENDBRANCH   1  24
TORSDOF 18
ENDMDL
MODEL 2
REMARK VINA RESULT:     -11.6      5.977     11.000
REMARK SMILES Cc1cc(C)c2c(c1)C=C(C(=O)OCCOCCOC(=O)c1ccc(-c3c4nc(c(-c5cccc(S(=O)(=O)[O-])c5F)c5ccc([nH]5)c(-c5cccc(S(=O)(=O)[O-])c5F)c5nc(c(-c6cccc(S(=O)(=O)[O-])c6F)c6ccc3[nH]6)C=C5)C=C4)cc1)[C@@H](C(F)(F)F)O2
REMARK SMILES IDX 17 1 16 2 15 3 14 4 13 5 11 6 12 7 10 8 1 9 2 10 3 11 8 12
REMARK SMILES IDX 4 13 7 14 5 15 6 16 9 17 90 18 85 19 86 20 87 21 88 22 89 23
REMARK SMILES IDX 18 24 19 25 20 26 21 27 22 28 23 29 84 30 24 31 83 32 25 33
REMARK SMILES IDX 26 34 27 35 77 36 28 37 82 38 76 39 78 40 29 41 81 42 75 43
REMARK SMILES IDX 74 44 30 46 62 47 42 48 61 49 43 50 46 51 60 52 79 53 44 54
REMARK SMILES IDX 45 55 59 57 80 58 47 59 31 60 32 61 40 62 33 63 35 64 41 65
REMARK SMILES IDX 34 66 36 67 37 68 38 69 39 70 63 71 64 72 72 73 65 74 67 75
REMARK SMILES IDX 73 76 66 77 68 78 69 79 70 80 71 81 48 82 49 83 57 84 50 85
REMARK SMILES IDX 52 86 58 87 51 88 53 89 54 90 55 91 56 92
REMARK H PARENT 78 45 46 56
REMARK Flexibility Score: inf
ROOT
ATOM      1  C   UNL A   1      36.835  21.025  25.017  1.00  0.00     0.202 C 
ENDROOT
BRANCH   1   2
ATOM      2  O   UNL A   1      36.516  22.115  25.882  1.00  0.00    -0.374 OA
BRANCH   2   3
ATOM      3  C   UNL A   1      36.424  23.419  25.312  1.00  0.00     0.202 C 
BRANCH   3   4
ATOM      4  C   UNL A   1      35.122  24.199  25.522  1.00  0.00     0.261 C 
BRANCH   4   5
ATOM      5  O   UNL A   1      34.108  23.397  26.145  1.00  0.00    -0.460 OA
BRANCH   5   6
ATOM      6  C   UNL A   1      32.897  23.464  25.549  1.00  0.00     0.338 C 
ATOM      7  O   UNL A   1      32.159  24.436  25.492  1.00  0.00    -0.246 OA
BRANCH   6   8
ATOM      8  C   UNL A   1      32.632  22.213  24.814  1.00  0.00     0.087 C 
ATOM      9  C   UNL A   1      33.423  16.167  25.517  1.00  0.00     0.044 C 
ATOM     10  C   UNL A   1      33.042  17.422  24.791  1.00  0.00    -0.050 A 
ATOM     11  C   UNL A   1      32.754  17.413  23.421  1.00  0.00     0.010 A 
ATOM     12  C   UNL A   1      33.013  18.636  25.482  1.00  0.00     0.015 A 
ATOM     13  C   UNL A   1      32.422  18.599  22.745  1.00  0.00    -0.008 A 
ATOM     14  C   UNL A   1      32.708  19.826  24.815  1.00  0.00     0.018 A 
ATOM     15  C   UNL A   1      32.148  18.571  21.268  1.00  0.00     0.048 C 
ATOM     16  C   UNL A   1      32.384  19.808  23.457  1.00  0.00     0.130 A 
ATOM     17  C   UNL A   1      32.812  21.089  25.518  1.00  0.00     0.027 C 
ATOM     18  O   UNL A   1      32.020  20.930  22.766  1.00  0.00    -0.475 OA
ATOM     19  C   UNL A   1      32.219  22.241  23.368  1.00  0.00     0.316 C 
BRANCH  19  20
ATOM     20  C   UNL A   1      33.200  23.031  22.489  1.00  0.00     0.430 C 
ATOM     21  F   UNL A   1      32.996  24.363  22.608  1.00  0.00    -0.167 F 
ATOM     22  F   UNL A   1      34.484  22.791  22.838  1.00  0.00    -0.167 F 
ATOM     23  F   UNL A   1      33.066  22.710  21.181  1.00  0.00    -0.167 F 
ENDBRANCH  19  20
ENDBRANCH   6   8
ENDBRANCH   5   6
ENDBRANCH   4   5
ENDBRANCH   3   4
ENDBRANCH   2   3
ENDBRANCH   1   2
BRANCH   1  24
ATOM     24  C   UNL A   1      38.134  20.249  25.270  1.00  0.00     0.261 C 
BRANCH  24  25
ATOM     25  O   UNL A   1      39.283  21.102  25.405  1.00  0.00    -0.460 OA
BRANCH  25  26
ATOM     26  C   UNL A   1      39.968  20.958  26.566  1.00  0.00     0.338 C 
ATOM     27  O   UNL A   1      40.372  19.914  27.062  1.00  0.00    -0.246 OA
BRANCH  26  28
ATOM     28  C   UNL A   1      40.342  22.284  27.085  1.00  0.00     0.060 A 
ATOM     29  C   UNL A   1      39.764  23.411  26.488  1.00  0.00     0.016 A 
ATOM     30  C   UNL A   1      41.286  22.421  28.103  1.00  0.00     0.016 A 
ATOM     31  C   UNL A   1      40.145  24.687  26.898  1.00  0.00     0.010 A 
ATOM     32  C   UNL A   1      41.672  23.703  28.508  1.00  0.00     0.010 A 
ATOM     33  C   UNL A   1      41.121  24.841  27.891  1.00  0.00    -0.014 A 
BRANCH  33  34
ATOM     34  C   UNL A   1      41.619  26.199  28.220  1.00  0.00     0.031 A 
ATOM     35  C   UNL A   1      43.013  26.595  27.823  1.00  0.00     0.074 A 
ATOM     36  C   UNL A   1      40.815  27.078  28.846  1.00  0.00     0.049 A 
ATOM     37  N   UNL A   1      43.619  27.743  27.977  1.00  0.00    -0.248 NA
ATOM     38  C   UNL A   1      43.836  25.566  27.165  1.00  0.00     0.031 C 
ATOM     39  C   UNL A   1      39.445  26.802  29.282  1.00  0.00     0.029 A 
ATOM     40  N   UNL A   1      41.035  28.377  29.230  1.00  0.00    -0.354 N 
ATOM     41  C   UNL A   1      44.892  27.575  27.449  1.00  0.00     0.074 A 
ATOM     42  C   UNL A   1      44.985  26.205  26.995  1.00  0.00     0.031 C 
ATOM     43  C   UNL A   1      38.948  27.899  29.875  1.00  0.00     0.029 A 
ATOM     44  C   UNL A   1      39.966  28.948  29.882  1.00  0.00     0.049 A 
ATOM     45  H   UNL A   1      41.877  28.856  29.056  1.00  0.00     0.167 HD
ATOM     46  C   UNL A   1      45.883  28.489  27.328  1.00  0.00     0.034 A 
ATOM     47  C   UNL A   1      39.825  30.175  30.424  1.00  0.00     0.034 A 
ATOM     48  C   UNL A   1      45.776  29.854  27.766  1.00  0.00     0.049 A 
ATOM     49  C   UNL A   1      40.956  31.163  30.304  1.00  0.00     0.074 A 
ATOM     50  C   UNL A   1      46.712  30.865  27.652  1.00  0.00     0.029 A 
ATOM     51  N   UNL A   1      44.672  30.399  28.404  1.00  0.00    -0.354 N 
ATOM     52  N   UNL A   1      42.112  31.023  29.698  1.00  0.00    -0.248 NA
ATOM     53  C   UNL A   1      40.757  32.489  30.909  1.00  0.00     0.031 C 
ATOM     54  C   UNL A   1      46.190  32.012  28.251  1.00  0.00     0.029 A 
ATOM     55  C   UNL A   1      44.910  31.729  28.701  1.00  0.00     0.049 A 
ATOM     56  H   UNL A   1      43.843  29.912  28.614  1.00  0.00     0.167 HD
ATOM     57  C   UNL A   1      42.757  32.249  29.814  1.00  0.00     0.074 A 
ATOM     58  C   UNL A   1      41.861  33.127  30.539  1.00  0.00     0.031 C 
ATOM     59  C   UNL A   1      43.986  32.611  29.369  1.00  0.00     0.034 A 
BRANCH  46  60
ATOM     60  C   UNL A   1      47.163  28.067  26.653  1.00  0.00     0.023 A 
ATOM     61  C   UNL A   1      48.224  27.565  27.434  1.00  0.00     0.012 A 
ATOM     62  C   UNL A   1      47.276  28.061  25.248  1.00  0.00     0.148 A 
ATOM     63  C   UNL A   1      49.384  27.084  26.832  1.00  0.00     0.002 A 
ATOM     64  C   UNL A   1      48.416  27.535  24.653  1.00  0.00     0.091 A 
ATOM     65  F   UNL A   1      46.263  28.558  24.524  1.00  0.00    -0.205 F 
ATOM     66  C   UNL A   1      49.475  27.056  25.442  1.00  0.00     0.022 A 
BRANCH  64  67
ATOM     67  S   UNL A   1      48.596  27.370  22.873  1.00  0.00     0.127 S 
ATOM     68  O   UNL A   1      49.952  27.879  22.665  1.00  0.00    -0.237 OA
ATOM     69  O   UNL A   1      48.452  25.927  22.683  1.00  0.00    -0.237 OA
ATOM     70  O   UNL A   1      47.535  28.174  22.283  1.00  0.00    -0.744 OA
ENDBRANCH  64  67
ENDBRANCH  46  60
BRANCH  47  71
ATOM     71  C   UNL A   1      38.535  30.555  31.066  1.00  0.00     0.023 A 
ATOM     72  C   UNL A   1      38.332  30.273  32.431  1.00  0.00     0.012 A 
ATOM     73  C   UNL A   1      37.532  31.238  30.350  1.00  0.00     0.148 A 
ATOM     74  C   UNL A   1      37.146  30.645  33.066  1.00  0.00     0.002 A 
ATOM     75  C   UNL A   1      36.378  31.658  31.003  1.00  0.00     0.091 A 
ATOM     76  F   UNL A   1      37.738  31.486  29.050  1.00  0.00    -0.205 F 
ATOM     77  C   UNL A   1      36.177  31.349  32.358  1.00  0.00     0.022 A 
BRANCH  75  78
ATOM     78  S   UNL A   1      35.138  32.686  30.209  1.00  0.00     0.127 S 
ATOM     79  O   UNL A   1      34.215  32.947  31.312  1.00  0.00    -0.237 OA
ATOM     80  O   UNL A   1      35.933  33.839  29.785  1.00  0.00    -0.237 OA
ATOM     81  O   UNL A   1      34.603  31.886  29.117  1.00  0.00    -0.744 OA
ENDBRANCH  75  78
ENDBRANCH  47  71
BRANCH  59  82
ATOM     82  C   UNL A   1      44.451  34.025  29.605  1.00  0.00     0.023 A 
ATOM     83  C   UNL A   1      45.136  34.346  30.793  1.00  0.00     0.012 A 
ATOM     84  C   UNL A   1      44.355  34.987  28.577  1.00  0.00     0.148 A 
ATOM     85  C   UNL A   1      45.710  35.607  30.959  1.00  0.00     0.002 A 
ATOM     86  C   UNL A   1      44.975  36.222  28.729  1.00  0.00     0.091 A 
ATOM     87  F   UNL A   1      43.689  34.663  27.461  1.00  0.00    -0.205 F 
ATOM     88  C   UNL A   1      45.645  36.536  29.922  1.00  0.00     0.022 A 
BRANCH  86  89
ATOM     89  S   UNL A   1      45.047  37.439  27.409  1.00  0.00     0.127 S 
ATOM     90  O   UNL A   1      45.698  38.563  28.078  1.00  0.00    -0.237 OA
ATOM     91  O   UNL A   1      45.875  36.761  26.412  1.00  0.00    -0.237 OA
ATOM     92  O   UNL A   1      43.670  37.676  26.999  1.00  0.00    -0.744 OA
ENDBRANCH  86  89
ENDBRANCH  59  82
ENDBRANCH  33  34
ENDBRANCH  26  28
ENDBRANCH  25  26
ENDBRANCH  24  25
ENDBRANCH   1  24
TORSDOF 18
ENDMDL
MODEL 3
REMARK VINA RESULT:     -11.6      2.073      3.475
REMARK SMILES Cc1cc(C)c2c(c1)C=C(C(=O)OCCOCCOC(=O)c1ccc(-c3c4nc(c(-c5cccc(S(=O)(=O)[O-])c5F)c5ccc([nH]5)c(-c5cccc(S(=O)(=O)[O-])c5F)c5nc(c(-c6cccc(S(=O)(=O)[O-])c6F)c6ccc3[nH]6)C=C5)C=C4)cc1)[C@@H](C(F)(F)F)O2
REMARK SMILES IDX 17 1 16 2 15 3 14 4 13 5 11 6 12 7 10 8 1 9 2 10 3 11 8 12
REMARK SMILES IDX 4 13 7 14 5 15 6 16 9 17 90 18 85 19 86 20 87 21 88 22 89 23
REMARK SMILES IDX 18 24 19 25 20 26 21 27 22 28 23 29 84 30 24 31 83 32 25 33
REMARK SMILES IDX 26 34 27 35 77 36 28 37 82 38 76 39 78 40 29 41 81 42 75 43
REMARK SMILES IDX 74 44 30 46 62 47 42 48 61 49 43 50 46 51 60 52 79 53 44 54
REMARK SMILES IDX 45 55 59 57 80 58 47 59 31 60 32 61 40 62 33 63 35 64 41 65
REMARK SMILES IDX 34 66 36 67 37 68 38 69 39 70 63 71 64 72 72 73 65 74 67 75
REMARK SMILES IDX 73 76 66 77 68 78 69 79 70 80 71 81 48 82 49 83 57 84 50 85
REMARK SMILES IDX 52 86 58 87 51 88 53 89 54 90 55 91 56 92
REMARK H PARENT 78 45 46 56
REMARK Flexibility Score: inf
ROOT
ATOM      1  C   UNL A   1      31.402  31.571  26.417  1.00  0.00     0.202 C 
ENDROOT
BRANCH   1   2
ATOM      2  O   UNL A   1      31.964  30.306  26.769  1.00  0.00    -0.374 OA
BRANCH   2   3
ATOM      3  C   UNL A   1      32.872  29.697  25.853  1.00  0.00     0.202 C 
BRANCH   3   4
ATOM      4  C   UNL A   1      33.422  28.312  26.210  1.00  0.00     0.261 C 
BRANCH   4   5
ATOM      5  O   UNL A   1      32.802  27.272  25.440  1.00  0.00    -0.460 OA
BRANCH   5   6
ATOM      6  C   UNL A   1      31.990  26.458  26.152  1.00  0.00     0.338 C 
ATOM      7  O   UNL A   1      31.059  26.793  26.869  1.00  0.00    -0.246 OA
BRANCH   6   8
ATOM      8  C   UNL A   1      32.282  25.050  25.825  1.00  0.00     0.087 C 
ATOM      9  C   UNL A   1      37.120  21.297  25.396  1.00  0.00     0.044 C 
ATOM     10  C   UNL A   1      35.678  21.691  25.277  1.00  0.00    -0.050 A 
ATOM     11  C   UNL A   1      34.752  20.875  24.615  1.00  0.00     0.010 A 
ATOM     12  C   UNL A   1      35.253  22.914  25.800  1.00  0.00     0.015 A 
ATOM     13  C   UNL A   1      33.408  21.265  24.488  1.00  0.00    -0.008 A 
ATOM     14  C   UNL A   1      33.923  23.324  25.658  1.00  0.00     0.018 A 
ATOM     15  C   UNL A   1      32.439  20.389  23.746  1.00  0.00     0.048 C 
ATOM     16  C   UNL A   1      32.995  22.491  25.031  1.00  0.00     0.130 A 
ATOM     17  C   UNL A   1      33.532  24.651  26.089  1.00  0.00     0.027 C 
ATOM     18  O   UNL A   1      31.671  22.811  24.915  1.00  0.00    -0.475 OA
ATOM     19  C   UNL A   1      31.231  24.167  25.211  1.00  0.00     0.316 C 
BRANCH  19  20
ATOM     20  C   UNL A   1      30.629  24.768  23.932  1.00  0.00     0.430 C 
ATOM     21  F   UNL A   1      30.109  23.804  23.139  1.00  0.00    -0.167 F 
ATOM     22  F   UNL A   1      29.631  25.636  24.213  1.00  0.00    -0.167 F 
ATOM     23  F   UNL A   1      31.559  25.436  23.210  1.00  0.00    -0.167 F 
ENDBRANCH  19  20
ENDBRANCH   6   8
ENDBRANCH   5   6
ENDBRANCH   4   5
ENDBRANCH   3   4
ENDBRANCH   2   3
ENDBRANCH   1   2
BRANCH   1  24
ATOM     24  C   UNL A   1      32.041  32.839  26.995  1.00  0.00     0.261 C 
BRANCH  24  25
ATOM     25  O   UNL A   1      33.053  32.564  27.978  1.00  0.00    -0.460 OA
BRANCH  25  26
ATOM     26  C   UNL A   1      34.086  33.441  27.996  1.00  0.00     0.338 C 
ATOM     27  O   UNL A   1      34.028  34.655  27.850  1.00  0.00    -0.246 OA
BRANCH  26  28
ATOM     28  C   UNL A   1      35.315  32.746  28.414  1.00  0.00     0.060 A 
ATOM     29  C   UNL A   1      35.197  31.443  28.911  1.00  0.00     0.016 A 
ATOM     30  C   UNL A   1      36.556  33.383  28.370  1.00  0.00     0.016 A 
ATOM     31  C   UNL A   1      36.324  30.776  29.386  1.00  0.00     0.010 A 
ATOM     32  C   UNL A   1      37.684  32.715  28.855  1.00  0.00     0.010 A 
ATOM     33  C   UNL A   1      37.570  31.417  29.387  1.00  0.00    -0.014 A 
BRANCH  33  34
ATOM     34  C   UNL A   1      38.733  30.752  30.022  1.00  0.00     0.031 A 
ATOM     35  C   UNL A   1      39.128  31.125  31.423  1.00  0.00     0.074 A 
ATOM     36  C   UNL A   1      39.412  29.800  29.355  1.00  0.00     0.049 A 
ATOM     37  N   UNL A   1      40.080  30.632  32.170  1.00  0.00    -0.248 NA
ATOM     38  C   UNL A   1      38.349  32.193  32.073  1.00  0.00     0.031 C 
ATOM     39  C   UNL A   1      39.121  29.360  27.991  1.00  0.00     0.029 A 
ATOM     40  N   UNL A   1      40.489  29.038  29.732  1.00  0.00    -0.354 N 
ATOM     41  C   UNL A   1      40.026  31.332  33.368  1.00  0.00     0.074 A 
ATOM     42  C   UNL A   1      38.965  32.306  33.241  1.00  0.00     0.031 C 
ATOM     43  C   UNL A   1      40.000  28.405  27.644  1.00  0.00     0.029 A 
ATOM     44  C   UNL A   1      40.928  28.180  28.750  1.00  0.00     0.049 A 
ATOM     45  H   UNL A   1      40.908  29.098  30.621  1.00  0.00     0.167 HD
ATOM     46  C   UNL A   1      40.774  31.158  34.482  1.00  0.00     0.034 A 
ATOM     47  C   UNL A   1      41.962  27.314  28.743  1.00  0.00     0.034 A 
ATOM     48  C   UNL A   1      41.815  30.174  34.606  1.00  0.00     0.049 A 
ATOM     49  C   UNL A   1      42.800  27.163  29.986  1.00  0.00     0.074 A 
ATOM     50  C   UNL A   1      42.603  29.896  35.708  1.00  0.00     0.029 A 
ATOM     51  N   UNL A   1      42.218  29.313  33.597  1.00  0.00    -0.354 N 
ATOM     52  N   UNL A   1      42.661  27.752  31.150  1.00  0.00    -0.248 NA
ATOM     53  C   UNL A   1      43.916  26.205  29.932  1.00  0.00     0.031 C 
ATOM     54  C   UNL A   1      43.505  28.891  35.357  1.00  0.00     0.029 A 
ATOM     55  C   UNL A   1      43.252  28.511  34.048  1.00  0.00     0.049 A 
ATOM     56  H   UNL A   1      41.826  29.276  32.695  1.00  0.00     0.167 HD
ATOM     57  C   UNL A   1      43.641  27.210  31.975  1.00  0.00     0.074 A 
ATOM     58  C   UNL A   1      44.362  26.235  31.182  1.00  0.00     0.031 C 
ATOM     59  C   UNL A   1      43.922  27.501  33.268  1.00  0.00     0.034 A 
BRANCH  46  60
ATOM     60  C   UNL A   1      40.471  32.014  35.684  1.00  0.00     0.023 A 
ATOM     61  C   UNL A   1      41.286  33.131  35.961  1.00  0.00     0.012 A 
ATOM     62  C   UNL A   1      39.325  31.783  36.471  1.00  0.00     0.148 A 
ATOM     63  C   UNL A   1      40.978  33.993  37.012  1.00  0.00     0.002 A 
ATOM     64  C   UNL A   1      38.998  32.674  37.487  1.00  0.00     0.091 A 
ATOM     65  F   UNL A   1      38.572  30.707  36.203  1.00  0.00    -0.205 F 
ATOM     66  C   UNL A   1      39.828  33.772  37.766  1.00  0.00     0.022 A 
BRANCH  64  67
ATOM     67  S   UNL A   1      37.493  32.532  38.458  1.00  0.00     0.127 S 
ATOM     68  O   UNL A   1      36.480  32.963  37.494  1.00  0.00    -0.237 OA
ATOM     69  O   UNL A   1      37.465  31.105  38.774  1.00  0.00    -0.237 OA
ATOM     70  O   UNL A   1      37.669  33.411  39.606  1.00  0.00    -0.744 OA
ENDBRANCH  64  67
ENDBRANCH  46  60
BRANCH  47  71
ATOM     71  C   UNL A   1      42.213  26.474  27.538  1.00  0.00     0.023 A 
ATOM     72  C   UNL A   1      42.892  27.031  26.436  1.00  0.00     0.012 A 
ATOM     73  C   UNL A   1      41.832  25.118  27.495  1.00  0.00     0.148 A 
ATOM     74  C   UNL A   1      43.169  26.259  25.307  1.00  0.00     0.002 A 
ATOM     75  C   UNL A   1      42.162  24.340  26.391  1.00  0.00     0.091 A 
ATOM     76  F   UNL A   1      41.176  24.611  28.547  1.00  0.00    -0.205 F 
ATOM     77  C   UNL A   1      42.817  24.912  25.289  1.00  0.00     0.022 A 
BRANCH  75  78
ATOM     78  S   UNL A   1      41.872  22.568  26.337  1.00  0.00     0.127 S 
ATOM     79  O   UNL A   1      42.558  22.192  25.102  1.00  0.00    -0.237 OA
ATOM     80  O   UNL A   1      42.526  22.120  27.566  1.00  0.00    -0.237 OA
ATOM     81  O   UNL A   1      40.425  22.405  26.328  1.00  0.00    -0.744 OA
ENDBRANCH  75  78
ENDBRANCH  47  71
BRANCH  59  82
ATOM     82  C   UNL A   1      45.034  26.747  33.952  1.00  0.00     0.023 A 
ATOM     83  C   UNL A   1      46.350  27.245  33.902  1.00  0.00     0.012 A 
ATOM     84  C   UNL A   1      44.741  25.641  34.778  1.00  0.00     0.148 A 
ATOM     85  C   UNL A   1      47.360  26.649  34.657  1.00  0.00     0.002 A 
ATOM     86  C   UNL A   1      45.742  25.087  35.567  1.00  0.00     0.091 A 
ATOM     87  F   UNL A   1      43.484  25.178  34.801  1.00  0.00    -0.205 F 
ATOM     88  C   UNL A   1      47.053  25.584  35.501  1.00  0.00     0.022 A 
BRANCH  86  89
ATOM     89  S   UNL A   1      45.421  23.791  36.771  1.00  0.00     0.127 S 
ATOM     90  O   UNL A   1      44.439  24.433  37.642  1.00  0.00    -0.237 OA
ATOM     91  O   UNL A   1      44.883  22.720  35.932  1.00  0.00    -0.237 OA
ATOM     92  O   UNL A   1      46.701  23.492  37.397  1.00  0.00    -0.744 OA
ENDBRANCH  86  89
ENDBRANCH  59  82
ENDBRANCH  33  34
ENDBRANCH  26  28
ENDBRANCH  25  26
ENDBRANCH  24  25
ENDBRANCH   1  24
TORSDOF 18
ENDMDL
