MODEL 1
REMARK VINA RESULT:     -11.5      0.000      0.000
REMARK SMILES CC(C)Cc1ccc(S(=O)(=O)Nc2cnc(N3CCCC3)c(C(=O)OCCOCCOC(=O)c3ccc(-c4c5nc(c(-c6cccc(S(=O)(=O)[O-])c6F)c6ccc([nH]6)c(-c6cccc(S(=O)(=O)[O-])c6F)c6nc(c(-c7cccc(S(=O)(=O)[O-])c7F)c7ccc4[nH]7)C=C6)C=C5)cc3)c2)cc1
REMARK SMILES IDX 27 1 26 2 25 3 23 4 24 5 22 6 13 7 14 8 97 9 15 10 16 11
REMARK SMILES IDX 12 12 9 14 10 15 11 16 8 17 5 18 6 19 99 20 7 21 98 22 4 23
REMARK SMILES IDX 2 24 1 25 3 26 17 27 18 28 21 29 19 30 20 31 28 32 29 33
REMARK SMILES IDX 30 34 31 35 32 36 33 37 34 38 35 39 96 40 36 41 95 42 37 43
REMARK SMILES IDX 38 44 39 45 89 46 40 47 94 48 88 49 90 50 41 51 93 52 87 53
REMARK SMILES IDX 86 54 42 56 74 57 54 58 73 59 55 60 58 61 72 62 91 63 56 64
REMARK SMILES IDX 57 65 71 67 92 68 59 69 43 70 44 71 52 72 45 73 47 74 53 75
REMARK SMILES IDX 46 76 48 77 49 78 50 79 51 80 75 81 76 82 84 83 77 84 79 85
REMARK SMILES IDX 85 86 78 87 80 88 81 89 82 90 83 91 60 92 61 93 69 94 62 95
REMARK SMILES IDX 64 96 70 97 63 98 65 99 66 100 67 101 68 102
REMARK H PARENT 12 13 90 55 58 66
REMARK Flexibility Score: inf
ROOT
ATOM      1  C   UNL A   1      32.975  30.198  25.999  1.00  0.00     0.202 C 
ENDROOT
BRANCH   1   2
ATOM      2  C   UNL A   1      32.293  29.234  25.029  1.00  0.00     0.261 C 
BRANCH   2   3
ATOM      3  O   UNL A   1      31.245  29.840  24.257  1.00  0.00    -0.460 OA
BRANCH   3   4
ATOM      4  C   UNL A   1      31.006  29.252  23.056  1.00  0.00     0.342 C 
ATOM      5  O   UNL A   1      31.529  29.550  21.996  1.00  0.00    -0.246 OA
BRANCH   4   6
ATOM      6  C   UNL A   1      29.984  28.197  23.200  1.00  0.00     0.104 A 
ATOM      7  C   UNL A   1      29.521  25.956  23.956  1.00  0.00     0.068 A 
ATOM      8  C   UNL A   1      28.183  26.318  23.992  1.00  0.00     0.140 A 
ATOM      9  C   UNL A   1      30.432  26.912  23.534  1.00  0.00     0.048 A 
ATOM     10  N   UNL A   1      27.718  27.525  23.580  1.00  0.00    -0.236 NA
ATOM     11  C   UNL A   1      28.608  28.472  23.178  1.00  0.00     0.143 A 
BRANCH   7  12
ATOM     12  N   UNL A   1      30.019  24.706  24.443  1.00  0.00    -0.278 N 
ATOM     13  H   UNL A   1      29.990  23.899  23.881  1.00  0.00     0.180 HD
BRANCH  12  14
ATOM     14  S   UNL A   1      30.665  24.649  26.031  1.00  0.00     0.261 S 
ATOM     15  O   UNL A   1      30.049  23.505  26.647  1.00  0.00    -0.201 OA
ATOM     16  O   UNL A   1      30.488  25.978  26.593  1.00  0.00    -0.201 OA
BRANCH  14  17
ATOM     17  C   UNL A   1      32.408  24.354  25.861  1.00  0.00     0.087 A 
ATOM     18  C   UNL A   1      35.172  23.877  25.722  1.00  0.00    -0.048 A 
ATOM     19  C   UNL A   1      34.638  25.116  25.334  1.00  0.00     0.005 A 
ATOM     20  C   UNL A   1      34.291  22.850  26.084  1.00  0.00     0.005 A 
ATOM     21  C   UNL A   1      33.265  25.369  25.426  1.00  0.00     0.022 A 
ATOM     22  C   UNL A   1      32.914  23.073  26.112  1.00  0.00     0.022 A 
BRANCH  18  23
ATOM     23  C   UNL A   1      36.666  23.624  25.742  1.00  0.00     0.038 C 
BRANCH  23  24
ATOM     24  C   UNL A   1      37.187  22.668  24.645  1.00  0.00    -0.013 C 
ATOM     25  C   UNL A   1      37.032  21.203  25.044  1.00  0.00     0.008 C 
ATOM     26  C   UNL A   1      36.427  22.902  23.335  1.00  0.00     0.008 C 
ENDBRANCH  23  24
ENDBRANCH  18  23
ENDBRANCH  14  17
ENDBRANCH  12  14
ENDBRANCH   7  12
BRANCH  11  27
ATOM     27  N   UNL A   1      28.042  29.625  22.696  1.00  0.00    -0.356 N 
ATOM     28  C   UNL A   1      28.126  29.975  21.289  1.00  0.00     0.118 C 
ATOM     29  C   UNL A   1      27.920  30.810  23.535  1.00  0.00     0.118 C 
ATOM     30  C   UNL A   1      28.678  31.394  21.314  1.00  0.00     0.023 C 
ATOM     31  C   UNL A   1      28.002  31.983  22.546  1.00  0.00     0.023 C 
ENDBRANCH  11  27
ENDBRANCH   4   6
ENDBRANCH   3   4
ENDBRANCH   2   3
ENDBRANCH   1   2
BRANCH   1  32
ATOM     32  O   UNL A   1      32.205  30.758  27.057  1.00  0.00    -0.374 OA
BRANCH  32  33
ATOM     33  C   UNL A   1      31.352  31.852  26.746  1.00  0.00     0.202 C 
BRANCH  33  34
ATOM     34  C   UNL A   1      31.803  33.284  27.059  1.00  0.00     0.261 C 
BRANCH  34  35
ATOM     35  O   UNL A   1      33.222  33.479  27.071  1.00  0.00    -0.460 OA
BRANCH  35  36
ATOM     36  C   UNL A   1      33.726  33.757  28.299  1.00  0.00     0.338 C 
ATOM     37  O   UNL A   1      33.220  34.457  29.162  1.00  0.00    -0.246 OA
BRANCH  36  38
ATOM     38  C   UNL A   1      34.934  32.951  28.543  1.00  0.00     0.060 A 
ATOM     39  C   UNL A   1      34.767  31.689  29.127  1.00  0.00     0.016 A 
ATOM     40  C   UNL A   1      36.208  33.469  28.303  1.00  0.00     0.016 A 
ATOM     41  C   UNL A   1      35.881  30.957  29.524  1.00  0.00     0.010 A 
ATOM     42  C   UNL A   1      37.324  32.740  28.718  1.00  0.00     0.010 A 
ATOM     43  C   UNL A   1      37.160  31.503  29.369  1.00  0.00    -0.014 A 
BRANCH  43  44
ATOM     44  C   UNL A   1      38.306  30.868  30.054  1.00  0.00     0.031 A 
ATOM     45  C   UNL A   1      38.630  31.297  31.458  1.00  0.00     0.074 A 
ATOM     46  C   UNL A   1      39.037  29.924  29.439  1.00  0.00     0.049 A 
ATOM     47  N   UNL A   1      39.590  30.894  32.246  1.00  0.00    -0.248 NA
ATOM     48  C   UNL A   1      37.752  32.320  32.053  1.00  0.00     0.031 C 
ATOM     49  C   UNL A   1      38.802  29.426  28.085  1.00  0.00     0.029 A 
ATOM     50  N   UNL A   1      40.139  29.232  29.870  1.00  0.00    -0.354 N 
ATOM     51  C   UNL A   1      39.450  31.626  33.419  1.00  0.00     0.074 A 
ATOM     52  C   UNL A   1      38.319  32.510  33.235  1.00  0.00     0.031 C 
ATOM     53  C   UNL A   1      39.752  28.523  27.784  1.00  0.00     0.029 A 
ATOM     54  C   UNL A   1      40.670  28.398  28.916  1.00  0.00     0.049 A 
ATOM     55  H   UNL A   1      40.514  29.324  30.776  1.00  0.00     0.167 HD
ATOM     56  C   UNL A   1      40.185  31.559  34.553  1.00  0.00     0.034 A 
ATOM     57  C   UNL A   1      41.780  27.636  28.952  1.00  0.00     0.034 A 
ATOM     58  C   UNL A   1      41.299  30.669  34.732  1.00  0.00     0.049 A 
ATOM     59  C   UNL A   1      42.601  27.599  30.215  1.00  0.00     0.074 A 
ATOM     60  C   UNL A   1      42.090  30.493  35.853  1.00  0.00     0.029 A 
ATOM     61  N   UNL A   1      41.788  29.812  33.758  1.00  0.00    -0.354 N 
ATOM     62  N   UNL A   1      42.389  28.211  31.355  1.00  0.00    -0.248 NA
ATOM     63  C   UNL A   1      43.796  26.744  30.206  1.00  0.00     0.031 C 
ATOM     64  C   UNL A   1      43.070  29.542  35.548  1.00  0.00     0.029 A 
ATOM     65  C   UNL A   1      42.876  29.111  34.245  1.00  0.00     0.049 A 
ATOM     66  H   UNL A   1      41.415  29.717  32.852  1.00  0.00     0.167 HD
ATOM     67  C   UNL A   1      43.399  27.786  32.211  1.00  0.00     0.074 A 
ATOM     68  C   UNL A   1      44.215  26.853  31.461  1.00  0.00     0.031 C 
ATOM     69  C   UNL A   1      43.640  28.144  33.498  1.00  0.00     0.034 A 
BRANCH  56  70
ATOM     70  C   UNL A   1      39.786  32.457  35.693  1.00  0.00     0.023 A 
ATOM     71  C   UNL A   1      39.014  31.935  36.751  1.00  0.00     0.012 A 
ATOM     72  C   UNL A   1      40.192  33.804  35.733  1.00  0.00     0.148 A 
ATOM     73  C   UNL A   1      38.622  32.748  37.815  1.00  0.00     0.002 A 
ATOM     74  C   UNL A   1      39.831  34.599  36.817  1.00  0.00     0.091 A 
ATOM     75  F   UNL A   1      40.899  34.291  34.704  1.00  0.00    -0.205 F 
ATOM     76  C   UNL A   1      39.039  34.076  37.851  1.00  0.00     0.022 A 
BRANCH  74  77
ATOM     77  S   UNL A   1      40.379  36.302  36.985  1.00  0.00     0.127 S 
ATOM     78  O   UNL A   1      40.007  36.861  35.685  1.00  0.00    -0.237 OA
ATOM     79  O   UNL A   1      39.570  36.779  38.107  1.00  0.00    -0.237 OA
ATOM     80  O   UNL A   1      41.808  36.235  37.256  1.00  0.00    -0.744 OA
ENDBRANCH  74  77
ENDBRANCH  56  70
BRANCH  57  81
ATOM     81  C   UNL A   1      42.147  26.807  27.769  1.00  0.00     0.023 A 
ATOM     82  C   UNL A   1      42.908  27.378  26.732  1.00  0.00     0.012 A 
ATOM     83  C   UNL A   1      41.783  25.448  27.686  1.00  0.00     0.148 A 
ATOM     84  C   UNL A   1      43.280  26.620  25.622  1.00  0.00     0.002 A 
ATOM     85  C   UNL A   1      42.205  24.683  26.605  1.00  0.00     0.091 A 
ATOM     86  F   UNL A   1      41.046  24.927  28.677  1.00  0.00    -0.205 F 
ATOM     87  C   UNL A   1      42.939  25.271  25.563  1.00  0.00     0.022 A 
BRANCH  85  88
ATOM     88  S   UNL A   1      41.931  22.911  26.512  1.00  0.00     0.127 S 
ATOM     89  O   UNL A   1      42.402  22.605  25.164  1.00  0.00    -0.237 OA
ATOM     90  O   UNL A   1      42.788  22.419  27.594  1.00  0.00    -0.237 OA
ATOM     91  O   UNL A   1      40.506  22.720  26.745  1.00  0.00    -0.744 OA
ENDBRANCH  85  88
ENDBRANCH  57  81
BRANCH  69  92
ATOM     92  C   UNL A   1      44.811  27.503  34.195  1.00  0.00     0.023 A 
ATOM     93  C   UNL A   1      46.049  28.174  34.242  1.00  0.00     0.012 A 
ATOM     94  C   UNL A   1      44.659  26.279  34.876  1.00  0.00     0.148 A 
ATOM     95  C   UNL A   1      47.126  27.623  34.935  1.00  0.00     0.002 A 
ATOM     96  C   UNL A   1      45.723  25.759  35.604  1.00  0.00     0.091 A 
ATOM     97  F   UNL A   1      43.479  25.649  34.803  1.00  0.00    -0.205 F 
ATOM     98  C   UNL A   1      46.960  26.424  35.626  1.00  0.00     0.022 A 
BRANCH  96  99
ATOM     99  S   UNL A   1      45.569  24.272  36.600  1.00  0.00     0.127 S 
ATOM    100  O   UNL A   1      45.550  23.228  35.577  1.00  0.00    -0.237 OA
ATOM    101  O   UNL A   1      46.787  24.311  37.409  1.00  0.00    -0.237 OA
ATOM    102  O   UNL A   1      44.336  24.428  37.361  1.00  0.00    -0.744 OA
ENDBRANCH  96  99
ENDBRANCH  69  92
ENDBRANCH  43  44
ENDBRANCH  36  38
ENDBRANCH  35  36
ENDBRANCH  34  35
ENDBRANCH  33  34
ENDBRANCH  32  33
ENDBRANCH   1  32
TORSDOF 23
ENDMDL
MODEL 2
REMARK VINA RESULT:     -11.1      5.816      9.776
REMARK SMILES CC(C)Cc1ccc(S(=O)(=O)Nc2cnc(N3CCCC3)c(C(=O)OCCOCCOC(=O)c3ccc(-c4c5nc(c(-c6cccc(S(=O)(=O)[O-])c6F)c6ccc([nH]6)c(-c6cccc(S(=O)(=O)[O-])c6F)c6nc(c(-c7cccc(S(=O)(=O)[O-])c7F)c7ccc4[nH]7)C=C6)C=C5)cc3)c2)cc1
REMARK SMILES IDX 27 1 26 2 25 3 23 4 24 5 22 6 13 7 14 8 97 9 15 10 16 11
REMARK SMILES IDX 12 12 9 14 10 15 11 16 8 17 5 18 6 19 99 20 7 21 98 22 4 23
REMARK SMILES IDX 2 24 1 25 3 26 17 27 18 28 21 29 19 30 20 31 28 32 29 33
REMARK SMILES IDX 30 34 31 35 32 36 33 37 34 38 35 39 96 40 36 41 95 42 37 43
REMARK SMILES IDX 38 44 39 45 89 46 40 47 94 48 88 49 90 50 41 51 93 52 87 53
REMARK SMILES IDX 86 54 42 56 74 57 54 58 73 59 55 60 58 61 72 62 91 63 56 64
REMARK SMILES IDX 57 65 71 67 92 68 59 69 43 70 44 71 52 72 45 73 47 74 53 75
REMARK SMILES IDX 46 76 48 77 49 78 50 79 51 80 75 81 76 82 84 83 77 84 79 85
REMARK SMILES IDX 85 86 78 87 80 88 81 89 82 90 83 91 60 92 61 93 69 94 62 95
REMARK SMILES IDX 64 96 70 97 63 98 65 99 66 100 67 101 68 102
REMARK H PARENT 12 13 90 55 58 66
REMARK Flexibility Score: inf
ROOT
ATOM      1  C   UNL A   1      36.445  23.475  26.103  1.00  0.00     0.202 C 
ENDROOT
BRANCH   1   2
ATOM      2  C   UNL A   1      35.531  22.486  25.380  1.00  0.00     0.261 C 
BRANCH   2   3
ATOM      3  O   UNL A   1      35.104  21.391  26.204  1.00  0.00    -0.460 OA
BRANCH   3   4
ATOM      4  C   UNL A   1      33.774  21.366  26.479  1.00  0.00     0.342 C 
ATOM      5  O   UNL A   1      33.269  21.456  27.585  1.00  0.00    -0.246 OA
BRANCH   4   6
ATOM      6  C   UNL A   1      33.001  21.182  25.235  1.00  0.00     0.104 A 
ATOM      7  C   UNL A   1      31.851  22.273  23.420  1.00  0.00     0.068 A 
ATOM      8  C   UNL A   1      31.992  21.091  22.710  1.00  0.00     0.140 A 
ATOM      9  C   UNL A   1      32.350  22.309  24.712  1.00  0.00     0.048 A 
ATOM     10  N   UNL A   1      32.532  19.959  23.231  1.00  0.00    -0.236 NA
ATOM     11  C   UNL A   1      33.036  19.991  24.494  1.00  0.00     0.143 A 
BRANCH   7  12
ATOM     12  N   UNL A   1      31.336  23.483  22.853  1.00  0.00    -0.278 N 
ATOM     13  H   UNL A   1      30.372  23.592  22.690  1.00  0.00     0.180 HD
BRANCH  12  14
ATOM     14  S   UNL A   1      32.440  24.736  22.465  1.00  0.00     0.261 S 
ATOM     15  O   UNL A   1      31.810  25.479  21.407  1.00  0.00    -0.201 OA
ATOM     16  O   UNL A   1      33.729  24.095  22.254  1.00  0.00    -0.201 OA
BRANCH  14  17
ATOM     17  C   UNL A   1      32.570  25.766  23.906  1.00  0.00     0.087 A 
ATOM     18  C   UNL A   1      32.753  27.498  26.108  1.00  0.00    -0.048 A 
ATOM     19  C   UNL A   1      33.872  26.768  25.676  1.00  0.00     0.005 A 
ATOM     20  C   UNL A   1      31.520  27.270  25.485  1.00  0.00     0.005 A 
ATOM     21  C   UNL A   1      33.794  25.923  24.562  1.00  0.00     0.022 A 
ATOM     22  C   UNL A   1      31.419  26.377  24.416  1.00  0.00     0.022 A 
BRANCH  18  23
ATOM     23  C   UNL A   1      32.847  28.505  27.236  1.00  0.00     0.038 C 
BRANCH  23  24
ATOM     24  C   UNL A   1      33.802  29.694  26.980  1.00  0.00    -0.013 C 
ATOM     25  C   UNL A   1      33.192  31.021  27.423  1.00  0.00     0.008 C 
ATOM     26  C   UNL A   1      35.120  29.486  27.732  1.00  0.00     0.008 C 
ENDBRANCH  23  24
ENDBRANCH  18  23
ENDBRANCH  14  17
ENDBRANCH  12  14
ENDBRANCH   7  12
BRANCH  11  27
ATOM     27  N   UNL A   1      33.476  18.781  24.967  1.00  0.00    -0.356 N 
ATOM     28  C   UNL A   1      34.641  18.127  24.397  1.00  0.00     0.118 C 
ATOM     29  C   UNL A   1      32.547  17.814  25.539  1.00  0.00     0.118 C 
ATOM     30  C   UNL A   1      34.132  16.729  24.069  1.00  0.00     0.023 C 
ATOM     31  C   UNL A   1      33.182  16.450  25.227  1.00  0.00     0.023 C 
ENDBRANCH  11  27
ENDBRANCH   4   6
ENDBRANCH   3   4
ENDBRANCH   2   3
ENDBRANCH   1   2
BRANCH   1  32
ATOM     32  O   UNL A   1      37.854  23.297  26.006  1.00  0.00    -0.374 OA
BRANCH  32  33
ATOM     33  C   UNL A   1      38.336  21.997  25.692  1.00  0.00     0.202 C 
BRANCH  33  34
ATOM     34  C   UNL A   1      39.555  21.436  26.434  1.00  0.00     0.261 C 
BRANCH  34  35
ATOM     35  O   UNL A   1      40.278  20.423  25.725  1.00  0.00    -0.460 OA
BRANCH  35  36
ATOM     36  C   UNL A   1      41.407  20.014  26.355  1.00  0.00     0.338 C 
ATOM     37  O   UNL A   1      41.709  18.870  26.657  1.00  0.00    -0.246 OA
BRANCH  36  38
ATOM     38  C   UNL A   1      42.340  21.143  26.500  1.00  0.00     0.060 A 
ATOM     39  C   UNL A   1      42.727  21.504  27.798  1.00  0.00     0.016 A 
ATOM     40  C   UNL A   1      42.740  21.896  25.396  1.00  0.00     0.016 A 
ATOM     41  C   UNL A   1      43.476  22.658  28.002  1.00  0.00     0.010 A 
ATOM     42  C   UNL A   1      43.478  23.063  25.604  1.00  0.00     0.010 A 
ATOM     43  C   UNL A   1      43.809  23.469  26.910  1.00  0.00    -0.014 A 
BRANCH  43  44
ATOM     44  C   UNL A   1      44.336  24.829  27.153  1.00  0.00     0.031 A 
ATOM     45  C   UNL A   1      43.395  25.881  27.669  1.00  0.00     0.074 A 
ATOM     46  C   UNL A   1      45.629  25.115  26.926  1.00  0.00     0.049 A 
ATOM     47  N   UNL A   1      43.626  27.138  27.939  1.00  0.00    -0.248 NA
ATOM     48  C   UNL A   1      42.004  25.460  27.911  1.00  0.00     0.031 C 
ATOM     49  C   UNL A   1      46.628  24.167  26.439  1.00  0.00     0.029 A 
ATOM     50  N   UNL A   1      46.313  26.295  27.056  1.00  0.00    -0.354 N 
ATOM     51  C   UNL A   1      42.411  27.665  28.360  1.00  0.00     0.074 A 
ATOM     52  C   UNL A   1      41.439  26.594  28.296  1.00  0.00     0.031 C 
ATOM     53  C   UNL A   1      47.799  24.811  26.285  1.00  0.00     0.029 A 
ATOM     54  C   UNL A   1      47.621  26.218  26.644  1.00  0.00     0.049 A 
ATOM     55  H   UNL A   1      45.907  27.119  27.412  1.00  0.00     0.167 HD
ATOM     56  C   UNL A   1      42.131  28.921  28.777  1.00  0.00     0.034 A 
ATOM     57  C   UNL A   1      48.560  27.181  26.551  1.00  0.00     0.034 A 
ATOM     58  C   UNL A   1      43.105  29.975  28.850  1.00  0.00     0.049 A 
ATOM     59  C   UNL A   1      48.217  28.580  26.993  1.00  0.00     0.074 A 
ATOM     60  C   UNL A   1      42.937  31.275  29.294  1.00  0.00     0.029 A 
ATOM     61  N   UNL A   1      44.429  29.853  28.458  1.00  0.00    -0.354 N 
ATOM     62  N   UNL A   1      47.095  29.035  27.497  1.00  0.00    -0.248 NA
ATOM     63  C   UNL A   1      49.278  29.591  26.883  1.00  0.00     0.031 C 
ATOM     64  C   UNL A   1      44.158  31.944  29.149  1.00  0.00     0.029 A 
ATOM     65  C   UNL A   1      45.090  31.055  28.637  1.00  0.00     0.049 A 
ATOM     66  H   UNL A   1      44.839  29.031  28.103  1.00  0.00     0.167 HD
ATOM     67  C   UNL A   1      47.326  30.372  27.799  1.00  0.00     0.074 A 
ATOM     68  C   UNL A   1      48.700  30.650  27.435  1.00  0.00     0.031 C 
ATOM     69  C   UNL A   1      46.475  31.293  28.320  1.00  0.00     0.034 A 
BRANCH  56  70
ATOM     70  C   UNL A   1      40.718  29.210  29.211  1.00  0.00     0.023 A 
ATOM     71  C   UNL A   1      39.788  29.694  28.268  1.00  0.00     0.012 A 
ATOM     72  C   UNL A   1      40.304  28.981  30.536  1.00  0.00     0.148 A 
ATOM     73  C   UNL A   1      38.476  29.979  28.645  1.00  0.00     0.002 A 
ATOM     74  C   UNL A   1      38.983  29.230  30.896  1.00  0.00     0.091 A 
ATOM     75  F   UNL A   1      41.209  28.550  31.426  1.00  0.00    -0.205 F 
ATOM     76  C   UNL A   1      38.072  29.738  29.956  1.00  0.00     0.022 A 
BRANCH  74  77
ATOM     77  S   UNL A   1      38.354  28.885  32.543  1.00  0.00     0.127 S 
ATOM     78  O   UNL A   1      39.117  29.832  33.355  1.00  0.00    -0.237 OA
ATOM     79  O   UNL A   1      36.933  29.207  32.406  1.00  0.00    -0.237 OA
ATOM     80  O   UNL A   1      38.634  27.478  32.789  1.00  0.00    -0.744 OA
ENDBRANCH  74  77
ENDBRANCH  56  70
BRANCH  57  81
ATOM     81  C   UNL A   1      49.926  26.838  26.067  1.00  0.00     0.023 A 
ATOM     82  C   UNL A   1      50.798  26.116  26.905  1.00  0.00     0.012 A 
ATOM     83  C   UNL A   1      50.352  27.184  24.769  1.00  0.00     0.148 A 
ATOM     84  C   UNL A   1      52.076  25.767  26.470  1.00  0.00     0.002 A 
ATOM     85  C   UNL A   1      51.605  26.784  24.321  1.00  0.00     0.091 A 
ATOM     86  F   UNL A   1      49.513  27.884  23.992  1.00  0.00    -0.205 F 
ATOM     87  C   UNL A   1      52.476  26.090  25.175  1.00  0.00     0.022 A 
BRANCH  85  88
ATOM     88  S   UNL A   1      52.150  27.035  22.628  1.00  0.00     0.127 S 
ATOM     89  O   UNL A   1      50.951  26.681  21.873  1.00  0.00    -0.237 OA
ATOM     90  O   UNL A   1      52.482  28.461  22.629  1.00  0.00    -0.237 OA
ATOM     91  O   UNL A   1      53.296  26.154  22.449  1.00  0.00    -0.744 OA
ENDBRANCH  85  88
ENDBRANCH  57  81
BRANCH  69  92
ATOM     92  C   UNL A   1      47.009  32.681  28.562  1.00  0.00     0.023 A 
ATOM     93  C   UNL A   1      47.568  33.007  29.813  1.00  0.00     0.012 A 
ATOM     94  C   UNL A   1      47.035  33.632  27.522  1.00  0.00     0.148 A 
ATOM     95  C   UNL A   1      48.121  34.267  30.034  1.00  0.00     0.002 A 
ATOM     96  C   UNL A   1      47.630  34.870  27.735  1.00  0.00     0.091 A 
ATOM     97  F   UNL A   1      46.480  33.308  26.346  1.00  0.00    -0.205 F 
ATOM     98  C   UNL A   1      48.163  35.193  28.994  1.00  0.00     0.022 A 
BRANCH  96  99
ATOM     99  S   UNL A   1      47.814  36.084  26.425  1.00  0.00     0.127 S 
ATOM    100  O   UNL A   1      48.701  37.065  27.049  1.00  0.00    -0.237 OA
ATOM    101  O   UNL A   1      48.430  35.299  25.356  1.00  0.00    -0.237 OA
ATOM    102  O   UNL A   1      46.468  36.556  26.126  1.00  0.00    -0.744 OA
ENDBRANCH  96  99
ENDBRANCH  69  92
ENDBRANCH  43  44
ENDBRANCH  36  38
ENDBRANCH  35  36
ENDBRANCH  34  35
ENDBRANCH  33  34
ENDBRANCH  32  33
ENDBRANCH   1  32
TORSDOF 23
ENDMDL
MODEL 3
REMARK VINA RESULT:     -11.0      5.470     11.004
REMARK SMILES CC(C)Cc1ccc(S(=O)(=O)Nc2cnc(N3CCCC3)c(C(=O)OCCOCCOC(=O)c3ccc(-c4c5nc(c(-c6cccc(S(=O)(=O)[O-])c6F)c6ccc([nH]6)c(-c6cccc(S(=O)(=O)[O-])c6F)c6nc(c(-c7cccc(S(=O)(=O)[O-])c7F)c7ccc4[nH]7)C=C6)C=C5)cc3)c2)cc1
REMARK SMILES IDX 27 1 26 2 25 3 23 4 24 5 22 6 13 7 14 8 97 9 15 10 16 11
REMARK SMILES IDX 12 12 9 14 10 15 11 16 8 17 5 18 6 19 99 20 7 21 98 22 4 23
REMARK SMILES IDX 2 24 1 25 3 26 17 27 18 28 21 29 19 30 20 31 28 32 29 33
REMARK SMILES IDX 30 34 31 35 32 36 33 37 34 38 35 39 96 40 36 41 95 42 37 43
REMARK SMILES IDX 38 44 39 45 89 46 40 47 94 48 88 49 90 50 41 51 93 52 87 53
REMARK SMILES IDX 86 54 42 56 74 57 54 58 73 59 55 60 58 61 72 62 91 63 56 64
REMARK SMILES IDX 57 65 71 67 92 68 59 69 43 70 44 71 52 72 45 73 47 74 53 75
REMARK SMILES IDX 46 76 48 77 49 78 50 79 51 80 75 81 76 82 84 83 77 84 79 85
REMARK SMILES IDX 85 86 78 87 80 88 81 89 82 90 83 91 60 92 61 93 69 94 62 95
REMARK SMILES IDX 64 96 70 97 63 98 65 99 66 100 67 101 68 102
REMARK H PARENT 12 13 90 55 58 66
REMARK Flexibility Score: inf
ROOT
ATOM      1  C   UNL A   1      36.837  23.095  25.811  1.00  0.00     0.202 C 
ENDROOT
BRANCH   1   2
ATOM      2  C   UNL A   1      35.996  22.110  25.000  1.00  0.00     0.261 C 
BRANCH   2   3
ATOM      3  O   UNL A   1      35.413  21.064  25.793  1.00  0.00    -0.460 OA
BRANCH   3   4
ATOM      4  C   UNL A   1      34.108  21.254  26.120  1.00  0.00     0.342 C 
ATOM      5  O   UNL A   1      33.677  21.499  27.234  1.00  0.00    -0.246 OA
BRANCH   4   6
ATOM      6  C   UNL A   1      33.256  21.095  24.925  1.00  0.00     0.104 A 
ATOM      7  C   UNL A   1      32.144  22.212  23.103  1.00  0.00     0.068 A 
ATOM      8  C   UNL A   1      32.114  20.985  22.459  1.00  0.00     0.140 A 
ATOM      9  C   UNL A   1      32.710  22.259  24.367  1.00  0.00     0.048 A 
ATOM     10  N   UNL A   1      32.549  19.828  23.021  1.00  0.00    -0.236 NA
ATOM     11  C   UNL A   1      33.118  19.869  24.255  1.00  0.00     0.143 A 
BRANCH   7  12
ATOM     12  N   UNL A   1      31.739  23.441  22.490  1.00  0.00    -0.278 N 
ATOM     13  H   UNL A   1      30.793  23.614  22.285  1.00  0.00     0.180 HD
BRANCH  12  14
ATOM     14  S   UNL A   1      32.945  24.603  22.120  1.00  0.00     0.261 S 
ATOM     15  O   UNL A   1      32.887  24.764  20.692  1.00  0.00    -0.201 OA
ATOM     16  O   UNL A   1      34.166  24.146  22.764  1.00  0.00    -0.201 OA
BRANCH  14  17
ATOM     17  C   UNL A   1      32.448  26.119  22.901  1.00  0.00     0.087 A 
ATOM     18  C   UNL A   1      31.738  28.484  24.237  1.00  0.00    -0.048 A 
ATOM     19  C   UNL A   1      30.777  27.496  23.968  1.00  0.00     0.005 A 
ATOM     20  C   UNL A   1      33.034  28.313  23.737  1.00  0.00     0.005 A 
ATOM     21  C   UNL A   1      31.130  26.304  23.327  1.00  0.00     0.022 A 
ATOM     22  C   UNL A   1      33.378  27.156  23.036  1.00  0.00     0.022 A 
BRANCH  18  23
ATOM     23  C   UNL A   1      31.400  29.728  25.034  1.00  0.00     0.038 C 
BRANCH  23  24
ATOM     24  C   UNL A   1      32.298  29.984  26.267  1.00  0.00    -0.013 C 
ATOM     25  C   UNL A   1      31.996  31.328  26.923  1.00  0.00     0.008 C 
ATOM     26  C   UNL A   1      32.098  28.876  27.306  1.00  0.00     0.008 C 
ENDBRANCH  23  24
ENDBRANCH  18  23
ENDBRANCH  14  17
ENDBRANCH  12  14
ENDBRANCH   7  12
BRANCH  11  27
ATOM     27  N   UNL A   1      33.444  18.643  24.779  1.00  0.00    -0.356 N 
ATOM     28  C   UNL A   1      34.202  17.673  24.009  1.00  0.00     0.118 C 
ATOM     29  C   UNL A   1      32.586  17.994  25.762  1.00  0.00     0.118 C 
ATOM     30  C   UNL A   1      33.349  16.413  24.098  1.00  0.00     0.023 C 
ATOM     31  C   UNL A   1      32.801  16.493  25.518  1.00  0.00     0.023 C 
ENDBRANCH  11  27
ENDBRANCH   4   6
ENDBRANCH   3   4
ENDBRANCH   2   3
ENDBRANCH   1   2
BRANCH   1  32
ATOM     32  O   UNL A   1      38.190  22.760  26.100  1.00  0.00    -0.374 OA
BRANCH  32  33
ATOM     33  C   UNL A   1      38.705  21.556  25.546  1.00  0.00     0.202 C 
BRANCH  33  34
ATOM     34  C   UNL A   1      39.673  20.693  26.365  1.00  0.00     0.261 C 
BRANCH  34  35
ATOM     35  O   UNL A   1      40.415  19.733  25.604  1.00  0.00    -0.460 OA
BRANCH  35  36
ATOM     36  C   UNL A   1      41.666  19.509  26.078  1.00  0.00     0.338 C 
ATOM     37  O   UNL A   1      42.236  18.434  26.175  1.00  0.00    -0.246 OA
BRANCH  36  38
ATOM     38  C   UNL A   1      42.348  20.790  26.325  1.00  0.00     0.060 A 
ATOM     39  C   UNL A   1      42.567  21.163  27.657  1.00  0.00     0.016 A 
ATOM     40  C   UNL A   1      42.667  21.653  25.276  1.00  0.00     0.016 A 
ATOM     41  C   UNL A   1      43.060  22.431  27.950  1.00  0.00     0.010 A 
ATOM     42  C   UNL A   1      43.145  22.932  25.572  1.00  0.00     0.010 A 
ATOM     43  C   UNL A   1      43.301  23.337  26.910  1.00  0.00    -0.014 A 
BRANCH  43  44
ATOM     44  C   UNL A   1      43.533  24.761  27.232  1.00  0.00     0.031 A 
ATOM     45  C   UNL A   1      44.911  25.327  27.030  1.00  0.00     0.074 A 
ATOM     46  C   UNL A   1      42.533  25.535  27.686  1.00  0.00     0.049 A 
ATOM     47  N   UNL A   1      45.351  26.536  27.258  1.00  0.00    -0.248 NA
ATOM     48  C   UNL A   1      45.932  24.404  26.503  1.00  0.00     0.031 C 
ATOM     49  C   UNL A   1      41.158  25.090  27.905  1.00  0.00     0.029 A 
ATOM     50  N   UNL A   1      42.530  26.852  28.065  1.00  0.00    -0.354 N 
ATOM     51  C   UNL A   1      46.701  26.516  26.925  1.00  0.00     0.074 A 
ATOM     52  C   UNL A   1      47.012  25.170  26.493  1.00  0.00     0.031 C 
ATOM     53  C   UNL A   1      40.446  26.115  28.407  1.00  0.00     0.029 A 
ATOM     54  C   UNL A   1      41.323  27.276  28.562  1.00  0.00     0.049 A 
ATOM     55  H   UNL A   1      43.318  27.438  27.988  1.00  0.00     0.167 HD
ATOM     56  C   UNL A   1      47.596  27.529  26.960  1.00  0.00     0.034 A 
ATOM     57  C   UNL A   1      40.973  28.463  29.097  1.00  0.00     0.034 A 
ATOM     58  C   UNL A   1      47.277  28.866  27.379  1.00  0.00     0.049 A 
ATOM     59  C   UNL A   1      41.996  29.567  29.154  1.00  0.00     0.074 A 
ATOM     60  C   UNL A   1      48.099  29.977  27.417  1.00  0.00     0.029 A 
ATOM     61  N   UNL A   1      46.034  29.270  27.843  1.00  0.00    -0.354 N 
ATOM     62  N   UNL A   1      43.237  29.567  28.728  1.00  0.00    -0.248 NA
ATOM     63  C   UNL A   1      41.562  30.846  29.736  1.00  0.00     0.031 C 
ATOM     64  C   UNL A   1      47.357  31.049  27.925  1.00  0.00     0.029 A 
ATOM     65  C   UNL A   1      46.067  30.611  28.181  1.00  0.00     0.049 A 
ATOM     66  H   UNL A   1      45.244  28.687  27.920  1.00  0.00     0.167 HD
ATOM     67  C   UNL A   1      43.720  30.851  28.955  1.00  0.00     0.074 A 
ATOM     68  C   UNL A   1      42.632  31.607  29.542  1.00  0.00     0.031 C 
ATOM     69  C   UNL A   1      44.955  31.358  28.712  1.00  0.00     0.034 A 
BRANCH  56  70
ATOM     70  C   UNL A   1      49.002  27.229  26.509  1.00  0.00     0.023 A 
ATOM     71  C   UNL A   1      49.911  26.641  27.412  1.00  0.00     0.012 A 
ATOM     72  C   UNL A   1      49.416  27.503  25.192  1.00  0.00     0.148 A 
ATOM     73  C   UNL A   1      51.220  26.363  27.023  1.00  0.00     0.002 A 
ATOM     74  C   UNL A   1      50.711  27.185  24.798  1.00  0.00     0.091 A 
ATOM     75  F   UNL A   1      48.547  28.089  24.356  1.00  0.00    -0.205 F 
ATOM     76  C   UNL A   1      51.617  26.626  25.714  1.00  0.00     0.022 A 
BRANCH  74  77
ATOM     77  S   UNL A   1      51.292  27.425  23.115  1.00  0.00     0.127 S 
ATOM     78  O   UNL A   1      51.335  28.884  23.022  1.00  0.00    -0.237 OA
ATOM     79  O   UNL A   1      52.604  26.776  23.144  1.00  0.00    -0.237 OA
ATOM     80  O   UNL A   1      50.312  26.769  22.260  1.00  0.00    -0.744 OA
ENDBRANCH  74  77
ENDBRANCH  56  70
BRANCH  57  81
ATOM     81  C   UNL A   1      39.577  28.679  29.571  1.00  0.00     0.023 A 
ATOM     82  C   UNL A   1      39.238  28.351  30.898  1.00  0.00     0.012 A 
ATOM     83  C   UNL A   1      38.597  29.245  28.731  1.00  0.00     0.148 A 
ATOM     84  C   UNL A   1      37.943  28.559  31.372  1.00  0.00     0.002 A 
ATOM     85  C   UNL A   1      37.325  29.502  29.227  1.00  0.00     0.091 A 
ATOM     86  F   UNL A   1      38.937  29.536  27.468  1.00  0.00    -0.205 F 
ATOM     87  C   UNL A   1      36.990  29.145  30.542  1.00  0.00     0.022 A 
BRANCH  85  88
ATOM     88  S   UNL A   1      36.078  30.377  28.276  1.00  0.00     0.127 S 
ATOM     89  O   UNL A   1      35.060  30.642  29.289  1.00  0.00    -0.237 OA
ATOM     90  O   UNL A   1      36.821  31.555  27.822  1.00  0.00    -0.237 OA
ATOM     91  O   UNL A   1      35.688  29.468  27.208  1.00  0.00    -0.744 OA
ENDBRANCH  85  88
ENDBRANCH  57  81
BRANCH  69  92
ATOM     92  C   UNL A   1      45.195  32.807  29.046  1.00  0.00     0.023 A 
ATOM     93  C   UNL A   1      45.643  33.163  30.333  1.00  0.00     0.012 A 
ATOM     94  C   UNL A   1      45.060  33.803  28.058  1.00  0.00     0.148 A 
ATOM     95  C   UNL A   1      45.928  34.493  30.640  1.00  0.00     0.002 A 
ATOM     96  C   UNL A   1      45.391  35.120  28.358  1.00  0.00     0.091 A 
ATOM     97  F   UNL A   1      44.614  33.446  26.846  1.00  0.00    -0.205 F 
ATOM     98  C   UNL A   1      45.814  35.468  29.651  1.00  0.00     0.022 A 
BRANCH  96  99
ATOM     99  S   UNL A   1      45.367  36.420  27.120  1.00  0.00     0.127 S 
ATOM    100  O   UNL A   1      43.932  36.647  26.953  1.00  0.00    -0.237 OA
ATOM    101  O   UNL A   1      46.080  37.506  27.793  1.00  0.00    -0.237 OA
ATOM    102  O   UNL A   1      46.057  35.878  25.957  1.00  0.00    -0.744 OA
ENDBRANCH  96  99
ENDBRANCH  69  92
ENDBRANCH  43  44
ENDBRANCH  36  38
ENDBRANCH  35  36
ENDBRANCH  34  35
ENDBRANCH  33  34
ENDBRANCH  32  33
ENDBRANCH   1  32
TORSDOF 23
ENDMDL
