MODEL 1
REMARK VINA RESULT:     -11.1      0.000      0.000
REMARK SMILES O=C(OCCOCCOC(=O)c1ccc(-c2c3nc(c(-c4cccc(S(=O)(=O)[O-])c4F)c4ccc([nH]4)c(-c4cccc(S(=O)(=O)[O-])c4F)c4nc(c(-c5cccc(S(=O)(=O)[O-])c5F)c5ccc2[nH]5)C=C4)C=C3)cc1)c1ccc(/C=C/c2ccc3cccc(O)c3n2)cc1
REMARK SMILES IDX 6 1 5 2 4 3 3 4 2 5 1 6 75 7 76 8 93 9 77 10 92 11 78 12
REMARK SMILES IDX 79 13 80 14 81 15 82 16 91 17 83 18 90 19 84 20 88 21 85 22
REMARK SMILES IDX 87 23 86 24 89 25 7 27 8 28 9 29 10 30 11 31 12 32 13 33
REMARK SMILES IDX 74 34 14 35 73 36 15 37 16 38 17 39 67 40 18 41 72 42 66 43
REMARK SMILES IDX 68 44 19 45 71 46 65 47 64 48 20 50 52 51 32 52 51 53 33 54
REMARK SMILES IDX 36 55 50 56 69 57 34 58 35 59 49 61 70 62 37 63 21 64 22 65
REMARK SMILES IDX 30 66 23 67 25 68 31 69 24 70 26 71 27 72 28 73 29 74 53 75
REMARK SMILES IDX 54 76 62 77 55 78 57 79 63 80 56 81 58 82 59 83 60 84 61 85
REMARK SMILES IDX 38 86 39 87 47 88 40 89 42 90 48 91 41 92 43 93 44 94 45 95
REMARK SMILES IDX 46 96
REMARK H PARENT 89 26 68 49 36 60
REMARK Flexibility Score: inf
ROOT
ATOM      1  O   UNL A   1      32.766  28.683  26.378  1.00  0.00    -0.374 OA
ENDROOT
BRANCH   1   2
ATOM      2  C   UNL A   1      31.462  28.934  25.859  1.00  0.00     0.202 C 
BRANCH   2   3
ATOM      3  C   UNL A   1      31.481  29.572  24.474  1.00  0.00     0.261 C 
BRANCH   3   4
ATOM      4  O   UNL A   1      30.146  29.655  23.957  1.00  0.00    -0.460 OA
BRANCH   4   5
ATOM      5  C   UNL A   1      29.489  28.702  23.265  1.00  0.00     0.338 C 
ATOM      6  O   UNL A   1      28.356  28.936  22.845  1.00  0.00    -0.246 OA
BRANCH   5   7
ATOM      7  C   UNL A   1      30.066  27.365  22.948  1.00  0.00     0.060 A 
ATOM      8  C   UNL A   1      31.091  27.125  22.026  1.00  0.00     0.016 A 
ATOM      9  C   UNL A   1      29.680  26.320  23.789  1.00  0.00     0.016 A 
ATOM     10  C   UNL A   1      31.754  25.895  21.968  1.00  0.00     0.009 A 
ATOM     11  C   UNL A   1      30.339  25.090  23.732  1.00  0.00     0.009 A 
ATOM     12  C   UNL A   1      31.404  24.873  22.841  1.00  0.00    -0.026 A 
BRANCH  12  13
ATOM     13  C   UNL A   1      32.038  23.551  22.839  1.00  0.00     0.010 C 
ATOM     14  C   UNL A   1      31.784  22.497  23.646  1.00  0.00     0.029 C 
BRANCH  14  15
ATOM     15  C   UNL A   1      32.977  21.647  23.944  1.00  0.00     0.064 A 
ATOM     16  C   UNL A   1      32.875  21.166  25.246  1.00  0.00     0.029 A 
ATOM     17  N   UNL A   1      34.154  22.082  23.430  1.00  0.00    -0.245 NA
ATOM     18  C   UNL A   1      33.782  21.681  26.162  1.00  0.00     0.013 A 
ATOM     19  C   UNL A   1      35.100  22.459  24.316  1.00  0.00     0.113 A 
ATOM     20  C   UNL A   1      34.874  22.425  25.704  1.00  0.00     0.004 A 
ATOM     21  C   UNL A   1      36.314  22.979  23.878  1.00  0.00     0.141 A 
ATOM     22  C   UNL A   1      35.717  23.136  26.573  1.00  0.00     0.010 A 
ATOM     23  C   UNL A   1      37.208  23.609  24.741  1.00  0.00     0.048 A 
ATOM     24  C   UNL A   1      36.871  23.746  26.084  1.00  0.00     0.005 A 
BRANCH  21  25
ATOM     25  O   UNL A   1      36.650  22.882  22.550  1.00  0.00    -0.506 OA
ATOM     26  H   UNL A   1      36.350  23.528  21.942  1.00  0.00     0.293 HD
ENDBRANCH  21  25
ENDBRANCH  14  15
ENDBRANCH  12  13
ENDBRANCH   5   7
ENDBRANCH   4   5
ENDBRANCH   3   4
ENDBRANCH   2   3
ENDBRANCH   1   2
BRANCH   1  27
ATOM     27  C   UNL A   1      33.689  29.779  26.336  1.00  0.00     0.202 C 
BRANCH  27  28
ATOM     28  C   UNL A   1      33.346  30.748  27.473  1.00  0.00     0.261 C 
BRANCH  28  29
ATOM     29  O   UNL A   1      34.428  31.680  27.592  1.00  0.00    -0.460 OA
BRANCH  29  30
ATOM     30  C   UNL A   1      34.963  31.734  28.840  1.00  0.00     0.338 C 
ATOM     31  O   UNL A   1      34.502  32.297  29.811  1.00  0.00    -0.246 OA
BRANCH  30  32
ATOM     32  C   UNL A   1      36.120  30.807  28.879  1.00  0.00     0.060 A 
ATOM     33  C   UNL A   1      36.172  29.863  29.914  1.00  0.00     0.016 A 
ATOM     34  C   UNL A   1      37.126  30.851  27.907  1.00  0.00     0.016 A 
ATOM     35  C   UNL A   1      37.282  29.035  30.041  1.00  0.00     0.010 A 
ATOM     36  C   UNL A   1      38.233  30.017  28.026  1.00  0.00     0.010 A 
ATOM     37  C   UNL A   1      38.343  29.168  29.138  1.00  0.00    -0.014 A 
BRANCH  37  38
ATOM     38  C   UNL A   1      39.677  28.660  29.514  1.00  0.00     0.031 A 
ATOM     39  C   UNL A   1      40.402  29.377  30.623  1.00  0.00     0.074 A 
ATOM     40  C   UNL A   1      40.225  27.606  28.888  1.00  0.00     0.049 A 
ATOM     41  N   UNL A   1      41.580  29.141  31.132  1.00  0.00    -0.248 NA
ATOM     42  C   UNL A   1      39.705  30.526  31.231  1.00  0.00     0.031 C 
ATOM     43  C   UNL A   1      39.606  26.852  27.800  1.00  0.00     0.029 A 
ATOM     44  N   UNL A   1      41.440  27.004  29.072  1.00  0.00    -0.354 N 
ATOM     45  C   UNL A   1      41.780  30.132  32.086  1.00  0.00     0.074 A 
ATOM     46  C   UNL A   1      40.615  30.985  32.074  1.00  0.00     0.031 C 
ATOM     47  C   UNL A   1      40.457  25.891  27.401  1.00  0.00     0.029 A 
ATOM     48  C   UNL A   1      41.682  25.979  28.191  1.00  0.00     0.049 A 
ATOM     49  H   UNL A   1      42.079  27.279  29.768  1.00  0.00     0.167 HD
ATOM     50  C   UNL A   1      42.837  30.310  32.911  1.00  0.00     0.034 A 
ATOM     51  C   UNL A   1      42.779  25.212  28.044  1.00  0.00     0.034 A 
ATOM     52  C   UNL A   1      43.981  29.442  32.925  1.00  0.00     0.049 A 
ATOM     53  C   UNL A   1      43.941  25.424  28.979  1.00  0.00     0.074 A 
ATOM     54  C   UNL A   1      45.086  29.486  33.753  1.00  0.00     0.029 A 
ATOM     55  N   UNL A   1      44.170  28.380  32.053  1.00  0.00    -0.354 N 
ATOM     56  N   UNL A   1      44.070  26.289  29.956  1.00  0.00    -0.248 NA
ATOM     57  C   UNL A   1      45.092  24.525  28.818  1.00  0.00     0.031 C 
ATOM     58  C   UNL A   1      45.964  28.472  33.354  1.00  0.00     0.029 A 
ATOM     59  C   UNL A   1      45.379  27.765  32.313  1.00  0.00     0.049 A 
ATOM     60  H   UNL A   1      43.536  28.105  31.351  1.00  0.00     0.167 HD
ATOM     61  C   UNL A   1      45.289  26.004  30.563  1.00  0.00     0.074 A 
ATOM     62  C   UNL A   1      45.854  24.879  29.843  1.00  0.00     0.031 C 
ATOM     63  C   UNL A   1      45.890  26.614  31.615  1.00  0.00     0.034 A 
BRANCH  50  64
ATOM     64  C   UNL A   1      42.798  31.481  33.857  1.00  0.00     0.023 A 
ATOM     65  C   UNL A   1      43.345  32.723  33.473  1.00  0.00     0.012 A 
ATOM     66  C   UNL A   1      42.194  31.356  35.123  1.00  0.00     0.148 A 
ATOM     67  C   UNL A   1      43.328  33.808  34.350  1.00  0.00     0.002 A 
ATOM     68  C   UNL A   1      42.133  32.456  35.970  1.00  0.00     0.091 A 
ATOM     69  F   UNL A   1      41.705  30.160  35.483  1.00  0.00    -0.205 F 
ATOM     70  C   UNL A   1      42.714  33.678  35.591  1.00  0.00     0.022 A 
BRANCH  68  71
ATOM     71  S   UNL A   1      41.290  32.411  37.554  1.00  0.00     0.127 S 
ATOM     72  O   UNL A   1      42.137  31.494  38.315  1.00  0.00    -0.237 OA
ATOM     73  O   UNL A   1      41.366  33.808  37.981  1.00  0.00    -0.237 OA
ATOM     74  O   UNL A   1      39.942  31.932  37.279  1.00  0.00    -0.744 OA
ENDBRANCH  68  71
ENDBRANCH  50  64
BRANCH  51  75
ATOM     75  C   UNL A   1      42.804  24.131  27.018  1.00  0.00     0.023 A 
ATOM     76  C   UNL A   1      43.471  24.349  25.797  1.00  0.00     0.012 A 
ATOM     77  C   UNL A   1      42.190  22.887  27.252  1.00  0.00     0.148 A 
ATOM     78  C   UNL A   1      43.495  23.361  24.812  1.00  0.00     0.002 A 
ATOM     79  C   UNL A   1      42.263  21.887  26.290  1.00  0.00     0.091 A 
ATOM     80  F   UNL A   1      41.554  22.702  28.418  1.00  0.00    -0.205 F 
ATOM     81  C   UNL A   1      42.899  22.128  25.061  1.00  0.00     0.022 A 
BRANCH  79  82
ATOM     82  S   UNL A   1      41.634  20.228  26.568  1.00  0.00     0.127 S 
ATOM     83  O   UNL A   1      40.191  20.446  26.538  1.00  0.00    -0.237 OA
ATOM     84  O   UNL A   1      42.175  19.507  25.416  1.00  0.00    -0.237 OA
ATOM     85  O   UNL A   1      42.182  19.808  27.851  1.00  0.00    -0.744 OA
ENDBRANCH  79  82
ENDBRANCH  51  75
BRANCH  63  86
ATOM     86  C   UNL A   1      47.192  26.033  32.104  1.00  0.00     0.023 A 
ATOM     87  C   UNL A   1      47.209  25.137  33.190  1.00  0.00     0.012 A 
ATOM     88  C   UNL A   1      48.395  26.337  31.436  1.00  0.00     0.148 A 
ATOM     89  C   UNL A   1      48.413  24.588  33.633  1.00  0.00     0.002 A 
ATOM     90  C   UNL A   1      49.580  25.740  31.845  1.00  0.00     0.091 A 
ATOM     91  F   UNL A   1      48.359  27.205  30.416  1.00  0.00    -0.205 F 
ATOM     92  C   UNL A   1      49.594  24.879  32.954  1.00  0.00     0.022 A 
BRANCH  90  93
ATOM     93  S   UNL A   1      51.124  25.976  30.960  1.00  0.00     0.127 S 
ATOM     94  O   UNL A   1      51.352  27.409  31.134  1.00  0.00    -0.237 OA
ATOM     95  O   UNL A   1      52.045  25.116  31.706  1.00  0.00    -0.237 OA
ATOM     96  O   UNL A   1      50.872  25.543  29.592  1.00  0.00    -0.744 OA
ENDBRANCH  90  93
ENDBRANCH  63  86
ENDBRANCH  37  38
ENDBRANCH  30  32
ENDBRANCH  29  30
ENDBRANCH  28  29
ENDBRANCH  27  28
ENDBRANCH   1  27
TORSDOF 20
ENDMDL
MODEL 2
REMARK VINA RESULT:     -11.1      4.544     10.093
REMARK SMILES O=C(OCCOCCOC(=O)c1ccc(-c2c3nc(c(-c4cccc(S(=O)(=O)[O-])c4F)c4ccc([nH]4)c(-c4cccc(S(=O)(=O)[O-])c4F)c4nc(c(-c5cccc(S(=O)(=O)[O-])c5F)c5ccc2[nH]5)C=C4)C=C3)cc1)c1ccc(/C=C/c2ccc3cccc(O)c3n2)cc1
REMARK SMILES IDX 6 1 5 2 4 3 3 4 2 5 1 6 75 7 76 8 93 9 77 10 92 11 78 12
REMARK SMILES IDX 79 13 80 14 81 15 82 16 91 17 83 18 90 19 84 20 88 21 85 22
REMARK SMILES IDX 87 23 86 24 89 25 7 27 8 28 9 29 10 30 11 31 12 32 13 33
REMARK SMILES IDX 74 34 14 35 73 36 15 37 16 38 17 39 67 40 18 41 72 42 66 43
REMARK SMILES IDX 68 44 19 45 71 46 65 47 64 48 20 50 52 51 32 52 51 53 33 54
REMARK SMILES IDX 36 55 50 56 69 57 34 58 35 59 49 61 70 62 37 63 21 64 22 65
REMARK SMILES IDX 30 66 23 67 25 68 31 69 24 70 26 71 27 72 28 73 29 74 53 75
REMARK SMILES IDX 54 76 62 77 55 78 57 79 63 80 56 81 58 82 59 83 60 84 61 85
REMARK SMILES IDX 38 86 39 87 47 88 40 89 42 90 48 91 41 92 43 93 44 94 45 95
REMARK SMILES IDX 46 96
REMARK H PARENT 89 26 68 49 36 60
REMARK Flexibility Score: inf
ROOT
ATOM      1  O   UNL A   1      36.944  18.596  24.992  1.00  0.00    -0.374 OA
ENDROOT
BRANCH   1   2
ATOM      2  C   UNL A   1      35.545  18.734  24.757  1.00  0.00     0.202 C 
BRANCH   2   3
ATOM      3  C   UNL A   1      34.890  17.446  24.269  1.00  0.00     0.261 C 
BRANCH   3   4
ATOM      4  O   UNL A   1      33.656  17.747  23.603  1.00  0.00    -0.460 OA
BRANCH   4   5
ATOM      5  C   UNL A   1      32.657  18.525  24.071  1.00  0.00     0.338 C 
ATOM      6  O   UNL A   1      31.797  18.027  24.796  1.00  0.00    -0.246 OA
BRANCH   5   7
ATOM      7  C   UNL A   1      32.539  19.981  23.780  1.00  0.00     0.060 A 
ATOM      8  C   UNL A   1      32.160  20.532  22.550  1.00  0.00     0.016 A 
ATOM      9  C   UNL A   1      32.624  20.832  24.883  1.00  0.00     0.016 A 
ATOM     10  C   UNL A   1      31.825  21.884  22.423  1.00  0.00     0.009 A 
ATOM     11  C   UNL A   1      32.291  22.182  24.760  1.00  0.00     0.009 A 
ATOM     12  C   UNL A   1      31.858  22.717  23.533  1.00  0.00    -0.026 A 
BRANCH  12  13
ATOM     13  C   UNL A   1      31.534  24.146  23.486  1.00  0.00     0.010 C 
ATOM     14  C   UNL A   1      32.365  25.189  23.274  1.00  0.00     0.029 C 
BRANCH  14  15
ATOM     15  C   UNL A   1      31.982  26.441  23.995  1.00  0.00     0.064 A 
ATOM     16  C   UNL A   1      31.098  26.120  25.021  1.00  0.00     0.029 A 
ATOM     17  N   UNL A   1      31.812  27.540  23.218  1.00  0.00    -0.245 NA
ATOM     18  C   UNL A   1      29.788  26.546  24.855  1.00  0.00     0.013 A 
ATOM     19  C   UNL A   1      30.563  28.050  23.156  1.00  0.00     0.113 A 
ATOM     20  C   UNL A   1      29.485  27.463  23.843  1.00  0.00     0.004 A 
ATOM     21  C   UNL A   1      30.282  29.137  22.333  1.00  0.00     0.141 A 
ATOM     22  C   UNL A   1      28.166  27.788  23.492  1.00  0.00     0.010 A 
ATOM     23  C   UNL A   1      28.979  29.533  22.045  1.00  0.00     0.048 A 
ATOM     24  C   UNL A   1      27.916  28.808  22.576  1.00  0.00     0.005 A 
BRANCH  21  25
ATOM     25  O   UNL A   1      31.317  29.845  21.774  1.00  0.00    -0.506 OA
ATOM     26  H   UNL A   1      31.419  29.870  20.843  1.00  0.00     0.293 HD
ENDBRANCH  21  25
ENDBRANCH  14  15
ENDBRANCH  12  13
ENDBRANCH   5   7
ENDBRANCH   4   5
ENDBRANCH   3   4
ENDBRANCH   2   3
ENDBRANCH   1   2
BRANCH   1  27
ATOM     27  C   UNL A   1      37.739  19.775  24.809  1.00  0.00     0.202 C 
BRANCH  27  28
ATOM     28  C   UNL A   1      39.063  19.590  25.559  1.00  0.00     0.261 C 
BRANCH  28  29
ATOM     29  O   UNL A   1      39.680  20.877  25.678  1.00  0.00    -0.460 OA
BRANCH  29  30
ATOM     30  C   UNL A   1      40.748  20.892  26.519  1.00  0.00     0.338 C 
ATOM     31  O   UNL A   1      41.603  20.038  26.633  1.00  0.00    -0.246 OA
BRANCH  30  32
ATOM     32  C   UNL A   1      40.817  22.236  27.141  1.00  0.00     0.060 A 
ATOM     33  C   UNL A   1      40.046  23.263  26.577  1.00  0.00     0.016 A 
ATOM     34  C   UNL A   1      41.609  22.481  28.268  1.00  0.00     0.016 A 
ATOM     35  C   UNL A   1      40.150  24.558  27.071  1.00  0.00     0.010 A 
ATOM     36  C   UNL A   1      41.707  23.775  28.771  1.00  0.00     0.010 A 
ATOM     37  C   UNL A   1      41.038  24.823  28.120  1.00  0.00    -0.014 A 
BRANCH  37  38
ATOM     38  C   UNL A   1      41.503  26.207  28.339  1.00  0.00     0.031 A 
ATOM     39  C   UNL A   1      42.870  26.566  27.819  1.00  0.00     0.074 A 
ATOM     40  C   UNL A   1      40.741  27.106  28.981  1.00  0.00     0.049 A 
ATOM     41  N   UNL A   1      43.513  27.700  27.890  1.00  0.00    -0.248 NA
ATOM     42  C   UNL A   1      43.619  25.494  27.137  1.00  0.00     0.031 C 
ATOM     43  C   UNL A   1      39.408  26.852  29.526  1.00  0.00     0.029 A 
ATOM     44  N   UNL A   1      40.994  28.413  29.297  1.00  0.00    -0.354 N 
ATOM     45  C   UNL A   1      44.750  27.465  27.301  1.00  0.00     0.074 A 
ATOM     46  C   UNL A   1      44.780  26.079  26.896  1.00  0.00     0.031 C 
ATOM     47  C   UNL A   1      38.966  27.970  30.127  1.00  0.00     0.029 A 
ATOM     48  C   UNL A   1      39.991  29.006  30.024  1.00  0.00     0.049 A 
ATOM     49  H   UNL A   1      41.817  28.883  29.030  1.00  0.00     0.167 HD
ATOM     50  C   UNL A   1      45.769  28.332  27.103  1.00  0.00     0.034 A 
ATOM     51  C   UNL A   1      39.925  30.244  30.548  1.00  0.00     0.034 A 
ATOM     52  C   UNL A   1      45.717  29.712  27.494  1.00  0.00     0.049 A 
ATOM     53  C   UNL A   1      41.069  31.193  30.308  1.00  0.00     0.074 A 
ATOM     54  C   UNL A   1      46.662  30.701  27.296  1.00  0.00     0.029 A 
ATOM     55  N   UNL A   1      44.662  30.293  28.182  1.00  0.00    -0.354 N 
ATOM     56  N   UNL A   1      42.185  30.996  29.647  1.00  0.00    -0.248 NA
ATOM     57  C   UNL A   1      40.927  32.552  30.850  1.00  0.00     0.031 C 
ATOM     58  C   UNL A   1      46.194  31.872  27.900  1.00  0.00     0.029 A 
ATOM     59  C   UNL A   1      44.935  31.625  28.428  1.00  0.00     0.049 A 
ATOM     60  H   UNL A   1      43.840  29.825  28.456  1.00  0.00     0.167 HD
ATOM     61  C   UNL A   1      42.851  32.216  29.645  1.00  0.00     0.074 A 
ATOM     62  C   UNL A   1      42.007  33.148  30.367  1.00  0.00     0.031 C 
ATOM     63  C   UNL A   1      44.051  32.541  29.101  1.00  0.00     0.034 A 
BRANCH  50  64
ATOM     64  C   UNL A   1      47.014  27.808  26.437  1.00  0.00     0.023 A 
ATOM     65  C   UNL A   1      47.996  27.136  27.194  1.00  0.00     0.012 A 
ATOM     66  C   UNL A   1      47.199  27.961  25.049  1.00  0.00     0.148 A 
ATOM     67  C   UNL A   1      49.161  26.663  26.589  1.00  0.00     0.002 A 
ATOM     68  C   UNL A   1      48.336  27.439  24.444  1.00  0.00     0.091 A 
ATOM     69  F   UNL A   1      46.270  28.627  24.350  1.00  0.00    -0.205 F 
ATOM     70  C   UNL A   1      49.325  26.805  25.214  1.00  0.00     0.022 A 
BRANCH  68  71
ATOM     71  S   UNL A   1      48.599  27.498  22.669  1.00  0.00     0.127 S 
ATOM     72  O   UNL A   1      49.892  28.174  22.583  1.00  0.00    -0.237 OA
ATOM     73  O   UNL A   1      48.629  26.078  22.317  1.00  0.00    -0.237 OA
ATOM     74  O   UNL A   1      47.471  28.236  22.119  1.00  0.00    -0.744 OA
ENDBRANCH  68  71
ENDBRANCH  50  64
BRANCH  51  75
ATOM     75  C   UNL A   1      38.708  30.678  31.291  1.00  0.00     0.023 A 
ATOM     76  C   UNL A   1      38.633  30.469  32.682  1.00  0.00     0.012 A 
ATOM     77  C   UNL A   1      37.637  31.310  30.633  1.00  0.00     0.148 A 
ATOM     78  C   UNL A   1      37.498  30.849  33.399  1.00  0.00     0.002 A 
ATOM     79  C   UNL A   1      36.532  31.737  31.361  1.00  0.00     0.091 A 
ATOM     80  F   UNL A   1      37.725  31.494  29.308  1.00  0.00    -0.205 F 
ATOM     81  C   UNL A   1      36.452  31.490  32.740  1.00  0.00     0.022 A 
BRANCH  79  82
ATOM     82  S   UNL A   1      35.194  32.679  30.624  1.00  0.00     0.127 S 
ATOM     83  O   UNL A   1      34.819  31.834  29.493  1.00  0.00    -0.237 OA
ATOM     84  O   UNL A   1      34.220  32.717  31.715  1.00  0.00    -0.237 OA
ATOM     85  O   UNL A   1      35.764  33.975  30.282  1.00  0.00    -0.744 OA
ENDBRANCH  79  82
ENDBRANCH  51  75
BRANCH  63  86
ATOM     86  C   UNL A   1      44.491  33.979  29.194  1.00  0.00     0.023 A 
ATOM     87  C   UNL A   1      45.549  34.348  30.048  1.00  0.00     0.012 A 
ATOM     88  C   UNL A   1      43.886  34.956  28.378  1.00  0.00     0.148 A 
ATOM     89  C   UNL A   1      45.966  35.677  30.121  1.00  0.00     0.002 A 
ATOM     90  C   UNL A   1      44.346  36.265  28.413  1.00  0.00     0.091 A 
ATOM     91  F   UNL A   1      42.869  34.588  27.586  1.00  0.00    -0.205 F 
ATOM     92  C   UNL A   1      45.374  36.631  29.297  1.00  0.00     0.022 A 
BRANCH  90  93
ATOM     93  S   UNL A   1      43.714  37.531  27.308  1.00  0.00     0.127 S 
ATOM     94  O   UNL A   1      43.000  36.730  26.316  1.00  0.00    -0.237 OA
ATOM     95  O   UNL A   1      42.852  38.316  28.194  1.00  0.00    -0.237 OA
ATOM     96  O   UNL A   1      44.880  38.249  26.813  1.00  0.00    -0.744 OA
ENDBRANCH  90  93
ENDBRANCH  63  86
ENDBRANCH  37  38
ENDBRANCH  30  32
ENDBRANCH  29  30
ENDBRANCH  28  29
ENDBRANCH  27  28
ENDBRANCH   1  27
TORSDOF 20
ENDMDL
MODEL 3
REMARK VINA RESULT:     -11.1      4.060      9.645
REMARK SMILES O=C(OCCOCCOC(=O)c1ccc(-c2c3nc(c(-c4cccc(S(=O)(=O)[O-])c4F)c4ccc([nH]4)c(-c4cccc(S(=O)(=O)[O-])c4F)c4nc(c(-c5cccc(S(=O)(=O)[O-])c5F)c5ccc2[nH]5)C=C4)C=C3)cc1)c1ccc(/C=C/c2ccc3cccc(O)c3n2)cc1
REMARK SMILES IDX 6 1 5 2 4 3 3 4 2 5 1 6 75 7 76 8 93 9 77 10 92 11 78 12
REMARK SMILES IDX 79 13 80 14 81 15 82 16 91 17 83 18 90 19 84 20 88 21 85 22
REMARK SMILES IDX 87 23 86 24 89 25 7 27 8 28 9 29 10 30 11 31 12 32 13 33
REMARK SMILES IDX 74 34 14 35 73 36 15 37 16 38 17 39 67 40 18 41 72 42 66 43
REMARK SMILES IDX 68 44 19 45 71 46 65 47 64 48 20 50 52 51 32 52 51 53 33 54
REMARK SMILES IDX 36 55 50 56 69 57 34 58 35 59 49 61 70 62 37 63 21 64 22 65
REMARK SMILES IDX 30 66 23 67 25 68 31 69 24 70 26 71 27 72 28 73 29 74 53 75
REMARK SMILES IDX 54 76 62 77 55 78 57 79 63 80 56 81 58 82 59 83 60 84 61 85
REMARK SMILES IDX 38 86 39 87 47 88 40 89 42 90 48 91 41 92 43 93 44 94 45 95
REMARK SMILES IDX 46 96
REMARK H PARENT 89 26 68 49 36 60
REMARK Flexibility Score: inf
ROOT
ATOM      1  O   UNL A   1      36.819  18.519  24.633  1.00  0.00    -0.374 OA
ENDROOT
BRANCH   1   2
ATOM      2  C   UNL A   1      35.406  18.459  24.813  1.00  0.00     0.202 C 
BRANCH   2   3
ATOM      3  C   UNL A   1      34.771  17.235  24.162  1.00  0.00     0.261 C 
BRANCH   3   4
ATOM      4  O   UNL A   1      33.503  17.588  23.592  1.00  0.00    -0.460 OA
BRANCH   4   5
ATOM      5  C   UNL A   1      32.501  18.251  24.205  1.00  0.00     0.338 C 
ATOM      6  O   UNL A   1      31.779  17.650  25.000  1.00  0.00    -0.246 OA
BRANCH   5   7
ATOM      7  C   UNL A   1      32.221  19.700  23.997  1.00  0.00     0.060 A 
ATOM      8  C   UNL A   1      32.215  20.674  25.002  1.00  0.00     0.016 A 
ATOM      9  C   UNL A   1      32.160  20.125  22.669  1.00  0.00     0.016 A 
ATOM     10  C   UNL A   1      32.199  22.040  24.701  1.00  0.00     0.009 A 
ATOM     11  C   UNL A   1      32.142  21.487  22.365  1.00  0.00     0.009 A 
ATOM     12  C   UNL A   1      32.192  22.461  23.378  1.00  0.00    -0.026 A 
BRANCH  12  13
ATOM     13  C   UNL A   1      32.162  23.870  22.974  1.00  0.00     0.010 C 
ATOM     14  C   UNL A   1      33.066  24.839  23.238  1.00  0.00     0.029 C 
BRANCH  14  15
ATOM     15  C   UNL A   1      32.479  26.205  23.394  1.00  0.00     0.064 A 
ATOM     16  C   UNL A   1      33.334  27.134  22.807  1.00  0.00     0.029 A 
ATOM     17  N   UNL A   1      31.858  26.448  24.575  1.00  0.00    -0.245 NA
ATOM     18  C   UNL A   1      33.997  27.990  23.675  1.00  0.00     0.013 A 
ATOM     19  C   UNL A   1      32.418  27.381  25.374  1.00  0.00     0.113 A 
ATOM     20  C   UNL A   1      33.598  28.056  25.014  1.00  0.00     0.004 A 
ATOM     21  C   UNL A   1      31.886  27.649  26.631  1.00  0.00     0.141 A 
ATOM     22  C   UNL A   1      34.340  28.746  25.986  1.00  0.00     0.010 A 
ATOM     23  C   UNL A   1      32.565  28.409  27.580  1.00  0.00     0.048 A 
ATOM     24  C   UNL A   1      33.831  28.902  27.274  1.00  0.00     0.005 A 
BRANCH  21  25
ATOM     25  O   UNL A   1      30.652  27.146  26.964  1.00  0.00    -0.506 OA
ATOM     26  H   UNL A   1      30.548  26.229  27.122  1.00  0.00     0.293 HD
ENDBRANCH  21  25
ENDBRANCH  14  15
ENDBRANCH  12  13
ENDBRANCH   5   7
ENDBRANCH   4   5
ENDBRANCH   3   4
ENDBRANCH   2   3
ENDBRANCH   1   2
BRANCH   1  27
ATOM     27  C   UNL A   1      37.436  19.793  24.856  1.00  0.00     0.202 C 
BRANCH  27  28
ATOM     28  C   UNL A   1      38.859  19.561  25.376  1.00  0.00     0.261 C 
BRANCH  28  29
ATOM     29  O   UNL A   1      39.412  20.837  25.719  1.00  0.00    -0.460 OA
BRANCH  29  30
ATOM     30  C   UNL A   1      40.402  20.769  26.648  1.00  0.00     0.338 C 
ATOM     31  O   UNL A   1      41.140  19.830  26.864  1.00  0.00    -0.246 OA
BRANCH  30  32
ATOM     32  C   UNL A   1      40.573  22.122  27.229  1.00  0.00     0.060 A 
ATOM     33  C   UNL A   1      39.738  23.148  26.764  1.00  0.00     0.016 A 
ATOM     34  C   UNL A   1      41.524  22.377  28.223  1.00  0.00     0.016 A 
ATOM     35  C   UNL A   1      39.925  24.451  27.214  1.00  0.00     0.010 A 
ATOM     36  C   UNL A   1      41.707  23.677  28.682  1.00  0.00     0.010 A 
ATOM     37  C   UNL A   1      40.959  24.723  28.117  1.00  0.00    -0.014 A 
BRANCH  37  38
ATOM     38  C   UNL A   1      41.465  26.104  28.240  1.00  0.00     0.031 A 
ATOM     39  C   UNL A   1      42.810  26.404  27.633  1.00  0.00     0.074 A 
ATOM     40  C   UNL A   1      40.756  27.052  28.872  1.00  0.00     0.049 A 
ATOM     41  N   UNL A   1      43.480  27.524  27.612  1.00  0.00    -0.248 NA
ATOM     42  C   UNL A   1      43.500  25.281  26.970  1.00  0.00     0.031 C 
ATOM     43  C   UNL A   1      39.449  26.858  29.497  1.00  0.00     0.029 A 
ATOM     44  N   UNL A   1      41.054  28.367  29.107  1.00  0.00    -0.354 N 
ATOM     45  C   UNL A   1      44.680  27.230  26.974  1.00  0.00     0.074 A 
ATOM     46  C   UNL A   1      44.659  25.825  26.641  1.00  0.00     0.031 C 
ATOM     47  C   UNL A   1      39.062  28.016  30.060  1.00  0.00     0.029 A 
ATOM     48  C   UNL A   1      40.102  29.020  29.852  1.00  0.00     0.049 A 
ATOM     49  H   UNL A   1      41.871  28.803  28.775  1.00  0.00     0.167 HD
ATOM     50  C   UNL A   1      45.705  28.061  26.680  1.00  0.00     0.034 A 
ATOM     51  C   UNL A   1      40.090  30.285  30.314  1.00  0.00     0.034 A 
ATOM     52  C   UNL A   1      45.703  29.460  27.001  1.00  0.00     0.049 A 
ATOM     53  C   UNL A   1      41.240  31.193  29.967  1.00  0.00     0.074 A 
ATOM     54  C   UNL A   1      46.657  30.415  26.704  1.00  0.00     0.029 A 
ATOM     55  N   UNL A   1      44.698  30.100  27.711  1.00  0.00    -0.354 N 
ATOM     56  N   UNL A   1      42.316  30.936  29.262  1.00  0.00    -0.248 NA
ATOM     57  C   UNL A   1      41.155  32.580  30.445  1.00  0.00     0.031 C 
ATOM     58  C   UNL A   1      46.246  31.626  27.270  1.00  0.00     0.029 A 
ATOM     59  C   UNL A   1      45.011  31.436  27.873  1.00  0.00     0.049 A 
ATOM     60  H   UNL A   1      43.881  29.667  28.050  1.00  0.00     0.167 HD
ATOM     61  C   UNL A   1      43.007  32.138  29.162  1.00  0.00     0.074 A 
ATOM     62  C   UNL A   1      42.221  33.126  29.877  1.00  0.00     0.031 C 
ATOM     63  C   UNL A   1      44.183  32.406  28.542  1.00  0.00     0.034 A 
BRANCH  50  64
ATOM     64  C   UNL A   1      46.903  27.475  25.979  1.00  0.00     0.023 A 
ATOM     65  C   UNL A   1      47.023  27.572  24.577  1.00  0.00     0.012 A 
ATOM     66  C   UNL A   1      47.924  26.847  26.717  1.00  0.00     0.148 A 
ATOM     67  C   UNL A   1      48.119  27.017  23.918  1.00  0.00     0.002 A 
ATOM     68  C   UNL A   1      49.040  26.343  26.058  1.00  0.00     0.091 A 
ATOM     69  F   UNL A   1      47.780  26.737  28.045  1.00  0.00    -0.205 F 
ATOM     70  C   UNL A   1      49.132  26.413  24.658  1.00  0.00     0.022 A 
BRANCH  68  71
ATOM     71  S   UNL A   1      50.434  25.623  26.931  1.00  0.00     0.127 S 
ATOM     72  O   UNL A   1      51.356  25.339  25.833  1.00  0.00    -0.237 OA
ATOM     73  O   UNL A   1      50.847  26.721  27.806  1.00  0.00    -0.237 OA
ATOM     74  O   UNL A   1      49.913  24.455  27.627  1.00  0.00    -0.744 OA
ENDBRANCH  68  71
ENDBRANCH  50  64
BRANCH  51  75
ATOM     75  C   UNL A   1      38.923  30.784  31.095  1.00  0.00     0.023 A 
ATOM     76  C   UNL A   1      38.954  30.729  32.501  1.00  0.00     0.012 A 
ATOM     77  C   UNL A   1      37.795  31.329  30.453  1.00  0.00     0.148 A 
ATOM     78  C   UNL A   1      37.868  31.174  33.256  1.00  0.00     0.002 A 
ATOM     79  C   UNL A   1      36.738  31.821  31.211  1.00  0.00     0.091 A 
ATOM     80  F   UNL A   1      37.782  31.367  29.113  1.00  0.00    -0.205 F 
ATOM     81  C   UNL A   1      36.764  31.727  32.611  1.00  0.00     0.022 A 
BRANCH  79  82
ATOM     82  S   UNL A   1      35.332  32.662  30.478  1.00  0.00     0.127 S 
ATOM     83  O   UNL A   1      34.400  32.722  31.601  1.00  0.00    -0.237 OA
ATOM     84  O   UNL A   1      35.919  33.946  30.093  1.00  0.00    -0.237 OA
ATOM     85  O   UNL A   1      34.915  31.831  29.356  1.00  0.00    -0.744 OA
ENDBRANCH  79  82
ENDBRANCH  51  75
BRANCH  63  86
ATOM     86  C   UNL A   1      44.658  33.836  28.538  1.00  0.00     0.023 A 
ATOM     87  C   UNL A   1      44.270  34.714  27.508  1.00  0.00     0.012 A 
ATOM     88  C   UNL A   1      45.444  34.320  29.603  1.00  0.00     0.148 A 
ATOM     89  C   UNL A   1      44.697  36.042  27.514  1.00  0.00     0.002 A 
ATOM     90  C   UNL A   1      45.816  35.658  29.632  1.00  0.00     0.091 A 
ATOM     91  F   UNL A   1      45.817  33.465  30.565  1.00  0.00    -0.205 F 
ATOM     92  C   UNL A   1      45.459  36.516  28.580  1.00  0.00     0.022 A 
BRANCH  90  93
ATOM     93  S   UNL A   1      46.702  36.373  31.020  1.00  0.00     0.127 S 
ATOM     94  O   UNL A   1      46.671  37.797  30.691  1.00  0.00    -0.237 OA
ATOM     95  O   UNL A   1      45.862  35.991  32.156  1.00  0.00    -0.237 OA
ATOM     96  O   UNL A   1      48.022  35.757  31.014  1.00  0.00    -0.744 OA
ENDBRANCH  90  93
ENDBRANCH  63  86
ENDBRANCH  37  38
ENDBRANCH  30  32
ENDBRANCH  29  30
ENDBRANCH  28  29
ENDBRANCH  27  28
ENDBRANCH   1  27
TORSDOF 20
ENDMDL
