MODEL 1
REMARK VINA RESULT:     -11.6      0.000      0.000
REMARK SMILES C[C@H]1SC[C@H](C(=O)OCCOCCOC(=O)c2ccc(-c3c4nc(c(-c5cccc(S(=O)(=O)[O-])c5F)c5ccc([nH]5)c(-c5cccc(S(=O)(=O)[O-])c5F)c5nc(c(-c6cccc(S(=O)(=O)[O-])c6F)c6ccc3[nH]6)C=C5)C=C4)cc2)N1C(=O)[C@@H]1CSc2ccccc21
REMARK SMILES IDX 12 1 11 2 10 3 9 4 8 5 6 6 7 7 5 8 1 9 2 10 3 11 80 12 4 13
REMARK SMILES IDX 81 14 82 15 83 16 84 17 91 18 85 19 86 20 90 21 87 22 89 23
REMARK SMILES IDX 88 24 13 25 14 26 15 27 16 28 17 29 18 30 79 31 19 32 78 33
REMARK SMILES IDX 20 34 21 35 22 36 72 37 23 38 77 39 71 40 73 41 24 42 76 43
REMARK SMILES IDX 70 44 69 45 25 47 57 48 37 49 56 50 38 51 41 52 55 53 74 54
REMARK SMILES IDX 39 55 40 56 54 58 75 59 42 60 26 61 27 62 35 63 28 64 30 65
REMARK SMILES IDX 36 66 29 67 31 68 32 69 33 70 34 71 58 72 59 73 67 74 60 75
REMARK SMILES IDX 62 76 68 77 61 78 63 79 64 80 65 81 66 82 43 83 44 84 52 85
REMARK SMILES IDX 45 86 47 87 53 88 46 89 48 90 49 91 50 92 51 93
REMARK H PARENT 73 46 41 57
REMARK Flexibility Score: inf
ROOT
ATOM      1  C   UNL A   1      35.894  20.610  24.985  1.00  0.00     0.202 C 
ENDROOT
BRANCH   1   2
ATOM      2  O   UNL A   1      34.927  19.585  24.769  1.00  0.00    -0.374 OA
BRANCH   2   3
ATOM      3  C   UNL A   1      33.546  19.954  24.779  1.00  0.00     0.202 C 
BRANCH   3   4
ATOM      4  C   UNL A   1      33.233  21.393  25.192  1.00  0.00     0.261 C 
BRANCH   4   5
ATOM      5  O   UNL A   1      31.845  21.679  24.976  1.00  0.00    -0.462 OA
BRANCH   5   6
ATOM      6  C   UNL A   1      31.563  22.740  24.174  1.00  0.00     0.329 C 
ATOM      7  O   UNL A   1      30.556  22.871  23.485  1.00  0.00    -0.250 OA
BRANCH   6   8
ATOM      8  C   UNL A   1      32.673  23.794  24.242  1.00  0.00     0.206 C 
ATOM      9  C   UNL A   1      35.165  24.992  25.741  1.00  0.00     0.043 C 
ATOM     10  C   UNL A   1      33.871  25.624  25.235  1.00  0.00     0.141 C 
ATOM     11  S   UNL A   1      34.054  25.915  23.435  1.00  0.00    -0.135 SA
ATOM     12  N   UNL A   1      32.718  24.742  25.361  1.00  0.00    -0.316 N 
ATOM     13  C   UNL A   1      32.920  24.575  22.955  1.00  0.00     0.109 C 
BRANCH  12  14
ATOM     14  C   UNL A   1      31.602  24.951  26.156  1.00  0.00     0.232 C 
ATOM     15  O   UNL A   1      31.380  24.230  27.135  1.00  0.00    -0.274 OA
BRANCH  14  16
ATOM     16  C   UNL A   1      30.622  26.096  25.893  1.00  0.00     0.120 C 
ATOM     17  C   UNL A   1      29.977  26.020  24.504  1.00  0.00     0.093 C 
ATOM     18  C   UNL A   1      31.209  27.465  26.114  1.00  0.00    -0.021 A 
ATOM     19  S   UNL A   1      30.166  27.649  23.690  1.00  0.00    -0.125 SA
ATOM     20  C   UNL A   1      31.076  28.337  25.036  1.00  0.00     0.011 A 
ATOM     21  C   UNL A   1      31.859  27.873  27.278  1.00  0.00     0.006 A 
ATOM     22  C   UNL A   1      31.656  29.597  25.068  1.00  0.00     0.015 A 
ATOM     23  C   UNL A   1      32.437  29.142  27.321  1.00  0.00     0.000 A 
ATOM     24  C   UNL A   1      32.350  29.994  26.214  1.00  0.00     0.001 A 
ENDBRANCH  14  16
ENDBRANCH  12  14
ENDBRANCH   6   8
ENDBRANCH   5   6
ENDBRANCH   4   5
ENDBRANCH   3   4
ENDBRANCH   2   3
ENDBRANCH   1   2
BRANCH   1  25
ATOM     25  C   UNL A   1      37.369  20.194  24.975  1.00  0.00     0.261 C 
BRANCH  25  26
ATOM     26  O   UNL A   1      38.262  21.309  25.149  1.00  0.00    -0.460 OA
BRANCH  26  27
ATOM     27  C   UNL A   1      39.277  21.082  26.015  1.00  0.00     0.338 C 
ATOM     28  O   UNL A   1      39.912  20.039  26.146  1.00  0.00    -0.246 OA
BRANCH  27  29
ATOM     29  C   UNL A   1      39.673  22.323  26.699  1.00  0.00     0.060 A 
ATOM     30  C   UNL A   1      38.998  23.497  26.339  1.00  0.00     0.016 A 
ATOM     31  C   UNL A   1      40.748  22.366  27.589  1.00  0.00     0.016 A 
ATOM     32  C   UNL A   1      39.434  24.728  26.820  1.00  0.00     0.010 A 
ATOM     33  C   UNL A   1      41.189  23.606  28.065  1.00  0.00     0.010 A 
ATOM     34  C   UNL A   1      40.562  24.795  27.649  1.00  0.00    -0.014 A 
BRANCH  34  35
ATOM     35  C   UNL A   1      41.164  26.117  27.945  1.00  0.00     0.031 A 
ATOM     36  C   UNL A   1      42.560  26.408  27.466  1.00  0.00     0.074 A 
ATOM     37  C   UNL A   1      40.468  27.056  28.611  1.00  0.00     0.049 A 
ATOM     38  N   UNL A   1      43.272  27.496  27.603  1.00  0.00    -0.248 NA
ATOM     39  C   UNL A   1      43.246  25.329  26.734  1.00  0.00     0.031 C 
ATOM     40  C   UNL A   1      39.109  26.894  29.121  1.00  0.00     0.029 A 
ATOM     41  N   UNL A   1      40.823  28.327  28.987  1.00  0.00    -0.354 N 
ATOM     42  C   UNL A   1      44.495  27.228  26.998  1.00  0.00     0.074 A 
ATOM     43  C   UNL A   1      44.435  25.870  26.506  1.00  0.00     0.031 C 
ATOM     44  C   UNL A   1      38.751  28.016  29.769  1.00  0.00     0.029 A 
ATOM     45  C   UNL A   1      39.861  28.966  29.732  1.00  0.00     0.049 A 
ATOM     46  H   UNL A   1      41.682  28.741  28.746  1.00  0.00     0.167 HD
ATOM     47  C   UNL A   1      45.565  28.044  26.850  1.00  0.00     0.034 A 
ATOM     48  C   UNL A   1      39.883  30.176  30.330  1.00  0.00     0.034 A 
ATOM     49  C   UNL A   1      45.616  29.403  27.318  1.00  0.00     0.049 A 
ATOM     50  C   UNL A   1      41.093  31.058  30.164  1.00  0.00     0.074 A 
ATOM     51  C   UNL A   1      46.637  30.325  27.173  1.00  0.00     0.029 A 
ATOM     52  N   UNL A   1      44.608  30.031  28.032  1.00  0.00    -0.354 N 
ATOM     53  N   UNL A   1      42.189  30.837  29.481  1.00  0.00    -0.248 NA
ATOM     54  C   UNL A   1      41.052  32.373  30.822  1.00  0.00     0.031 C 
ATOM     55  C   UNL A   1      46.253  31.507  27.817  1.00  0.00     0.029 A 
ATOM     56  C   UNL A   1      44.985  31.326  28.345  1.00  0.00     0.049 A 
ATOM     57  H   UNL A   1      43.750  29.617  28.281  1.00  0.00     0.167 HD
ATOM     58  C   UNL A   1      42.953  31.993  29.596  1.00  0.00     0.074 A 
ATOM     59  C   UNL A   1      42.184  32.922  30.399  1.00  0.00     0.031 C 
ATOM     60  C   UNL A   1      44.186  32.258  29.097  1.00  0.00     0.034 A 
BRANCH  47  61
ATOM     61  C   UNL A   1      46.763  27.499  26.118  1.00  0.00     0.023 A 
ATOM     62  C   UNL A   1      46.885  27.710  24.730  1.00  0.00     0.012 A 
ATOM     63  C   UNL A   1      47.791  26.829  26.809  1.00  0.00     0.148 A 
ATOM     64  C   UNL A   1      47.997  27.239  24.035  1.00  0.00     0.002 A 
ATOM     65  C   UNL A   1      48.916  26.397  26.117  1.00  0.00     0.091 A 
ATOM     66  F   UNL A   1      47.644  26.615  28.125  1.00  0.00    -0.205 F 
ATOM     67  C   UNL A   1      49.017  26.592  24.729  1.00  0.00     0.022 A 
BRANCH  65  68
ATOM     68  S   UNL A   1      50.313  25.618  26.934  1.00  0.00     0.127 S 
ATOM     69  O   UNL A   1      51.224  25.392  25.812  1.00  0.00    -0.237 OA
ATOM     70  O   UNL A   1      50.745  26.658  27.869  1.00  0.00    -0.237 OA
ATOM     71  O   UNL A   1      49.787  24.416  27.566  1.00  0.00    -0.744 OA
ENDBRANCH  65  68
ENDBRANCH  47  61
BRANCH  48  72
ATOM     72  C   UNL A   1      38.700  30.639  31.109  1.00  0.00     0.023 A 
ATOM     73  C   UNL A   1      38.680  30.476  32.506  1.00  0.00     0.012 A 
ATOM     74  C   UNL A   1      37.607  31.260  30.474  1.00  0.00     0.148 A 
ATOM     75  C   UNL A   1      37.581  30.898  33.256  1.00  0.00     0.002 A 
ATOM     76  C   UNL A   1      36.539  31.727  31.232  1.00  0.00     0.091 A 
ATOM     77  F   UNL A   1      37.633  31.387  29.139  1.00  0.00    -0.205 F 
ATOM     78  C   UNL A   1      36.517  31.533  32.621  1.00  0.00     0.022 A 
BRANCH  76  79
ATOM     79  S   UNL A   1      35.192  32.671  30.512  1.00  0.00     0.127 S 
ATOM     80  O   UNL A   1      34.225  32.696  31.606  1.00  0.00    -0.237 OA
ATOM     81  O   UNL A   1      35.836  33.955  30.228  1.00  0.00    -0.237 OA
ATOM     82  O   UNL A   1      34.789  31.931  29.323  1.00  0.00    -0.744 OA
ENDBRANCH  76  79
ENDBRANCH  48  72
BRANCH  60  83
ATOM     83  C   UNL A   1      44.777  33.617  29.373  1.00  0.00     0.023 A 
ATOM     84  C   UNL A   1      45.543  33.822  30.537  1.00  0.00     0.012 A 
ATOM     85  C   UNL A   1      44.641  34.665  28.441  1.00  0.00     0.148 A 
ATOM     86  C   UNL A   1      46.140  35.058  30.785  1.00  0.00     0.002 A 
ATOM     87  C   UNL A   1      45.277  35.880  28.672  1.00  0.00     0.091 A 
ATOM     88  F   UNL A   1      43.892  34.457  27.348  1.00  0.00    -0.205 F 
ATOM     89  C   UNL A   1      46.017  36.081  29.848  1.00  0.00     0.022 A 
BRANCH  87  90
ATOM     90  S   UNL A   1      45.251  37.220  27.475  1.00  0.00     0.127 S 
ATOM     91  O   UNL A   1      45.918  38.291  28.213  1.00  0.00    -0.237 OA
ATOM     92  O   UNL A   1      46.029  36.666  26.367  1.00  0.00    -0.237 OA
ATOM     93  O   UNL A   1      43.846  37.452  27.167  1.00  0.00    -0.744 OA
ENDBRANCH  87  90
ENDBRANCH  60  83
ENDBRANCH  34  35
ENDBRANCH  27  29
ENDBRANCH  26  27
ENDBRANCH  25  26
ENDBRANCH   1  25
TORSDOF 19
ENDMDL
MODEL 2
REMARK VINA RESULT:     -11.3      5.087     10.315
REMARK SMILES C[C@H]1SC[C@H](C(=O)OCCOCCOC(=O)c2ccc(-c3c4nc(c(-c5cccc(S(=O)(=O)[O-])c5F)c5ccc([nH]5)c(-c5cccc(S(=O)(=O)[O-])c5F)c5nc(c(-c6cccc(S(=O)(=O)[O-])c6F)c6ccc3[nH]6)C=C5)C=C4)cc2)N1C(=O)[C@@H]1CSc2ccccc21
REMARK SMILES IDX 12 1 11 2 10 3 9 4 8 5 6 6 7 7 5 8 1 9 2 10 3 11 80 12 4 13
REMARK SMILES IDX 81 14 82 15 83 16 84 17 91 18 85 19 86 20 90 21 87 22 89 23
REMARK SMILES IDX 88 24 13 25 14 26 15 27 16 28 17 29 18 30 79 31 19 32 78 33
REMARK SMILES IDX 20 34 21 35 22 36 72 37 23 38 77 39 71 40 73 41 24 42 76 43
REMARK SMILES IDX 70 44 69 45 25 47 57 48 37 49 56 50 38 51 41 52 55 53 74 54
REMARK SMILES IDX 39 55 40 56 54 58 75 59 42 60 26 61 27 62 35 63 28 64 30 65
REMARK SMILES IDX 36 66 29 67 31 68 32 69 33 70 34 71 58 72 59 73 67 74 60 75
REMARK SMILES IDX 62 76 68 77 61 78 63 79 64 80 65 81 66 82 43 83 44 84 52 85
REMARK SMILES IDX 45 86 47 87 53 88 46 89 48 90 49 91 50 92 51 93
REMARK H PARENT 73 46 41 57
REMARK Flexibility Score: inf
ROOT
ATOM      1  C   UNL A   1      32.070  30.990  26.462  1.00  0.00     0.202 C 
ENDROOT
BRANCH   1   2
ATOM      2  O   UNL A   1      31.698  29.820  27.188  1.00  0.00    -0.374 OA
BRANCH   2   3
ATOM      3  C   UNL A   1      32.675  28.788  27.342  1.00  0.00     0.202 C 
BRANCH   3   4
ATOM      4  C   UNL A   1      32.205  27.361  27.056  1.00  0.00     0.261 C 
BRANCH   4   5
ATOM      5  O   UNL A   1      33.086  26.729  26.118  1.00  0.00    -0.462 OA
BRANCH   5   6
ATOM      6  C   UNL A   1      33.151  27.285  24.879  1.00  0.00     0.329 C 
ATOM      7  O   UNL A   1      34.178  27.619  24.295  1.00  0.00    -0.250 OA
BRANCH   6   8
ATOM      8  C   UNL A   1      31.755  27.438  24.269  1.00  0.00     0.206 C 
ATOM      9  C   UNL A   1      28.751  26.513  24.141  1.00  0.00     0.043 C 
ATOM     10  C   UNL A   1      29.818  26.687  23.063  1.00  0.00     0.141 C 
ATOM     11  S   UNL A   1      29.916  28.471  22.652  1.00  0.00    -0.135 SA
ATOM     12  N   UNL A   1      31.154  26.329  23.519  1.00  0.00    -0.316 N 
ATOM     13  C   UNL A   1      31.518  28.721  23.477  1.00  0.00     0.109 C 
BRANCH  12  14
ATOM     14  C   UNL A   1      31.940  25.293  23.040  1.00  0.00     0.232 C 
ATOM     15  O   UNL A   1      32.595  25.426  21.999  1.00  0.00    -0.274 OA
BRANCH  14  16
ATOM     16  C   UNL A   1      32.074  23.964  23.786  1.00  0.00     0.120 C 
ATOM     17  C   UNL A   1      31.096  23.840  24.960  1.00  0.00     0.093 C 
ATOM     18  C   UNL A   1      33.475  23.662  24.249  1.00  0.00    -0.021 A 
ATOM     19  S   UNL A   1      32.040  23.346  26.448  1.00  0.00    -0.125 SA
ATOM     20  C   UNL A   1      33.591  23.373  25.607  1.00  0.00     0.011 A 
ATOM     21  C   UNL A   1      34.603  23.673  23.430  1.00  0.00     0.006 A 
ATOM     22  C   UNL A   1      34.835  23.171  26.184  1.00  0.00     0.015 A 
ATOM     23  C   UNL A   1      35.858  23.462  24.002  1.00  0.00     0.000 A 
ATOM     24  C   UNL A   1      35.974  23.229  25.377  1.00  0.00     0.001 A 
ENDBRANCH  14  16
ENDBRANCH  12  14
ENDBRANCH   6   8
ENDBRANCH   5   6
ENDBRANCH   4   5
ENDBRANCH   3   4
ENDBRANCH   2   3
ENDBRANCH   1   2
BRANCH   1  25
ATOM     25  C   UNL A   1      31.723  32.344  27.092  1.00  0.00     0.261 C 
BRANCH  25  26
ATOM     26  O   UNL A   1      32.792  33.299  26.977  1.00  0.00    -0.460 OA
BRANCH  26  27
ATOM     27  C   UNL A   1      33.344  33.665  28.158  1.00  0.00     0.338 C 
ATOM     28  O   UNL A   1      32.840  34.393  29.009  1.00  0.00    -0.246 OA
BRANCH  27  29
ATOM     29  C   UNL A   1      34.595  32.932  28.405  1.00  0.00     0.060 A 
ATOM     30  C   UNL A   1      34.487  31.619  28.882  1.00  0.00     0.016 A 
ATOM     31  C   UNL A   1      35.845  33.541  28.279  1.00  0.00     0.016 A 
ATOM     32  C   UNL A   1      35.624  30.930  29.294  1.00  0.00     0.010 A 
ATOM     33  C   UNL A   1      36.986  32.849  28.701  1.00  0.00     0.010 A 
ATOM     34  C   UNL A   1      36.875  31.558  29.251  1.00  0.00    -0.014 A 
BRANCH  34  35
ATOM     35  C   UNL A   1      38.031  30.917  29.923  1.00  0.00     0.031 A 
ATOM     36  C   UNL A   1      38.343  31.282  31.348  1.00  0.00     0.074 A 
ATOM     37  C   UNL A   1      38.777  30.000  29.280  1.00  0.00     0.049 A 
ATOM     38  N   UNL A   1      39.293  30.836  32.128  1.00  0.00    -0.248 NA
ATOM     39  C   UNL A   1      37.468  32.284  31.980  1.00  0.00     0.031 C 
ATOM     40  C   UNL A   1      38.571  29.560  27.902  1.00  0.00     0.029 A 
ATOM     41  N   UNL A   1      39.873  29.291  29.703  1.00  0.00    -0.354 N 
ATOM     42  C   UNL A   1      39.147  31.516  33.331  1.00  0.00     0.074 A 
ATOM     43  C   UNL A   1      38.026  32.416  33.175  1.00  0.00     0.031 C 
ATOM     44  C   UNL A   1      39.528  28.673  27.581  1.00  0.00     0.029 A 
ATOM     45  C   UNL A   1      40.422  28.496  28.725  1.00  0.00     0.049 A 
ATOM     46  H   UNL A   1      40.232  29.345  30.618  1.00  0.00     0.167 HD
ATOM     47  C   UNL A   1      39.869  31.390  34.470  1.00  0.00     0.034 A 
ATOM     48  C   UNL A   1      41.528  27.725  28.747  1.00  0.00     0.034 A 
ATOM     49  C   UNL A   1      40.968  30.479  34.633  1.00  0.00     0.049 A 
ATOM     50  C   UNL A   1      42.325  27.616  30.021  1.00  0.00     0.074 A 
ATOM     51  C   UNL A   1      41.731  30.244  35.763  1.00  0.00     0.029 A 
ATOM     52  N   UNL A   1      41.469  29.659  33.635  1.00  0.00    -0.354 N 
ATOM     53  N   UNL A   1      42.097  28.169  31.188  1.00  0.00    -0.248 NA
ATOM     54  C   UNL A   1      43.511  26.746  29.993  1.00  0.00     0.031 C 
ATOM     55  C   UNL A   1      42.708  29.294  35.441  1.00  0.00     0.029 A 
ATOM     56  C   UNL A   1      42.539  28.923  34.117  1.00  0.00     0.049 A 
ATOM     57  H   UNL A   1      41.117  29.607  32.716  1.00  0.00     0.167 HD
ATOM     58  C   UNL A   1      43.087  27.689  32.039  1.00  0.00     0.074 A 
ATOM     59  C   UNL A   1      43.905  26.784  31.259  1.00  0.00     0.031 C 
ATOM     60  C   UNL A   1      43.309  27.983  33.344  1.00  0.00     0.034 A 
BRANCH  47  61
ATOM     61  C   UNL A   1      39.469  32.241  35.647  1.00  0.00     0.023 A 
ATOM     62  C   UNL A   1      39.946  33.563  35.743  1.00  0.00     0.012 A 
ATOM     63  C   UNL A   1      38.582  31.752  36.625  1.00  0.00     0.148 A 
ATOM     64  C   UNL A   1      39.569  34.379  36.808  1.00  0.00     0.002 A 
ATOM     65  C   UNL A   1      38.178  32.584  37.664  1.00  0.00     0.091 A 
ATOM     66  F   UNL A   1      38.160  30.483  36.531  1.00  0.00    -0.205 F 
ATOM     67  C   UNL A   1      38.677  33.893  37.762  1.00  0.00     0.022 A 
BRANCH  65  68
ATOM     68  S   UNL A   1      36.979  32.074  38.900  1.00  0.00     0.127 S 
ATOM     69  O   UNL A   1      37.562  32.626  40.122  1.00  0.00    -0.237 OA
ATOM     70  O   UNL A   1      35.761  32.748  38.448  1.00  0.00    -0.237 OA
ATOM     71  O   UNL A   1      36.927  30.620  38.830  1.00  0.00    -0.744 OA
ENDBRANCH  65  68
ENDBRANCH  47  61
BRANCH  48  72
ATOM     72  C   UNL A   1      41.926  26.963  27.530  1.00  0.00     0.023 A 
ATOM     73  C   UNL A   1      42.518  27.639  26.448  1.00  0.00     0.012 A 
ATOM     74  C   UNL A   1      41.739  25.568  27.450  1.00  0.00     0.148 A 
ATOM     75  C   UNL A   1      42.895  26.947  25.296  1.00  0.00     0.002 A 
ATOM     76  C   UNL A   1      42.166  24.876  26.323  1.00  0.00     0.091 A 
ATOM     77  F   UNL A   1      41.153  24.944  28.481  1.00  0.00    -0.205 F 
ATOM     78  C   UNL A   1      42.729  25.566  25.238  1.00  0.00     0.022 A 
BRANCH  76  79
ATOM     79  S   UNL A   1      42.110  23.084  26.219  1.00  0.00     0.127 S 
ATOM     80  O   UNL A   1      42.894  22.692  27.387  1.00  0.00    -0.237 OA
ATOM     81  O   UNL A   1      40.675  22.818  26.321  1.00  0.00    -0.237 OA
ATOM     82  O   UNL A   1      42.688  22.750  24.923  1.00  0.00    -0.744 OA
ENDBRANCH  76  79
ENDBRANCH  48  72
BRANCH  60  83
ATOM     83  C   UNL A   1      44.464  27.301  34.031  1.00  0.00     0.023 A 
ATOM     84  C   UNL A   1      45.756  27.854  33.942  1.00  0.00     0.012 A 
ATOM     85  C   UNL A   1      44.255  26.157  34.826  1.00  0.00     0.148 A 
ATOM     86  C   UNL A   1      46.828  27.265  34.611  1.00  0.00     0.002 A 
ATOM     87  C   UNL A   1      45.320  25.601  35.527  1.00  0.00     0.091 A 
ATOM     88  F   UNL A   1      43.022  25.632  34.883  1.00  0.00    -0.205 F 
ATOM     89  C   UNL A   1      46.608  26.146  35.412  1.00  0.00     0.022 A 
BRANCH  87  90
ATOM     90  S   UNL A   1      45.108  24.218  36.657  1.00  0.00     0.127 S 
ATOM     91  O   UNL A   1      44.544  23.197  35.776  1.00  0.00    -0.237 OA
ATOM     92  O   UNL A   1      46.481  23.958  37.092  1.00  0.00    -0.237 OA
ATOM     93  O   UNL A   1      44.223  24.697  37.710  1.00  0.00    -0.744 OA
ENDBRANCH  87  90
ENDBRANCH  60  83
ENDBRANCH  34  35
ENDBRANCH  27  29
ENDBRANCH  26  27
ENDBRANCH  25  26
ENDBRANCH   1  25
TORSDOF 19
ENDMDL
MODEL 3
REMARK VINA RESULT:     -11.2      1.655      7.669
REMARK SMILES C[C@H]1SC[C@H](C(=O)OCCOCCOC(=O)c2ccc(-c3c4nc(c(-c5cccc(S(=O)(=O)[O-])c5F)c5ccc([nH]5)c(-c5cccc(S(=O)(=O)[O-])c5F)c5nc(c(-c6cccc(S(=O)(=O)[O-])c6F)c6ccc3[nH]6)C=C5)C=C4)cc2)N1C(=O)[C@@H]1CSc2ccccc21
REMARK SMILES IDX 12 1 11 2 10 3 9 4 8 5 6 6 7 7 5 8 1 9 2 10 3 11 80 12 4 13
REMARK SMILES IDX 81 14 82 15 83 16 84 17 91 18 85 19 86 20 90 21 87 22 89 23
REMARK SMILES IDX 88 24 13 25 14 26 15 27 16 28 17 29 18 30 79 31 19 32 78 33
REMARK SMILES IDX 20 34 21 35 22 36 72 37 23 38 77 39 71 40 73 41 24 42 76 43
REMARK SMILES IDX 70 44 69 45 25 47 57 48 37 49 56 50 38 51 41 52 55 53 74 54
REMARK SMILES IDX 39 55 40 56 54 58 75 59 42 60 26 61 27 62 35 63 28 64 30 65
REMARK SMILES IDX 36 66 29 67 31 68 32 69 33 70 34 71 58 72 59 73 67 74 60 75
REMARK SMILES IDX 62 76 68 77 61 78 63 79 64 80 65 81 66 82 43 83 44 84 52 85
REMARK SMILES IDX 45 86 47 87 53 88 46 89 48 90 49 91 50 92 51 93
REMARK H PARENT 73 46 41 57
REMARK Flexibility Score: inf
ROOT
ATOM      1  C   UNL A   1      35.956  20.224  24.999  1.00  0.00     0.202 C 
ENDROOT
BRANCH   1   2
ATOM      2  O   UNL A   1      35.401  21.232  25.841  1.00  0.00    -0.374 OA
BRANCH   2   3
ATOM      3  C   UNL A   1      34.090  21.713  25.535  1.00  0.00     0.202 C 
BRANCH   3   4
ATOM      4  C   UNL A   1      33.545  21.361  24.150  1.00  0.00     0.261 C 
BRANCH   4   5
ATOM      5  O   UNL A   1      33.056  22.539  23.497  1.00  0.00    -0.462 OA
BRANCH   5   6
ATOM      6  C   UNL A   1      33.983  23.319  22.881  1.00  0.00     0.329 C 
ATOM      7  O   UNL A   1      35.104  22.961  22.532  1.00  0.00    -0.250 OA
BRANCH   6   8
ATOM      8  C   UNL A   1      33.448  24.736  22.651  1.00  0.00     0.206 C 
ATOM      9  C   UNL A   1      34.024  27.789  22.162  1.00  0.00     0.043 C 
ATOM     10  C   UNL A   1      33.156  27.060  23.184  1.00  0.00     0.141 C 
ATOM     11  S   UNL A   1      31.582  26.605  22.363  1.00  0.00    -0.135 SA
ATOM     12  N   UNL A   1      33.733  25.797  23.624  1.00  0.00    -0.316 N 
ATOM     13  C   UNL A   1      31.973  24.830  22.273  1.00  0.00     0.109 C 
BRANCH  12  14
ATOM     14  C   UNL A   1      34.154  25.484  24.907  1.00  0.00     0.232 C 
ATOM     15  O   UNL A   1      35.289  25.037  25.108  1.00  0.00    -0.274 OA
BRANCH  14  16
ATOM     16  C   UNL A   1      33.265  25.711  26.131  1.00  0.00     0.120 C 
ATOM     17  C   UNL A   1      31.907  25.007  26.020  1.00  0.00     0.093 C 
ATOM     18  C   UNL A   1      33.064  27.163  26.479  1.00  0.00    -0.021 A 
ATOM     19  S   UNL A   1      30.593  26.227  26.384  1.00  0.00    -0.125 SA
ATOM     20  C   UNL A   1      31.733  27.557  26.592  1.00  0.00     0.011 A 
ATOM     21  C   UNL A   1      34.093  28.086  26.666  1.00  0.00     0.006 A 
ATOM     22  C   UNL A   1      31.404  28.886  26.812  1.00  0.00     0.015 A 
ATOM     23  C   UNL A   1      33.770  29.423  26.896  1.00  0.00     0.000 A 
ATOM     24  C   UNL A   1      32.430  29.824  26.953  1.00  0.00     0.001 A 
ENDBRANCH  14  16
ENDBRANCH  12  14
ENDBRANCH   6   8
ENDBRANCH   5   6
ENDBRANCH   4   5
ENDBRANCH   3   4
ENDBRANCH   2   3
ENDBRANCH   1   2
BRANCH   1  25
ATOM     25  C   UNL A   1      37.483  20.187  24.865  1.00  0.00     0.261 C 
BRANCH  25  26
ATOM     26  O   UNL A   1      38.116  21.361  25.404  1.00  0.00    -0.460 OA
BRANCH  26  27
ATOM     27  C   UNL A   1      39.235  21.113  26.124  1.00  0.00     0.338 C 
ATOM     28  O   UNL A   1      39.871  20.063  26.154  1.00  0.00    -0.246 OA
BRANCH  27  29
ATOM     29  C   UNL A   1      39.731  22.340  26.767  1.00  0.00     0.060 A 
ATOM     30  C   UNL A   1      39.113  23.546  26.409  1.00  0.00     0.016 A 
ATOM     31  C   UNL A   1      40.840  22.334  27.614  1.00  0.00     0.016 A 
ATOM     32  C   UNL A   1      39.640  24.757  26.849  1.00  0.00     0.010 A 
ATOM     33  C   UNL A   1      41.373  23.554  28.048  1.00  0.00     0.010 A 
ATOM     34  C   UNL A   1      40.802  24.770  27.632  1.00  0.00    -0.014 A 
BRANCH  34  35
ATOM     35  C   UNL A   1      41.493  26.058  27.879  1.00  0.00     0.031 A 
ATOM     36  C   UNL A   1      40.761  27.155  28.602  1.00  0.00     0.074 A 
ATOM     37  C   UNL A   1      42.767  26.240  27.487  1.00  0.00     0.049 A 
ATOM     38  N   UNL A   1      41.177  28.350  28.933  1.00  0.00    -0.248 NA
ATOM     39  C   UNL A   1      39.374  26.868  29.007  1.00  0.00     0.031 C 
ATOM     40  C   UNL A   1      43.582  25.253  26.783  1.00  0.00     0.029 A 
ATOM     41  N   UNL A   1      43.589  27.331  27.611  1.00  0.00    -0.354 N 
ATOM     42  C   UNL A   1      40.101  28.965  29.563  1.00  0.00     0.074 A 
ATOM     43  C   UNL A   1      39.008  28.018  29.555  1.00  0.00     0.031 C 
ATOM     44  C   UNL A   1      44.783  25.792  26.512  1.00  0.00     0.029 A 
ATOM     45  C   UNL A   1      44.814  27.167  27.010  1.00  0.00     0.049 A 
ATOM     46  H   UNL A   1      43.328  28.153  28.086  1.00  0.00     0.167 HD
ATOM     47  C   UNL A   1      40.033  30.200  30.114  1.00  0.00     0.034 A 
ATOM     48  C   UNL A   1      45.837  28.034  26.864  1.00  0.00     0.034 A 
ATOM     49  C   UNL A   1      41.127  31.133  30.142  1.00  0.00     0.049 A 
ATOM     50  C   UNL A   1      45.731  29.409  27.471  1.00  0.00     0.074 A 
ATOM     51  C   UNL A   1      41.171  32.389  30.720  1.00  0.00     0.029 A 
ATOM     52  N   UNL A   1      42.365  30.916  29.560  1.00  0.00    -0.354 N 
ATOM     53  N   UNL A   1      44.753  29.928  28.173  1.00  0.00    -0.248 NA
ATOM     54  C   UNL A   1      46.884  30.304  27.297  1.00  0.00     0.031 C 
ATOM     55  C   UNL A   1      42.433  32.941  30.469  1.00  0.00     0.029 A 
ATOM     56  C   UNL A   1      43.180  32.019  29.754  1.00  0.00     0.049 A 
ATOM     57  H   UNL A   1      42.628  30.098  29.078  1.00  0.00     0.167 HD
ATOM     58  C   UNL A   1      45.185  31.194  28.554  1.00  0.00     0.074 A 
ATOM     59  C   UNL A   1      46.522  31.356  28.021  1.00  0.00     0.031 C 
ATOM     60  C   UNL A   1      44.529  32.143  29.266  1.00  0.00     0.034 A 
BRANCH  47  61
ATOM     61  C   UNL A   1      38.736  30.604  30.764  1.00  0.00     0.023 A 
ATOM     62  C   UNL A   1      38.509  30.284  32.117  1.00  0.00     0.012 A 
ATOM     63  C   UNL A   1      37.771  31.346  30.056  1.00  0.00     0.148 A 
ATOM     64  C   UNL A   1      37.329  30.671  32.750  1.00  0.00     0.002 A 
ATOM     65  C   UNL A   1      36.614  31.764  30.705  1.00  0.00     0.091 A 
ATOM     66  F   UNL A   1      37.995  31.619  28.763  1.00  0.00    -0.205 F 
ATOM     67  C   UNL A   1      36.386  31.419  32.048  1.00  0.00     0.022 A 
BRANCH  65  68
ATOM     68  S   UNL A   1      35.376  32.791  29.906  1.00  0.00     0.127 S 
ATOM     69  O   UNL A   1      36.174  33.942  29.485  1.00  0.00    -0.237 OA
ATOM     70  O   UNL A   1      34.921  31.932  28.811  1.00  0.00    -0.237 OA
ATOM     71  O   UNL A   1      34.367  33.062  30.920  1.00  0.00    -0.744 OA
ENDBRANCH  65  68
ENDBRANCH  47  61
BRANCH  48  72
ATOM     72  C   UNL A   1      47.071  27.610  26.143  1.00  0.00     0.023 A 
ATOM     73  C   UNL A   1      48.096  26.952  26.846  1.00  0.00     0.012 A 
ATOM     74  C   UNL A   1      47.222  27.837  24.761  1.00  0.00     0.148 A 
ATOM     75  C   UNL A   1      49.262  26.550  26.194  1.00  0.00     0.002 A 
ATOM     76  C   UNL A   1      48.361  27.386  24.105  1.00  0.00     0.091 A 
ATOM     77  F   UNL A   1      46.244  28.486  24.112  1.00  0.00    -0.205 F 
ATOM     78  C   UNL A   1      49.390  26.757  24.822  1.00  0.00     0.022 A 
BRANCH  76  79
ATOM     79  S   UNL A   1      48.549  27.495  22.322  1.00  0.00     0.127 S 
ATOM     80  O   UNL A   1      47.336  28.210  21.936  1.00  0.00    -0.237 OA
ATOM     81  O   UNL A   1      49.787  28.264  22.192  1.00  0.00    -0.237 OA
ATOM     82  O   UNL A   1      48.651  26.118  21.857  1.00  0.00    -0.744 OA
ENDBRANCH  76  79
ENDBRANCH  48  72
BRANCH  60  83
ATOM     83  C   UNL A   1      45.252  33.437  29.544  1.00  0.00     0.023 A 
ATOM     84  C   UNL A   1      46.101  33.536  30.662  1.00  0.00     0.012 A 
ATOM     85  C   UNL A   1      45.150  34.525  28.654  1.00  0.00     0.148 A 
ATOM     86  C   UNL A   1      46.817  34.707  30.909  1.00  0.00     0.002 A 
ATOM     87  C   UNL A   1      45.901  35.673  28.880  1.00  0.00     0.091 A 
ATOM     88  F   UNL A   1      44.321  34.419  27.605  1.00  0.00    -0.205 F 
ATOM     89  C   UNL A   1      46.726  35.770  30.012  1.00  0.00     0.022 A 
BRANCH  87  90
ATOM     90  S   UNL A   1      45.918  37.052  27.728  1.00  0.00     0.127 S 
ATOM     91  O   UNL A   1      44.540  37.531  27.816  1.00  0.00    -0.237 OA
ATOM     92  O   UNL A   1      46.914  37.944  28.322  1.00  0.00    -0.237 OA
ATOM     93  O   UNL A   1      46.306  36.490  26.441  1.00  0.00    -0.744 OA
ENDBRANCH  87  90
ENDBRANCH  60  83
ENDBRANCH  34  35
ENDBRANCH  27  29
ENDBRANCH  26  27
ENDBRANCH  25  26
ENDBRANCH   1  25
TORSDOF 19
ENDMDL
