MODEL 1
REMARK VINA RESULT:     -11.4      0.000      0.000
REMARK SMILES O=C(OCCOCCOC(=O)c1cccc2c(C(F)(F)F)cc(Br)nc12)c1ccc(-c2c3nc(c(-c4cccc(S(=O)(=O)[O-])c4F)c4ccc([nH]4)c(-c4cccc(S(=O)(=O)[O-])c4F)c4nc(c(-c5cccc(S(=O)(=O)[O-])c5F)c5ccc2[nH]5)C=C4)C=C3)cc1
REMARK SMILES IDX 5 1 4 2 3 3 2 4 1 5 27 6 28 7 89 8 29 9 88 10 30 11 31 12
REMARK SMILES IDX 32 13 82 14 33 15 87 16 81 17 83 18 34 19 86 20 80 21 79 22
REMARK SMILES IDX 35 24 67 25 47 26 66 27 48 28 51 29 65 30 84 31 49 32 50 33
REMARK SMILES IDX 64 35 85 36 52 37 36 38 37 39 45 40 38 41 40 42 46 43 39 44
REMARK SMILES IDX 41 45 42 46 43 47 44 48 68 49 69 50 77 51 70 52 72 53 78 54
REMARK SMILES IDX 71 55 73 56 74 57 75 58 76 59 53 60 54 61 62 62 55 63 57 64
REMARK SMILES IDX 63 65 56 66 58 67 59 68 60 69 61 70 6 71 7 72 8 73 9 74
REMARK SMILES IDX 10 75 11 76 12 77 13 78 26 79 14 80 16 81 25 82 15 83 17 84
REMARK SMILES IDX 23 85 22 86 24 87 18 88 19 89 20 90 21 91
REMARK H PARENT 83 23 51 34
REMARK Flexibility Score: inf
ROOT
ATOM      1  C   UNL A   1      35.128  22.151  25.058  1.00  0.00     0.202 C 
ENDROOT
BRANCH   1   2
ATOM      2  C   UNL A   1      35.976  20.919  25.382  1.00  0.00     0.261 C 
BRANCH   2   3
ATOM      3  O   UNL A   1      37.320  21.072  24.921  1.00  0.00    -0.460 OA
BRANCH   3   4
ATOM      4  C   UNL A   1      38.438  21.031  25.686  1.00  0.00     0.338 C 
ATOM      5  O   UNL A   1      38.901  19.919  25.946  1.00  0.00    -0.246 OA
BRANCH   4   6
ATOM      6  C   UNL A   1      39.160  22.236  26.230  1.00  0.00     0.060 A 
ATOM      7  C   UNL A   1      38.639  23.481  25.838  1.00  0.00     0.016 A 
ATOM      8  C   UNL A   1      40.337  22.244  26.992  1.00  0.00     0.016 A 
ATOM      9  C   UNL A   1      39.312  24.669  26.127  1.00  0.00     0.010 A 
ATOM     10  C   UNL A   1      41.027  23.414  27.264  1.00  0.00     0.010 A 
ATOM     11  C   UNL A   1      40.527  24.625  26.815  1.00  0.00    -0.014 A 
BRANCH  11  12
ATOM     12  C   UNL A   1      41.225  25.843  27.231  1.00  0.00     0.031 A 
ATOM     13  C   UNL A   1      42.665  26.058  26.893  1.00  0.00     0.074 A 
ATOM     14  C   UNL A   1      40.543  26.664  28.047  1.00  0.00     0.049 A 
ATOM     15  N   UNL A   1      43.401  27.110  27.122  1.00  0.00    -0.248 NA
ATOM     16  C   UNL A   1      43.385  24.951  26.237  1.00  0.00     0.031 C 
ATOM     17  C   UNL A   1      39.188  26.402  28.547  1.00  0.00     0.029 A 
ATOM     18  N   UNL A   1      40.891  27.850  28.620  1.00  0.00    -0.354 N 
ATOM     19  C   UNL A   1      44.665  26.800  26.639  1.00  0.00     0.074 A 
ATOM     20  C   UNL A   1      44.611  25.448  26.131  1.00  0.00     0.031 C 
ATOM     21  C   UNL A   1      38.812  27.413  29.340  1.00  0.00     0.029 A 
ATOM     22  C   UNL A   1      39.893  28.388  29.395  1.00  0.00     0.049 A 
ATOM     23  H   UNL A   1      41.767  28.279  28.492  1.00  0.00     0.167 HD
ATOM     24  C   UNL A   1      45.752  27.604  26.606  1.00  0.00     0.034 A 
ATOM     25  C   UNL A   1      39.853  29.559  30.052  1.00  0.00     0.034 A 
ATOM     26  C   UNL A   1      45.741  28.945  27.126  1.00  0.00     0.049 A 
ATOM     27  C   UNL A   1      41.032  30.469  29.919  1.00  0.00     0.074 A 
ATOM     28  C   UNL A   1      46.733  29.904  27.055  1.00  0.00     0.029 A 
ATOM     29  N   UNL A   1      44.682  29.507  27.827  1.00  0.00    -0.354 N 
ATOM     30  N   UNL A   1      42.159  30.252  29.279  1.00  0.00    -0.248 NA
ATOM     31  C   UNL A   1      40.935  31.789  30.548  1.00  0.00     0.031 C 
ATOM     32  C   UNL A   1      46.280  31.040  27.732  1.00  0.00     0.029 A 
ATOM     33  C   UNL A   1      44.999  30.796  28.206  1.00  0.00     0.049 A 
ATOM     34  H   UNL A   1      43.833  29.053  28.026  1.00  0.00     0.167 HD
ATOM     35  C   UNL A   1      42.903  31.412  29.414  1.00  0.00     0.074 A 
ATOM     36  C   UNL A   1      42.090  32.336  30.186  1.00  0.00     0.031 C 
ATOM     37  C   UNL A   1      44.147  31.687  28.954  1.00  0.00     0.034 A 
BRANCH  24  38
ATOM     38  C   UNL A   1      47.001  27.115  25.924  1.00  0.00     0.023 A 
ATOM     39  C   UNL A   1      47.169  27.376  24.549  1.00  0.00     0.012 A 
ATOM     40  C   UNL A   1      48.060  26.535  26.651  1.00  0.00     0.148 A 
ATOM     41  C   UNL A   1      48.368  27.069  23.907  1.00  0.00     0.002 A 
ATOM     42  C   UNL A   1      49.262  26.255  26.010  1.00  0.00     0.091 A 
ATOM     43  F   UNL A   1      47.877  26.290  27.956  1.00  0.00    -0.205 F 
ATOM     44  C   UNL A   1      49.418  26.521  24.639  1.00  0.00     0.022 A 
BRANCH  42  45
ATOM     45  S   UNL A   1      50.699  25.594  26.864  1.00  0.00     0.127 S 
ATOM     46  O   UNL A   1      50.121  24.456  27.579  1.00  0.00    -0.237 OA
ATOM     47  O   UNL A   1      51.578  25.232  25.753  1.00  0.00    -0.237 OA
ATOM     48  O   UNL A   1      51.194  26.667  27.717  1.00  0.00    -0.744 OA
ENDBRANCH  42  45
ENDBRANCH  24  38
BRANCH  25  49
ATOM     49  C   UNL A   1      38.596  29.936  30.746  1.00  0.00     0.023 A 
ATOM     50  C   UNL A   1      38.454  29.628  32.112  1.00  0.00     0.012 A 
ATOM     51  C   UNL A   1      37.634  30.747  30.115  1.00  0.00     0.148 A 
ATOM     52  C   UNL A   1      37.373  30.123  32.840  1.00  0.00     0.002 A 
ATOM     53  C   UNL A   1      36.577  31.266  30.854  1.00  0.00     0.091 A 
ATOM     54  F   UNL A   1      37.808  31.041  28.818  1.00  0.00    -0.205 F 
ATOM     55  C   UNL A   1      36.443  30.951  32.215  1.00  0.00     0.022 A 
BRANCH  53  56
ATOM     56  S   UNL A   1      35.395  32.432  30.167  1.00  0.00     0.127 S 
ATOM     57  O   UNL A   1      34.944  31.727  28.971  1.00  0.00    -0.237 OA
ATOM     58  O   UNL A   1      34.404  32.523  31.241  1.00  0.00    -0.237 OA
ATOM     59  O   UNL A   1      36.141  33.661  29.928  1.00  0.00    -0.744 OA
ENDBRANCH  53  56
ENDBRANCH  25  49
BRANCH  37  60
ATOM     60  C   UNL A   1      44.718  33.034  29.276  1.00  0.00     0.023 A 
ATOM     61  C   UNL A   1      45.488  33.190  30.443  1.00  0.00     0.012 A 
ATOM     62  C   UNL A   1      44.612  34.091  28.353  1.00  0.00     0.148 A 
ATOM     63  C   UNL A   1      46.150  34.389  30.689  1.00  0.00     0.002 A 
ATOM     64  C   UNL A   1      45.302  35.270  28.588  1.00  0.00     0.091 A 
ATOM     65  F   UNL A   1      43.867  33.905  27.254  1.00  0.00    -0.205 F 
ATOM     66  C   UNL A   1      46.068  35.423  29.757  1.00  0.00     0.022 A 
BRANCH  64  67
ATOM     67  S   UNL A   1      45.318  36.629  27.417  1.00  0.00     0.127 S 
ATOM     68  O   UNL A   1      46.113  36.068  26.324  1.00  0.00    -0.237 OA
ATOM     69  O   UNL A   1      43.895  36.792  27.116  1.00  0.00    -0.237 OA
ATOM     70  O   UNL A   1      45.931  37.756  28.108  1.00  0.00    -0.744 OA
ENDBRANCH  64  67
ENDBRANCH  37  60
ENDBRANCH  11  12
ENDBRANCH   4   6
ENDBRANCH   3   4
ENDBRANCH   2   3
ENDBRANCH   1   2
BRANCH   1  71
ATOM     71  O   UNL A   1      34.660  22.209  23.714  1.00  0.00    -0.374 OA
BRANCH  71  72
ATOM     72  C   UNL A   1      33.259  22.384  23.546  1.00  0.00     0.202 C 
BRANCH  72  73
ATOM     73  C   UNL A   1      32.954  23.125  22.246  1.00  0.00     0.261 C 
BRANCH  73  74
ATOM     74  O   UNL A   1      32.301  24.372  22.543  1.00  0.00    -0.460 OA
BRANCH  74  75
ATOM     75  C   UNL A   1      33.024  25.499  22.306  1.00  0.00     0.340 C 
ATOM     76  O   UNL A   1      33.479  25.876  21.241  1.00  0.00    -0.246 OA
BRANCH  75  77
ATOM     77  C   UNL A   1      33.149  26.225  23.587  1.00  0.00     0.086 A 
ATOM     78  C   UNL A   1      34.017  25.683  24.545  1.00  0.00     0.018 A 
ATOM     79  C   UNL A   1      32.409  27.400  23.820  1.00  0.00     0.087 A 
ATOM     80  C   UNL A   1      34.193  26.334  25.751  1.00  0.00     0.002 A 
ATOM     81  C   UNL A   1      32.623  28.083  25.038  1.00  0.00     0.013 A 
ATOM     82  N   UNL A   1      31.484  27.850  22.946  1.00  0.00    -0.240 NA
ATOM     83  C   UNL A   1      33.523  27.533  25.984  1.00  0.00     0.011 A 
ATOM     84  C   UNL A   1      31.903  29.287  25.264  1.00  0.00     0.068 A 
ATOM     85  C   UNL A   1      30.752  28.947  23.213  1.00  0.00     0.107 A 
ATOM     86  C   UNL A   1      30.932  29.701  24.344  1.00  0.00     0.049 A 
ATOM     87  Br  UNL A   1      29.375  29.422  22.000  1.00  0.00    -0.029 Br
BRANCH  84  88
ATOM     88  C   UNL A   1      32.172  30.161  26.461  1.00  0.00     0.417 C 
ATOM     89  F   UNL A   1      33.461  30.593  26.524  1.00  0.00    -0.166 F 
ATOM     90  F   UNL A   1      31.398  31.281  26.468  1.00  0.00    -0.166 F 
ATOM     91  F   UNL A   1      31.935  29.544  27.653  1.00  0.00    -0.166 F 
ENDBRANCH  84  88
ENDBRANCH  75  77
ENDBRANCH  74  75
ENDBRANCH  73  74
ENDBRANCH  72  73
ENDBRANCH  71  72
ENDBRANCH   1  71
TORSDOF 18
ENDMDL
MODEL 2
REMARK VINA RESULT:     -11.1      5.009      9.601
REMARK SMILES O=C(OCCOCCOC(=O)c1cccc2c(C(F)(F)F)cc(Br)nc12)c1ccc(-c2c3nc(c(-c4cccc(S(=O)(=O)[O-])c4F)c4ccc([nH]4)c(-c4cccc(S(=O)(=O)[O-])c4F)c4nc(c(-c5cccc(S(=O)(=O)[O-])c5F)c5ccc2[nH]5)C=C4)C=C3)cc1
REMARK SMILES IDX 5 1 4 2 3 3 2 4 1 5 27 6 28 7 89 8 29 9 88 10 30 11 31 12
REMARK SMILES IDX 32 13 82 14 33 15 87 16 81 17 83 18 34 19 86 20 80 21 79 22
REMARK SMILES IDX 35 24 67 25 47 26 66 27 48 28 51 29 65 30 84 31 49 32 50 33
REMARK SMILES IDX 64 35 85 36 52 37 36 38 37 39 45 40 38 41 40 42 46 43 39 44
REMARK SMILES IDX 41 45 42 46 43 47 44 48 68 49 69 50 77 51 70 52 72 53 78 54
REMARK SMILES IDX 71 55 73 56 74 57 75 58 76 59 53 60 54 61 62 62 55 63 57 64
REMARK SMILES IDX 63 65 56 66 58 67 59 68 60 69 61 70 6 71 7 72 8 73 9 74
REMARK SMILES IDX 10 75 11 76 12 77 13 78 26 79 14 80 16 81 25 82 15 83 17 84
REMARK SMILES IDX 23 85 22 86 24 87 18 88 19 89 20 90 21 91
REMARK H PARENT 83 23 51 34
REMARK Flexibility Score: inf
ROOT
ATOM      1  C   UNL A   1      33.606  28.018  25.720  1.00  0.00     0.202 C 
ENDROOT
BRANCH   1   2
ATOM      2  C   UNL A   1      33.586  28.564  27.149  1.00  0.00     0.261 C 
BRANCH   2   3
ATOM      3  O   UNL A   1      33.564  29.993  27.164  1.00  0.00    -0.460 OA
BRANCH   3   4
ATOM      4  C   UNL A   1      34.567  30.804  27.578  1.00  0.00     0.338 C 
ATOM      5  O   UNL A   1      34.425  32.015  27.394  1.00  0.00    -0.246 OA
BRANCH   4   6
ATOM      6  C   UNL A   1      35.831  30.342  28.255  1.00  0.00     0.060 A 
ATOM      7  C   UNL A   1      37.001  30.435  27.479  1.00  0.00     0.016 A 
ATOM      8  C   UNL A   1      35.946  29.749  29.519  1.00  0.00     0.016 A 
ATOM      9  C   UNL A   1      38.204  29.884  27.920  1.00  0.00     0.010 A 
ATOM     10  C   UNL A   1      37.129  29.176  29.957  1.00  0.00     0.010 A 
ATOM     11  C   UNL A   1      38.254  29.224  29.150  1.00  0.00    -0.014 A 
BRANCH  11  12
ATOM     12  C   UNL A   1      39.509  28.715  29.705  1.00  0.00     0.031 A 
ATOM     13  C   UNL A   1      40.151  29.370  30.885  1.00  0.00     0.074 A 
ATOM     14  C   UNL A   1      40.109  27.737  29.006  1.00  0.00     0.049 A 
ATOM     15  N   UNL A   1      41.216  28.997  31.537  1.00  0.00    -0.248 NA
ATOM     16  C   UNL A   1      39.542  30.615  31.389  1.00  0.00     0.031 C 
ATOM     17  C   UNL A   1      39.601  27.185  27.744  1.00  0.00     0.029 A 
ATOM     18  N   UNL A   1      41.269  27.059  29.228  1.00  0.00    -0.354 N 
ATOM     19  C   UNL A   1      41.407  29.950  32.529  1.00  0.00     0.074 A 
ATOM     20  C   UNL A   1      40.368  30.942  32.377  1.00  0.00     0.031 C 
ATOM     21  C   UNL A   1      40.441  26.236  27.313  1.00  0.00     0.029 A 
ATOM     22  C   UNL A   1      41.533  26.113  28.268  1.00  0.00     0.049 A 
ATOM     23  H   UNL A   1      41.859  27.228  29.997  1.00  0.00     0.167 HD
ATOM     24  C   UNL A   1      42.359  29.957  33.489  1.00  0.00     0.034 A 
ATOM     25  C   UNL A   1      42.538  25.223  28.193  1.00  0.00     0.034 A 
ATOM     26  C   UNL A   1      43.367  28.936  33.590  1.00  0.00     0.049 A 
ATOM     27  C   UNL A   1      43.521  25.191  29.319  1.00  0.00     0.074 A 
ATOM     28  C   UNL A   1      44.318  28.759  34.578  1.00  0.00     0.029 A 
ATOM     29  N   UNL A   1      43.560  27.927  32.656  1.00  0.00    -0.354 N 
ATOM     30  N   UNL A   1      43.576  25.972  30.374  1.00  0.00    -0.248 NA
ATOM     31  C   UNL A   1      44.548  24.147  29.282  1.00  0.00     0.031 C 
ATOM     32  C   UNL A   1      45.098  27.653  34.228  1.00  0.00     0.029 A 
ATOM     33  C   UNL A   1      44.620  27.129  33.035  1.00  0.00     0.049 A 
ATOM     34  H   UNL A   1      43.021  27.801  31.843  1.00  0.00     0.167 HD
ATOM     35  C   UNL A   1      44.634  25.508  31.137  1.00  0.00     0.074 A 
ATOM     36  C   UNL A   1      45.183  24.364  30.428  1.00  0.00     0.031 C 
ATOM     37  C   UNL A   1      45.116  25.987  32.308  1.00  0.00     0.034 A 
BRANCH  24  38
ATOM     38  C   UNL A   1      42.317  31.024  34.550  1.00  0.00     0.023 A 
ATOM     39  C   UNL A   1      41.638  30.755  35.756  1.00  0.00     0.012 A 
ATOM     40  C   UNL A   1      43.055  32.218  34.425  1.00  0.00     0.148 A 
ATOM     41  C   UNL A   1      41.693  31.654  36.820  1.00  0.00     0.002 A 
ATOM     42  C   UNL A   1      43.126  33.099  35.499  1.00  0.00     0.091 A 
ATOM     43  F   UNL A   1      43.688  32.457  33.268  1.00  0.00    -0.205 F 
ATOM     44  C   UNL A   1      42.446  32.819  36.697  1.00  0.00     0.022 A 
BRANCH  42  45
ATOM     45  S   UNL A   1      44.107  34.605  35.470  1.00  0.00     0.127 S 
ATOM     46  O   UNL A   1      43.932  35.097  36.837  1.00  0.00    -0.237 OA
ATOM     47  O   UNL A   1      45.445  34.093  35.175  1.00  0.00    -0.237 OA
ATOM     48  O   UNL A   1      43.527  35.448  34.435  1.00  0.00    -0.744 OA
ENDBRANCH  42  45
ENDBRANCH  24  38
BRANCH  25  49
ATOM     49  C   UNL A   1      42.529  24.242  27.079  1.00  0.00     0.023 A 
ATOM     50  C   UNL A   1      43.287  24.516  25.925  1.00  0.00     0.012 A 
ATOM     51  C   UNL A   1      41.929  22.977  27.231  1.00  0.00     0.148 A 
ATOM     52  C   UNL A   1      43.450  23.543  24.939  1.00  0.00     0.002 A 
ATOM     53  C   UNL A   1      42.124  22.001  26.262  1.00  0.00     0.091 A 
ATOM     54  F   UNL A   1      41.232  22.739  28.351  1.00  0.00    -0.205 F 
ATOM     55  C   UNL A   1      42.880  22.283  25.113  1.00  0.00     0.022 A 
BRANCH  53  56
ATOM     56  S   UNL A   1      41.528  20.316  26.449  1.00  0.00     0.127 S 
ATOM     57  O   UNL A   1      40.089  20.489  26.267  1.00  0.00    -0.237 OA
ATOM     58  O   UNL A   1      42.211  19.631  25.352  1.00  0.00    -0.237 OA
ATOM     59  O   UNL A   1      41.946  19.892  27.779  1.00  0.00    -0.744 OA
ENDBRANCH  53  56
ENDBRANCH  25  49
BRANCH  37  60
ATOM     60  C   UNL A   1      46.301  25.289  32.902  1.00  0.00     0.023 A 
ATOM     61  C   UNL A   1      47.588  25.811  32.674  1.00  0.00     0.012 A 
ATOM     62  C   UNL A   1      46.124  24.215  33.793  1.00  0.00     0.148 A 
ATOM     63  C   UNL A   1      48.689  25.271  33.331  1.00  0.00     0.002 A 
ATOM     64  C   UNL A   1      47.220  23.704  34.470  1.00  0.00     0.091 A 
ATOM     65  F   UNL A   1      44.882  23.743  33.982  1.00  0.00    -0.205 F 
ATOM     66  C   UNL A   1      48.504  24.228  34.238  1.00  0.00     0.022 A 
BRANCH  64  67
ATOM     67  S   UNL A   1      47.075  22.413  35.708  1.00  0.00     0.127 S 
ATOM     68  O   UNL A   1      46.145  23.020  36.660  1.00  0.00    -0.237 OA
ATOM     69  O   UNL A   1      46.519  21.305  34.931  1.00  0.00    -0.237 OA
ATOM     70  O   UNL A   1      48.420  22.188  36.221  1.00  0.00    -0.744 OA
ENDBRANCH  64  67
ENDBRANCH  37  60
ENDBRANCH  11  12
ENDBRANCH   4   6
ENDBRANCH   3   4
ENDBRANCH   2   3
ENDBRANCH   1   2
BRANCH   1  71
ATOM     71  O   UNL A   1      32.326  27.666  25.204  1.00  0.00    -0.374 OA
BRANCH  71  72
ATOM     72  C   UNL A   1      31.294  27.474  26.165  1.00  0.00     0.202 C 
BRANCH  72  73
ATOM     73  C   UNL A   1      30.577  26.146  25.937  1.00  0.00     0.261 C 
BRANCH  73  74
ATOM     74  O   UNL A   1      31.005  25.191  26.925  1.00  0.00    -0.460 OA
BRANCH  74  75
ATOM     75  C   UNL A   1      30.965  23.884  26.553  1.00  0.00     0.340 C 
ATOM     76  O   UNL A   1      29.980  23.218  26.293  1.00  0.00    -0.246 OA
BRANCH  75  77
ATOM     77  C   UNL A   1      32.359  23.397  26.491  1.00  0.00     0.086 A 
ATOM     78  C   UNL A   1      32.869  22.777  27.641  1.00  0.00     0.018 A 
ATOM     79  C   UNL A   1      33.127  23.570  25.324  1.00  0.00     0.087 A 
ATOM     80  C   UNL A   1      34.158  22.278  27.631  1.00  0.00     0.002 A 
ATOM     81  C   UNL A   1      34.430  23.023  25.306  1.00  0.00     0.013 A 
ATOM     82  N   UNL A   1      32.674  24.274  24.266  1.00  0.00    -0.240 NA
ATOM     83  C   UNL A   1      34.919  22.378  26.468  1.00  0.00     0.011 A 
ATOM     84  C   UNL A   1      35.198  23.166  24.119  1.00  0.00     0.068 A 
ATOM     85  C   UNL A   1      33.447  24.470  23.181  1.00  0.00     0.107 A 
ATOM     86  C   UNL A   1      34.701  23.931  23.056  1.00  0.00     0.049 A 
ATOM     87  Br  UNL A   1      32.788  25.595  21.805  1.00  0.00    -0.029 Br
BRANCH  84  88
ATOM     88  C   UNL A   1      36.534  22.491  23.950  1.00  0.00     0.417 C 
ATOM     89  F   UNL A   1      37.494  23.002  24.769  1.00  0.00    -0.166 F 
ATOM     90  F   UNL A   1      36.477  21.158  24.220  1.00  0.00    -0.166 F 
ATOM     91  F   UNL A   1      37.040  22.588  22.689  1.00  0.00    -0.166 F 
ENDBRANCH  84  88
ENDBRANCH  75  77
ENDBRANCH  74  75
ENDBRANCH  73  74
ENDBRANCH  72  73
ENDBRANCH  71  72
ENDBRANCH   1  71
TORSDOF 18
ENDMDL
MODEL 3
REMARK VINA RESULT:     -11.0      5.046      9.904
REMARK SMILES O=C(OCCOCCOC(=O)c1cccc2c(C(F)(F)F)cc(Br)nc12)c1ccc(-c2c3nc(c(-c4cccc(S(=O)(=O)[O-])c4F)c4ccc([nH]4)c(-c4cccc(S(=O)(=O)[O-])c4F)c4nc(c(-c5cccc(S(=O)(=O)[O-])c5F)c5ccc2[nH]5)C=C4)C=C3)cc1
REMARK SMILES IDX 5 1 4 2 3 3 2 4 1 5 27 6 28 7 89 8 29 9 88 10 30 11 31 12
REMARK SMILES IDX 32 13 82 14 33 15 87 16 81 17 83 18 34 19 86 20 80 21 79 22
REMARK SMILES IDX 35 24 67 25 47 26 66 27 48 28 51 29 65 30 84 31 49 32 50 33
REMARK SMILES IDX 64 35 85 36 52 37 36 38 37 39 45 40 38 41 40 42 46 43 39 44
REMARK SMILES IDX 41 45 42 46 43 47 44 48 68 49 69 50 77 51 70 52 72 53 78 54
REMARK SMILES IDX 71 55 73 56 74 57 75 58 76 59 53 60 54 61 62 62 55 63 57 64
REMARK SMILES IDX 63 65 56 66 58 67 59 68 60 69 61 70 6 71 7 72 8 73 9 74
REMARK SMILES IDX 10 75 11 76 12 77 13 78 26 79 14 80 16 81 25 82 15 83 17 84
REMARK SMILES IDX 23 85 22 86 24 87 18 88 19 89 20 90 21 91
REMARK H PARENT 83 23 51 34
REMARK Flexibility Score: inf
ROOT
ATOM      1  C   UNL A   1      32.871  28.268  25.914  1.00  0.00     0.202 C 
ENDROOT
BRANCH   1   2
ATOM      2  C   UNL A   1      32.990  29.666  25.305  1.00  0.00     0.261 C 
BRANCH   2   3
ATOM      3  O   UNL A   1      32.376  30.654  26.135  1.00  0.00    -0.460 OA
BRANCH   3   4
ATOM      4  C   UNL A   1      33.011  31.476  27.004  1.00  0.00     0.338 C 
ATOM      5  O   UNL A   1      32.562  32.618  27.129  1.00  0.00    -0.246 OA
BRANCH   4   6
ATOM      6  C   UNL A   1      34.209  31.100  27.835  1.00  0.00     0.060 A 
ATOM      7  C   UNL A   1      35.208  32.084  27.936  1.00  0.00     0.016 A 
ATOM      8  C   UNL A   1      34.473  29.856  28.425  1.00  0.00     0.016 A 
ATOM      9  C   UNL A   1      36.440  31.804  28.528  1.00  0.00     0.010 A 
ATOM     10  C   UNL A   1      35.701  29.558  28.993  1.00  0.00     0.010 A 
ATOM     11  C   UNL A   1      36.693  30.525  29.028  1.00  0.00    -0.014 A 
BRANCH  11  12
ATOM     12  C   UNL A   1      37.928  30.204  29.745  1.00  0.00     0.031 A 
ATOM     13  C   UNL A   1      38.241  30.840  31.061  1.00  0.00     0.074 A 
ATOM     14  C   UNL A   1      38.810  29.435  29.086  1.00  0.00     0.049 A 
ATOM     15  N   UNL A   1      39.250  30.606  31.853  1.00  0.00    -0.248 NA
ATOM     16  C   UNL A   1      37.325  31.889  31.547  1.00  0.00     0.031 C 
ATOM     17  C   UNL A   1      38.618  28.934  27.719  1.00  0.00     0.029 A 
ATOM     18  N   UNL A   1      40.037  28.967  29.447  1.00  0.00    -0.354 N 
ATOM     19  C   UNL A   1      39.094  31.468  32.930  1.00  0.00     0.074 A 
ATOM     20  C   UNL A   1      37.910  32.258  32.680  1.00  0.00     0.031 C 
ATOM     21  C   UNL A   1      39.688  28.210  27.365  1.00  0.00     0.029 A 
ATOM     22  C   UNL A   1      40.627  28.193  28.478  1.00  0.00     0.049 A 
ATOM     23  H   UNL A   1      40.458  29.162  30.315  1.00  0.00     0.167 HD
ATOM     24  C   UNL A   1      39.870  31.552  34.034  1.00  0.00     0.034 A 
ATOM     25  C   UNL A   1      41.790  27.521  28.507  1.00  0.00     0.034 A 
ATOM     26  C   UNL A   1      41.037  30.733  34.226  1.00  0.00     0.049 A 
ATOM     27  C   UNL A   1      42.580  27.555  29.776  1.00  0.00     0.074 A 
ATOM     28  C   UNL A   1      41.845  30.635  35.343  1.00  0.00     0.029 A 
ATOM     29  N   UNL A   1      41.567  29.883  33.265  1.00  0.00    -0.354 N 
ATOM     30  N   UNL A   1      42.318  28.217  30.879  1.00  0.00    -0.248 NA
ATOM     31  C   UNL A   1      43.791  26.732  29.834  1.00  0.00     0.031 C 
ATOM     32  C   UNL A   1      42.876  29.738  35.048  1.00  0.00     0.029 A 
ATOM     33  C   UNL A   1      42.698  29.262  33.756  1.00  0.00     0.049 A 
ATOM     34  H   UNL A   1      41.192  29.744  32.366  1.00  0.00     0.167 HD
ATOM     35  C   UNL A   1      43.321  27.882  31.772  1.00  0.00     0.074 A 
ATOM     36  C   UNL A   1      44.190  26.942  31.083  1.00  0.00     0.031 C 
ATOM     37  C   UNL A   1      43.516  28.316  33.040  1.00  0.00     0.034 A 
BRANCH  24  38
ATOM     38  C   UNL A   1      39.456  32.474  35.149  1.00  0.00     0.023 A 
ATOM     39  C   UNL A   1      38.673  31.958  36.201  1.00  0.00     0.012 A 
ATOM     40  C   UNL A   1      39.947  33.792  35.237  1.00  0.00     0.148 A 
ATOM     41  C   UNL A   1      38.386  32.734  37.323  1.00  0.00     0.002 A 
ATOM     42  C   UNL A   1      39.677  34.553  36.370  1.00  0.00     0.091 A 
ATOM     43  F   UNL A   1      40.684  34.266  34.223  1.00  0.00    -0.205 F 
ATOM     44  C   UNL A   1      38.897  34.026  37.414  1.00  0.00     0.022 A 
BRANCH  42  45
ATOM     45  S   UNL A   1      40.327  36.211  36.617  1.00  0.00     0.127 S 
ATOM     46  O   UNL A   1      39.632  36.622  37.837  1.00  0.00    -0.237 OA
ATOM     47  O   UNL A   1      41.757  35.958  36.786  1.00  0.00    -0.237 OA
ATOM     48  O   UNL A   1      39.972  36.968  35.424  1.00  0.00    -0.744 OA
ENDBRANCH  42  45
ENDBRANCH  24  38
BRANCH  25  49
ATOM     49  C   UNL A   1      42.146  26.678  27.337  1.00  0.00     0.023 A 
ATOM     50  C   UNL A   1      43.031  27.193  26.371  1.00  0.00     0.012 A 
ATOM     51  C   UNL A   1      41.761  25.325  27.274  1.00  0.00     0.148 A 
ATOM     52  C   UNL A   1      43.530  26.373  25.360  1.00  0.00     0.002 A 
ATOM     53  C   UNL A   1      42.289  24.504  26.284  1.00  0.00     0.091 A 
ATOM     54  F   UNL A   1      40.934  24.859  28.220  1.00  0.00    -0.205 F 
ATOM     55  C   UNL A   1      43.169  25.027  25.324  1.00  0.00     0.022 A 
BRANCH  53  56
ATOM     56  S   UNL A   1      41.975  22.736  26.224  1.00  0.00     0.127 S 
ATOM     57  O   UNL A   1      42.663  22.355  24.993  1.00  0.00    -0.237 OA
ATOM     58  O   UNL A   1      42.615  22.274  27.457  1.00  0.00    -0.237 OA
ATOM     59  O   UNL A   1      40.525  22.589  26.205  1.00  0.00    -0.744 OA
ENDBRANCH  53  56
ENDBRANCH  25  49
BRANCH  37  60
ATOM     60  C   UNL A   1      44.716  27.794  33.770  1.00  0.00     0.023 A 
ATOM     61  C   UNL A   1      45.906  28.545  33.756  1.00  0.00     0.012 A 
ATOM     62  C   UNL A   1      44.615  26.647  34.578  1.00  0.00     0.148 A 
ATOM     63  C   UNL A   1      46.987  28.159  34.544  1.00  0.00     0.002 A 
ATOM     64  C   UNL A   1      45.683  26.287  35.385  1.00  0.00     0.091 A 
ATOM     65  F   UNL A   1      43.466  25.956  34.562  1.00  0.00    -0.205 F 
ATOM     66  C   UNL A   1      46.871  27.040  35.367  1.00  0.00     0.022 A 
BRANCH  64  67
ATOM     67  S   UNL A   1      45.606  24.909  36.531  1.00  0.00     0.127 S 
ATOM     68  O   UNL A   1      44.509  25.315  37.410  1.00  0.00    -0.237 OA
ATOM     69  O   UNL A   1      45.295  23.789  35.643  1.00  0.00    -0.237 OA
ATOM     70  O   UNL A   1      46.913  24.838  37.172  1.00  0.00    -0.744 OA
ENDBRANCH  64  67
ENDBRANCH  37  60
ENDBRANCH  11  12
ENDBRANCH   4   6
ENDBRANCH   3   4
ENDBRANCH   2   3
ENDBRANCH   1   2
BRANCH   1  71
ATOM     71  O   UNL A   1      31.669  27.579  25.582  1.00  0.00    -0.374 OA
BRANCH  71  72
ATOM     72  C   UNL A   1      31.056  26.846  26.636  1.00  0.00     0.202 C 
BRANCH  72  73
ATOM     73  C   UNL A   1      30.503  25.518  26.125  1.00  0.00     0.261 C 
BRANCH  73  74
ATOM     74  O   UNL A   1      30.752  24.486  27.097  1.00  0.00    -0.460 OA
BRANCH  74  75
ATOM     75  C   UNL A   1      30.886  23.224  26.611  1.00  0.00     0.340 C 
ATOM     76  O   UNL A   1      29.999  22.463  26.270  1.00  0.00    -0.246 OA
BRANCH  75  77
ATOM     77  C   UNL A   1      32.333  22.927  26.541  1.00  0.00     0.086 A 
ATOM     78  C   UNL A   1      32.926  22.373  27.684  1.00  0.00     0.018 A 
ATOM     79  C   UNL A   1      33.065  23.209  25.372  1.00  0.00     0.087 A 
ATOM     80  C   UNL A   1      34.270  22.050  27.665  1.00  0.00     0.002 A 
ATOM     81  C   UNL A   1      34.429  22.841  25.345  1.00  0.00     0.013 A 
ATOM     82  N   UNL A   1      32.518  23.855  24.321  1.00  0.00    -0.240 NA
ATOM     83  C   UNL A   1      35.006  22.259  26.501  1.00  0.00     0.011 A 
ATOM     84  C   UNL A   1      35.166  23.094  24.156  1.00  0.00     0.068 A 
ATOM     85  C   UNL A   1      33.252  24.159  23.235  1.00  0.00     0.107 A 
ATOM     86  C   UNL A   1      34.566  23.793  23.102  1.00  0.00     0.049 A 
ATOM     87  Br  UNL A   1      32.443  25.196  21.870  1.00  0.00    -0.029 Br
BRANCH  84  88
ATOM     88  C   UNL A   1      36.580  22.604  23.978  1.00  0.00     0.417 C 
ATOM     89  F   UNL A   1      37.010  22.683  22.689  1.00  0.00    -0.166 F 
ATOM     90  F   UNL A   1      37.471  23.319  24.718  1.00  0.00    -0.166 F 
ATOM     91  F   UNL A   1      36.758  21.304  24.345  1.00  0.00    -0.166 F 
ENDBRANCH  84  88
ENDBRANCH  75  77
ENDBRANCH  74  75
ENDBRANCH  73  74
ENDBRANCH  72  73
ENDBRANCH  71  72
ENDBRANCH   1  71
TORSDOF 18
ENDMDL
