MODEL 1
REMARK VINA RESULT:     -10.2      0.000      0.000
REMARK SMILES COCC[C@H]([NH3+])C(=O)N1CC(n2cc(C(=O)OCCOCCOC(=O)c3ccc(-c4c5nc(c(-c6cccc(S(=O)(=O)[O-])c6F)c6ccc([nH]6)c(-c6cccc(S(=O)(=O)[O-])c6F)c6nc(c(-c7cccc(S(=O)(=O)[O-])c7F)c7ccc4[nH]7)C=C6)C=C5)cc3)nn2)C1
REMARK SMILES IDX 19 1 18 2 17 3 15 4 16 5 14 6 12 7 13 8 90 9 89 10 11 11
REMARK SMILES IDX 7 12 8 13 9 14 10 15 91 16 5 17 4 18 3 19 2 20 1 21 6 22
REMARK SMILES IDX 20 26 21 27 22 28 23 29 24 30 25 31 26 32 27 33 88 34 28 35
REMARK SMILES IDX 87 36 29 37 30 38 31 39 81 40 32 41 86 42 80 43 82 44 33 45
REMARK SMILES IDX 85 46 79 47 78 48 34 50 66 51 46 52 65 53 47 54 50 55 64 56
REMARK SMILES IDX 83 57 48 58 49 59 63 61 84 62 51 63 35 64 36 65 44 66 37 67
REMARK SMILES IDX 39 68 45 69 38 70 40 71 41 72 42 73 43 74 67 75 68 76 76 77
REMARK SMILES IDX 69 78 71 79 77 80 70 81 72 82 73 83 74 84 75 85 52 86 53 87
REMARK SMILES IDX 61 88 54 89 56 90 62 91 55 92 57 93 58 94 59 95 60 96
REMARK H PARENT 6 23 6 24 6 25 82 49 50 60
REMARK Flexibility Score: inf
ROOT
ATOM      1  C   UNL A   1      43.682  18.435  26.222  1.00  0.00     0.202 C 
ENDROOT
BRANCH   1   2
ATOM      2  C   UNL A   1      42.612  19.510  25.998  1.00  0.00     0.261 C 
BRANCH   2   3
ATOM      3  O   UNL A   1      41.695  19.657  27.091  1.00  0.00    -0.458 OA
BRANCH   3   4
ATOM      4  C   UNL A   1      41.564  20.940  27.556  1.00  0.00     0.360 C 
ATOM      5  O   UNL A   1      42.371  21.491  28.288  1.00  0.00    -0.244 OA
BRANCH   4   6
ATOM      6  C   UNL A   1      40.424  21.631  26.965  1.00  0.00     0.190 A 
ATOM      7  N   UNL A   1      38.620  22.235  25.936  1.00  0.00    -0.245 N 
ATOM      8  C   UNL A   1      39.463  21.168  26.088  1.00  0.00     0.147 A 
ATOM      9  N   UNL A   1      39.095  23.323  26.561  1.00  0.00    -0.066 NA
ATOM     10  N   UNL A   1      40.192  22.965  27.209  1.00  0.00    -0.123 NA
BRANCH   7  11
ATOM     11  C   UNL A   1      37.364  22.197  25.259  1.00  0.00     0.148 C 
ATOM     12  C   UNL A   1      34.229  21.265  25.133  1.00  0.00     0.280 C 
ATOM     13  O   UNL A   1      33.514  22.243  24.909  1.00  0.00    -0.268 OA
ATOM     14  N   UNL A   1      35.509  21.406  25.587  1.00  0.00    -0.333 N 
ATOM     15  C   UNL A   1      36.151  22.617  26.090  1.00  0.00     0.149 C 
ATOM     16  C   UNL A   1      36.763  20.776  25.209  1.00  0.00     0.149 C 
BRANCH  12  17
ATOM     17  C   UNL A   1      33.625  19.852  25.128  1.00  0.00     0.273 C 
BRANCH  17  18
ATOM     18  C   UNL A   1      32.680  19.675  23.921  1.00  0.00     0.104 C 
BRANCH  18  19
ATOM     19  C   UNL A   1      32.525  18.216  23.476  1.00  0.00     0.166 C 
BRANCH  19  20
ATOM     20  O   UNL A   1      32.442  17.277  24.548  1.00  0.00    -0.384 OA
ATOM     21  C   UNL A   1      33.305  16.155  24.421  1.00  0.00     0.194 C 
ENDBRANCH  19  20
ENDBRANCH  18  19
ENDBRANCH  17  18
BRANCH  17  22
ATOM     22  N   UNL A   1      32.966  19.474  26.389  1.00  0.00    -0.347 N 
ATOM     23  H   UNL A   1      32.431  20.266  26.744  1.00  0.00     0.345 HD
ATOM     24  H   UNL A   1      33.673  19.207  27.074  1.00  0.00     0.345 HD
ATOM     25  H   UNL A   1      32.340  18.686  26.223  1.00  0.00     0.345 HD
ENDBRANCH  17  22
ENDBRANCH  12  17
ENDBRANCH   7  11
ENDBRANCH   4   6
ENDBRANCH   3   4
ENDBRANCH   2   3
ENDBRANCH   1   2
BRANCH   1  26
ATOM     26  O   UNL A   1      44.706  18.237  25.252  1.00  0.00    -0.374 OA
BRANCH  26  27
ATOM     27  C   UNL A   1      46.003  18.792  25.443  1.00  0.00     0.202 C 
BRANCH  27  28
ATOM     28  C   UNL A   1      46.450  19.987  24.618  1.00  0.00     0.261 C 
BRANCH  28  29
ATOM     29  O   UNL A   1      46.031  21.218  25.183  1.00  0.00    -0.460 OA
BRANCH  29  30
ATOM     30  C   UNL A   1      45.023  21.812  24.514  1.00  0.00     0.338 C 
ATOM     31  O   UNL A   1      44.847  21.842  23.284  1.00  0.00    -0.246 OA
BRANCH  30  32
ATOM     32  C   UNL A   1      44.242  22.598  25.442  1.00  0.00     0.060 A 
ATOM     33  C   UNL A   1      43.103  23.285  25.025  1.00  0.00     0.016 A 
ATOM     34  C   UNL A   1      44.895  22.963  26.598  1.00  0.00     0.016 A 
ATOM     35  C   UNL A   1      42.929  24.588  25.505  1.00  0.00     0.010 A 
ATOM     36  C   UNL A   1      44.524  24.145  27.160  1.00  0.00     0.010 A 
ATOM     37  C   UNL A   1      43.844  25.120  26.440  1.00  0.00    -0.014 A 
BRANCH  37  38
ATOM     38  C   UNL A   1      43.661  26.396  27.196  1.00  0.00     0.031 A 
ATOM     39  C   UNL A   1      44.917  27.218  26.776  1.00  0.00     0.074 A 
ATOM     40  C   UNL A   1      42.550  26.743  27.984  1.00  0.00     0.049 A 
ATOM     41  N   UNL A   1      46.033  27.216  27.451  1.00  0.00    -0.248 NA
ATOM     42  C   UNL A   1      45.219  27.661  25.367  1.00  0.00     0.031 C 
ATOM     43  C   UNL A   1      41.314  26.004  28.422  1.00  0.00     0.029 A 
ATOM     44  N   UNL A   1      42.264  27.952  28.640  1.00  0.00    -0.354 N 
ATOM     45  C   UNL A   1      46.874  28.105  26.773  1.00  0.00     0.074 A 
ATOM     46  C   UNL A   1      46.510  28.010  25.408  1.00  0.00     0.031 C 
ATOM     47  C   UNL A   1      40.355  26.849  28.925  1.00  0.00     0.029 A 
ATOM     48  C   UNL A   1      40.886  28.195  29.018  1.00  0.00     0.049 A 
ATOM     49  H   UNL A   1      42.971  28.608  28.834  1.00  0.00     0.167 HD
ATOM     50  C   UNL A   1      47.357  29.186  27.447  1.00  0.00     0.034 A 
ATOM     51  C   UNL A   1      40.305  29.365  29.516  1.00  0.00     0.034 A 
ATOM     52  C   UNL A   1      47.231  28.909  28.858  1.00  0.00     0.049 A 
ATOM     53  C   UNL A   1      41.427  30.209  29.991  1.00  0.00     0.074 A 
ATOM     54  C   UNL A   1      47.657  27.893  29.691  1.00  0.00     0.029 A 
ATOM     55  N   UNL A   1      46.078  29.415  29.390  1.00  0.00    -0.354 N 
ATOM     56  N   UNL A   1      42.127  29.854  31.033  1.00  0.00    -0.248 NA
ATOM     57  C   UNL A   1      42.114  30.938  28.931  1.00  0.00     0.031 C 
ATOM     58  C   UNL A   1      46.539  27.595  30.524  1.00  0.00     0.029 A 
ATOM     59  C   UNL A   1      45.570  28.577  30.333  1.00  0.00     0.049 A 
ATOM     60  H   UNL A   1      45.670  30.271  29.126  1.00  0.00     0.167 HD
ATOM     61  C   UNL A   1      43.410  29.782  30.519  1.00  0.00     0.074 A 
ATOM     62  C   UNL A   1      43.338  30.472  29.208  1.00  0.00     0.031 C 
ATOM     63  C   UNL A   1      44.296  28.832  30.951  1.00  0.00     0.034 A 
BRANCH  50  64
ATOM     64  C   UNL A   1      47.358  30.635  26.939  1.00  0.00     0.023 A 
ATOM     65  C   UNL A   1      48.561  31.348  27.152  1.00  0.00     0.012 A 
ATOM     66  C   UNL A   1      46.231  31.411  26.550  1.00  0.00     0.148 A 
ATOM     67  C   UNL A   1      48.636  32.740  27.033  1.00  0.00     0.002 A 
ATOM     68  C   UNL A   1      46.323  32.795  26.383  1.00  0.00     0.091 A 
ATOM     69  F   UNL A   1      45.031  30.844  26.422  1.00  0.00    -0.205 F 
ATOM     70  C   UNL A   1      47.518  33.465  26.643  1.00  0.00     0.022 A 
BRANCH  68  71
ATOM     71  S   UNL A   1      44.924  33.813  25.865  1.00  0.00     0.127 S 
ATOM     72  O   UNL A   1      44.517  33.159  24.624  1.00  0.00    -0.237 OA
ATOM     73  O   UNL A   1      44.001  33.635  26.986  1.00  0.00    -0.237 OA
ATOM     74  O   UNL A   1      45.444  35.167  25.719  1.00  0.00    -0.744 OA
ENDBRANCH  68  71
ENDBRANCH  50  64
BRANCH  51  75
ATOM     75  C   UNL A   1      38.962  30.050  29.246  1.00  0.00     0.023 A 
ATOM     76  C   UNL A   1      38.090  29.813  28.132  1.00  0.00     0.012 A 
ATOM     77  C   UNL A   1      38.385  30.716  30.334  1.00  0.00     0.148 A 
ATOM     78  C   UNL A   1      36.720  30.206  28.148  1.00  0.00     0.002 A 
ATOM     79  C   UNL A   1      37.037  31.077  30.362  1.00  0.00     0.091 A 
ATOM     80  F   UNL A   1      39.154  30.922  31.405  1.00  0.00    -0.205 F 
ATOM     81  C   UNL A   1      36.189  30.820  29.279  1.00  0.00     0.022 A 
BRANCH  79  82
ATOM     82  S   UNL A   1      36.339  31.824  31.836  1.00  0.00     0.127 S 
ATOM     83  O   UNL A   1      37.122  33.055  31.947  1.00  0.00    -0.237 OA
ATOM     84  O   UNL A   1      34.944  32.009  31.451  1.00  0.00    -0.237 OA
ATOM     85  O   UNL A   1      36.569  30.869  32.913  1.00  0.00    -0.744 OA
ENDBRANCH  79  82
ENDBRANCH  51  75
BRANCH  63  86
ATOM     86  C   UNL A   1      43.968  27.986  32.156  1.00  0.00     0.023 A 
ATOM     87  C   UNL A   1      43.577  26.627  32.148  1.00  0.00     0.012 A 
ATOM     88  C   UNL A   1      44.251  28.597  33.385  1.00  0.00     0.148 A 
ATOM     89  C   UNL A   1      43.397  25.933  33.357  1.00  0.00     0.002 A 
ATOM     90  C   UNL A   1      44.103  27.903  34.570  1.00  0.00     0.091 A 
ATOM     91  F   UNL A   1      44.719  29.853  33.362  1.00  0.00    -0.205 F 
ATOM     92  C   UNL A   1      43.648  26.577  34.569  1.00  0.00     0.022 A 
BRANCH  90  93
ATOM     93  S   UNL A   1      44.525  28.666  36.129  1.00  0.00     0.127 S 
ATOM     94  O   UNL A   1      44.354  27.552  37.059  1.00  0.00    -0.237 OA
ATOM     95  O   UNL A   1      45.911  29.078  35.906  1.00  0.00    -0.237 OA
ATOM     96  O   UNL A   1      43.595  29.774  36.309  1.00  0.00    -0.744 OA
ENDBRANCH  90  93
ENDBRANCH  63  86
ENDBRANCH  37  38
ENDBRANCH  30  32
ENDBRANCH  29  30
ENDBRANCH  28  29
ENDBRANCH  27  28
ENDBRANCH  26  27
ENDBRANCH   1  26
TORSDOF 23
ENDMDL
MODEL 2
REMARK VINA RESULT:      -9.5      3.464      9.682
REMARK SMILES COCC[C@H]([NH3+])C(=O)N1CC(n2cc(C(=O)OCCOCCOC(=O)c3ccc(-c4c5nc(c(-c6cccc(S(=O)(=O)[O-])c6F)c6ccc([nH]6)c(-c6cccc(S(=O)(=O)[O-])c6F)c6nc(c(-c7cccc(S(=O)(=O)[O-])c7F)c7ccc4[nH]7)C=C6)C=C5)cc3)nn2)C1
REMARK SMILES IDX 19 1 18 2 17 3 15 4 16 5 14 6 12 7 13 8 90 9 89 10 11 11
REMARK SMILES IDX 7 12 8 13 9 14 10 15 91 16 5 17 4 18 3 19 2 20 1 21 6 22
REMARK SMILES IDX 20 26 21 27 22 28 23 29 24 30 25 31 26 32 27 33 88 34 28 35
REMARK SMILES IDX 87 36 29 37 30 38 31 39 81 40 32 41 86 42 80 43 82 44 33 45
REMARK SMILES IDX 85 46 79 47 78 48 34 50 66 51 46 52 65 53 47 54 50 55 64 56
REMARK SMILES IDX 83 57 48 58 49 59 63 61 84 62 51 63 35 64 36 65 44 66 37 67
REMARK SMILES IDX 39 68 45 69 38 70 40 71 41 72 42 73 43 74 67 75 68 76 76 77
REMARK SMILES IDX 69 78 71 79 77 80 70 81 72 82 73 83 74 84 75 85 52 86 53 87
REMARK SMILES IDX 61 88 54 89 56 90 62 91 55 92 57 93 58 94 59 95 60 96
REMARK H PARENT 6 23 6 24 6 25 82 49 50 60
REMARK Flexibility Score: inf
ROOT
ATOM      1  C   UNL A   1      35.012  32.598  27.718  1.00  0.00     0.202 C 
ENDROOT
BRANCH   1   2
ATOM      2  C   UNL A   1      34.025  31.478  28.061  1.00  0.00     0.261 C 
BRANCH   2   3
ATOM      3  O   UNL A   1      33.724  30.607  26.962  1.00  0.00    -0.458 OA
BRANCH   3   4
ATOM      4  C   UNL A   1      32.404  30.590  26.593  1.00  0.00     0.360 C 
ATOM      5  O   UNL A   1      31.632  31.520  26.763  1.00  0.00    -0.244 OA
BRANCH   4   6
ATOM      6  C   UNL A   1      32.052  29.390  25.843  1.00  0.00     0.190 A 
ATOM      7  N   UNL A   1      31.441  27.435  25.148  1.00  0.00    -0.245 N 
ATOM      8  C   UNL A   1      31.748  28.120  26.293  1.00  0.00     0.147 A 
ATOM      9  N   UNL A   1      31.671  28.182  24.057  1.00  0.00    -0.066 NA
ATOM     10  N   UNL A   1      32.030  29.388  24.467  1.00  0.00    -0.123 NA
BRANCH   7  11
ATOM     11  C   UNL A   1      30.888  26.120  25.105  1.00  0.00     0.148 C 
ATOM     12  C   UNL A   1      31.263  22.872  25.256  1.00  0.00     0.280 C 
ATOM     13  O   UNL A   1      30.483  22.402  26.086  1.00  0.00    -0.268 OA
ATOM     14  N   UNL A   1      31.575  24.201  25.242  1.00  0.00    -0.333 N 
ATOM     15  C   UNL A   1      31.276  25.200  26.264  1.00  0.00     0.149 C 
ATOM     16  C   UNL A   1      31.677  25.178  24.171  1.00  0.00     0.149 C 
BRANCH  12  17
ATOM     17  C   UNL A   1      32.083  21.936  24.354  1.00  0.00     0.273 C 
BRANCH  17  18
ATOM     18  C   UNL A   1      32.498  20.668  25.130  1.00  0.00     0.104 C 
BRANCH  18  19
ATOM     19  C   UNL A   1      33.973  20.293  24.941  1.00  0.00     0.166 C 
BRANCH  19  20
ATOM     20  O   UNL A   1      34.874  20.980  25.810  1.00  0.00    -0.384 OA
ATOM     21  C   UNL A   1      36.229  20.974  25.383  1.00  0.00     0.194 C 
ENDBRANCH  19  20
ENDBRANCH  18  19
ENDBRANCH  17  18
BRANCH  17  22
ATOM     22  N   UNL A   1      33.242  22.581  23.714  1.00  0.00    -0.347 N 
ATOM     23  H   UNL A   1      32.983  22.893  22.778  1.00  0.00     0.345 HD
ATOM     24  H   UNL A   1      34.010  21.913  23.651  1.00  0.00     0.345 HD
ATOM     25  H   UNL A   1      33.534  23.383  24.272  1.00  0.00     0.345 HD
ENDBRANCH  17  22
ENDBRANCH  12  17
ENDBRANCH   7  11
ENDBRANCH   4   6
ENDBRANCH   3   4
ENDBRANCH   2   3
ENDBRANCH   1   2
BRANCH   1  26
ATOM     26  O   UNL A   1      35.472  33.480  28.738  1.00  0.00    -0.374 OA
BRANCH  26  27
ATOM     27  C   UNL A   1      34.561  34.041  29.677  1.00  0.00     0.202 C 
BRANCH  27  28
ATOM     28  C   UNL A   1      34.643  33.655  31.143  1.00  0.00     0.261 C 
BRANCH  28  29
ATOM     29  O   UNL A   1      34.729  32.251  31.327  1.00  0.00    -0.460 OA
BRANCH  29  30
ATOM     30  C   UNL A   1      35.858  31.846  31.940  1.00  0.00     0.338 C 
ATOM     31  O   UNL A   1      36.206  32.076  33.111  1.00  0.00    -0.246 OA
BRANCH  30  32
ATOM     32  C   UNL A   1      36.733  31.241  30.962  1.00  0.00     0.060 A 
ATOM     33  C   UNL A   1      36.593  29.903  30.598  1.00  0.00     0.016 A 
ATOM     34  C   UNL A   1      37.921  31.903  30.746  1.00  0.00     0.016 A 
ATOM     35  C   UNL A   1      37.764  29.146  30.473  1.00  0.00     0.010 A 
ATOM     36  C   UNL A   1      38.990  31.137  30.398  1.00  0.00     0.010 A 
ATOM     37  C   UNL A   1      39.021  29.768  30.630  1.00  0.00    -0.014 A 
BRANCH  37  38
ATOM     38  C   UNL A   1      40.340  29.141  30.309  1.00  0.00     0.031 A 
ATOM     39  C   UNL A   1      40.980  28.966  31.719  1.00  0.00     0.074 A 
ATOM     40  C   UNL A   1      40.778  28.736  29.037  1.00  0.00     0.049 A 
ATOM     41  N   UNL A   1      41.765  29.853  32.264  1.00  0.00    -0.248 NA
ATOM     42  C   UNL A   1      40.414  28.099  32.815  1.00  0.00     0.031 C 
ATOM     43  C   UNL A   1      40.212  28.870  27.649  1.00  0.00     0.029 A 
ATOM     44  N   UNL A   1      41.953  28.057  28.673  1.00  0.00    -0.354 N 
ATOM     45  C   UNL A   1      42.154  29.297  33.488  1.00  0.00     0.074 A 
ATOM     46  C   UNL A   1      41.059  28.508  33.914  1.00  0.00     0.031 C 
ATOM     47  C   UNL A   1      40.839  28.043  26.749  1.00  0.00     0.029 A 
ATOM     48  C   UNL A   1      41.966  27.391  27.386  1.00  0.00     0.049 A 
ATOM     49  H   UNL A   1      42.736  28.033  29.269  1.00  0.00     0.167 HD
ATOM     50  C   UNL A   1      43.481  29.097  33.719  1.00  0.00     0.034 A 
ATOM     51  C   UNL A   1      42.921  26.515  26.859  1.00  0.00     0.034 A 
ATOM     52  C   UNL A   1      44.213  29.934  32.797  1.00  0.00     0.049 A 
ATOM     53  C   UNL A   1      44.143  26.702  27.677  1.00  0.00     0.074 A 
ATOM     54  C   UNL A   1      44.217  31.283  32.502  1.00  0.00     0.029 A 
ATOM     55  N   UNL A   1      44.573  29.267  31.659  1.00  0.00    -0.354 N 
ATOM     56  N   UNL A   1      44.815  27.818  27.617  1.00  0.00    -0.248 NA
ATOM     57  C   UNL A   1      44.120  25.994  28.952  1.00  0.00     0.031 C 
ATOM     58  C   UNL A   1      44.250  31.356  31.078  1.00  0.00     0.029 A 
ATOM     59  C   UNL A   1      44.497  30.083  30.573  1.00  0.00     0.049 A 
ATOM     60  H   UNL A   1      44.851  28.323  31.630  1.00  0.00     0.167 HD
ATOM     61  C   UNL A   1      44.797  28.248  28.932  1.00  0.00     0.074 A 
ATOM     62  C   UNL A   1      44.354  27.069  29.715  1.00  0.00     0.031 C 
ATOM     63  C   UNL A   1      44.711  29.578  29.243  1.00  0.00     0.034 A 
BRANCH  50  64
ATOM     64  C   UNL A   1      44.115  27.811  34.268  1.00  0.00     0.023 A 
ATOM     65  C   UNL A   1      45.095  28.002  35.270  1.00  0.00     0.012 A 
ATOM     66  C   UNL A   1      44.043  26.508  33.703  1.00  0.00     0.148 A 
ATOM     67  C   UNL A   1      45.975  26.985  35.658  1.00  0.00     0.002 A 
ATOM     68  C   UNL A   1      44.890  25.482  34.129  1.00  0.00     0.091 A 
ATOM     69  F   UNL A   1      43.221  26.257  32.684  1.00  0.00    -0.205 F 
ATOM     70  C   UNL A   1      45.870  25.722  35.092  1.00  0.00     0.022 A 
BRANCH  68  71
ATOM     71  S   UNL A   1      44.814  23.807  33.457  1.00  0.00     0.127 S 
ATOM     72  O   UNL A   1      46.044  23.217  33.975  1.00  0.00    -0.237 OA
ATOM     73  O   UNL A   1      43.583  23.303  34.067  1.00  0.00    -0.237 OA
ATOM     74  O   UNL A   1      44.752  23.957  32.008  1.00  0.00    -0.744 OA
ENDBRANCH  68  71
ENDBRANCH  50  64
BRANCH  51  75
ATOM     75  C   UNL A   1      42.803  25.229  26.036  1.00  0.00     0.023 A 
ATOM     76  C   UNL A   1      43.728  24.761  25.045  1.00  0.00     0.012 A 
ATOM     77  C   UNL A   1      41.898  24.276  26.517  1.00  0.00     0.148 A 
ATOM     78  C   UNL A   1      43.740  23.405  24.603  1.00  0.00     0.002 A 
ATOM     79  C   UNL A   1      41.927  22.942  26.105  1.00  0.00     0.091 A 
ATOM     80  F   UNL A   1      41.045  24.663  27.467  1.00  0.00    -0.205 F 
ATOM     81  C   UNL A   1      42.849  22.489  25.155  1.00  0.00     0.022 A 
BRANCH  79  82
ATOM     82  S   UNL A   1      40.812  21.749  26.851  1.00  0.00     0.127 S 
ATOM     83  O   UNL A   1      41.158  20.524  26.130  1.00  0.00    -0.237 OA
ATOM     84  O   UNL A   1      41.224  21.784  28.250  1.00  0.00    -0.237 OA
ATOM     85  O   UNL A   1      39.466  22.242  26.583  1.00  0.00    -0.744 OA
ENDBRANCH  79  82
ENDBRANCH  51  75
BRANCH  63  86
ATOM     86  C   UNL A   1      44.860  30.618  28.161  1.00  0.00     0.023 A 
ATOM     87  C   UNL A   1      43.810  31.284  27.486  1.00  0.00     0.012 A 
ATOM     88  C   UNL A   1      46.175  31.054  27.955  1.00  0.00     0.148 A 
ATOM     89  C   UNL A   1      44.096  32.306  26.564  1.00  0.00     0.002 A 
ATOM     90  C   UNL A   1      46.450  32.080  27.072  1.00  0.00     0.091 A 
ATOM     91  F   UNL A   1      47.142  30.477  28.683  1.00  0.00    -0.205 F 
ATOM     92  C   UNL A   1      45.418  32.695  26.349  1.00  0.00     0.022 A 
BRANCH  90  93
ATOM     93  S   UNL A   1      48.122  32.674  26.860  1.00  0.00     0.127 S 
ATOM     94  O   UNL A   1      47.968  33.591  25.733  1.00  0.00    -0.237 OA
ATOM     95  O   UNL A   1      48.386  33.315  28.148  1.00  0.00    -0.237 OA
ATOM     96  O   UNL A   1      48.944  31.499  26.598  1.00  0.00    -0.744 OA
ENDBRANCH  90  93
ENDBRANCH  63  86
ENDBRANCH  37  38
ENDBRANCH  30  32
ENDBRANCH  29  30
ENDBRANCH  28  29
ENDBRANCH  27  28
ENDBRANCH  26  27
ENDBRANCH   1  26
TORSDOF 23
ENDMDL
MODEL 3
REMARK VINA RESULT:      -9.4      3.309      4.962
REMARK SMILES COCC[C@H]([NH3+])C(=O)N1CC(n2cc(C(=O)OCCOCCOC(=O)c3ccc(-c4c5nc(c(-c6cccc(S(=O)(=O)[O-])c6F)c6ccc([nH]6)c(-c6cccc(S(=O)(=O)[O-])c6F)c6nc(c(-c7cccc(S(=O)(=O)[O-])c7F)c7ccc4[nH]7)C=C6)C=C5)cc3)nn2)C1
REMARK SMILES IDX 19 1 18 2 17 3 15 4 16 5 14 6 12 7 13 8 90 9 89 10 11 11
REMARK SMILES IDX 7 12 8 13 9 14 10 15 91 16 5 17 4 18 3 19 2 20 1 21 6 22
REMARK SMILES IDX 20 26 21 27 22 28 23 29 24 30 25 31 26 32 27 33 88 34 28 35
REMARK SMILES IDX 87 36 29 37 30 38 31 39 81 40 32 41 86 42 80 43 82 44 33 45
REMARK SMILES IDX 85 46 79 47 78 48 34 50 66 51 46 52 65 53 47 54 50 55 64 56
REMARK SMILES IDX 83 57 48 58 49 59 63 61 84 62 51 63 35 64 36 65 44 66 37 67
REMARK SMILES IDX 39 68 45 69 38 70 40 71 41 72 42 73 43 74 67 75 68 76 76 77
REMARK SMILES IDX 69 78 71 79 77 80 70 81 72 82 73 83 74 84 75 85 52 86 53 87
REMARK SMILES IDX 61 88 54 89 56 90 62 91 55 92 57 93 58 94 59 95 60 96
REMARK H PARENT 6 23 6 24 6 25 82 49 50 60
REMARK Flexibility Score: inf
ROOT
ATOM      1  C   UNL A   1      38.829  21.459  25.696  1.00  0.00     0.202 C 
ENDROOT
BRANCH   1   2
ATOM      2  C   UNL A   1      37.467  21.421  24.994  1.00  0.00     0.261 C 
BRANCH   2   3
ATOM      3  O   UNL A   1      36.468  20.671  25.698  1.00  0.00    -0.458 OA
BRANCH   3   4
ATOM      4  C   UNL A   1      35.257  20.599  25.062  1.00  0.00     0.360 C 
ATOM      5  O   UNL A   1      34.739  19.559  24.685  1.00  0.00    -0.244 OA
BRANCH   4   6
ATOM      6  C   UNL A   1      34.580  21.889  25.008  1.00  0.00     0.190 A 
ATOM      7  N   UNL A   1      33.713  23.839  25.366  1.00  0.00    -0.245 N 
ATOM      8  C   UNL A   1      34.304  22.790  26.018  1.00  0.00     0.147 A 
ATOM      9  N   UNL A   1      33.511  23.555  24.071  1.00  0.00    -0.066 NA
ATOM     10  N   UNL A   1      34.051  22.371  23.831  1.00  0.00    -0.123 NA
BRANCH   7  11
ATOM     11  C   UNL A   1      33.404  25.100  25.958  1.00  0.00     0.148 C 
ATOM     12  C   UNL A   1      31.923  28.016  25.824  1.00  0.00     0.280 C 
ATOM     13  O   UNL A   1      31.232  28.177  26.832  1.00  0.00    -0.268 OA
ATOM     14  N   UNL A   1      32.356  26.777  25.446  1.00  0.00    -0.333 N 
ATOM     15  C   UNL A   1      31.923  25.483  25.964  1.00  0.00     0.149 C 
ATOM     16  C   UNL A   1      33.644  26.280  24.993  1.00  0.00     0.149 C 
BRANCH  12  17
ATOM     17  C   UNL A   1      32.128  29.177  24.837  1.00  0.00     0.273 C 
BRANCH  17  18
ATOM     18  C   UNL A   1      31.772  28.732  23.404  1.00  0.00     0.104 C 
BRANCH  18  19
ATOM     19  C   UNL A   1      30.297  28.350  23.233  1.00  0.00     0.166 C 
BRANCH  19  20
ATOM     20  O   UNL A   1      29.727  28.740  21.983  1.00  0.00    -0.384 OA
ATOM     21  C   UNL A   1      29.577  30.142  21.812  1.00  0.00     0.194 C 
ENDBRANCH  19  20
ENDBRANCH  18  19
ENDBRANCH  17  18
BRANCH  17  22
ATOM     22  N   UNL A   1      33.467  29.788  24.897  1.00  0.00    -0.347 N 
ATOM     23  H   UNL A   1      33.377  30.803  24.929  1.00  0.00     0.345 HD
ATOM     24  H   UNL A   1      34.000  29.518  24.070  1.00  0.00     0.345 HD
ATOM     25  H   UNL A   1      33.951  29.463  25.734  1.00  0.00     0.345 HD
ENDBRANCH  17  22
ENDBRANCH  12  17
ENDBRANCH   7  11
ENDBRANCH   4   6
ENDBRANCH   3   4
ENDBRANCH   2   3
ENDBRANCH   1   2
BRANCH   1  26
ATOM     26  O   UNL A   1      39.624  20.280  25.771  1.00  0.00    -0.374 OA
BRANCH  26  27
ATOM     27  C   UNL A   1      40.755  20.221  26.635  1.00  0.00     0.202 C 
BRANCH  27  28
ATOM     28  C   UNL A   1      42.114  20.689  26.145  1.00  0.00     0.261 C 
BRANCH  28  29
ATOM     29  O   UNL A   1      42.574  21.835  26.843  1.00  0.00    -0.460 OA
BRANCH  29  30
ATOM     30  C   UNL A   1      42.286  23.000  26.232  1.00  0.00     0.338 C 
ATOM     31  O   UNL A   1      42.698  23.396  25.128  1.00  0.00    -0.246 OA
BRANCH  30  32
ATOM     32  C   UNL A   1      41.553  23.844  27.147  1.00  0.00     0.060 A 
ATOM     33  C   UNL A   1      40.416  24.538  26.737  1.00  0.00     0.016 A 
ATOM     34  C   UNL A   1      42.251  24.244  28.265  1.00  0.00     0.016 A 
ATOM     35  C   UNL A   1      40.287  25.865  27.164  1.00  0.00     0.010 A 
ATOM     36  C   UNL A   1      41.924  25.458  28.785  1.00  0.00     0.010 A 
ATOM     37  C   UNL A   1      41.242  26.416  28.044  1.00  0.00    -0.014 A 
BRANCH  37  38
ATOM     38  C   UNL A   1      41.112  27.728  28.749  1.00  0.00     0.031 A 
ATOM     39  C   UNL A   1      42.238  28.577  28.086  1.00  0.00     0.074 A 
ATOM     40  C   UNL A   1      40.122  28.073  29.685  1.00  0.00     0.049 A 
ATOM     41  N   UNL A   1      43.445  28.669  28.571  1.00  0.00    -0.248 NA
ATOM     42  C   UNL A   1      42.288  28.943  26.624  1.00  0.00     0.031 C 
ATOM     43  C   UNL A   1      39.014  27.308  30.357  1.00  0.00     0.029 A 
ATOM     44  N   UNL A   1      39.878  29.306  30.310  1.00  0.00    -0.354 N 
ATOM     45  C   UNL A   1      44.118  29.550  27.717  1.00  0.00     0.074 A 
ATOM     46  C   UNL A   1      43.548  29.353  26.437  1.00  0.00     0.031 C 
ATOM     47  C   UNL A   1      38.102  28.139  30.961  1.00  0.00     0.029 A 
ATOM     48  C   UNL A   1      38.567  29.510  30.892  1.00  0.00     0.049 A 
ATOM     49  H   UNL A   1      40.570  30.006  30.351  1.00  0.00     0.167 HD
ATOM     50  C   UNL A   1      44.641  30.693  28.243  1.00  0.00     0.034 A 
ATOM     51  C   UNL A   1      38.008  30.682  31.412  1.00  0.00     0.034 A 
ATOM     52  C   UNL A   1      44.757  30.501  29.670  1.00  0.00     0.049 A 
ATOM     53  C   UNL A   1      39.143  31.605  31.652  1.00  0.00     0.074 A 
ATOM     54  C   UNL A   1      45.365  29.559  30.477  1.00  0.00     0.029 A 
ATOM     55  N   UNL A   1      43.676  30.986  30.352  1.00  0.00    -0.354 N 
ATOM     56  N   UNL A   1      40.018  31.348  32.585  1.00  0.00    -0.248 NA
ATOM     57  C   UNL A   1      39.612  32.295  30.456  1.00  0.00     0.031 C 
ATOM     58  C   UNL A   1      44.410  29.265  31.495  1.00  0.00     0.029 A 
ATOM     59  C   UNL A   1      43.371  30.187  31.410  1.00  0.00     0.049 A 
ATOM     60  H   UNL A   1      43.185  31.804  30.111  1.00  0.00     0.167 HD
ATOM     61  C   UNL A   1      41.205  31.302  31.875  1.00  0.00     0.074 A 
ATOM     62  C   UNL A   1      40.889  31.904  30.557  1.00  0.00     0.031 C 
ATOM     63  C   UNL A   1      42.199  30.423  32.211  1.00  0.00     0.034 A 
BRANCH  50  64
ATOM     64  C   UNL A   1      44.482  32.105  27.663  1.00  0.00     0.023 A 
ATOM     65  C   UNL A   1      44.035  32.159  26.322  1.00  0.00     0.012 A 
ATOM     66  C   UNL A   1      44.991  33.319  28.202  1.00  0.00     0.148 A 
ATOM     67  C   UNL A   1      44.124  33.324  25.550  1.00  0.00     0.002 A 
ATOM     68  C   UNL A   1      45.031  34.492  27.445  1.00  0.00     0.091 A 
ATOM     69  F   UNL A   1      45.528  33.344  29.423  1.00  0.00    -0.205 F 
ATOM     70  C   UNL A   1      44.617  34.493  26.113  1.00  0.00     0.022 A 
BRANCH  68  71
ATOM     71  S   UNL A   1      45.644  36.059  28.100  1.00  0.00     0.127 S 
ATOM     72  O   UNL A   1      47.091  35.870  28.033  1.00  0.00    -0.237 OA
ATOM     73  O   UNL A   1      45.102  37.013  27.132  1.00  0.00    -0.237 OA
ATOM     74  O   UNL A   1      45.089  36.179  29.443  1.00  0.00    -0.744 OA
ENDBRANCH  68  71
ENDBRANCH  50  64
BRANCH  51  75
ATOM     75  C   UNL A   1      36.603  31.286  31.325  1.00  0.00     0.023 A 
ATOM     76  C   UNL A   1      35.890  31.946  32.380  1.00  0.00     0.012 A 
ATOM     77  C   UNL A   1      36.110  31.504  30.034  1.00  0.00     0.148 A 
ATOM     78  C   UNL A   1      34.770  32.790  32.122  1.00  0.00     0.002 A 
ATOM     79  C   UNL A   1      35.031  32.351  29.777  1.00  0.00     0.091 A 
ATOM     80  F   UNL A   1      36.768  30.937  29.021  1.00  0.00    -0.205 F 
ATOM     81  C   UNL A   1      34.355  33.009  30.811  1.00  0.00     0.022 A 
BRANCH  79  82
ATOM     82  S   UNL A   1      34.526  32.674  28.086  1.00  0.00     0.127 S 
ATOM     83  O   UNL A   1      33.416  33.608  28.277  1.00  0.00    -0.237 OA
ATOM     84  O   UNL A   1      35.736  33.255  27.514  1.00  0.00    -0.237 OA
ATOM     85  O   UNL A   1      34.133  31.382  27.535  1.00  0.00    -0.744 OA
ENDBRANCH  79  82
ENDBRANCH  51  75
BRANCH  63  86
ATOM     86  C   UNL A   1      42.113  29.642  33.498  1.00  0.00     0.023 A 
ATOM     87  C   UNL A   1      41.672  28.306  33.642  1.00  0.00     0.012 A 
ATOM     88  C   UNL A   1      42.692  30.281  34.602  1.00  0.00     0.148 A 
ATOM     89  C   UNL A   1      41.737  27.668  34.893  1.00  0.00     0.002 A 
ATOM     90  C   UNL A   1      42.784  29.640  35.822  1.00  0.00     0.091 A 
ATOM     91  F   UNL A   1      43.197  31.509  34.415  1.00  0.00    -0.205 F 
ATOM     92  C   UNL A   1      42.282  28.342  35.986  1.00  0.00     0.022 A 
BRANCH  90  93
ATOM     93  S   UNL A   1      43.578  30.438  37.210  1.00  0.00     0.127 S 
ATOM     94  O   UNL A   1      42.442  31.075  37.873  1.00  0.00    -0.237 OA
ATOM     95  O   UNL A   1      44.156  29.301  37.928  1.00  0.00    -0.237 OA
ATOM     96  O   UNL A   1      44.564  31.353  36.649  1.00  0.00    -0.744 OA
ENDBRANCH  90  93
ENDBRANCH  63  86
ENDBRANCH  37  38
ENDBRANCH  30  32
ENDBRANCH  29  30
ENDBRANCH  28  29
ENDBRANCH  27  28
ENDBRANCH  26  27
ENDBRANCH   1  26
TORSDOF 23
ENDMDL
