MODEL 1
REMARK VINA RESULT:     -11.6      0.000      0.000
REMARK SMILES C#Cc1cc(Cl)cc2c1O[C@H](C(F)(F)F)C(C(=O)OCCOCCOC(=O)c1ccc(-c3c4nc(c(-c5cccc(S(=O)(=O)[O-])c5F)c5ccc([nH]5)c(-c5cccc(S(=O)(=O)[O-])c5F)c5nc(c(-c6cccc(S(=O)(=O)[O-])c6F)c6ccc3[nH]6)C=C5)C=C4)cc1)=C2
REMARK SMILES IDX 23 1 22 2 21 3 20 4 19 5 17 6 18 7 16 8 3 9 4 10 9 11 5 12
REMARK SMILES IDX 8 13 10 14 6 15 7 16 91 17 11 18 2 19 1 20 12 21 13 22 14 23
REMARK SMILES IDX 15 24 24 25 25 26 26 27 27 28 28 29 29 30 90 31 30 32 89 33
REMARK SMILES IDX 31 34 32 35 33 36 83 37 34 38 88 39 82 40 84 41 35 42 87 43
REMARK SMILES IDX 81 44 80 45 36 47 68 48 48 49 67 50 49 51 52 52 66 53 85 54
REMARK SMILES IDX 50 55 51 56 65 58 86 59 53 60 37 61 38 62 46 63 39 64 41 65
REMARK SMILES IDX 47 66 40 67 42 68 43 69 44 70 45 71 69 72 70 73 78 74 71 75
REMARK SMILES IDX 73 76 79 77 72 78 74 79 75 80 76 81 77 82 54 83 55 84 63 85
REMARK SMILES IDX 56 86 58 87 64 88 57 89 59 90 60 91 61 92 62 93
REMARK H PARENT 84 46 52 57
REMARK Flexibility Score: inf
ROOT
ATOM      1  C   UNL A   1      35.273  21.106  25.491  1.00  0.00     0.202 C 
ENDROOT
BRANCH   1   2
ATOM      2  O   UNL A   1      34.133  21.141  24.638  1.00  0.00    -0.374 OA
BRANCH   2   3
ATOM      3  C   UNL A   1      32.836  21.021  25.213  1.00  0.00     0.202 C 
BRANCH   3   4
ATOM      4  C   UNL A   1      32.011  22.287  25.470  1.00  0.00     0.261 C 
BRANCH   4   5
ATOM      5  O   UNL A   1      31.422  22.809  24.273  1.00  0.00    -0.460 OA
BRANCH   5   6
ATOM      6  C   UNL A   1      32.189  23.722  23.634  1.00  0.00     0.338 C 
ATOM      7  O   UNL A   1      32.988  23.510  22.735  1.00  0.00    -0.246 OA
BRANCH   6   8
ATOM      8  C   UNL A   1      31.810  25.080  24.068  1.00  0.00     0.087 C 
ATOM      9  C   UNL A   1      31.098  29.110  24.856  1.00  0.00     0.068 A 
ATOM     10  C   UNL A   1      30.376  29.868  23.928  1.00  0.00     0.041 A 
ATOM     11  C   UNL A   1      31.248  27.727  24.669  1.00  0.00     0.143 A 
ATOM     12  C   UNL A   1      29.789  29.245  22.830  1.00  0.00     0.043 A 
ATOM     13  C   UNL A   1      30.688  27.120  23.540  1.00  0.00     0.020 A 
ATOM     14  O   UNL A   1      31.937  27.021  25.619  1.00  0.00    -0.474 OA
ATOM     15  Cl  UNL A   1      28.908  30.178  21.683  1.00  0.00    -0.084 Cl
ATOM     16  C   UNL A   1      29.938  27.876  22.632  1.00  0.00     0.032 A 
ATOM     17  C   UNL A   1      30.964  25.726  23.256  1.00  0.00     0.027 C 
ATOM     18  C   UNL A   1      32.391  25.670  25.322  1.00  0.00     0.316 C 
BRANCH   9  19
ATOM     19  C   UNL A   1      31.723  29.783  25.955  1.00  0.00    -0.067 C 
ATOM     20  C   UNL A   1      32.232  30.326  26.900  1.00  0.00     0.010 C 
ENDBRANCH   9  19
BRANCH  18  21
ATOM     21  C   UNL A   1      33.925  25.658  25.320  1.00  0.00     0.430 C 
ATOM     22  F   UNL A   1      34.418  25.850  24.075  1.00  0.00    -0.167 F 
ATOM     23  F   UNL A   1      34.434  26.634  26.107  1.00  0.00    -0.167 F 
ATOM     24  F   UNL A   1      34.410  24.478  25.775  1.00  0.00    -0.167 F 
ENDBRANCH  18  21
ENDBRANCH   6   8
ENDBRANCH   5   6
ENDBRANCH   4   5
ENDBRANCH   3   4
ENDBRANCH   2   3
ENDBRANCH   1   2
BRANCH   1  25
ATOM     25  C   UNL A   1      36.570  20.425  25.027  1.00  0.00     0.261 C 
BRANCH  25  26
ATOM     26  O   UNL A   1      37.696  21.309  24.931  1.00  0.00    -0.460 OA
BRANCH  26  27
ATOM     27  C   UNL A   1      38.732  20.979  25.745  1.00  0.00     0.338 C 
ATOM     28  O   UNL A   1      39.274  19.891  25.843  1.00  0.00    -0.246 OA
BRANCH  27  29
ATOM     29  C   UNL A   1      39.267  22.193  26.384  1.00  0.00     0.060 A 
ATOM     30  C   UNL A   1      38.677  23.422  26.061  1.00  0.00     0.016 A 
ATOM     31  C   UNL A   1      40.389  22.133  27.208  1.00  0.00     0.016 A 
ATOM     32  C   UNL A   1      39.230  24.606  26.540  1.00  0.00     0.010 A 
ATOM     33  C   UNL A   1      40.950  23.324  27.676  1.00  0.00     0.010 A 
ATOM     34  C   UNL A   1      40.394  24.565  27.316  1.00  0.00    -0.014 A 
BRANCH  34  35
ATOM     35  C   UNL A   1      41.108  25.826  27.628  1.00  0.00     0.031 A 
ATOM     36  C   UNL A   1      40.388  26.900  28.398  1.00  0.00     0.074 A 
ATOM     37  C   UNL A   1      42.388  25.999  27.253  1.00  0.00     0.049 A 
ATOM     38  N   UNL A   1      40.808  28.088  28.743  1.00  0.00    -0.248 NA
ATOM     39  C   UNL A   1      39.015  26.597  28.836  1.00  0.00     0.031 C 
ATOM     40  C   UNL A   1      43.194  25.015  26.530  1.00  0.00     0.029 A 
ATOM     41  N   UNL A   1      43.230  27.070  27.416  1.00  0.00    -0.354 N 
ATOM     42  C   UNL A   1      39.747  28.684  29.416  1.00  0.00     0.074 A 
ATOM     43  C   UNL A   1      38.656  27.735  29.413  1.00  0.00     0.031 C 
ATOM     44  C   UNL A   1      44.411  25.535  26.298  1.00  0.00     0.029 A 
ATOM     45  C   UNL A   1      44.459  26.899  26.822  1.00  0.00     0.049 A 
ATOM     46  H   UNL A   1      42.978  27.884  27.909  1.00  0.00     0.167 HD
ATOM     47  C   UNL A   1      39.698  29.902  30.002  1.00  0.00     0.034 A 
ATOM     48  C   UNL A   1      45.494  27.754  26.698  1.00  0.00     0.034 A 
ATOM     49  C   UNL A   1      40.797  30.830  30.021  1.00  0.00     0.049 A 
ATOM     50  C   UNL A   1      45.387  29.127  27.311  1.00  0.00     0.074 A 
ATOM     51  C   UNL A   1      40.850  32.078  30.616  1.00  0.00     0.029 A 
ATOM     52  N   UNL A   1      42.026  30.620  29.418  1.00  0.00    -0.354 N 
ATOM     53  N   UNL A   1      44.413  29.643  28.021  1.00  0.00    -0.248 NA
ATOM     54  C   UNL A   1      46.536  30.029  27.133  1.00  0.00     0.031 C 
ATOM     55  C   UNL A   1      42.097  32.640  30.336  1.00  0.00     0.029 A 
ATOM     56  C   UNL A   1      42.840  31.722  29.611  1.00  0.00     0.049 A 
ATOM     57  H   UNL A   1      42.282  29.808  28.925  1.00  0.00     0.167 HD
ATOM     58  C   UNL A   1      44.844  30.908  28.404  1.00  0.00     0.074 A 
ATOM     59  C   UNL A   1      46.179  31.074  27.869  1.00  0.00     0.031 C 
ATOM     60  C   UNL A   1      44.188  31.854  29.120  1.00  0.00     0.034 A 
BRANCH  47  61
ATOM     61  C   UNL A   1      38.431  30.304  30.711  1.00  0.00     0.023 A 
ATOM     62  C   UNL A   1      38.266  29.987  32.075  1.00  0.00     0.012 A 
ATOM     63  C   UNL A   1      37.466  31.103  30.066  1.00  0.00     0.148 A 
ATOM     64  C   UNL A   1      37.155  30.447  32.781  1.00  0.00     0.002 A 
ATOM     65  C   UNL A   1      36.389  31.601  30.789  1.00  0.00     0.091 A 
ATOM     66  F   UNL A   1      37.633  31.379  28.764  1.00  0.00    -0.205 F 
ATOM     67  C   UNL A   1      36.227  31.266  32.144  1.00  0.00     0.022 A 
BRANCH  65  68
ATOM     68  S   UNL A   1      35.189  32.739  30.089  1.00  0.00     0.127 S 
ATOM     69  O   UNL A   1      34.620  31.937  29.006  1.00  0.00    -0.237 OA
ATOM     70  O   UNL A   1      34.288  32.965  31.218  1.00  0.00    -0.237 OA
ATOM     71  O   UNL A   1      35.941  33.909  29.658  1.00  0.00    -0.744 OA
ENDBRANCH  65  68
ENDBRANCH  47  61
BRANCH  48  72
ATOM     72  C   UNL A   1      46.737  27.327  25.993  1.00  0.00     0.023 A 
ATOM     73  C   UNL A   1      46.880  27.592  24.616  1.00  0.00     0.012 A 
ATOM     74  C   UNL A   1      47.783  26.676  26.676  1.00  0.00     0.148 A 
ATOM     75  C   UNL A   1      48.023  27.186  23.927  1.00  0.00     0.002 A 
ATOM     76  C   UNL A   1      48.945  26.331  25.997  1.00  0.00     0.091 A 
ATOM     77  F   UNL A   1      47.624  26.418  27.981  1.00  0.00    -0.205 F 
ATOM     78  C   UNL A   1      49.060  26.567  24.619  1.00  0.00     0.022 A 
BRANCH  76  79
ATOM     79  S   UNL A   1      50.385  25.650  26.828  1.00  0.00     0.127 S 
ATOM     80  O   UNL A   1      51.328  25.503  25.722  1.00  0.00    -0.237 OA
ATOM     81  O   UNL A   1      50.709  26.713  27.779  1.00  0.00    -0.237 OA
ATOM     82  O   UNL A   1      49.937  24.408  27.442  1.00  0.00    -0.744 OA
ENDBRANCH  76  79
ENDBRANCH  48  72
BRANCH  60  83
ATOM     83  C   UNL A   1      44.900  33.153  29.408  1.00  0.00     0.023 A 
ATOM     84  C   UNL A   1      45.748  33.256  30.528  1.00  0.00     0.012 A 
ATOM     85  C   UNL A   1      44.820  34.232  28.501  1.00  0.00     0.148 A 
ATOM     86  C   UNL A   1      46.484  34.418  30.758  1.00  0.00     0.002 A 
ATOM     87  C   UNL A   1      45.600  35.363  28.705  1.00  0.00     0.091 A 
ATOM     88  F   UNL A   1      44.001  34.120  27.446  1.00  0.00    -0.205 F 
ATOM     89  C   UNL A   1      46.421  35.464  29.840  1.00  0.00     0.022 A 
BRANCH  87  90
ATOM     90  S   UNL A   1      45.677  36.715  27.524  1.00  0.00     0.127 S 
ATOM     91  O   UNL A   1      46.635  37.614  28.162  1.00  0.00    -0.237 OA
ATOM     92  O   UNL A   1      46.175  36.045  26.322  1.00  0.00    -0.237 OA
ATOM     93  O   UNL A   1      44.319  37.234  27.414  1.00  0.00    -0.744 OA
ENDBRANCH  87  90
ENDBRANCH  60  83
ENDBRANCH  34  35
ENDBRANCH  27  29
ENDBRANCH  26  27
ENDBRANCH  25  26
ENDBRANCH   1  25
TORSDOF 19
ENDMDL
MODEL 2
REMARK VINA RESULT:     -11.5      5.092     10.042
REMARK SMILES C#Cc1cc(Cl)cc2c1O[C@H](C(F)(F)F)C(C(=O)OCCOCCOC(=O)c1ccc(-c3c4nc(c(-c5cccc(S(=O)(=O)[O-])c5F)c5ccc([nH]5)c(-c5cccc(S(=O)(=O)[O-])c5F)c5nc(c(-c6cccc(S(=O)(=O)[O-])c6F)c6ccc3[nH]6)C=C5)C=C4)cc1)=C2
REMARK SMILES IDX 23 1 22 2 21 3 20 4 19 5 17 6 18 7 16 8 3 9 4 10 9 11 5 12
REMARK SMILES IDX 8 13 10 14 6 15 7 16 91 17 11 18 2 19 1 20 12 21 13 22 14 23
REMARK SMILES IDX 15 24 24 25 25 26 26 27 27 28 28 29 29 30 90 31 30 32 89 33
REMARK SMILES IDX 31 34 32 35 33 36 83 37 34 38 88 39 82 40 84 41 35 42 87 43
REMARK SMILES IDX 81 44 80 45 36 47 68 48 48 49 67 50 49 51 52 52 66 53 85 54
REMARK SMILES IDX 50 55 51 56 65 58 86 59 53 60 37 61 38 62 46 63 39 64 41 65
REMARK SMILES IDX 47 66 40 67 42 68 43 69 44 70 45 71 69 72 70 73 78 74 71 75
REMARK SMILES IDX 73 76 79 77 72 78 74 79 75 80 76 81 77 82 54 83 55 84 63 85
REMARK SMILES IDX 56 86 58 87 64 88 57 89 59 90 60 91 61 92 62 93
REMARK H PARENT 84 46 52 57
REMARK Flexibility Score: inf
ROOT
ATOM      1  C   UNL A   1      32.413  29.323  24.819  1.00  0.00     0.202 C 
ENDROOT
BRANCH   1   2
ATOM      2  O   UNL A   1      31.603  28.500  23.986  1.00  0.00    -0.374 OA
BRANCH   2   3
ATOM      3  C   UNL A   1      30.713  27.568  24.592  1.00  0.00     0.202 C 
BRANCH   3   4
ATOM      4  C   UNL A   1      30.026  26.512  23.719  1.00  0.00     0.261 C 
BRANCH   4   5
ATOM      5  O   UNL A   1      30.712  25.255  23.738  1.00  0.00    -0.460 OA
BRANCH   5   6
ATOM      6  C   UNL A   1      31.620  25.106  22.747  1.00  0.00     0.338 C 
ATOM      7  O   UNL A   1      31.758  25.817  21.764  1.00  0.00    -0.246 OA
BRANCH   6   8
ATOM      8  C   UNL A   1      32.562  24.025  23.094  1.00  0.00     0.087 C 
ATOM      9  C   UNL A   1      34.946  20.959  24.605  1.00  0.00     0.068 A 
ATOM     10  C   UNL A   1      34.376  19.701  24.832  1.00  0.00     0.041 A 
ATOM     11  C   UNL A   1      34.195  21.970  23.988  1.00  0.00     0.143 A 
ATOM     12  C   UNL A   1      33.068  19.449  24.424  1.00  0.00     0.043 A 
ATOM     13  C   UNL A   1      32.869  21.717  23.621  1.00  0.00     0.020 A 
ATOM     14  O   UNL A   1      34.804  23.176  23.760  1.00  0.00    -0.474 OA
ATOM     15  Cl  UNL A   1      32.363  17.906  24.710  1.00  0.00    -0.084 Cl
ATOM     16  C   UNL A   1      32.313  20.448  23.817  1.00  0.00     0.032 A 
ATOM     17  C   UNL A   1      32.037  22.794  23.123  1.00  0.00     0.027 C 
ATOM     18  C   UNL A   1      33.995  24.338  23.424  1.00  0.00     0.316 C 
BRANCH   9  19
ATOM     19  C   UNL A   1      36.280  21.201  25.069  1.00  0.00    -0.067 C 
ATOM     20  C   UNL A   1      37.398  21.437  25.444  1.00  0.00     0.010 C 
ENDBRANCH   9  19
BRANCH  18  21
ATOM     21  C   UNL A   1      34.126  25.369  24.553  1.00  0.00     0.430 C 
ATOM     22  F   UNL A   1      35.250  25.166  25.277  1.00  0.00    -0.167 F 
ATOM     23  F   UNL A   1      34.182  26.632  24.073  1.00  0.00    -0.167 F 
ATOM     24  F   UNL A   1      33.073  25.306  25.403  1.00  0.00    -0.167 F 
ENDBRANCH  18  21
ENDBRANCH   6   8
ENDBRANCH   5   6
ENDBRANCH   4   5
ENDBRANCH   3   4
ENDBRANCH   2   3
ENDBRANCH   1   2
BRANCH   1  25
ATOM     25  C   UNL A   1      31.769  30.382  25.727  1.00  0.00     0.261 C 
BRANCH  25  26
ATOM     26  O   UNL A   1      32.352  30.467  27.036  1.00  0.00    -0.460 OA
BRANCH  26  27
ATOM     27  C   UNL A   1      33.072  31.598  27.249  1.00  0.00     0.338 C 
ATOM     28  O   UNL A   1      32.662  32.747  27.235  1.00  0.00    -0.246 OA
BRANCH  27  29
ATOM     29  C   UNL A   1      34.427  31.244  27.706  1.00  0.00     0.060 A 
ATOM     30  C   UNL A   1      34.690  29.901  28.009  1.00  0.00     0.016 A 
ATOM     31  C   UNL A   1      35.389  32.229  27.926  1.00  0.00     0.016 A 
ATOM     32  C   UNL A   1      35.914  29.542  28.565  1.00  0.00     0.010 A 
ATOM     33  C   UNL A   1      36.611  31.866  28.496  1.00  0.00     0.010 A 
ATOM     34  C   UNL A   1      36.865  30.528  28.851  1.00  0.00    -0.014 A 
BRANCH  34  35
ATOM     35  C   UNL A   1      38.064  30.178  29.649  1.00  0.00     0.031 A 
ATOM     36  C   UNL A   1      39.072  29.222  29.070  1.00  0.00     0.074 A 
ATOM     37  C   UNL A   1      38.261  30.724  30.862  1.00  0.00     0.049 A 
ATOM     38  N   UNL A   1      40.165  28.752  29.608  1.00  0.00    -0.248 NA
ATOM     39  C   UNL A   1      38.815  28.731  27.705  1.00  0.00     0.031 C 
ATOM     40  C   UNL A   1      37.369  31.685  31.509  1.00  0.00     0.029 A 
ATOM     41  N   UNL A   1      39.272  30.539  31.771  1.00  0.00    -0.354 N 
ATOM     42  C   UNL A   1      40.714  27.894  28.663  1.00  0.00     0.074 A 
ATOM     43  C   UNL A   1      39.824  27.891  27.524  1.00  0.00     0.031 C 
ATOM     44  C   UNL A   1      37.863  31.993  32.720  1.00  0.00     0.029 A 
ATOM     45  C   UNL A   1      39.087  31.226  32.947  1.00  0.00     0.049 A 
ATOM     46  H   UNL A   1      40.055  29.967  31.598  1.00  0.00     0.167 HD
ATOM     47  C   UNL A   1      41.868  27.191  28.731  1.00  0.00     0.034 A 
ATOM     48  C   UNL A   1      39.811  31.218  34.085  1.00  0.00     0.034 A 
ATOM     49  C   UNL A   1      42.760  27.218  29.859  1.00  0.00     0.049 A 
ATOM     50  C   UNL A   1      41.061  30.379  34.153  1.00  0.00     0.074 A 
ATOM     51  C   UNL A   1      43.968  26.561  30.008  1.00  0.00     0.029 A 
ATOM     52  N   UNL A   1      42.544  27.930  31.027  1.00  0.00    -0.354 N 
ATOM     53  N   UNL A   1      41.614  29.643  33.219  1.00  0.00    -0.248 NA
ATOM     54  C   UNL A   1      41.806  30.392  35.422  1.00  0.00     0.031 C 
ATOM     55  C   UNL A   1      44.462  26.842  31.283  1.00  0.00     0.029 A 
ATOM     56  C   UNL A   1      43.588  27.715  31.910  1.00  0.00     0.049 A 
ATOM     57  H   UNL A   1      41.764  28.504  31.203  1.00  0.00     0.167 HD
ATOM     58  C   UNL A   1      42.785  29.137  33.772  1.00  0.00     0.074 A 
ATOM     59  C   UNL A   1      42.877  29.670  35.115  1.00  0.00     0.031 C 
ATOM     60  C   UNL A   1      43.696  28.295  33.225  1.00  0.00     0.034 A 
BRANCH  47  61
ATOM     61  C   UNL A   1      42.268  26.354  27.544  1.00  0.00     0.023 A 
ATOM     62  C   UNL A   1      43.001  26.942  26.494  1.00  0.00     0.012 A 
ATOM     63  C   UNL A   1      42.030  24.965  27.528  1.00  0.00     0.148 A 
ATOM     64  C   UNL A   1      43.480  26.163  25.441  1.00  0.00     0.002 A 
ATOM     65  C   UNL A   1      42.554  24.188  26.502  1.00  0.00     0.091 A 
ATOM     66  F   UNL A   1      41.314  24.429  28.528  1.00  0.00    -0.205 F 
ATOM     67  C   UNL A   1      43.271  24.787  25.453  1.00  0.00     0.022 A 
BRANCH  65  68
ATOM     68  S   UNL A   1      42.423  22.397  26.473  1.00  0.00     0.127 S 
ATOM     69  O   UNL A   1      41.036  22.210  26.049  1.00  0.00    -0.237 OA
ATOM     70  O   UNL A   1      43.421  22.035  25.468  1.00  0.00    -0.237 OA
ATOM     71  O   UNL A   1      42.719  21.946  27.825  1.00  0.00    -0.744 OA
ENDBRANCH  65  68
ENDBRANCH  47  61
BRANCH  48  72
ATOM     72  C   UNL A   1      39.392  32.060  35.244  1.00  0.00     0.023 A 
ATOM     73  C   UNL A   1      39.710  33.432  35.256  1.00  0.00     0.012 A 
ATOM     74  C   UNL A   1      38.671  31.515  36.325  1.00  0.00     0.148 A 
ATOM     75  C   UNL A   1      39.349  34.238  36.335  1.00  0.00     0.002 A 
ATOM     76  C   UNL A   1      38.259  32.336  37.368  1.00  0.00     0.091 A 
ATOM     77  F   UNL A   1      38.390  30.205  36.305  1.00  0.00    -0.205 F 
ATOM     78  C   UNL A   1      38.614  33.694  37.385  1.00  0.00     0.022 A 
BRANCH  76  79
ATOM     79  S   UNL A   1      37.198  31.756  38.695  1.00  0.00     0.127 S 
ATOM     80  O   UNL A   1      36.064  32.672  38.595  1.00  0.00    -0.237 OA
ATOM     81  O   UNL A   1      36.921  30.382  38.276  1.00  0.00    -0.237 OA
ATOM     82  O   UNL A   1      37.991  31.867  39.912  1.00  0.00    -0.744 OA
ENDBRANCH  76  79
ENDBRANCH  48  72
BRANCH  60  83
ATOM     83  C   UNL A   1      44.899  27.908  34.050  1.00  0.00     0.023 A 
ATOM     84  C   UNL A   1      46.049  28.720  34.037  1.00  0.00     0.012 A 
ATOM     85  C   UNL A   1      44.842  26.805  34.928  1.00  0.00     0.148 A 
ATOM     86  C   UNL A   1      47.135  28.427  34.863  1.00  0.00     0.002 A 
ATOM     87  C   UNL A   1      45.902  26.554  35.789  1.00  0.00     0.091 A 
ATOM     88  F   UNL A   1      43.742  26.037  34.919  1.00  0.00    -0.205 F 
ATOM     89  C   UNL A   1      47.055  27.355  35.747  1.00  0.00     0.022 A 
BRANCH  87  90
ATOM     90  S   UNL A   1      45.851  25.267  37.043  1.00  0.00     0.127 S 
ATOM     91  O   UNL A   1      45.589  24.077  36.236  1.00  0.00    -0.237 OA
ATOM     92  O   UNL A   1      47.198  25.336  37.609  1.00  0.00    -0.237 OA
ATOM     93  O   UNL A   1      44.784  25.640  37.962  1.00  0.00    -0.744 OA
ENDBRANCH  87  90
ENDBRANCH  60  83
ENDBRANCH  34  35
ENDBRANCH  27  29
ENDBRANCH  26  27
ENDBRANCH  25  26
ENDBRANCH   1  25
TORSDOF 19
ENDMDL
MODEL 3
REMARK VINA RESULT:     -11.4      4.865     10.014
REMARK SMILES C#Cc1cc(Cl)cc2c1O[C@H](C(F)(F)F)C(C(=O)OCCOCCOC(=O)c1ccc(-c3c4nc(c(-c5cccc(S(=O)(=O)[O-])c5F)c5ccc([nH]5)c(-c5cccc(S(=O)(=O)[O-])c5F)c5nc(c(-c6cccc(S(=O)(=O)[O-])c6F)c6ccc3[nH]6)C=C5)C=C4)cc1)=C2
REMARK SMILES IDX 23 1 22 2 21 3 20 4 19 5 17 6 18 7 16 8 3 9 4 10 9 11 5 12
REMARK SMILES IDX 8 13 10 14 6 15 7 16 91 17 11 18 2 19 1 20 12 21 13 22 14 23
REMARK SMILES IDX 15 24 24 25 25 26 26 27 27 28 28 29 29 30 90 31 30 32 89 33
REMARK SMILES IDX 31 34 32 35 33 36 83 37 34 38 88 39 82 40 84 41 35 42 87 43
REMARK SMILES IDX 81 44 80 45 36 47 68 48 48 49 67 50 49 51 52 52 66 53 85 54
REMARK SMILES IDX 50 55 51 56 65 58 86 59 53 60 37 61 38 62 46 63 39 64 41 65
REMARK SMILES IDX 47 66 40 67 42 68 43 69 44 70 45 71 69 72 70 73 78 74 71 75
REMARK SMILES IDX 73 76 79 77 72 78 74 79 75 80 76 81 77 82 54 83 55 84 63 85
REMARK SMILES IDX 56 86 58 87 64 88 57 89 59 90 60 91 61 92 62 93
REMARK H PARENT 84 46 52 57
REMARK Flexibility Score: inf
ROOT
ATOM      1  C   UNL A   1      31.500  28.580  26.196  1.00  0.00     0.202 C 
ENDROOT
BRANCH   1   2
ATOM      2  O   UNL A   1      31.076  27.496  27.017  1.00  0.00    -0.374 OA
BRANCH   2   3
ATOM      3  C   UNL A   1      31.072  26.179  26.476  1.00  0.00     0.202 C 
BRANCH   3   4
ATOM      4  C   UNL A   1      30.216  25.879  25.241  1.00  0.00     0.261 C 
BRANCH   4   5
ATOM      5  O   UNL A   1      30.643  24.697  24.553  1.00  0.00    -0.460 OA
BRANCH   5   6
ATOM      6  C   UNL A   1      31.681  24.895  23.708  1.00  0.00     0.338 C 
ATOM      7  O   UNL A   1      31.905  25.892  23.040  1.00  0.00    -0.246 OA
BRANCH   6   8
ATOM      8  C   UNL A   1      32.630  23.771  23.817  1.00  0.00     0.087 C 
ATOM      9  C   UNL A   1      35.102  20.528  24.679  1.00  0.00     0.068 A 
ATOM     10  C   UNL A   1      34.531  19.260  24.836  1.00  0.00     0.041 A 
ATOM     11  C   UNL A   1      34.307  21.611  24.273  1.00  0.00     0.143 A 
ATOM     12  C   UNL A   1      33.178  19.070  24.567  1.00  0.00     0.043 A 
ATOM     13  C   UNL A   1      32.940  21.415  24.047  1.00  0.00     0.020 A 
ATOM     14  O   UNL A   1      34.914  22.827  24.104  1.00  0.00    -0.474 OA
ATOM     15  Cl  UNL A   1      32.475  17.512  24.768  1.00  0.00    -0.084 Cl
ATOM     16  C   UNL A   1      32.381  20.138  24.170  1.00  0.00     0.032 A 
ATOM     17  C   UNL A   1      32.081  22.551  23.776  1.00  0.00     0.027 C 
ATOM     18  C   UNL A   1      34.100  24.028  23.999  1.00  0.00     0.316 C 
BRANCH   9  19
ATOM     19  C   UNL A   1      36.487  20.702  24.999  1.00  0.00    -0.067 C 
ATOM     20  C   UNL A   1      37.655  20.866  25.237  1.00  0.00     0.010 C 
ENDBRANCH   9  19
BRANCH  18  21
ATOM     21  C   UNL A   1      34.392  24.926  25.209  1.00  0.00     0.430 C 
ATOM     22  F   UNL A   1      35.665  24.772  25.641  1.00  0.00    -0.167 F 
ATOM     23  F   UNL A   1      34.227  26.235  24.912  1.00  0.00    -0.167 F 
ATOM     24  F   UNL A   1      33.570  24.639  26.246  1.00  0.00    -0.167 F 
ENDBRANCH  18  21
ENDBRANCH   6   8
ENDBRANCH   5   6
ENDBRANCH   4   5
ENDBRANCH   3   4
ENDBRANCH   2   3
ENDBRANCH   1   2
BRANCH   1  25
ATOM     25  C   UNL A   1      31.734  29.971  26.805  1.00  0.00     0.261 C 
BRANCH  25  26
ATOM     26  O   UNL A   1      32.897  30.645  26.303  1.00  0.00    -0.460 OA
BRANCH  26  27
ATOM     27  C   UNL A   1      33.367  31.623  27.119  1.00  0.00     0.338 C 
ATOM     28  O   UNL A   1      32.760  32.600  27.524  1.00  0.00    -0.246 OA
BRANCH  27  29
ATOM     29  C   UNL A   1      34.696  31.246  27.630  1.00  0.00     0.060 A 
ATOM     30  C   UNL A   1      34.927  29.897  27.932  1.00  0.00     0.016 A 
ATOM     31  C   UNL A   1      35.662  32.214  27.899  1.00  0.00     0.016 A 
ATOM     32  C   UNL A   1      36.121  29.515  28.537  1.00  0.00     0.010 A 
ATOM     33  C   UNL A   1      36.853  31.830  28.518  1.00  0.00     0.010 A 
ATOM     34  C   UNL A   1      37.073  30.486  28.871  1.00  0.00    -0.014 A 
BRANCH  34  35
ATOM     35  C   UNL A   1      38.232  30.112  29.716  1.00  0.00     0.031 A 
ATOM     36  C   UNL A   1      39.253  29.151  29.170  1.00  0.00     0.074 A 
ATOM     37  C   UNL A   1      38.382  30.642  30.943  1.00  0.00     0.049 A 
ATOM     38  N   UNL A   1      40.317  28.662  29.750  1.00  0.00    -0.248 NA
ATOM     39  C   UNL A   1      39.051  28.679  27.790  1.00  0.00     0.031 C 
ATOM     40  C   UNL A   1      37.473  31.604  31.563  1.00  0.00     0.029 A 
ATOM     41  N   UNL A   1      39.350  30.433  31.893  1.00  0.00    -0.354 N 
ATOM     42  C   UNL A   1      40.897  27.809  28.819  1.00  0.00     0.074 A 
ATOM     43  C   UNL A   1      40.057  27.830  27.642  1.00  0.00     0.031 C 
ATOM     44  C   UNL A   1      37.917  31.892  32.798  1.00  0.00     0.029 A 
ATOM     45  C   UNL A   1      39.121  31.109  33.069  1.00  0.00     0.049 A 
ATOM     46  H   UNL A   1      40.133  29.855  31.747  1.00  0.00     0.167 HD
ATOM     47  C   UNL A   1      42.039  27.092  28.928  1.00  0.00     0.034 A 
ATOM     48  C   UNL A   1      39.794  31.079  34.238  1.00  0.00     0.034 A 
ATOM     49  C   UNL A   1      42.881  27.095  30.095  1.00  0.00     0.049 A 
ATOM     50  C   UNL A   1      41.031  30.224  34.349  1.00  0.00     0.074 A 
ATOM     51  C   UNL A   1      44.074  26.422  30.288  1.00  0.00     0.029 A 
ATOM     52  N   UNL A   1      42.622  27.796  31.261  1.00  0.00    -0.354 N 
ATOM     53  N   UNL A   1      41.616  29.493  33.431  1.00  0.00    -0.248 NA
ATOM     54  C   UNL A   1      41.719  30.213  35.649  1.00  0.00     0.031 C 
ATOM     55  C   UNL A   1      44.515  26.682  31.587  1.00  0.00     0.029 A 
ATOM     56  C   UNL A   1      43.624  27.558  32.186  1.00  0.00     0.049 A 
ATOM     57  H   UNL A   1      41.841  28.376  31.410  1.00  0.00     0.167 HD
ATOM     58  C   UNL A   1      42.756  28.967  34.029  1.00  0.00     0.074 A 
ATOM     59  C   UNL A   1      42.794  29.483  35.381  1.00  0.00     0.031 C 
ATOM     60  C   UNL A   1      43.680  28.121  33.511  1.00  0.00     0.034 A 
BRANCH  47  61
ATOM     61  C   UNL A   1      42.481  26.264  27.750  1.00  0.00     0.023 A 
ATOM     62  C   UNL A   1      43.460  26.771  26.872  1.00  0.00     0.012 A 
ATOM     63  C   UNL A   1      42.023  24.942  27.585  1.00  0.00     0.148 A 
ATOM     64  C   UNL A   1      43.968  25.980  25.842  1.00  0.00     0.002 A 
ATOM     65  C   UNL A   1      42.570  24.143  26.588  1.00  0.00     0.091 A 
ATOM     66  F   UNL A   1      41.077  24.485  28.420  1.00  0.00    -0.205 F 
ATOM     67  C   UNL A   1      43.535  24.663  25.711  1.00  0.00     0.022 A 
BRANCH  65  68
ATOM     68  S   UNL A   1      42.151  22.407  26.393  1.00  0.00     0.127 S 
ATOM     69  O   UNL A   1      42.890  22.060  25.179  1.00  0.00    -0.237 OA
ATOM     70  O   UNL A   1      42.690  21.824  27.622  1.00  0.00    -0.237 OA
ATOM     71  O   UNL A   1      40.702  22.350  26.269  1.00  0.00    -0.744 OA
ENDBRANCH  65  68
ENDBRANCH  47  61
BRANCH  48  72
ATOM     72  C   UNL A   1      39.334  31.911  35.388  1.00  0.00     0.023 A 
ATOM     73  C   UNL A   1      38.447  31.359  36.332  1.00  0.00     0.012 A 
ATOM     74  C   UNL A   1      39.780  33.237  35.560  1.00  0.00     0.148 A 
ATOM     75  C   UNL A   1      37.985  32.121  37.406  1.00  0.00     0.002 A 
ATOM     76  C   UNL A   1      39.366  33.969  36.666  1.00  0.00     0.091 A 
ATOM     77  F   UNL A   1      40.612  33.750  34.644  1.00  0.00    -0.205 F 
ATOM     78  C   UNL A   1      38.453  33.420  37.580  1.00  0.00     0.022 A 
BRANCH  76  79
ATOM     79  S   UNL A   1      40.016  35.600  37.045  1.00  0.00     0.127 S 
ATOM     80  O   UNL A   1      39.358  35.896  38.315  1.00  0.00    -0.237 OA
ATOM     81  O   UNL A   1      41.451  35.332  37.140  1.00  0.00    -0.237 OA
ATOM     82  O   UNL A   1      39.633  36.448  35.925  1.00  0.00    -0.744 OA
ENDBRANCH  76  79
ENDBRANCH  48  72
BRANCH  60  83
ATOM     83  C   UNL A   1      44.841  27.710  34.383  1.00  0.00     0.023 A 
ATOM     84  C   UNL A   1      46.008  28.498  34.415  1.00  0.00     0.012 A 
ATOM     85  C   UNL A   1      44.727  26.609  35.259  1.00  0.00     0.148 A 
ATOM     86  C   UNL A   1      47.054  28.183  35.283  1.00  0.00     0.002 A 
ATOM     87  C   UNL A   1      45.747  26.338  36.161  1.00  0.00     0.091 A 
ATOM     88  F   UNL A   1      43.613  25.865  35.208  1.00  0.00    -0.205 F 
ATOM     89  C   UNL A   1      46.917  27.114  36.165  1.00  0.00     0.022 A 
BRANCH  87  90
ATOM     90  S   UNL A   1      45.620  25.054  37.413  1.00  0.00     0.127 S 
ATOM     91  O   UNL A   1      46.929  25.135  38.056  1.00  0.00    -0.237 OA
ATOM     92  O   UNL A   1      44.506  25.534  38.232  1.00  0.00    -0.237 OA
ATOM     93  O   UNL A   1      45.358  23.813  36.695  1.00  0.00    -0.744 OA
ENDBRANCH  87  90
ENDBRANCH  60  83
ENDBRANCH  34  35
ENDBRANCH  27  29
ENDBRANCH  26  27
ENDBRANCH  25  26
ENDBRANCH   1  25
TORSDOF 19
ENDMDL
