MODEL 1
REMARK VINA RESULT:     -11.0      0.000      0.000
REMARK SMILES CC1(C)CCC[C@@]1(CC(=O)OCCOCCOC(=O)c1ccc(-c2c3nc(c(-c4cccc(S(=O)(=O)[O-])c4F)c4ccc([nH]4)c(-c4cccc(S(=O)(=O)[O-])c4F)c4nc(c(-c5cccc(S(=O)(=O)[O-])c5F)c5ccc2[nH]5)C=C4)C=C3)cc1)[NH+]1CCCCC1
REMARK SMILES IDX 15 1 14 2 13 3 12 4 11 5 9 6 10 7 8 8 7 9 1 10 2 11 3 12
REMARK SMILES IDX 4 13 5 14 6 15 83 16 84 17 88 18 85 20 87 21 86 22 16 23
REMARK SMILES IDX 17 24 18 25 19 26 20 27 21 28 82 29 22 30 81 31 23 32 24 33
REMARK SMILES IDX 25 34 75 35 26 36 80 37 74 38 76 39 27 40 79 41 73 42 72 43
REMARK SMILES IDX 28 45 60 46 40 47 59 48 41 49 44 50 58 51 77 52 42 53 43 54
REMARK SMILES IDX 57 56 78 57 45 58 29 59 30 60 38 61 31 62 33 63 39 64 32 65
REMARK SMILES IDX 34 66 35 67 36 68 37 69 61 70 62 71 70 72 63 73 65 74 71 75
REMARK SMILES IDX 64 76 66 77 67 78 68 79 69 80 46 81 47 82 55 83 48 84 50 85
REMARK SMILES IDX 56 86 49 87 51 88 52 89 53 90 54 91
REMARK H PARENT 83 19 76 44 44 55
REMARK Flexibility Score: inf
ROOT
ATOM      1  C   UNL A   1      36.739  21.499  25.050  1.00  0.00     0.202 C 
ENDROOT
BRANCH   1   2
ATOM      2  O   UNL A   1      35.420  21.145  25.448  1.00  0.00    -0.374 OA
BRANCH   2   3
ATOM      3  C   UNL A   1      34.964  21.629  26.719  1.00  0.00     0.202 C 
BRANCH   3   4
ATOM      4  C   UNL A   1      34.266  22.998  26.735  1.00  0.00     0.261 C 
BRANCH   4   5
ATOM      5  O   UNL A   1      32.861  22.887  26.440  1.00  0.00    -0.463 OA
BRANCH   5   6
ATOM      6  C   UNL A   1      32.149  24.037  26.602  1.00  0.00     0.312 C 
ATOM      7  O   UNL A   1      31.080  24.107  27.196  1.00  0.00    -0.252 OA
BRANCH   6   8
ATOM      8  C   UNL A   1      32.944  25.251  26.147  1.00  0.00     0.191 C 
BRANCH   8   9
ATOM      9  C   UNL A   1      32.404  26.205  25.014  1.00  0.00     0.113 C 
ATOM     10  C   UNL A   1      33.558  28.483  25.751  1.00  0.00     0.018 C 
ATOM     11  C   UNL A   1      32.243  27.689  25.629  1.00  0.00     0.020 C 
ATOM     12  C   UNL A   1      31.617  27.719  27.053  1.00  0.00     0.018 C 
ATOM     13  C   UNL A   1      31.206  28.374  24.714  1.00  0.00     0.013 C 
ATOM     14  C   UNL A   1      30.249  27.266  24.297  1.00  0.00     0.007 C 
ATOM     15  C   UNL A   1      30.933  25.926  24.597  1.00  0.00     0.070 C 
BRANCH   9  16
ATOM     16  N   UNL A   1      33.356  26.108  23.831  1.00  0.00    -0.329 N 
ATOM     17  C   UNL A   1      33.121  26.801  22.559  1.00  0.00     0.262 C 
ATOM     18  C   UNL A   1      34.029  24.826  23.538  1.00  0.00     0.262 C 
ATOM     19  H   UNL A   1      33.969  26.723  24.367  1.00  0.00     0.348 HD
ATOM     20  C   UNL A   1      32.371  25.997  21.496  1.00  0.00     0.062 C 
ATOM     21  C   UNL A   1      33.364  23.937  22.480  1.00  0.00     0.062 C 
ATOM     22  C   UNL A   1      33.084  24.690  21.192  1.00  0.00     0.012 C 
ENDBRANCH   9  16
ENDBRANCH   8   9
ENDBRANCH   6   8
ENDBRANCH   5   6
ENDBRANCH   4   5
ENDBRANCH   3   4
ENDBRANCH   2   3
ENDBRANCH   1   2
BRANCH   1  23
ATOM     23  C   UNL A   1      37.867  20.520  25.408  1.00  0.00     0.261 C 
BRANCH  23  24
ATOM     24  O   UNL A   1      39.174  21.095  25.347  1.00  0.00    -0.460 OA
BRANCH  24  25
ATOM     25  C   UNL A   1      39.909  20.964  26.475  1.00  0.00     0.338 C 
ATOM     26  O   UNL A   1      40.295  19.930  26.991  1.00  0.00    -0.246 OA
BRANCH  25  27
ATOM     27  C   UNL A   1      40.229  22.303  26.998  1.00  0.00     0.060 A 
ATOM     28  C   UNL A   1      39.576  23.422  26.469  1.00  0.00     0.016 A 
ATOM     29  C   UNL A   1      41.249  22.451  27.937  1.00  0.00     0.016 A 
ATOM     30  C   UNL A   1      39.971  24.703  26.863  1.00  0.00     0.010 A 
ATOM     31  C   UNL A   1      41.630  23.734  28.342  1.00  0.00     0.010 A 
ATOM     32  C   UNL A   1      41.018  24.870  27.784  1.00  0.00    -0.014 A 
BRANCH  32  33
ATOM     33  C   UNL A   1      41.523  26.232  28.099  1.00  0.00     0.031 A 
ATOM     34  C   UNL A   1      42.941  26.602  27.750  1.00  0.00     0.074 A 
ATOM     35  C   UNL A   1      40.724  27.132  28.702  1.00  0.00     0.049 A 
ATOM     36  N   UNL A   1      43.557  27.745  27.905  1.00  0.00    -0.248 NA
ATOM     37  C   UNL A   1      43.777  25.548  27.152  1.00  0.00     0.031 C 
ATOM     38  C   UNL A   1      39.347  26.887  29.126  1.00  0.00     0.029 A 
ATOM     39  N   UNL A   1      40.966  28.430  29.081  1.00  0.00    -0.354 N 
ATOM     40  C   UNL A   1      44.853  27.546  27.444  1.00  0.00     0.074 A 
ATOM     41  C   UNL A   1      44.942  26.167  27.017  1.00  0.00     0.031 C 
ATOM     42  C   UNL A   1      38.871  27.990  29.726  1.00  0.00     0.029 A 
ATOM     43  C   UNL A   1      39.910  29.019  29.739  1.00  0.00     0.049 A 
ATOM     44  H   UNL A   1      41.814  28.895  28.901  1.00  0.00     0.167 HD
ATOM     45  C   UNL A   1      45.872  28.436  27.362  1.00  0.00     0.034 A 
ATOM     46  C   UNL A   1      39.797  30.242  30.293  1.00  0.00     0.034 A 
ATOM     47  C   UNL A   1      45.775  29.816  27.757  1.00  0.00     0.049 A 
ATOM     48  C   UNL A   1      40.942  31.215  30.173  1.00  0.00     0.074 A 
ATOM     49  C   UNL A   1      46.731  30.811  27.638  1.00  0.00     0.029 A 
ATOM     50  N   UNL A   1      44.669  30.394  28.357  1.00  0.00    -0.354 N 
ATOM     51  N   UNL A   1      42.098  31.060  29.576  1.00  0.00    -0.248 NA
ATOM     52  C   UNL A   1      40.752  32.546  30.770  1.00  0.00     0.031 C 
ATOM     53  C   UNL A   1      46.208  31.986  28.186  1.00  0.00     0.029 A 
ATOM     54  C   UNL A   1      44.922  31.727  28.629  1.00  0.00     0.049 A 
ATOM     55  H   UNL A   1      43.828  29.925  28.559  1.00  0.00     0.167 HD
ATOM     56  C   UNL A   1      42.757  32.280  29.695  1.00  0.00     0.074 A 
ATOM     57  C   UNL A   1      41.861  33.172  30.399  1.00  0.00     0.031 C 
ATOM     58  C   UNL A   1      43.999  32.624  29.274  1.00  0.00     0.034 A 
BRANCH  45  59
ATOM     59  C   UNL A   1      47.176  27.966  26.777  1.00  0.00     0.023 A 
ATOM     60  C   UNL A   1      48.176  27.466  27.635  1.00  0.00     0.012 A 
ATOM     61  C   UNL A   1      47.375  27.928  25.383  1.00  0.00     0.148 A 
ATOM     62  C   UNL A   1      49.362  26.951  27.114  1.00  0.00     0.002 A 
ATOM     63  C   UNL A   1      48.545  27.380  24.871  1.00  0.00     0.091 A 
ATOM     64  F   UNL A   1      46.416  28.426  24.588  1.00  0.00    -0.205 F 
ATOM     65  C   UNL A   1      49.541  26.897  25.735  1.00  0.00     0.022 A 
BRANCH  63  66
ATOM     66  S   UNL A   1      48.842  27.200  23.108  1.00  0.00     0.127 S 
ATOM     67  O   UNL A   1      50.303  27.240  23.051  1.00  0.00    -0.237 OA
ATOM     68  O   UNL A   1      48.258  25.888  22.830  1.00  0.00    -0.237 OA
ATOM     69  O   UNL A   1      48.163  28.317  22.468  1.00  0.00    -0.744 OA
ENDBRANCH  63  66
ENDBRANCH  45  59
BRANCH  46  70
ATOM     70  C   UNL A   1      38.531  30.642  30.970  1.00  0.00     0.023 A 
ATOM     71  C   UNL A   1      38.323  30.296  32.320  1.00  0.00     0.012 A 
ATOM     72  C   UNL A   1      37.535  31.366  30.288  1.00  0.00     0.148 A 
ATOM     73  C   UNL A   1      37.132  30.633  32.966  1.00  0.00     0.002 A 
ATOM     74  C   UNL A   1      36.375  31.748  30.954  1.00  0.00     0.091 A 
ATOM     75  F   UNL A   1      37.736  31.666  28.997  1.00  0.00    -0.205 F 
ATOM     76  C   UNL A   1      36.164  31.368  32.287  1.00  0.00     0.022 A 
BRANCH  74  77
ATOM     77  S   UNL A   1      35.147  32.807  30.182  1.00  0.00     0.127 S 
ATOM     78  O   UNL A   1      35.963  33.920  29.707  1.00  0.00    -0.237 OA
ATOM     79  O   UNL A   1      34.610  31.942  29.129  1.00  0.00    -0.237 OA
ATOM     80  O   UNL A   1      34.192  33.115  31.240  1.00  0.00    -0.744 OA
ENDBRANCH  74  77
ENDBRANCH  46  70
BRANCH  58  81
ATOM     81  C   UNL A   1      44.465  34.032  29.536  1.00  0.00     0.023 A 
ATOM     82  C   UNL A   1      45.094  34.343  30.757  1.00  0.00     0.012 A 
ATOM     83  C   UNL A   1      44.354  35.026  28.543  1.00  0.00     0.148 A 
ATOM     84  C   UNL A   1      45.581  35.627  30.998  1.00  0.00     0.002 A 
ATOM     85  C   UNL A   1      44.883  36.292  28.773  1.00  0.00     0.091 A 
ATOM     86  F   UNL A   1      43.735  34.718  27.395  1.00  0.00    -0.205 F 
ATOM     87  C   UNL A   1      45.487  36.597  30.003  1.00  0.00     0.022 A 
BRANCH  85  88
ATOM     88  S   UNL A   1      44.887  37.572  27.512  1.00  0.00     0.127 S 
ATOM     89  O   UNL A   1      45.736  36.976  26.484  1.00  0.00    -0.237 OA
ATOM     90  O   UNL A   1      43.471  37.667  27.155  1.00  0.00    -0.237 OA
ATOM     91  O   UNL A   1      45.424  38.764  28.157  1.00  0.00    -0.744 OA
ENDBRANCH  85  88
ENDBRANCH  58  81
ENDBRANCH  32  33
ENDBRANCH  25  27
ENDBRANCH  24  25
ENDBRANCH  23  24
ENDBRANCH   1  23
TORSDOF 19
ENDMDL
MODEL 2
REMARK VINA RESULT:     -11.0      1.498      2.310
REMARK SMILES CC1(C)CCC[C@@]1(CC(=O)OCCOCCOC(=O)c1ccc(-c2c3nc(c(-c4cccc(S(=O)(=O)[O-])c4F)c4ccc([nH]4)c(-c4cccc(S(=O)(=O)[O-])c4F)c4nc(c(-c5cccc(S(=O)(=O)[O-])c5F)c5ccc2[nH]5)C=C4)C=C3)cc1)[NH+]1CCCCC1
REMARK SMILES IDX 15 1 14 2 13 3 12 4 11 5 9 6 10 7 8 8 7 9 1 10 2 11 3 12
REMARK SMILES IDX 4 13 5 14 6 15 83 16 84 17 88 18 85 20 87 21 86 22 16 23
REMARK SMILES IDX 17 24 18 25 19 26 20 27 21 28 82 29 22 30 81 31 23 32 24 33
REMARK SMILES IDX 25 34 75 35 26 36 80 37 74 38 76 39 27 40 79 41 73 42 72 43
REMARK SMILES IDX 28 45 60 46 40 47 59 48 41 49 44 50 58 51 77 52 42 53 43 54
REMARK SMILES IDX 57 56 78 57 45 58 29 59 30 60 38 61 31 62 33 63 39 64 32 65
REMARK SMILES IDX 34 66 35 67 36 68 37 69 61 70 62 71 70 72 63 73 65 74 71 75
REMARK SMILES IDX 64 76 66 77 67 78 68 79 69 80 46 81 47 82 55 83 48 84 50 85
REMARK SMILES IDX 56 86 49 87 51 88 52 89 53 90 54 91
REMARK H PARENT 83 19 76 44 44 55
REMARK Flexibility Score: inf
ROOT
ATOM      1  C   UNL A   1      35.979  20.161  25.006  1.00  0.00     0.202 C 
ENDROOT
BRANCH   1   2
ATOM      2  O   UNL A   1      35.296  21.397  25.182  1.00  0.00    -0.374 OA
BRANCH   2   3
ATOM      3  C   UNL A   1      34.451  21.523  26.333  1.00  0.00     0.202 C 
BRANCH   3   4
ATOM      4  C   UNL A   1      34.174  22.945  26.843  1.00  0.00     0.261 C 
BRANCH   4   5
ATOM      5  O   UNL A   1      32.801  23.116  27.239  1.00  0.00    -0.463 OA
BRANCH   5   6
ATOM      6  C   UNL A   1      32.154  24.151  26.635  1.00  0.00     0.312 C 
ATOM      7  O   UNL A   1      31.038  24.545  26.951  1.00  0.00    -0.252 OA
BRANCH   6   8
ATOM      8  C   UNL A   1      33.068  24.891  25.671  1.00  0.00     0.191 C 
BRANCH   8   9
ATOM      9  C   UNL A   1      32.495  25.630  24.403  1.00  0.00     0.113 C 
ATOM     10  C   UNL A   1      30.836  23.761  23.500  1.00  0.00     0.018 C 
ATOM     11  C   UNL A   1      32.155  24.525  23.276  1.00  0.00     0.020 C 
ATOM     12  C   UNL A   1      33.242  23.422  23.125  1.00  0.00     0.018 C 
ATOM     13  C   UNL A   1      32.182  25.309  21.948  1.00  0.00     0.013 C 
ATOM     14  C   UNL A   1      33.258  26.370  22.133  1.00  0.00     0.007 C 
ATOM     15  C   UNL A   1      33.544  26.482  23.636  1.00  0.00     0.070 C 
BRANCH   9  16
ATOM     16  N   UNL A   1      31.305  26.467  24.850  1.00  0.00    -0.329 N 
ATOM     17  C   UNL A   1      30.075  26.590  24.061  1.00  0.00     0.262 C 
ATOM     18  C   UNL A   1      31.533  27.749  25.548  1.00  0.00     0.262 C 
ATOM     19  H   UNL A   1      31.125  25.719  25.521  1.00  0.00     0.348 HD
ATOM     20  C   UNL A   1      30.023  27.777  23.096  1.00  0.00     0.062 C 
ATOM     21  C   UNL A   1      31.500  29.010  24.676  1.00  0.00     0.062 C 
ATOM     22  C   UNL A   1      30.242  29.089  23.830  1.00  0.00     0.012 C 
ENDBRANCH   9  16
ENDBRANCH   8   9
ENDBRANCH   6   8
ENDBRANCH   5   6
ENDBRANCH   4   5
ENDBRANCH   3   4
ENDBRANCH   2   3
ENDBRANCH   1   2
BRANCH   1  23
ATOM     23  C   UNL A   1      37.512  20.210  24.931  1.00  0.00     0.261 C 
BRANCH  23  24
ATOM     24  O   UNL A   1      38.080  21.412  25.458  1.00  0.00    -0.460 OA
BRANCH  24  25
ATOM     25  C   UNL A   1      39.228  21.244  26.153  1.00  0.00     0.338 C 
ATOM     26  O   UNL A   1      39.868  20.217  26.288  1.00  0.00    -0.246 OA
BRANCH  25  27
ATOM     27  C   UNL A   1      39.642  22.541  26.716  1.00  0.00     0.060 A 
ATOM     28  C   UNL A   1      39.033  23.715  26.259  1.00  0.00     0.016 A 
ATOM     29  C   UNL A   1      40.703  22.593  27.619  1.00  0.00     0.016 A 
ATOM     30  C   UNL A   1      39.514  24.955  26.688  1.00  0.00     0.010 A 
ATOM     31  C   UNL A   1      41.170  23.835  28.060  1.00  0.00     0.010 A 
ATOM     32  C   UNL A   1      40.603  25.025  27.573  1.00  0.00    -0.014 A 
BRANCH  32  33
ATOM     33  C   UNL A   1      41.195  26.342  27.922  1.00  0.00     0.031 A 
ATOM     34  C   UNL A   1      42.620  26.646  27.541  1.00  0.00     0.074 A 
ATOM     35  C   UNL A   1      40.468  27.262  28.584  1.00  0.00     0.049 A 
ATOM     36  N   UNL A   1      43.306  27.745  27.718  1.00  0.00    -0.248 NA
ATOM     37  C   UNL A   1      43.376  25.570  26.877  1.00  0.00     0.031 C 
ATOM     38  C   UNL A   1      39.092  27.078  29.044  1.00  0.00     0.029 A 
ATOM     39  N   UNL A   1      40.795  28.528  29.004  1.00  0.00    -0.354 N 
ATOM     40  C   UNL A   1      44.574  27.491  27.209  1.00  0.00     0.074 A 
ATOM     41  C   UNL A   1      44.570  26.128  26.728  1.00  0.00     0.031 C 
ATOM     42  C   UNL A   1      38.699  28.183  29.700  1.00  0.00     0.029 A 
ATOM     43  C   UNL A   1      39.795  29.149  29.717  1.00  0.00     0.049 A 
ATOM     44  H   UNL A   1      41.663  28.952  28.814  1.00  0.00     0.167 HD
ATOM     45  C   UNL A   1      45.639  28.325  27.127  1.00  0.00     0.034 A 
ATOM     46  C   UNL A   1      39.770  30.355  30.320  1.00  0.00     0.034 A 
ATOM     47  C   UNL A   1      45.634  29.692  27.576  1.00  0.00     0.049 A 
ATOM     48  C   UNL A   1      40.965  31.265  30.200  1.00  0.00     0.074 A 
ATOM     49  C   UNL A   1      46.642  30.635  27.464  1.00  0.00     0.029 A 
ATOM     50  N   UNL A   1      44.582  30.307  28.233  1.00  0.00    -0.354 N 
ATOM     51  N   UNL A   1      42.092  31.068  29.560  1.00  0.00    -0.248 NA
ATOM     52  C   UNL A   1      40.870  32.581  30.852  1.00  0.00     0.031 C 
ATOM     53  C   UNL A   1      46.204  31.815  28.072  1.00  0.00     0.029 A 
ATOM     54  C   UNL A   1      44.919  31.612  28.547  1.00  0.00     0.049 A 
ATOM     55  H   UNL A   1      43.721  29.879  28.445  1.00  0.00     0.167 HD
ATOM     56  C   UNL A   1      42.823  32.244  29.703  1.00  0.00     0.074 A 
ATOM     57  C   UNL A   1      42.002  33.157  30.469  1.00  0.00     0.031 C 
ATOM     58  C   UNL A   1      44.070  32.533  29.255  1.00  0.00     0.034 A 
BRANCH  45  59
ATOM     59  C   UNL A   1      46.895  27.805  26.482  1.00  0.00     0.023 A 
ATOM     60  C   UNL A   1      47.805  27.054  27.252  1.00  0.00     0.012 A 
ATOM     61  C   UNL A   1      47.128  27.976  25.104  1.00  0.00     0.148 A 
ATOM     62  C   UNL A   1      48.937  26.493  26.663  1.00  0.00     0.002 A 
ATOM     63  C   UNL A   1      48.240  27.384  24.516  1.00  0.00     0.091 A 
ATOM     64  F   UNL A   1      46.258  28.710  24.395  1.00  0.00    -0.205 F 
ATOM     65  C   UNL A   1      49.148  26.648  25.296  1.00  0.00     0.022 A 
BRANCH  63  66
ATOM     66  S   UNL A   1      48.565  27.465  22.751  1.00  0.00     0.127 S 
ATOM     67  O   UNL A   1      49.852  28.158  22.721  1.00  0.00    -0.237 OA
ATOM     68  O   UNL A   1      48.626  26.050  22.385  1.00  0.00    -0.237 OA
ATOM     69  O   UNL A   1      47.450  28.198  22.169  1.00  0.00    -0.744 OA
ENDBRANCH  63  66
ENDBRANCH  45  59
BRANCH  46  70
ATOM     70  C   UNL A   1      38.550  30.799  31.053  1.00  0.00     0.023 A 
ATOM     71  C   UNL A   1      38.449  30.571  32.440  1.00  0.00     0.012 A 
ATOM     72  C   UNL A   1      37.494  31.447  30.387  1.00  0.00     0.148 A 
ATOM     73  C   UNL A   1      37.303  30.950  33.142  1.00  0.00     0.002 A 
ATOM     74  C   UNL A   1      36.380  31.873  31.102  1.00  0.00     0.091 A 
ATOM     75  F   UNL A   1      37.594  31.634  29.063  1.00  0.00    -0.205 F 
ATOM     76  C   UNL A   1      36.275  31.611  32.475  1.00  0.00     0.022 A 
BRANCH  74  77
ATOM     77  S   UNL A   1      35.079  32.846  30.335  1.00  0.00     0.127 S 
ATOM     78  O   UNL A   1      35.807  34.032  29.897  1.00  0.00    -0.237 OA
ATOM     79  O   UNL A   1      34.630  31.964  29.255  1.00  0.00    -0.237 OA
ATOM     80  O   UNL A   1      34.088  33.050  31.384  1.00  0.00    -0.744 OA
ENDBRANCH  74  77
ENDBRANCH  46  70
BRANCH  58  81
ATOM     81  C   UNL A   1      44.624  33.902  29.554  1.00  0.00     0.023 A 
ATOM     82  C   UNL A   1      44.395  34.959  28.652  1.00  0.00     0.012 A 
ATOM     83  C   UNL A   1      45.299  34.159  30.764  1.00  0.00     0.148 A 
ATOM     84  C   UNL A   1      44.852  36.245  28.936  1.00  0.00     0.002 A 
ATOM     85  C   UNL A   1      45.712  35.454  31.061  1.00  0.00     0.091 A 
ATOM     86  F   UNL A   1      45.525  33.137  31.602  1.00  0.00    -0.205 F 
ATOM     87  C   UNL A   1      45.498  36.495  30.144  1.00  0.00     0.022 A 
BRANCH  85  88
ATOM     88  S   UNL A   1      46.468  35.881  32.634  1.00  0.00     0.127 S 
ATOM     89  O   UNL A   1      45.462  35.417  33.586  1.00  0.00    -0.237 OA
ATOM     90  O   UNL A   1      47.701  35.092  32.614  1.00  0.00    -0.237 OA
ATOM     91  O   UNL A   1      46.679  37.323  32.595  1.00  0.00    -0.744 OA
ENDBRANCH  85  88
ENDBRANCH  58  81
ENDBRANCH  32  33
ENDBRANCH  25  27
ENDBRANCH  24  25
ENDBRANCH  23  24
ENDBRANCH   1  23
TORSDOF 19
ENDMDL
MODEL 3
REMARK VINA RESULT:     -10.8      1.589      2.215
REMARK SMILES CC1(C)CCC[C@@]1(CC(=O)OCCOCCOC(=O)c1ccc(-c2c3nc(c(-c4cccc(S(=O)(=O)[O-])c4F)c4ccc([nH]4)c(-c4cccc(S(=O)(=O)[O-])c4F)c4nc(c(-c5cccc(S(=O)(=O)[O-])c5F)c5ccc2[nH]5)C=C4)C=C3)cc1)[NH+]1CCCCC1
REMARK SMILES IDX 15 1 14 2 13 3 12 4 11 5 9 6 10 7 8 8 7 9 1 10 2 11 3 12
REMARK SMILES IDX 4 13 5 14 6 15 83 16 84 17 88 18 85 20 87 21 86 22 16 23
REMARK SMILES IDX 17 24 18 25 19 26 20 27 21 28 82 29 22 30 81 31 23 32 24 33
REMARK SMILES IDX 25 34 75 35 26 36 80 37 74 38 76 39 27 40 79 41 73 42 72 43
REMARK SMILES IDX 28 45 60 46 40 47 59 48 41 49 44 50 58 51 77 52 42 53 43 54
REMARK SMILES IDX 57 56 78 57 45 58 29 59 30 60 38 61 31 62 33 63 39 64 32 65
REMARK SMILES IDX 34 66 35 67 36 68 37 69 61 70 62 71 70 72 63 73 65 74 71 75
REMARK SMILES IDX 64 76 66 77 67 78 68 79 69 80 46 81 47 82 55 83 48 84 50 85
REMARK SMILES IDX 56 86 49 87 51 88 52 89 53 90 54 91
REMARK H PARENT 83 19 76 44 44 55
REMARK Flexibility Score: inf
ROOT
ATOM      1  C   UNL A   1      35.670  21.265  24.963  1.00  0.00     0.202 C 
ENDROOT
BRANCH   1   2
ATOM      2  O   UNL A   1      34.484  20.676  25.485  1.00  0.00    -0.374 OA
BRANCH   2   3
ATOM      3  C   UNL A   1      33.679  19.908  24.581  1.00  0.00     0.202 C 
BRANCH   3   4
ATOM      4  C   UNL A   1      32.302  20.481  24.213  1.00  0.00     0.261 C 
BRANCH   4   5
ATOM      5  O   UNL A   1      32.345  21.233  22.986  1.00  0.00    -0.463 OA
BRANCH   5   6
ATOM      6  C   UNL A   1      32.605  22.562  23.137  1.00  0.00     0.312 C 
ATOM      7  O   UNL A   1      33.507  23.157  22.559  1.00  0.00    -0.252 OA
BRANCH   6   8
ATOM      8  C   UNL A   1      31.512  23.255  23.935  1.00  0.00     0.191 C 
BRANCH   8   9
ATOM      9  C   UNL A   1      31.671  24.747  24.417  1.00  0.00     0.113 C 
ATOM     10  C   UNL A   1      33.898  24.524  25.850  1.00  0.00     0.018 C 
ATOM     11  C   UNL A   1      32.373  24.742  25.871  1.00  0.00     0.020 C 
ATOM     12  C   UNL A   1      31.820  23.654  26.836  1.00  0.00     0.018 C 
ATOM     13  C   UNL A   1      31.964  26.091  26.500  1.00  0.00     0.013 C 
ATOM     14  C   UNL A   1      30.560  26.365  25.976  1.00  0.00     0.007 C 
ATOM     15  C   UNL A   1      30.330  25.448  24.768  1.00  0.00     0.070 C 
BRANCH   9  16
ATOM     16  N   UNL A   1      32.440  25.503  23.343  1.00  0.00    -0.329 N 
ATOM     17  C   UNL A   1      33.632  26.308  23.634  1.00  0.00     0.262 C 
ATOM     18  C   UNL A   1      31.707  26.152  22.238  1.00  0.00     0.262 C 
ATOM     19  H   UNL A   1      32.792  24.590  23.055  1.00  0.00     0.348 HD
ATOM     20  C   UNL A   1      33.378  27.790  23.915  1.00  0.00     0.062 C 
ATOM     21  C   UNL A   1      31.399  27.644  22.412  1.00  0.00     0.062 C 
ATOM     22  C   UNL A   1      32.637  28.448  22.762  1.00  0.00     0.012 C 
ENDBRANCH   9  16
ENDBRANCH   8   9
ENDBRANCH   6   8
ENDBRANCH   5   6
ENDBRANCH   4   5
ENDBRANCH   3   4
ENDBRANCH   2   3
ENDBRANCH   1   2
BRANCH   1  23
ATOM     23  C   UNL A   1      36.983  20.496  25.166  1.00  0.00     0.261 C 
BRANCH  23  24
ATOM     24  O   UNL A   1      38.152  21.316  25.090  1.00  0.00    -0.460 OA
BRANCH  24  25
ATOM     25  C   UNL A   1      39.077  21.082  26.049  1.00  0.00     0.338 C 
ATOM     26  O   UNL A   1      39.509  20.003  26.412  1.00  0.00    -0.246 OA
BRANCH  25  27
ATOM     27  C   UNL A   1      39.541  22.370  26.592  1.00  0.00     0.060 A 
ATOM     28  C   UNL A   1      38.989  23.561  26.107  1.00  0.00     0.016 A 
ATOM     29  C   UNL A   1      40.596  22.393  27.505  1.00  0.00     0.016 A 
ATOM     30  C   UNL A   1      39.520  24.786  26.518  1.00  0.00     0.010 A 
ATOM     31  C   UNL A   1      41.113  23.622  27.927  1.00  0.00     0.010 A 
ATOM     32  C   UNL A   1      40.602  24.826  27.412  1.00  0.00    -0.014 A 
BRANCH  32  33
ATOM     33  C   UNL A   1      41.248  26.123  27.742  1.00  0.00     0.031 A 
ATOM     34  C   UNL A   1      42.668  26.382  27.309  1.00  0.00     0.074 A 
ATOM     35  C   UNL A   1      40.576  27.063  28.433  1.00  0.00     0.049 A 
ATOM     36  N   UNL A   1      43.394  27.459  27.464  1.00  0.00    -0.248 NA
ATOM     37  C   UNL A   1      43.364  25.286  26.615  1.00  0.00     0.031 C 
ATOM     38  C   UNL A   1      39.213  26.921  28.943  1.00  0.00     0.029 A 
ATOM     39  N   UNL A   1      40.958  28.316  28.844  1.00  0.00    -0.354 N 
ATOM     40  C   UNL A   1      44.633  27.167  26.907  1.00  0.00     0.074 A 
ATOM     41  C   UNL A   1      44.568  25.806  26.423  1.00  0.00     0.031 C 
ATOM     42  C   UNL A   1      38.879  28.034  29.616  1.00  0.00     0.029 A 
ATOM     43  C   UNL A   1      40.005  28.966  29.595  1.00  0.00     0.049 A 
ATOM     44  H   UNL A   1      41.831  28.713  28.622  1.00  0.00     0.167 HD
ATOM     45  C   UNL A   1      45.720  27.967  26.788  1.00  0.00     0.034 A 
ATOM     46  C   UNL A   1      40.041  30.169  30.201  1.00  0.00     0.034 A 
ATOM     47  C   UNL A   1      45.776  29.332  27.241  1.00  0.00     0.049 A 
ATOM     48  C   UNL A   1      41.258  31.042  30.039  1.00  0.00     0.074 A 
ATOM     49  C   UNL A   1      46.808  30.244  27.094  1.00  0.00     0.029 A 
ATOM     50  N   UNL A   1      44.768  29.977  27.938  1.00  0.00    -0.354 N 
ATOM     51  N   UNL A   1      42.354  30.812  29.358  1.00  0.00    -0.248 NA
ATOM     52  C   UNL A   1      41.229  32.357  30.698  1.00  0.00     0.031 C 
ATOM     53  C   UNL A   1      46.430  31.435  27.721  1.00  0.00     0.029 A 
ATOM     54  C   UNL A   1      45.158  31.270  28.243  1.00  0.00     0.049 A 
ATOM     55  H   UNL A   1      43.903  29.576  28.181  1.00  0.00     0.167 HD
ATOM     56  C   UNL A   1      43.127  31.963  29.477  1.00  0.00     0.074 A 
ATOM     57  C   UNL A   1      42.364  32.899  30.275  1.00  0.00     0.031 C 
ATOM     58  C   UNL A   1      44.365  32.215  28.984  1.00  0.00     0.034 A 
BRANCH  45  59
ATOM     59  C   UNL A   1      46.935  27.411  26.096  1.00  0.00     0.023 A 
ATOM     60  C   UNL A   1      47.125  27.668  24.724  1.00  0.00     0.012 A 
ATOM     61  C   UNL A   1      47.929  26.721  26.817  1.00  0.00     0.148 A 
ATOM     62  C   UNL A   1      48.280  27.233  24.075  1.00  0.00     0.002 A 
ATOM     63  C   UNL A   1      49.094  26.322  26.172  1.00  0.00     0.091 A 
ATOM     64  F   UNL A   1      47.718  26.473  28.118  1.00  0.00    -0.205 F 
ATOM     65  C   UNL A   1      49.267  26.571  24.800  1.00  0.00     0.022 A 
BRANCH  63  66
ATOM     66  S   UNL A   1      50.456  25.526  27.031  1.00  0.00     0.127 S 
ATOM     67  O   UNL A   1      51.393  25.284  25.935  1.00  0.00    -0.237 OA
ATOM     68  O   UNL A   1      50.875  26.564  27.972  1.00  0.00    -0.237 OA
ATOM     69  O   UNL A   1      49.900  24.331  27.649  1.00  0.00    -0.744 OA
ENDBRANCH  63  66
ENDBRANCH  45  59
BRANCH  46  70
ATOM     70  C   UNL A   1      38.863  30.649  30.980  1.00  0.00     0.023 A 
ATOM     71  C   UNL A   1      38.759  30.336  32.350  1.00  0.00     0.012 A 
ATOM     72  C   UNL A   1      37.850  31.415  30.374  1.00  0.00     0.148 A 
ATOM     73  C   UNL A   1      37.651  30.748  33.092  1.00  0.00     0.002 A 
ATOM     74  C   UNL A   1      36.777  31.870  31.132  1.00  0.00     0.091 A 
ATOM     75  F   UNL A   1      37.951  31.684  29.064  1.00  0.00    -0.205 F 
ATOM     76  C   UNL A   1      36.666  31.523  32.486  1.00  0.00     0.022 A 
BRANCH  74  77
ATOM     77  S   UNL A   1      35.542  32.983  30.451  1.00  0.00     0.127 S 
ATOM     78  O   UNL A   1      34.735  32.077  29.639  1.00  0.00    -0.237 OA
ATOM     79  O   UNL A   1      34.880  33.486  31.657  1.00  0.00    -0.237 OA
ATOM     80  O   UNL A   1      36.301  33.994  29.726  1.00  0.00    -0.744 OA
ENDBRANCH  74  77
ENDBRANCH  46  70
BRANCH  58  81
ATOM     81  C   UNL A   1      44.973  33.565  29.266  1.00  0.00     0.023 A 
ATOM     82  C   UNL A   1      45.782  33.740  30.405  1.00  0.00     0.012 A 
ATOM     83  C   UNL A   1      44.810  34.633  28.362  1.00  0.00     0.148 A 
ATOM     84  C   UNL A   1      46.397  34.966  30.655  1.00  0.00     0.002 A 
ATOM     85  C   UNL A   1      45.464  35.838  28.594  1.00  0.00     0.091 A 
ATOM     86  F   UNL A   1      44.020  34.454  27.293  1.00  0.00    -0.205 F 
ATOM     87  C   UNL A   1      46.249  36.009  29.746  1.00  0.00     0.022 A 
BRANCH  85  88
ATOM     88  S   UNL A   1      45.402  37.203  27.427  1.00  0.00     0.127 S 
ATOM     89  O   UNL A   1      46.063  38.269  28.178  1.00  0.00    -0.237 OA
ATOM     90  O   UNL A   1      46.174  36.684  26.296  1.00  0.00    -0.237 OA
ATOM     91  O   UNL A   1      43.989  37.419  27.141  1.00  0.00    -0.744 OA
ENDBRANCH  85  88
ENDBRANCH  58  81
ENDBRANCH  32  33
ENDBRANCH  25  27
ENDBRANCH  24  25
ENDBRANCH  23  24
ENDBRANCH   1  23
TORSDOF 19
ENDMDL
