MODEL 1
REMARK VINA RESULT:     -11.7      0.000      0.000
REMARK SMILES O=C(OCCOCCOC(=O)[C@H]1Cc2ccc(Cl)cc2C[N@@H+]1Cc1ccccc1Cl)c1ccc(-c2c3nc(c(-c4cccc(S(=O)(=O)[O-])c4F)c4ccc([nH]4)c(-c4cccc(S(=O)(=O)[O-])c4F)c4nc(c(-c5cccc(S(=O)(=O)[O-])c5F)c5ccc2[nH]5)C=C4)C=C3)cc1
REMARK SMILES IDX 5 1 4 2 3 3 2 4 1 5 31 6 32 7 93 8 33 9 92 10 34 11 35 12
REMARK SMILES IDX 36 13 86 14 37 15 91 16 85 17 87 18 38 19 90 20 84 21 83 22
REMARK SMILES IDX 39 24 71 25 51 26 70 27 52 28 55 29 69 30 88 31 53 32 54 33
REMARK SMILES IDX 68 35 89 36 56 37 40 38 41 39 49 40 42 41 44 42 50 43 43 44
REMARK SMILES IDX 45 45 46 46 47 47 48 48 72 49 73 50 81 51 74 52 76 53 82 54
REMARK SMILES IDX 75 55 77 56 78 57 79 58 80 59 57 60 58 61 66 62 59 63 61 64
REMARK SMILES IDX 67 65 60 66 62 67 63 68 64 69 65 70 6 71 7 72 8 73 9 74
REMARK SMILES IDX 10 75 11 76 12 77 13 78 22 79 14 80 21 81 15 83 20 84 16 85
REMARK SMILES IDX 19 86 17 87 18 88 23 89 24 90 25 91 29 92 26 93 28 94 30 95
REMARK SMILES IDX 27 96
REMARK H PARENT 87 23 55 34 22 82
REMARK Flexibility Score: inf
ROOT
ATOM      1  C   UNL A   1      32.303  30.641  26.864  1.00  0.00     0.202 C 
ENDROOT
BRANCH   1   2
ATOM      2  C   UNL A   1      32.106  32.157  26.854  1.00  0.00     0.261 C 
BRANCH   2   3
ATOM      3  O   UNL A   1      32.832  32.790  27.913  1.00  0.00    -0.460 OA
BRANCH   3   4
ATOM      4  C   UNL A   1      34.120  33.203  27.897  1.00  0.00     0.338 C 
ATOM      5  O   UNL A   1      34.378  34.232  27.270  1.00  0.00    -0.246 OA
BRANCH   4   6
ATOM      6  C   UNL A   1      35.252  32.502  28.592  1.00  0.00     0.060 A 
ATOM      7  C   UNL A   1      36.518  33.106  28.470  1.00  0.00     0.016 A 
ATOM      8  C   UNL A   1      35.186  31.279  29.269  1.00  0.00     0.016 A 
ATOM      9  C   UNL A   1      37.667  32.482  28.958  1.00  0.00     0.010 A 
ATOM     10  C   UNL A   1      36.322  30.622  29.703  1.00  0.00     0.010 A 
ATOM     11  C   UNL A   1      37.562  31.226  29.556  1.00  0.00    -0.014 A 
BRANCH  11  12
ATOM     12  C   UNL A   1      38.680  30.588  30.254  1.00  0.00     0.031 A 
ATOM     13  C   UNL A   1      39.131  31.074  31.589  1.00  0.00     0.074 A 
ATOM     14  C   UNL A   1      39.383  29.704  29.526  1.00  0.00     0.049 A 
ATOM     15  N   UNL A   1      40.096  30.609  32.333  1.00  0.00    -0.248 NA
ATOM     16  C   UNL A   1      38.436  32.242  32.158  1.00  0.00     0.031 C 
ATOM     17  C   UNL A   1      39.075  29.338  28.135  1.00  0.00     0.029 A 
ATOM     18  N   UNL A   1      40.513  29.001  29.815  1.00  0.00    -0.354 N 
ATOM     19  C   UNL A   1      40.116  31.409  33.467  1.00  0.00     0.074 A 
ATOM     20  C   UNL A   1      39.096  32.419  33.297  1.00  0.00     0.031 C 
ATOM     21  C   UNL A   1      40.003  28.482  27.692  1.00  0.00     0.029 A 
ATOM     22  C   UNL A   1      40.948  28.226  28.770  1.00  0.00     0.049 A 
ATOM     23  H   UNL A   1      40.970  29.045  30.685  1.00  0.00     0.167 HD
ATOM     24  C   UNL A   1      40.907  31.270  34.555  1.00  0.00     0.034 A 
ATOM     25  C   UNL A   1      41.983  27.373  28.706  1.00  0.00     0.034 A 
ATOM     26  C   UNL A   1      41.918  30.250  34.656  1.00  0.00     0.049 A 
ATOM     27  C   UNL A   1      42.786  27.172  29.952  1.00  0.00     0.074 A 
ATOM     28  C   UNL A   1      42.721  29.934  35.734  1.00  0.00     0.029 A 
ATOM     29  N   UNL A   1      42.271  29.391  33.622  1.00  0.00    -0.354 N 
ATOM     30  N   UNL A   1      42.674  27.798  31.100  1.00  0.00    -0.248 NA
ATOM     31  C   UNL A   1      43.812  26.128  29.923  1.00  0.00     0.031 C 
ATOM     32  C   UNL A   1      43.567  28.888  35.349  1.00  0.00     0.029 A 
ATOM     33  C   UNL A   1      43.280  28.542  34.035  1.00  0.00     0.049 A 
ATOM     34  H   UNL A   1      41.862  29.388  32.727  1.00  0.00     0.167 HD
ATOM     35  C   UNL A   1      43.602  27.212  31.944  1.00  0.00     0.074 A 
ATOM     36  C   UNL A   1      44.259  26.171  31.173  1.00  0.00     0.031 C 
ATOM     37  C   UNL A   1      43.891  27.509  33.234  1.00  0.00     0.034 A 
BRANCH  24  38
ATOM     38  C   UNL A   1      40.651  32.152  35.748  1.00  0.00     0.023 A 
ATOM     39  C   UNL A   1      41.497  33.260  35.960  1.00  0.00     0.012 A 
ATOM     40  C   UNL A   1      39.531  31.970  36.582  1.00  0.00     0.148 A 
ATOM     41  C   UNL A   1      41.238  34.172  36.984  1.00  0.00     0.002 A 
ATOM     42  C   UNL A   1      39.263  32.898  37.585  1.00  0.00     0.091 A 
ATOM     43  F   UNL A   1      38.744  30.906  36.372  1.00  0.00    -0.205 F 
ATOM     44  C   UNL A   1      40.115  33.997  37.788  1.00  0.00     0.022 A 
BRANCH  42  45
ATOM     45  S   UNL A   1      37.819  32.801  38.652  1.00  0.00     0.127 S 
ATOM     46  O   UNL A   1      38.071  33.895  39.590  1.00  0.00    -0.237 OA
ATOM     47  O   UNL A   1      36.727  33.046  37.712  1.00  0.00    -0.237 OA
ATOM     48  O   UNL A   1      37.838  31.470  39.240  1.00  0.00    -0.744 OA
ENDBRANCH  42  45
ENDBRANCH  24  38
BRANCH  25  49
ATOM     49  C   UNL A   1      42.152  26.565  27.473  1.00  0.00     0.023 A 
ATOM     50  C   UNL A   1      42.873  27.118  26.398  1.00  0.00     0.012 A 
ATOM     51  C   UNL A   1      41.787  25.205  27.437  1.00  0.00     0.148 A 
ATOM     52  C   UNL A   1      43.232  26.330  25.305  1.00  0.00     0.002 A 
ATOM     53  C   UNL A   1      42.176  24.417  26.360  1.00  0.00     0.091 A 
ATOM     54  F   UNL A   1      41.125  24.700  28.488  1.00  0.00    -0.205 F 
ATOM     55  C   UNL A   1      42.894  24.979  25.292  1.00  0.00     0.022 A 
BRANCH  53  56
ATOM     56  S   UNL A   1      41.893  22.643  26.301  1.00  0.00     0.127 S 
ATOM     57  O   UNL A   1      42.572  22.276  25.060  1.00  0.00    -0.237 OA
ATOM     58  O   UNL A   1      42.557  22.193  27.523  1.00  0.00    -0.237 OA
ATOM     59  O   UNL A   1      40.447  22.471  26.297  1.00  0.00    -0.744 OA
ENDBRANCH  53  56
ENDBRANCH  25  49
BRANCH  37  60
ATOM     60  C   UNL A   1      44.973  26.706  33.890  1.00  0.00     0.023 A 
ATOM     61  C   UNL A   1      46.316  27.089  33.714  1.00  0.00     0.012 A 
ATOM     62  C   UNL A   1      44.650  25.651  34.762  1.00  0.00     0.148 A 
ATOM     63  C   UNL A   1      47.331  26.421  34.394  1.00  0.00     0.002 A 
ATOM     64  C   UNL A   1      45.663  25.013  35.464  1.00  0.00     0.091 A 
ATOM     65  F   UNL A   1      43.362  25.307  34.900  1.00  0.00    -0.205 F 
ATOM     66  C   UNL A   1      47.004  25.394  35.277  1.00  0.00     0.022 A 
BRANCH  64  67
ATOM     67  S   UNL A   1      45.339  23.729  36.673  1.00  0.00     0.127 S 
ATOM     68  O   UNL A   1      44.676  22.713  35.856  1.00  0.00    -0.237 OA
ATOM     69  O   UNL A   1      46.688  23.374  37.114  1.00  0.00    -0.237 OA
ATOM     70  O   UNL A   1      44.502  24.338  37.699  1.00  0.00    -0.744 OA
ENDBRANCH  64  67
ENDBRANCH  37  60
ENDBRANCH  11  12
ENDBRANCH   4   6
ENDBRANCH   3   4
ENDBRANCH   2   3
ENDBRANCH   1   2
BRANCH   1  71
ATOM     71  O   UNL A   1      32.524  30.045  25.591  1.00  0.00    -0.374 OA
BRANCH  71  72
ATOM     72  C   UNL A   1      33.382  28.902  25.570  1.00  0.00     0.202 C 
BRANCH  72  73
ATOM     73  C   UNL A   1      33.031  27.909  26.678  1.00  0.00     0.261 C 
BRANCH  73  74
ATOM     74  O   UNL A   1      33.360  26.569  26.280  1.00  0.00    -0.459 OA
BRANCH  74  75
ATOM     75  C   UNL A   1      32.317  25.694  26.221  1.00  0.00     0.365 C 
ATOM     76  O   UNL A   1      31.267  25.794  26.848  1.00  0.00    -0.245 OA
BRANCH  75  77
ATOM     77  C   UNL A   1      32.541  24.609  25.174  1.00  0.00     0.300 C 
ATOM     78  C   UNL A   1      32.325  23.266  25.888  1.00  0.00     0.113 C 
ATOM     79  N   UNL A   1      31.661  24.745  23.986  1.00  0.00    -0.315 N 
ATOM     80  C   UNL A   1      32.323  22.082  24.975  1.00  0.00    -0.033 A 
ATOM     81  C   UNL A   1      31.908  23.659  23.025  1.00  0.00     0.300 C 
ATOM     82  H   UNL A   1      30.700  24.651  24.315  1.00  0.00     0.349 HD
ATOM     83  C   UNL A   1      32.544  20.799  25.496  1.00  0.00     0.006 A 
ATOM     84  C   UNL A   1      32.058  22.270  23.615  1.00  0.00     0.011 A 
ATOM     85  C   UNL A   1      32.549  19.695  24.650  1.00  0.00     0.021 A 
ATOM     86  C   UNL A   1      32.066  21.149  22.772  1.00  0.00     0.030 A 
ATOM     87  C   UNL A   1      32.315  19.876  23.290  1.00  0.00     0.041 A 
ATOM     88  Cl  UNL A   1      32.357  18.519  22.232  1.00  0.00    -0.084 Cl
BRANCH  79  89
ATOM     89  C   UNL A   1      31.707  26.100  23.363  1.00  0.00     0.301 C 
BRANCH  89  90
ATOM     90  C   UNL A   1      30.429  26.926  23.434  1.00  0.00     0.025 A 
ATOM     91  C   UNL A   1      29.272  26.362  24.002  1.00  0.00     0.011 A 
ATOM     92  C   UNL A   1      30.312  28.214  22.877  1.00  0.00     0.049 A 
ATOM     93  C   UNL A   1      28.020  26.954  23.842  1.00  0.00     0.001 A 
ATOM     94  C   UNL A   1      29.054  28.805  22.707  1.00  0.00     0.021 A 
ATOM     95  Cl  UNL A   1      31.689  29.157  22.423  1.00  0.00    -0.084 Cl
ATOM     96  C   UNL A   1      27.905  28.156  23.156  1.00  0.00     0.002 A 
ENDBRANCH  89  90
ENDBRANCH  79  89
ENDBRANCH  75  77
ENDBRANCH  74  75
ENDBRANCH  73  74
ENDBRANCH  72  73
ENDBRANCH  71  72
ENDBRANCH   1  71
TORSDOF 19
ENDMDL
MODEL 2
REMARK VINA RESULT:     -11.3      2.131      7.906
REMARK SMILES O=C(OCCOCCOC(=O)[C@H]1Cc2ccc(Cl)cc2C[N@@H+]1Cc1ccccc1Cl)c1ccc(-c2c3nc(c(-c4cccc(S(=O)(=O)[O-])c4F)c4ccc([nH]4)c(-c4cccc(S(=O)(=O)[O-])c4F)c4nc(c(-c5cccc(S(=O)(=O)[O-])c5F)c5ccc2[nH]5)C=C4)C=C3)cc1
REMARK SMILES IDX 5 1 4 2 3 3 2 4 1 5 31 6 32 7 93 8 33 9 92 10 34 11 35 12
REMARK SMILES IDX 36 13 86 14 37 15 91 16 85 17 87 18 38 19 90 20 84 21 83 22
REMARK SMILES IDX 39 24 71 25 51 26 70 27 52 28 55 29 69 30 88 31 53 32 54 33
REMARK SMILES IDX 68 35 89 36 56 37 40 38 41 39 49 40 42 41 44 42 50 43 43 44
REMARK SMILES IDX 45 45 46 46 47 47 48 48 72 49 73 50 81 51 74 52 76 53 82 54
REMARK SMILES IDX 75 55 77 56 78 57 79 58 80 59 57 60 58 61 66 62 59 63 61 64
REMARK SMILES IDX 67 65 60 66 62 67 63 68 64 69 65 70 6 71 7 72 8 73 9 74
REMARK SMILES IDX 10 75 11 76 12 77 13 78 22 79 14 80 21 81 15 83 20 84 16 85
REMARK SMILES IDX 19 86 17 87 18 88 23 89 24 90 25 91 29 92 26 93 28 94 30 95
REMARK SMILES IDX 27 96
REMARK H PARENT 87 23 55 34 22 82
REMARK Flexibility Score: inf
ROOT
ATOM      1  C   UNL A   1      31.610  32.122  26.896  1.00  0.00     0.202 C 
ENDROOT
BRANCH   1   2
ATOM      2  C   UNL A   1      32.869  32.903  27.271  1.00  0.00     0.261 C 
BRANCH   2   3
ATOM      3  O   UNL A   1      32.556  34.065  28.049  1.00  0.00    -0.460 OA
BRANCH   3   4
ATOM      4  C   UNL A   1      33.291  34.614  29.043  1.00  0.00     0.338 C 
ATOM      5  O   UNL A   1      32.927  35.706  29.481  1.00  0.00    -0.246 OA
BRANCH   4   6
ATOM      6  C   UNL A   1      34.513  33.986  29.651  1.00  0.00     0.060 A 
ATOM      7  C   UNL A   1      34.280  33.074  30.697  1.00  0.00     0.016 A 
ATOM      8  C   UNL A   1      35.844  34.278  29.337  1.00  0.00     0.016 A 
ATOM      9  C   UNL A   1      35.336  32.526  31.427  1.00  0.00     0.010 A 
ATOM     10  C   UNL A   1      36.896  33.791  30.089  1.00  0.00     0.010 A 
ATOM     11  C   UNL A   1      36.645  32.908  31.129  1.00  0.00    -0.014 A 
BRANCH  11  12
ATOM     12  C   UNL A   1      37.812  32.249  31.717  1.00  0.00     0.031 A 
ATOM     13  C   UNL A   1      38.452  31.079  31.050  1.00  0.00     0.074 A 
ATOM     14  C   UNL A   1      38.117  32.629  32.970  1.00  0.00     0.049 A 
ATOM     15  N   UNL A   1      39.494  30.398  31.440  1.00  0.00    -0.248 NA
ATOM     16  C   UNL A   1      37.841  30.590  29.803  1.00  0.00     0.031 C 
ATOM     17  C   UNL A   1      37.386  33.654  33.730  1.00  0.00     0.029 A 
ATOM     18  N   UNL A   1      39.063  32.177  33.839  1.00  0.00    -0.354 N 
ATOM     19  C   UNL A   1      39.679  29.412  30.482  1.00  0.00     0.074 A 
ATOM     20  C   UNL A   1      38.618  29.553  29.511  1.00  0.00     0.031 C 
ATOM     21  C   UNL A   1      37.911  33.744  34.958  1.00  0.00     0.029 A 
ATOM     22  C   UNL A   1      39.020  32.805  35.058  1.00  0.00     0.049 A 
ATOM     23  H   UNL A   1      39.711  31.471  33.615  1.00  0.00     0.167 HD
ATOM     24  C   UNL A   1      40.678  28.501  30.425  1.00  0.00     0.034 A 
ATOM     25  C   UNL A   1      39.817  32.659  36.128  1.00  0.00     0.034 A 
ATOM     26  C   UNL A   1      41.697  28.402  31.435  1.00  0.00     0.049 A 
ATOM     27  C   UNL A   1      40.966  31.711  36.004  1.00  0.00     0.074 A 
ATOM     28  C   UNL A   1      42.818  27.595  31.454  1.00  0.00     0.029 A 
ATOM     29  N   UNL A   1      41.704  29.132  32.618  1.00  0.00    -0.354 N 
ATOM     30  N   UNL A   1      41.257  30.912  35.003  1.00  0.00    -0.248 NA
ATOM     31  C   UNL A   1      41.922  31.672  37.113  1.00  0.00     0.031 C 
ATOM     32  C   UNL A   1      43.498  27.830  32.654  1.00  0.00     0.029 A 
ATOM     33  C   UNL A   1      42.809  28.796  33.376  1.00  0.00     0.049 A 
ATOM     34  H   UNL A   1      41.021  29.791  32.877  1.00  0.00     0.167 HD
ATOM     35  C   UNL A   1      42.443  30.286  35.349  1.00  0.00     0.074 A 
ATOM     36  C   UNL A   1      42.821  30.811  36.649  1.00  0.00     0.031 C 
ATOM     37  C   UNL A   1      43.151  29.359  34.659  1.00  0.00     0.034 A 
BRANCH  24  38
ATOM     38  C   UNL A   1      40.783  27.624  29.205  1.00  0.00     0.023 A 
ATOM     39  C   UNL A   1      39.907  26.524  29.089  1.00  0.00     0.012 A 
ATOM     40  C   UNL A   1      41.641  27.938  28.134  1.00  0.00     0.148 A 
ATOM     41  C   UNL A   1      39.886  25.747  27.931  1.00  0.00     0.002 A 
ATOM     42  C   UNL A   1      41.596  27.174  26.971  1.00  0.00     0.091 A 
ATOM     43  F   UNL A   1      42.473  28.981  28.267  1.00  0.00    -0.205 F 
ATOM     44  C   UNL A   1      40.722  26.079  26.869  1.00  0.00     0.022 A 
BRANCH  42  45
ATOM     45  S   UNL A   1      42.593  27.537  25.520  1.00  0.00     0.127 S 
ATOM     46  O   UNL A   1      42.303  26.384  24.666  1.00  0.00    -0.237 OA
ATOM     47  O   UNL A   1      42.014  28.797  25.057  1.00  0.00    -0.237 OA
ATOM     48  O   UNL A   1      43.970  27.627  25.984  1.00  0.00    -0.744 OA
ENDBRANCH  42  45
ENDBRANCH  24  38
BRANCH  25  49
ATOM     49  C   UNL A   1      39.613  33.566  37.284  1.00  0.00     0.023 A 
ATOM     50  C   UNL A   1      39.949  34.926  37.143  1.00  0.00     0.012 A 
ATOM     51  C   UNL A   1      38.912  33.140  38.429  1.00  0.00     0.148 A 
ATOM     52  C   UNL A   1      39.589  35.850  38.121  1.00  0.00     0.002 A 
ATOM     53  C   UNL A   1      38.527  34.073  39.386  1.00  0.00     0.091 A 
ATOM     54  F   UNL A   1      38.582  31.844  38.523  1.00  0.00    -0.205 F 
ATOM     55  C   UNL A   1      38.868  35.426  39.236  1.00  0.00     0.022 A 
BRANCH  53  56
ATOM     56  S   UNL A   1      37.497  33.650  40.797  1.00  0.00     0.127 S 
ATOM     57  O   UNL A   1      37.295  34.956  41.419  1.00  0.00    -0.237 OA
ATOM     58  O   UNL A   1      36.314  33.087  40.147  1.00  0.00    -0.237 OA
ATOM     59  O   UNL A   1      38.270  32.696  41.581  1.00  0.00    -0.744 OA
ENDBRANCH  53  56
ENDBRANCH  25  49
BRANCH  37  60
ATOM     60  C   UNL A   1      44.402  28.843  35.305  1.00  0.00     0.023 A 
ATOM     61  C   UNL A   1      45.625  29.491  35.050  1.00  0.00     0.012 A 
ATOM     62  C   UNL A   1      44.341  27.795  36.242  1.00  0.00     0.148 A 
ATOM     63  C   UNL A   1      46.781  29.094  35.716  1.00  0.00     0.002 A 
ATOM     64  C   UNL A   1      45.490  27.429  36.928  1.00  0.00     0.091 A 
ATOM     65  F   UNL A   1      43.161  27.194  36.454  1.00  0.00    -0.205 F 
ATOM     66  C   UNL A   1      46.711  28.073  36.662  1.00  0.00     0.022 A 
BRANCH  64  67
ATOM     67  S   UNL A   1      45.488  26.176  38.212  1.00  0.00     0.127 S 
ATOM     68  O   UNL A   1      46.878  26.217  38.667  1.00  0.00    -0.237 OA
ATOM     69  O   UNL A   1      44.518  26.714  39.165  1.00  0.00    -0.237 OA
ATOM     70  O   UNL A   1      45.086  24.933  37.568  1.00  0.00    -0.744 OA
ENDBRANCH  64  67
ENDBRANCH  37  60
ENDBRANCH  11  12
ENDBRANCH   4   6
ENDBRANCH   3   4
ENDBRANCH   2   3
ENDBRANCH   1   2
BRANCH   1  71
ATOM     71  O   UNL A   1      31.828  30.933  26.146  1.00  0.00    -0.374 OA
BRANCH  71  72
ATOM     72  C   UNL A   1      32.187  29.771  26.897  1.00  0.00     0.202 C 
BRANCH  72  73
ATOM     73  C   UNL A   1      31.824  28.484  26.158  1.00  0.00     0.261 C 
BRANCH  73  74
ATOM     74  O   UNL A   1      32.962  27.613  26.065  1.00  0.00    -0.459 OA
BRANCH  74  75
ATOM     75  C   UNL A   1      33.564  27.551  24.844  1.00  0.00     0.365 C 
ATOM     76  O   UNL A   1      33.995  28.510  24.212  1.00  0.00    -0.245 OA
BRANCH  75  77
ATOM     77  C   UNL A   1      33.765  26.112  24.380  1.00  0.00     0.300 C 
ATOM     78  C   UNL A   1      34.327  25.343  25.584  1.00  0.00     0.113 C 
ATOM     79  N   UNL A   1      32.525  25.484  23.859  1.00  0.00    -0.315 N 
ATOM     80  C   UNL A   1      34.419  23.865  25.375  1.00  0.00    -0.033 A 
ATOM     81  C   UNL A   1      32.777  24.094  23.449  1.00  0.00     0.300 C 
ATOM     82  H   UNL A   1      31.856  25.460  24.629  1.00  0.00     0.349 HD
ATOM     83  C   UNL A   1      35.264  23.097  26.189  1.00  0.00     0.006 A 
ATOM     84  C   UNL A   1      33.624  23.264  24.394  1.00  0.00     0.011 A 
ATOM     85  C   UNL A   1      35.358  21.722  25.995  1.00  0.00     0.021 A 
ATOM     86  C   UNL A   1      33.727  21.878  24.208  1.00  0.00     0.030 A 
ATOM     87  C   UNL A   1      34.592  21.120  25.001  1.00  0.00     0.041 A 
ATOM     88  Cl  UNL A   1      34.730  19.425  24.732  1.00  0.00    -0.084 Cl
BRANCH  79  89
ATOM     89  C   UNL A   1      31.845  26.291  22.804  1.00  0.00     0.301 C 
BRANCH  89  90
ATOM     90  C   UNL A   1      30.509  26.917  23.181  1.00  0.00     0.025 A 
ATOM     91  C   UNL A   1      29.547  26.141  23.853  1.00  0.00     0.011 A 
ATOM     92  C   UNL A   1      30.140  28.226  22.815  1.00  0.00     0.049 A 
ATOM     93  C   UNL A   1      28.223  26.565  23.971  1.00  0.00     0.001 A 
ATOM     94  C   UNL A   1      28.810  28.648  22.923  1.00  0.00     0.021 A 
ATOM     95  Cl  UNL A   1      31.291  29.394  22.266  1.00  0.00    -0.084 Cl
ATOM     96  C   UNL A   1      27.845  27.802  23.466  1.00  0.00     0.002 A 
ENDBRANCH  89  90
ENDBRANCH  79  89
ENDBRANCH  75  77
ENDBRANCH  74  75
ENDBRANCH  73  74
ENDBRANCH  72  73
ENDBRANCH  71  72
ENDBRANCH   1  71
TORSDOF 19
ENDMDL
MODEL 3
REMARK VINA RESULT:     -11.3      4.905     10.491
REMARK SMILES O=C(OCCOCCOC(=O)[C@H]1Cc2ccc(Cl)cc2C[N@@H+]1Cc1ccccc1Cl)c1ccc(-c2c3nc(c(-c4cccc(S(=O)(=O)[O-])c4F)c4ccc([nH]4)c(-c4cccc(S(=O)(=O)[O-])c4F)c4nc(c(-c5cccc(S(=O)(=O)[O-])c5F)c5ccc2[nH]5)C=C4)C=C3)cc1
REMARK SMILES IDX 5 1 4 2 3 3 2 4 1 5 31 6 32 7 93 8 33 9 92 10 34 11 35 12
REMARK SMILES IDX 36 13 86 14 37 15 91 16 85 17 87 18 38 19 90 20 84 21 83 22
REMARK SMILES IDX 39 24 71 25 51 26 70 27 52 28 55 29 69 30 88 31 53 32 54 33
REMARK SMILES IDX 68 35 89 36 56 37 40 38 41 39 49 40 42 41 44 42 50 43 43 44
REMARK SMILES IDX 45 45 46 46 47 47 48 48 72 49 73 50 81 51 74 52 76 53 82 54
REMARK SMILES IDX 75 55 77 56 78 57 79 58 80 59 57 60 58 61 66 62 59 63 61 64
REMARK SMILES IDX 67 65 60 66 62 67 63 68 64 69 65 70 6 71 7 72 8 73 9 74
REMARK SMILES IDX 10 75 11 76 12 77 13 78 22 79 14 80 21 81 15 83 20 84 16 85
REMARK SMILES IDX 19 86 17 87 18 88 23 89 24 90 25 91 29 92 26 93 28 94 30 95
REMARK SMILES IDX 27 96
REMARK H PARENT 87 23 55 34 22 82
REMARK Flexibility Score: inf
ROOT
ATOM      1  C   UNL A   1      37.830  21.557  25.456  1.00  0.00     0.202 C 
ENDROOT
BRANCH   1   2
ATOM      2  C   UNL A   1      38.600  20.237  25.488  1.00  0.00     0.261 C 
BRANCH   2   3
ATOM      3  O   UNL A   1      39.993  20.445  25.746  1.00  0.00    -0.460 OA
BRANCH   3   4
ATOM      4  C   UNL A   1      40.561  20.906  26.882  1.00  0.00     0.338 C 
ATOM      5  O   UNL A   1      40.744  20.099  27.795  1.00  0.00    -0.246 OA
BRANCH   4   6
ATOM      6  C   UNL A   1      40.987  22.329  27.109  1.00  0.00     0.060 A 
ATOM      7  C   UNL A   1      41.641  22.589  28.328  1.00  0.00     0.016 A 
ATOM      8  C   UNL A   1      40.727  23.421  26.274  1.00  0.00     0.016 A 
ATOM      9  C   UNL A   1      41.967  23.891  28.711  1.00  0.00     0.010 A 
ATOM     10  C   UNL A   1      40.989  24.720  26.666  1.00  0.00     0.010 A 
ATOM     11  C   UNL A   1      41.617  24.956  27.881  1.00  0.00    -0.014 A 
BRANCH  11  12
ATOM     12  C   UNL A   1      42.080  26.325  28.116  1.00  0.00     0.031 A 
ATOM     13  C   UNL A   1      43.493  26.716  27.848  1.00  0.00     0.074 A 
ATOM     14  C   UNL A   1      41.218  27.118  28.775  1.00  0.00     0.049 A 
ATOM     15  N   UNL A   1      44.049  27.886  27.996  1.00  0.00    -0.248 NA
ATOM     16  C   UNL A   1      44.411  25.664  27.378  1.00  0.00     0.031 C 
ATOM     17  C   UNL A   1      39.879  26.705  29.220  1.00  0.00     0.029 A 
ATOM     18  N   UNL A   1      41.343  28.395  29.231  1.00  0.00    -0.354 N 
ATOM     19  C   UNL A   1      45.375  27.723  27.622  1.00  0.00     0.074 A 
ATOM     20  C   UNL A   1      45.556  26.331  27.279  1.00  0.00     0.031 C 
ATOM     21  C   UNL A   1      39.312  27.712  29.894  1.00  0.00     0.029 A 
ATOM     22  C   UNL A   1      40.234  28.839  29.906  1.00  0.00     0.049 A 
ATOM     23  H   UNL A   1      42.148  28.943  29.091  1.00  0.00     0.167 HD
ATOM     24  C   UNL A   1      46.330  28.679  27.549  1.00  0.00     0.034 A 
ATOM     25  C   UNL A   1      39.981  30.042  30.444  1.00  0.00     0.034 A 
ATOM     26  C   UNL A   1      46.090  30.048  27.921  1.00  0.00     0.049 A 
ATOM     27  C   UNL A   1      41.017  31.105  30.269  1.00  0.00     0.074 A 
ATOM     28  C   UNL A   1      46.933  31.135  27.805  1.00  0.00     0.029 A 
ATOM     29  N   UNL A   1      44.912  30.508  28.500  1.00  0.00    -0.354 N 
ATOM     30  N   UNL A   1      42.210  30.997  29.730  1.00  0.00    -0.248 NA
ATOM     31  C   UNL A   1      40.671  32.456  30.720  1.00  0.00     0.031 C 
ATOM     32  C   UNL A   1      46.269  32.253  28.323  1.00  0.00     0.029 A 
ATOM     33  C   UNL A   1      45.005  31.864  28.747  1.00  0.00     0.049 A 
ATOM     34  H   UNL A   1      44.128  29.950  28.704  1.00  0.00     0.167 HD
ATOM     35  C   UNL A   1      42.755  32.270  29.755  1.00  0.00     0.074 A 
ATOM     36  C   UNL A   1      41.752  33.135  30.353  1.00  0.00     0.031 C 
ATOM     37  C   UNL A   1      43.972  32.685  29.330  1.00  0.00     0.034 A 
BRANCH  24  38
ATOM     38  C   UNL A   1      47.667  28.316  26.959  1.00  0.00     0.023 A 
ATOM     39  C   UNL A   1      48.766  28.156  27.829  1.00  0.00     0.012 A 
ATOM     40  C   UNL A   1      47.822  28.020  25.592  1.00  0.00     0.148 A 
ATOM     41  C   UNL A   1      49.998  27.712  27.350  1.00  0.00     0.002 A 
ATOM     42  C   UNL A   1      49.047  27.552  25.124  1.00  0.00     0.091 A 
ATOM     43  F   UNL A   1      46.770  28.187  24.779  1.00  0.00    -0.205 F 
ATOM     44  C   UNL A   1      50.135  27.400  26.000  1.00  0.00     0.022 A 
BRANCH  42  45
ATOM     45  S   UNL A   1      49.327  27.073  23.414  1.00  0.00     0.127 S 
ATOM     46  O   UNL A   1      48.421  25.932  23.274  1.00  0.00    -0.237 OA
ATOM     47  O   UNL A   1      48.912  28.271  22.688  1.00  0.00    -0.237 OA
ATOM     48  O   UNL A   1      50.743  26.749  23.310  1.00  0.00    -0.744 OA
ENDBRANCH  42  45
ENDBRANCH  24  38
BRANCH  25  49
ATOM     49  C   UNL A   1      38.633  30.286  31.016  1.00  0.00     0.023 A 
ATOM     50  C   UNL A   1      38.413  29.990  32.374  1.00  0.00     0.012 A 
ATOM     51  C   UNL A   1      37.650  30.984  30.289  1.00  0.00     0.148 A 
ATOM     52  C   UNL A   1      37.235  30.388  33.004  1.00  0.00     0.002 A 
ATOM     53  C   UNL A   1      36.491  31.407  30.931  1.00  0.00     0.091 A 
ATOM     54  F   UNL A   1      37.899  31.276  29.004  1.00  0.00    -0.205 F 
ATOM     55  C   UNL A   1      36.281  31.106  32.286  1.00  0.00     0.022 A 
BRANCH  53  56
ATOM     56  S   UNL A   1      35.255  32.437  30.130  1.00  0.00     0.127 S 
ATOM     57  O   UNL A   1      34.292  32.640  31.209  1.00  0.00    -0.237 OA
ATOM     58  O   UNL A   1      36.037  33.620  29.772  1.00  0.00    -0.237 OA
ATOM     59  O   UNL A   1      34.770  31.665  28.994  1.00  0.00    -0.744 OA
ENDBRANCH  53  56
ENDBRANCH  25  49
BRANCH  37  60
ATOM     60  C   UNL A   1      44.293  34.139  29.508  1.00  0.00     0.023 A 
ATOM     61  C   UNL A   1      44.907  34.566  30.701  1.00  0.00     0.012 A 
ATOM     62  C   UNL A   1      44.089  35.050  28.456  1.00  0.00     0.148 A 
ATOM     63  C   UNL A   1      45.306  35.891  30.848  1.00  0.00     0.002 A 
ATOM     64  C   UNL A   1      44.522  36.360  28.595  1.00  0.00     0.091 A 
ATOM     65  F   UNL A   1      43.494  34.610  27.337  1.00  0.00    -0.205 F 
ATOM     66  C   UNL A   1      45.126  36.784  29.792  1.00  0.00     0.022 A 
BRANCH  64  67
ATOM     67  S   UNL A   1      44.398  37.564  27.271  1.00  0.00     0.127 S 
ATOM     68  O   UNL A   1      45.349  37.031  26.296  1.00  0.00    -0.237 OA
ATOM     69  O   UNL A   1      42.993  37.449  26.882  1.00  0.00    -0.237 OA
ATOM     70  O   UNL A   1      44.767  38.848  27.854  1.00  0.00    -0.744 OA
ENDBRANCH  64  67
ENDBRANCH  37  60
ENDBRANCH  11  12
ENDBRANCH   4   6
ENDBRANCH   3   4
ENDBRANCH   2   3
ENDBRANCH   1   2
BRANCH   1  71
ATOM     71  O   UNL A   1      36.429  21.443  25.240  1.00  0.00    -0.374 OA
BRANCH  71  72
ATOM     72  C   UNL A   1      35.877  22.285  24.225  1.00  0.00     0.202 C 
BRANCH  72  73
ATOM     73  C   UNL A   1      36.096  23.765  24.535  1.00  0.00     0.261 C 
BRANCH  73  74
ATOM     74  O   UNL A   1      34.843  24.423  24.782  1.00  0.00    -0.459 OA
BRANCH  74  75
ATOM     75  C   UNL A   1      34.106  24.730  23.678  1.00  0.00     0.365 C 
ATOM     76  O   UNL A   1      34.420  24.479  22.519  1.00  0.00    -0.245 OA
BRANCH  75  77
ATOM     77  C   UNL A   1      32.753  25.330  24.045  1.00  0.00     0.300 C 
ATOM     78  C   UNL A   1      32.439  26.381  22.970  1.00  0.00     0.113 C 
ATOM     79  N   UNL A   1      31.671  24.319  24.154  1.00  0.00    -0.315 N 
ATOM     80  C   UNL A   1      31.060  26.952  23.058  1.00  0.00    -0.033 A 
ATOM     81  C   UNL A   1      30.389  24.959  24.487  1.00  0.00     0.300 C 
ATOM     82  H   UNL A   1      31.570  23.890  23.234  1.00  0.00     0.349 HD
ATOM     83  C   UNL A   1      30.769  28.173  22.434  1.00  0.00     0.006 A 
ATOM     84  C   UNL A   1      30.066  26.234  23.731  1.00  0.00     0.011 A 
ATOM     85  C   UNL A   1      29.489  28.712  22.518  1.00  0.00     0.021 A 
ATOM     86  C   UNL A   1      28.780  26.787  23.809  1.00  0.00     0.030 A 
ATOM     87  C   UNL A   1      28.501  28.017  23.211  1.00  0.00     0.041 A 
ATOM     88  Cl  UNL A   1      26.925  28.696  23.350  1.00  0.00    -0.084 Cl
BRANCH  79  89
ATOM     89  C   UNL A   1      32.009  23.181  25.058  1.00  0.00     0.301 C 
BRANCH  89  90
ATOM     90  C   UNL A   1      32.320  21.848  24.388  1.00  0.00     0.025 A 
ATOM     91  C   UNL A   1      32.090  21.698  23.009  1.00  0.00     0.011 A 
ATOM     92  C   UNL A   1      32.752  20.711  25.097  1.00  0.00     0.049 A 
ATOM     93  C   UNL A   1      32.087  20.442  22.404  1.00  0.00     0.001 A 
ATOM     94  C   UNL A   1      32.739  19.448  24.494  1.00  0.00     0.021 A 
ATOM     95  Cl  UNL A   1      33.363  20.802  26.713  1.00  0.00    -0.084 Cl
ATOM     96  C   UNL A   1      32.370  19.310  23.157  1.00  0.00     0.002 A 
ENDBRANCH  89  90
ENDBRANCH  79  89
ENDBRANCH  75  77
ENDBRANCH  74  75
ENDBRANCH  73  74
ENDBRANCH  72  73
ENDBRANCH  71  72
ENDBRANCH   1  71
TORSDOF 19
ENDMDL
