MODEL 1
REMARK VINA RESULT:     -11.8      0.000      0.000
REMARK SMILES Cc1ccc(C(=O)N2CCC3(CCC(=O)N(CC(=O)OCCOCCOC(=O)c4ccc(-c5c6nc(c(-c7cccc(S(=O)(=O)[O-])c7F)c7ccc([nH]7)c(-c7cccc(S(=O)(=O)[O-])c7F)c7nc(c(-c8cccc(S(=O)(=O)[O-])c8F)c8ccc5[nH]8)C=C7)C=C6)cc4)C3)CC2)cc1O
REMARK SMILES IDX 23 1 22 2 21 3 20 4 18 5 19 6 17 7 16 8 6 9 7 10 8 11 9 12
REMARK SMILES IDX 94 13 10 14 93 15 11 16 12 17 92 18 13 19 14 20 15 21 5 22
REMARK SMILES IDX 1 23 2 24 3 25 96 26 4 27 95 28 97 29 24 31 25 32 26 33
REMARK SMILES IDX 27 34 28 35 29 36 30 37 91 38 31 39 90 40 32 41 33 42 34 43
REMARK SMILES IDX 84 44 35 45 89 46 83 47 85 48 36 49 88 50 82 51 81 52 37 54
REMARK SMILES IDX 69 55 49 56 68 57 50 58 53 59 67 60 86 61 51 62 52 63 66 65
REMARK SMILES IDX 87 66 54 67 38 68 39 69 47 70 40 71 42 72 48 73 41 74 43 75
REMARK SMILES IDX 44 76 45 77 46 78 70 79 71 80 79 81 72 82 74 83 80 84 73 85
REMARK SMILES IDX 75 86 76 87 77 88 78 89 55 90 56 91 64 92 57 93 59 94 65 95
REMARK SMILES IDX 58 96 60 97 61 98 62 99 63 100
REMARK H PARENT 97 30 85 53 53 64
REMARK Flexibility Score: inf
ROOT
ATOM      1  O   UNL A   1      35.861  22.877  23.476  1.00  0.00    -0.374 OA
ENDROOT
BRANCH   1   2
ATOM      2  C   UNL A   1      34.768  23.620  22.928  1.00  0.00     0.202 C 
BRANCH   2   3
ATOM      3  C   UNL A   1      34.780  25.133  23.177  1.00  0.00     0.261 C 
BRANCH   3   4
ATOM      4  O   UNL A   1      34.023  25.885  22.211  1.00  0.00    -0.462 OA
BRANCH   4   5
ATOM      5  C   UNL A   1      34.003  27.227  22.405  1.00  0.00     0.325 C 
ATOM      6  O   UNL A   1      34.362  28.062  21.577  1.00  0.00    -0.250 OA
BRANCH   5   7
ATOM      7  C   UNL A   1      33.359  27.668  23.716  1.00  0.00     0.242 C 
BRANCH   7   8
ATOM      8  N   UNL A   1      31.962  27.385  24.050  1.00  0.00    -0.331 N 
ATOM      9  C   UNL A   1      32.878  21.530  26.740  1.00  0.00     0.253 C 
ATOM     10  O   UNL A   1      33.675  21.362  27.662  1.00  0.00    -0.269 OA
ATOM     11  N   UNL A   1      32.268  22.755  26.509  1.00  0.00    -0.339 N 
ATOM     12  C   UNL A   1      32.999  23.959  26.847  1.00  0.00     0.120 C 
ATOM     13  C   UNL A   1      30.857  22.930  26.180  1.00  0.00     0.120 C 
ATOM     14  C   UNL A   1      32.929  24.921  25.664  1.00  0.00     0.030 C 
ATOM     15  C   UNL A   1      30.667  23.944  25.053  1.00  0.00     0.030 C 
ATOM     16  C   UNL A   1      31.469  25.257  25.252  1.00  0.00    -0.008 C 
ATOM     17  C   UNL A   1      30.769  26.135  26.324  1.00  0.00     0.019 C 
ATOM     18  C   UNL A   1      31.462  26.031  23.908  1.00  0.00     0.127 C 
ATOM     19  C   UNL A   1      31.332  27.545  26.376  1.00  0.00     0.101 C 
ATOM     20  C   UNL A   1      31.337  28.169  25.002  1.00  0.00     0.223 C 
ATOM     21  O   UNL A   1      30.961  29.314  24.820  1.00  0.00    -0.275 OA
BRANCH   9  22
ATOM     22  C   UNL A   1      32.705  20.442  25.735  1.00  0.00     0.043 A 
ATOM     23  C   UNL A   1      32.872  17.326  22.745  1.00  0.00     0.048 C 
ATOM     24  C   UNL A   1      32.781  18.381  23.809  1.00  0.00    -0.009 A 
ATOM     25  C   UNL A   1      32.527  19.704  23.428  1.00  0.00     0.008 A 
ATOM     26  C   UNL A   1      32.997  18.110  25.165  1.00  0.00     0.119 A 
ATOM     27  C   UNL A   1      32.512  20.725  24.379  1.00  0.00     0.014 A 
ATOM     28  C   UNL A   1      32.947  19.122  26.124  1.00  0.00     0.060 A 
BRANCH  26  29
ATOM     29  O   UNL A   1      33.306  16.861  25.626  1.00  0.00    -0.508 OA
ATOM     30  H   UNL A   1      33.215  16.118  25.062  1.00  0.00     0.293 HD
ENDBRANCH  26  29
ENDBRANCH   9  22
ENDBRANCH   7   8
ENDBRANCH   5   7
ENDBRANCH   4   5
ENDBRANCH   3   4
ENDBRANCH   2   3
ENDBRANCH   1   2
BRANCH   1  31
ATOM     31  C   UNL A   1      35.649  22.245  24.744  1.00  0.00     0.202 C 
BRANCH  31  32
ATOM     32  C   UNL A   1      36.582  21.076  25.068  1.00  0.00     0.261 C 
BRANCH  32  33
ATOM     33  O   UNL A   1      37.942  21.448  24.806  1.00  0.00    -0.460 OA
BRANCH  33  34
ATOM     34  C   UNL A   1      38.831  21.077  25.738  1.00  0.00     0.338 C 
ATOM     35  O   UNL A   1      39.287  19.955  25.929  1.00  0.00    -0.246 OA
BRANCH  34  36
ATOM     36  C   UNL A   1      39.311  22.281  26.428  1.00  0.00     0.060 A 
ATOM     37  C   UNL A   1      38.716  23.509  26.117  1.00  0.00     0.016 A 
ATOM     38  C   UNL A   1      40.414  22.217  27.281  1.00  0.00     0.016 A 
ATOM     39  C   UNL A   1      39.277  24.692  26.601  1.00  0.00     0.010 A 
ATOM     40  C   UNL A   1      40.973  23.404  27.766  1.00  0.00     0.010 A 
ATOM     41  C   UNL A   1      40.438  24.649  27.387  1.00  0.00    -0.014 A 
BRANCH  41  42
ATOM     42  C   UNL A   1      41.182  25.901  27.678  1.00  0.00     0.031 A 
ATOM     43  C   UNL A   1      40.478  27.018  28.403  1.00  0.00     0.074 A 
ATOM     44  C   UNL A   1      42.465  26.051  27.302  1.00  0.00     0.049 A 
ATOM     45  N   UNL A   1      40.927  28.199  28.737  1.00  0.00    -0.248 NA
ATOM     46  C   UNL A   1      39.082  26.770  28.805  1.00  0.00     0.031 C 
ATOM     47  C   UNL A   1      43.261  25.050  26.595  1.00  0.00     0.029 A 
ATOM     48  N   UNL A   1      43.315  27.121  27.441  1.00  0.00    -0.354 N 
ATOM     49  C   UNL A   1      39.866  28.845  29.364  1.00  0.00     0.074 A 
ATOM     50  C   UNL A   1      38.748  27.928  29.357  1.00  0.00     0.031 C 
ATOM     51  C   UNL A   1      44.475  25.563  26.336  1.00  0.00     0.029 A 
ATOM     52  C   UNL A   1      44.537  26.935  26.840  1.00  0.00     0.049 A 
ATOM     53  H   UNL A   1      43.073  27.943  27.927  1.00  0.00     0.167 HD
ATOM     54  C   UNL A   1      39.831  30.082  29.914  1.00  0.00     0.034 A 
ATOM     55  C   UNL A   1      45.579  27.779  26.696  1.00  0.00     0.034 A 
ATOM     56  C   UNL A   1      40.948  30.986  29.951  1.00  0.00     0.049 A 
ATOM     57  C   UNL A   1      45.510  29.157  27.303  1.00  0.00     0.074 A 
ATOM     58  C   UNL A   1      41.017  32.242  30.531  1.00  0.00     0.029 A 
ATOM     59  N   UNL A   1      42.186  30.738  29.382  1.00  0.00    -0.354 N 
ATOM     60  N   UNL A   1      44.545  29.701  28.006  1.00  0.00    -0.248 NA
ATOM     61  C   UNL A   1      46.683  30.027  27.129  1.00  0.00     0.031 C 
ATOM     62  C   UNL A   1      42.295  32.758  30.298  1.00  0.00     0.029 A 
ATOM     63  C   UNL A   1      43.024  31.819  29.588  1.00  0.00     0.049 A 
ATOM     64  H   UNL A   1      42.433  29.914  28.902  1.00  0.00     0.167 HD
ATOM     65  C   UNL A   1      45.010  30.954  28.390  1.00  0.00     0.074 A 
ATOM     66  C   UNL A   1      46.347  31.087  27.852  1.00  0.00     0.031 C 
ATOM     67  C   UNL A   1      44.380  31.913  29.112  1.00  0.00     0.034 A 
BRANCH  54  68
ATOM     68  C   UNL A   1      38.549  30.523  30.565  1.00  0.00     0.023 A 
ATOM     69  C   UNL A   1      38.372  30.324  31.948  1.00  0.00     0.012 A 
ATOM     70  C   UNL A   1      37.556  31.198  29.828  1.00  0.00     0.148 A 
ATOM     71  C   UNL A   1      37.218  30.775  32.587  1.00  0.00     0.002 A 
ATOM     72  C   UNL A   1      36.424  31.676  30.479  1.00  0.00     0.091 A 
ATOM     73  F   UNL A   1      37.733  31.354  28.509  1.00  0.00    -0.205 F 
ATOM     74  C   UNL A   1      36.250  31.459  31.856  1.00  0.00     0.022 A 
BRANCH  72  75
ATOM     75  S   UNL A   1      35.161  32.632  29.633  1.00  0.00     0.127 S 
ATOM     76  O   UNL A   1      34.636  31.652  28.683  1.00  0.00    -0.237 OA
ATOM     77  O   UNL A   1      34.245  32.973  30.723  1.00  0.00    -0.237 OA
ATOM     78  O   UNL A   1      35.849  33.772  29.046  1.00  0.00    -0.744 OA
ENDBRANCH  72  75
ENDBRANCH  54  68
BRANCH  55  79
ATOM     79  C   UNL A   1      46.803  27.328  25.974  1.00  0.00     0.023 A 
ATOM     80  C   UNL A   1      46.919  27.565  24.590  1.00  0.00     0.012 A 
ATOM     81  C   UNL A   1      47.858  26.688  26.652  1.00  0.00     0.148 A 
ATOM     82  C   UNL A   1      48.053  27.152  23.892  1.00  0.00     0.002 A 
ATOM     83  C   UNL A   1      49.009  26.327  25.960  1.00  0.00     0.091 A 
ATOM     84  F   UNL A   1      47.719  26.447  27.963  1.00  0.00    -0.205 F 
ATOM     85  C   UNL A   1      49.103  26.544  24.577  1.00  0.00     0.022 A 
BRANCH  83  86
ATOM     86  S   UNL A   1      50.453  25.662  26.797  1.00  0.00     0.127 S 
ATOM     87  O   UNL A   1      50.787  26.740  27.722  1.00  0.00    -0.237 OA
ATOM     88  O   UNL A   1      49.915  24.453  27.425  1.00  0.00    -0.237 OA
ATOM     89  O   UNL A   1      51.425  25.400  25.743  1.00  0.00    -0.744 OA
ENDBRANCH  83  86
ENDBRANCH  55  79
BRANCH  67  90
ATOM     90  C   UNL A   1      45.127  33.187  29.409  1.00  0.00     0.023 A 
ATOM     91  C   UNL A   1      45.947  33.263  30.552  1.00  0.00     0.012 A 
ATOM     92  C   UNL A   1      45.105  34.262  28.499  1.00  0.00     0.148 A 
ATOM     93  C   UNL A   1      46.722  34.397  30.793  1.00  0.00     0.002 A 
ATOM     94  C   UNL A   1      45.910  35.373  28.725  1.00  0.00     0.091 A 
ATOM     95  F   UNL A   1      44.304  34.177  27.427  1.00  0.00    -0.205 F 
ATOM     96  C   UNL A   1      46.714  35.445  29.874  1.00  0.00     0.022 A 
BRANCH  94  97
ATOM     97  S   UNL A   1      46.033  36.728  27.551  1.00  0.00     0.127 S 
ATOM     98  O   UNL A   1      44.700  37.320  27.640  1.00  0.00    -0.237 OA
ATOM     99  O   UNL A   1      47.102  37.544  28.127  1.00  0.00    -0.237 OA
ATOM    100  O   UNL A   1      46.363  36.119  26.269  1.00  0.00    -0.744 OA
ENDBRANCH  94  97
ENDBRANCH  67  90
ENDBRANCH  41  42
ENDBRANCH  34  36
ENDBRANCH  33  34
ENDBRANCH  32  33
ENDBRANCH  31  32
ENDBRANCH   1  31
TORSDOF 20
ENDMDL
MODEL 2
REMARK VINA RESULT:     -11.3      2.753      8.931
REMARK SMILES Cc1ccc(C(=O)N2CCC3(CCC(=O)N(CC(=O)OCCOCCOC(=O)c4ccc(-c5c6nc(c(-c7cccc(S(=O)(=O)[O-])c7F)c7ccc([nH]7)c(-c7cccc(S(=O)(=O)[O-])c7F)c7nc(c(-c8cccc(S(=O)(=O)[O-])c8F)c8ccc5[nH]8)C=C7)C=C6)cc4)C3)CC2)cc1O
REMARK SMILES IDX 23 1 22 2 21 3 20 4 18 5 19 6 17 7 16 8 6 9 7 10 8 11 9 12
REMARK SMILES IDX 94 13 10 14 93 15 11 16 12 17 92 18 13 19 14 20 15 21 5 22
REMARK SMILES IDX 1 23 2 24 3 25 96 26 4 27 95 28 97 29 24 31 25 32 26 33
REMARK SMILES IDX 27 34 28 35 29 36 30 37 91 38 31 39 90 40 32 41 33 42 34 43
REMARK SMILES IDX 84 44 35 45 89 46 83 47 85 48 36 49 88 50 82 51 81 52 37 54
REMARK SMILES IDX 69 55 49 56 68 57 50 58 53 59 67 60 86 61 51 62 52 63 66 65
REMARK SMILES IDX 87 66 54 67 38 68 39 69 47 70 40 71 42 72 48 73 41 74 43 75
REMARK SMILES IDX 44 76 45 77 46 78 70 79 71 80 79 81 72 82 74 83 80 84 73 85
REMARK SMILES IDX 75 86 76 87 77 88 78 89 55 90 56 91 64 92 57 93 59 94 65 95
REMARK SMILES IDX 58 96 60 97 61 98 62 99 63 100
REMARK H PARENT 97 30 85 53 53 64
REMARK Flexibility Score: inf
ROOT
ATOM      1  O   UNL A   1      40.898  19.783  27.363  1.00  0.00    -0.374 OA
ENDROOT
BRANCH   1   2
ATOM      2  C   UNL A   1      40.686  20.898  26.493  1.00  0.00     0.202 C 
BRANCH   2   3
ATOM      3  C   UNL A   1      39.242  21.141  26.037  1.00  0.00     0.261 C 
BRANCH   3   4
ATOM      4  O   UNL A   1      38.688  22.385  26.503  1.00  0.00    -0.462 OA
BRANCH   4   5
ATOM      5  C   UNL A   1      37.746  22.939  25.700  1.00  0.00     0.325 C 
ATOM      6  O   UNL A   1      37.717  24.121  25.364  1.00  0.00    -0.250 OA
BRANCH   5   7
ATOM      7  C   UNL A   1      36.755  21.944  25.106  1.00  0.00     0.242 C 
BRANCH   7   8
ATOM      8  N   UNL A   1      35.400  21.762  25.631  1.00  0.00    -0.331 N 
ATOM      9  C   UNL A   1      33.142  27.718  24.298  1.00  0.00     0.253 C 
ATOM     10  O   UNL A   1      33.198  28.190  23.162  1.00  0.00    -0.269 OA
ATOM     11  N   UNL A   1      33.097  26.349  24.524  1.00  0.00    -0.339 N 
ATOM     12  C   UNL A   1      33.773  25.477  23.585  1.00  0.00     0.120 C 
ATOM     13  C   UNL A   1      32.223  25.697  25.494  1.00  0.00     0.120 C 
ATOM     14  C   UNL A   1      34.630  24.487  24.370  1.00  0.00     0.030 C 
ATOM     15  C   UNL A   1      32.967  24.621  26.283  1.00  0.00     0.030 C 
ATOM     16  C   UNL A   1      33.804  23.664  25.395  1.00  0.00    -0.008 C 
ATOM     17  C   UNL A   1      32.860  22.659  24.683  1.00  0.00     0.019 C 
ATOM     18  C   UNL A   1      34.756  22.862  26.322  1.00  0.00     0.127 C 
ATOM     19  C   UNL A   1      33.617  21.522  24.019  1.00  0.00     0.101 C 
ATOM     20  C   UNL A   1      34.559  20.864  24.998  1.00  0.00     0.223 C 
ATOM     21  O   UNL A   1      34.651  19.652  25.080  1.00  0.00    -0.275 OA
BRANCH   9  22
ATOM     22  C   UNL A   1      33.312  28.633  25.463  1.00  0.00     0.043 A 
ATOM     23  C   UNL A   1      34.108  31.700  28.402  1.00  0.00     0.048 C 
ATOM     24  C   UNL A   1      33.787  30.628  27.401  1.00  0.00    -0.009 A 
ATOM     25  C   UNL A   1      34.690  29.573  27.228  1.00  0.00     0.008 A 
ATOM     26  C   UNL A   1      32.647  30.668  26.588  1.00  0.00     0.119 A 
ATOM     27  C   UNL A   1      34.464  28.599  26.254  1.00  0.00     0.014 A 
ATOM     28  C   UNL A   1      32.400  29.677  25.637  1.00  0.00     0.060 A 
BRANCH  26  29
ATOM     29  O   UNL A   1      31.737  31.686  26.645  1.00  0.00    -0.508 OA
ATOM     30  H   UNL A   1      30.842  31.526  26.417  1.00  0.00     0.293 HD
ENDBRANCH  26  29
ENDBRANCH   9  22
ENDBRANCH   7   8
ENDBRANCH   5   7
ENDBRANCH   4   5
ENDBRANCH   3   4
ENDBRANCH   2   3
ENDBRANCH   1   2
BRANCH   1  31
ATOM     31  C   UNL A   1      42.104  19.032  27.176  1.00  0.00     0.202 C 
BRANCH  31  32
ATOM     32  C   UNL A   1      42.491  18.749  25.723  1.00  0.00     0.261 C 
BRANCH  32  33
ATOM     33  O   UNL A   1      43.915  18.828  25.573  1.00  0.00    -0.460 OA
BRANCH  33  34
ATOM     34  C   UNL A   1      44.350  19.696  24.648  1.00  0.00     0.338 C 
ATOM     35  O   UNL A   1      44.728  19.446  23.509  1.00  0.00    -0.246 OA
BRANCH  34  36
ATOM     36  C   UNL A   1      44.160  21.058  25.165  1.00  0.00     0.060 A 
ATOM     37  C   UNL A   1      43.891  22.085  24.253  1.00  0.00     0.016 A 
ATOM     38  C   UNL A   1      44.362  21.337  26.517  1.00  0.00     0.016 A 
ATOM     39  C   UNL A   1      43.903  23.412  24.683  1.00  0.00     0.010 A 
ATOM     40  C   UNL A   1      44.372  22.669  26.945  1.00  0.00     0.010 A 
ATOM     41  C   UNL A   1      44.193  23.715  26.022  1.00  0.00    -0.014 A 
BRANCH  41  42
ATOM     42  C   UNL A   1      44.467  25.119  26.421  1.00  0.00     0.031 A 
ATOM     43  C   UNL A   1      45.869  25.654  26.295  1.00  0.00     0.074 A 
ATOM     44  C   UNL A   1      43.487  25.912  26.892  1.00  0.00     0.049 A 
ATOM     45  N   UNL A   1      46.334  26.837  26.606  1.00  0.00    -0.248 NA
ATOM     46  C   UNL A   1      46.883  24.736  25.748  1.00  0.00     0.031 C 
ATOM     47  C   UNL A   1      42.091  25.517  27.062  1.00  0.00     0.029 A 
ATOM     48  N   UNL A   1      43.528  27.210  27.339  1.00  0.00    -0.354 N 
ATOM     49  C   UNL A   1      47.694  26.798  26.317  1.00  0.00     0.074 A 
ATOM     50  C   UNL A   1      47.982  25.473  25.814  1.00  0.00     0.031 C 
ATOM     51  C   UNL A   1      41.412  26.543  27.606  1.00  0.00     0.029 A 
ATOM     52  C   UNL A   1      42.329  27.658  27.840  1.00  0.00     0.049 A 
ATOM     53  H   UNL A   1      44.339  27.767  27.304  1.00  0.00     0.167 HD
ATOM     54  C   UNL A   1      48.616  27.782  26.440  1.00  0.00     0.034 A 
ATOM     55  C   UNL A   1      42.010  28.826  28.434  1.00  0.00     0.034 A 
ATOM     56  C   UNL A   1      48.330  29.109  26.911  1.00  0.00     0.049 A 
ATOM     57  C   UNL A   1      43.059  29.899  28.574  1.00  0.00     0.074 A 
ATOM     58  C   UNL A   1      49.193  30.185  27.022  1.00  0.00     0.029 A 
ATOM     59  N   UNL A   1      47.090  29.541  27.353  1.00  0.00    -0.354 N 
ATOM     60  N   UNL A   1      44.308  29.889  28.174  1.00  0.00    -0.248 NA
ATOM     61  C   UNL A   1      42.649  31.158  29.215  1.00  0.00     0.031 C 
ATOM     62  C   UNL A   1      48.477  31.265  27.547  1.00  0.00     0.029 A 
ATOM     63  C   UNL A   1      47.167  30.865  27.747  1.00  0.00     0.049 A 
ATOM     64  H   UNL A   1      46.276  28.988  27.382  1.00  0.00     0.167 HD
ATOM     65  C   UNL A   1      44.818  31.148  28.478  1.00  0.00     0.074 A 
ATOM     66  C   UNL A   1      43.741  31.900  29.085  1.00  0.00     0.031 C 
ATOM     67  C   UNL A   1      46.070  31.630  28.283  1.00  0.00     0.034 A 
BRANCH  54  68
ATOM     68  C   UNL A   1      50.027  27.475  26.018  1.00  0.00     0.023 A 
ATOM     69  C   UNL A   1      50.948  27.009  26.976  1.00  0.00     0.012 A 
ATOM     70  C   UNL A   1      50.419  27.574  24.669  1.00  0.00     0.148 A 
ATOM     71  C   UNL A   1      52.246  26.663  26.603  1.00  0.00     0.002 A 
ATOM     72  C   UNL A   1      51.704  27.193  24.298  1.00  0.00     0.091 A 
ATOM     73  F   UNL A   1      49.535  28.044  23.778  1.00  0.00    -0.205 F 
ATOM     74  C   UNL A   1      52.620  26.745  25.264  1.00  0.00     0.022 A 
BRANCH  72  75
ATOM     75  S   UNL A   1      52.251  27.195  22.587  1.00  0.00     0.127 S 
ATOM     76  O   UNL A   1      53.244  26.122  22.593  1.00  0.00    -0.237 OA
ATOM     77  O   UNL A   1      51.018  26.880  21.865  1.00  0.00    -0.237 OA
ATOM     78  O   UNL A   1      52.772  28.532  22.337  1.00  0.00    -0.744 OA
ENDBRANCH  72  75
ENDBRANCH  54  68
BRANCH  55  79
ATOM     79  C   UNL A   1      40.617  29.058  28.910  1.00  0.00     0.023 A 
ATOM     80  C   UNL A   1      39.611  29.380  27.979  1.00  0.00     0.012 A 
ATOM     81  C   UNL A   1      40.280  28.939  30.272  1.00  0.00     0.148 A 
ATOM     82  C   UNL A   1      38.299  29.603  28.400  1.00  0.00     0.002 A 
ATOM     83  C   UNL A   1      38.962  29.109  30.678  1.00  0.00     0.091 A 
ATOM     84  F   UNL A   1      41.256  28.658  31.148  1.00  0.00    -0.205 F 
ATOM     85  C   UNL A   1      37.971  29.456  29.746  1.00  0.00     0.022 A 
BRANCH  83  86
ATOM     86  S   UNL A   1      38.440  28.807  32.371  1.00  0.00     0.127 S 
ATOM     87  O   UNL A   1      38.765  27.394  32.538  1.00  0.00    -0.237 OA
ATOM     88  O   UNL A   1      39.291  29.730  33.125  1.00  0.00    -0.237 OA
ATOM     89  O   UNL A   1      37.023  29.146  32.406  1.00  0.00    -0.744 OA
ENDBRANCH  83  86
ENDBRANCH  55  79
BRANCH  67  90
ATOM     90  C   UNL A   1      46.356  33.053  28.686  1.00  0.00     0.023 A 
ATOM     91  C   UNL A   1      47.047  33.312  29.885  1.00  0.00     0.012 A 
ATOM     92  C   UNL A   1      46.040  34.121  27.823  1.00  0.00     0.148 A 
ATOM     93  C   UNL A   1      47.405  34.615  30.229  1.00  0.00     0.002 A 
ATOM     94  C   UNL A   1      46.435  35.413  28.152  1.00  0.00     0.091 A 
ATOM     95  F   UNL A   1      45.366  33.855  26.695  1.00  0.00    -0.205 F 
ATOM     96  C   UNL A   1      47.112  35.662  29.357  1.00  0.00     0.022 A 
BRANCH  94  97
ATOM     97  S   UNL A   1      46.181  36.809  27.049  1.00  0.00     0.127 S 
ATOM     98  O   UNL A   1      46.928  36.390  25.864  1.00  0.00    -0.237 OA
ATOM     99  O   UNL A   1      44.728  36.815  26.883  1.00  0.00    -0.237 OA
ATOM    100  O   UNL A   1      46.714  37.973  27.745  1.00  0.00    -0.744 OA
ENDBRANCH  94  97
ENDBRANCH  67  90
ENDBRANCH  41  42
ENDBRANCH  34  36
ENDBRANCH  33  34
ENDBRANCH  32  33
ENDBRANCH  31  32
ENDBRANCH   1  31
TORSDOF 20
ENDMDL
MODEL 3
REMARK VINA RESULT:     -11.2      2.508      8.773
REMARK SMILES Cc1ccc(C(=O)N2CCC3(CCC(=O)N(CC(=O)OCCOCCOC(=O)c4ccc(-c5c6nc(c(-c7cccc(S(=O)(=O)[O-])c7F)c7ccc([nH]7)c(-c7cccc(S(=O)(=O)[O-])c7F)c7nc(c(-c8cccc(S(=O)(=O)[O-])c8F)c8ccc5[nH]8)C=C7)C=C6)cc4)C3)CC2)cc1O
REMARK SMILES IDX 23 1 22 2 21 3 20 4 18 5 19 6 17 7 16 8 6 9 7 10 8 11 9 12
REMARK SMILES IDX 94 13 10 14 93 15 11 16 12 17 92 18 13 19 14 20 15 21 5 22
REMARK SMILES IDX 1 23 2 24 3 25 96 26 4 27 95 28 97 29 24 31 25 32 26 33
REMARK SMILES IDX 27 34 28 35 29 36 30 37 91 38 31 39 90 40 32 41 33 42 34 43
REMARK SMILES IDX 84 44 35 45 89 46 83 47 85 48 36 49 88 50 82 51 81 52 37 54
REMARK SMILES IDX 69 55 49 56 68 57 50 58 53 59 67 60 86 61 51 62 52 63 66 65
REMARK SMILES IDX 87 66 54 67 38 68 39 69 47 70 40 71 42 72 48 73 41 74 43 75
REMARK SMILES IDX 44 76 45 77 46 78 70 79 71 80 79 81 72 82 74 83 80 84 73 85
REMARK SMILES IDX 75 86 76 87 77 88 78 89 55 90 56 91 64 92 57 93 59 94 65 95
REMARK SMILES IDX 58 96 60 97 61 98 62 99 63 100
REMARK H PARENT 97 30 85 53 53 64
REMARK Flexibility Score: inf
ROOT
ATOM      1  O   UNL A   1      40.025  21.361  25.965  1.00  0.00    -0.374 OA
ENDROOT
BRANCH   1   2
ATOM      2  C   UNL A   1      38.707  21.899  26.115  1.00  0.00     0.202 C 
BRANCH   2   3
ATOM      3  C   UNL A   1      37.751  21.696  24.933  1.00  0.00     0.261 C 
BRANCH   3   4
ATOM      4  O   UNL A   1      36.395  22.092  25.211  1.00  0.00    -0.462 OA
BRANCH   4   5
ATOM      5  C   UNL A   1      35.524  21.074  25.421  1.00  0.00     0.325 C 
ATOM      6  O   UNL A   1      35.666  19.928  24.998  1.00  0.00    -0.250 OA
BRANCH   5   7
ATOM      7  C   UNL A   1      34.371  21.411  26.361  1.00  0.00     0.242 C 
BRANCH   7   8
ATOM      8  N   UNL A   1      32.972  21.430  25.929  1.00  0.00    -0.331 N 
ATOM      9  C   UNL A   1      33.157  27.026  22.613  1.00  0.00     0.253 C 
ATOM     10  O   UNL A   1      33.979  27.217  21.716  1.00  0.00    -0.269 OA
ATOM     11  N   UNL A   1      32.728  25.752  22.957  1.00  0.00    -0.339 N 
ATOM     12  C   UNL A   1      33.656  24.650  22.800  1.00  0.00     0.120 C 
ATOM     13  C   UNL A   1      31.341  25.391  23.236  1.00  0.00     0.120 C 
ATOM     14  C   UNL A   1      33.655  23.825  24.083  1.00  0.00     0.030 C 
ATOM     15  C   UNL A   1      31.235  24.489  24.465  1.00  0.00     0.030 C 
ATOM     16  C   UNL A   1      32.240  23.308  24.461  1.00  0.00    -0.008 C 
ATOM     17  C   UNL A   1      31.755  22.217  23.469  1.00  0.00     0.019 C 
ATOM     18  C   UNL A   1      32.262  22.694  25.886  1.00  0.00     0.127 C 
ATOM     19  C   UNL A   1      32.529  20.918  23.611  1.00  0.00     0.101 C 
ATOM     20  C   UNL A   1      32.538  20.456  25.048  1.00  0.00     0.223 C 
ATOM     21  O   UNL A   1      32.331  19.293  25.346  1.00  0.00    -0.275 OA
BRANCH   9  22
ATOM     22  C   UNL A   1      32.753  28.176  23.472  1.00  0.00     0.043 A 
ATOM     23  C   UNL A   1      31.416  31.041  26.419  1.00  0.00     0.048 C 
ATOM     24  C   UNL A   1      31.918  30.075  25.385  1.00  0.00    -0.009 A 
ATOM     25  C   UNL A   1      31.035  29.619  24.400  1.00  0.00     0.008 A 
ATOM     26  C   UNL A   1      33.222  29.564  25.396  1.00  0.00     0.119 A 
ATOM     27  C   UNL A   1      31.443  28.664  23.468  1.00  0.00     0.014 A 
ATOM     28  C   UNL A   1      33.645  28.635  24.445  1.00  0.00     0.060 A 
BRANCH  26  29
ATOM     29  O   UNL A   1      34.139  29.906  26.350  1.00  0.00    -0.508 OA
ATOM     30  H   UNL A   1      33.880  29.962  27.248  1.00  0.00     0.293 HD
ENDBRANCH  26  29
ENDBRANCH   9  22
ENDBRANCH   7   8
ENDBRANCH   5   7
ENDBRANCH   4   5
ENDBRANCH   3   4
ENDBRANCH   2   3
ENDBRANCH   1   2
BRANCH   1  31
ATOM     31  C   UNL A   1      40.417  20.333  26.882  1.00  0.00     0.202 C 
BRANCH  31  32
ATOM     32  C   UNL A   1      41.706  19.587  26.532  1.00  0.00     0.261 C 
BRANCH  32  33
ATOM     33  O   UNL A   1      42.310  20.172  25.370  1.00  0.00    -0.460 OA
BRANCH  33  34
ATOM     34  C   UNL A   1      43.647  20.095  25.314  1.00  0.00     0.338 C 
ATOM     35  O   UNL A   1      44.326  19.122  25.006  1.00  0.00    -0.246 OA
BRANCH  34  36
ATOM     36  C   UNL A   1      44.199  21.437  25.539  1.00  0.00     0.060 A 
ATOM     37  C   UNL A   1      44.713  21.743  26.805  1.00  0.00     0.016 A 
ATOM     38  C   UNL A   1      44.103  22.418  24.551  1.00  0.00     0.016 A 
ATOM     39  C   UNL A   1      45.059  23.060  27.111  1.00  0.00     0.010 A 
ATOM     40  C   UNL A   1      44.453  23.737  24.861  1.00  0.00     0.010 A 
ATOM     41  C   UNL A   1      44.884  24.073  26.157  1.00  0.00    -0.014 A 
BRANCH  41  42
ATOM     42  C   UNL A   1      44.998  25.497  26.561  1.00  0.00     0.031 A 
ATOM     43  C   UNL A   1      46.349  26.161  26.527  1.00  0.00     0.074 A 
ATOM     44  C   UNL A   1      43.918  26.197  26.956  1.00  0.00     0.049 A 
ATOM     45  N   UNL A   1      46.679  27.382  26.859  1.00  0.00    -0.248 NA
ATOM     46  C   UNL A   1      47.479  25.340  26.060  1.00  0.00     0.031 C 
ATOM     47  C   UNL A   1      42.556  25.674  27.033  1.00  0.00     0.029 A 
ATOM     48  N   UNL A   1      43.807  27.494  27.393  1.00  0.00    -0.354 N 
ATOM     49  C   UNL A   1      48.054  27.470  26.664  1.00  0.00     0.074 A 
ATOM     50  C   UNL A   1      48.498  26.176  26.194  1.00  0.00     0.031 C 
ATOM     51  C   UNL A   1      41.749  26.633  27.520  1.00  0.00     0.029 A 
ATOM     52  C   UNL A   1      42.540  27.830  27.806  1.00  0.00     0.049 A 
ATOM     53  H   UNL A   1      44.564  28.124  27.409  1.00  0.00     0.167 HD
ATOM     54  C   UNL A   1      48.870  28.536  26.841  1.00  0.00     0.034 A 
ATOM     55  C   UNL A   1      42.074  28.964  28.366  1.00  0.00     0.034 A 
ATOM     56  C   UNL A   1      48.430  29.832  27.279  1.00  0.00     0.049 A 
ATOM     57  C   UNL A   1      43.006  30.132  28.568  1.00  0.00     0.074 A 
ATOM     58  C   UNL A   1      49.180  30.985  27.440  1.00  0.00     0.029 A 
ATOM     59  N   UNL A   1      47.128  30.148  27.631  1.00  0.00    -0.354 N 
ATOM     60  N   UNL A   1      44.275  30.237  28.255  1.00  0.00    -0.248 NA
ATOM     61  C   UNL A   1      42.437  31.349  29.168  1.00  0.00     0.031 C 
ATOM     62  C   UNL A   1      48.332  31.994  27.904  1.00  0.00     0.029 A 
ATOM     63  C   UNL A   1      47.054  31.474  28.017  1.00  0.00     0.049 A 
ATOM     64  H   UNL A   1      46.369  29.521  27.609  1.00  0.00     0.167 HD
ATOM     65  C   UNL A   1      44.644  31.538  28.582  1.00  0.00     0.074 A 
ATOM     66  C   UNL A   1      43.462  32.189  29.106  1.00  0.00     0.031 C 
ATOM     67  C   UNL A   1      45.856  32.135  28.469  1.00  0.00     0.034 A 
BRANCH  54  68
ATOM     68  C   UNL A   1      50.329  28.361  26.520  1.00  0.00     0.023 A 
ATOM     69  C   UNL A   1      50.784  28.614  25.211  1.00  0.00     0.012 A 
ATOM     70  C   UNL A   1      51.257  28.024  27.524  1.00  0.00     0.148 A 
ATOM     71  C   UNL A   1      52.139  28.516  24.900  1.00  0.00     0.002 A 
ATOM     72  C   UNL A   1      52.612  27.963  27.214  1.00  0.00     0.091 A 
ATOM     73  F   UNL A   1      50.801  27.762  28.756  1.00  0.00    -0.205 F 
ATOM     74  C   UNL A   1      53.053  28.202  25.902  1.00  0.00     0.022 A 
BRANCH  72  75
ATOM     75  S   UNL A   1      53.868  27.637  28.455  1.00  0.00     0.127 S 
ATOM     76  O   UNL A   1      55.093  27.700  27.660  1.00  0.00    -0.237 OA
ATOM     77  O   UNL A   1      53.687  28.753  29.384  1.00  0.00    -0.237 OA
ATOM     78  O   UNL A   1      53.548  26.331  29.013  1.00  0.00    -0.744 OA
ENDBRANCH  72  75
ENDBRANCH  54  68
BRANCH  55  79
ATOM     79  C   UNL A   1      40.635  29.067  28.743  1.00  0.00     0.023 A 
ATOM     80  C   UNL A   1      39.669  29.278  27.741  1.00  0.00     0.012 A 
ATOM     81  C   UNL A   1      40.219  28.934  30.081  1.00  0.00     0.148 A 
ATOM     82  C   UNL A   1      38.316  29.378  28.068  1.00  0.00     0.002 A 
ATOM     83  C   UNL A   1      38.865  28.981  30.395  1.00  0.00     0.091 A 
ATOM     84  F   UNL A   1      41.155  28.761  31.026  1.00  0.00    -0.205 F 
ATOM     85  C   UNL A   1      37.912  29.218  29.392  1.00  0.00     0.022 A 
BRANCH  83  86
ATOM     86  S   UNL A   1      38.259  28.653  32.054  1.00  0.00     0.127 S 
ATOM     87  O   UNL A   1      39.032  29.601  32.850  1.00  0.00    -0.237 OA
ATOM     88  O   UNL A   1      36.835  28.969  31.930  1.00  0.00    -0.237 OA
ATOM     89  O   UNL A   1      38.535  27.243  32.295  1.00  0.00    -0.744 OA
ENDBRANCH  83  86
ENDBRANCH  55  79
BRANCH  67  90
ATOM     90  C   UNL A   1      45.979  33.579  28.878  1.00  0.00     0.023 A 
ATOM     91  C   UNL A   1      46.462  33.902  30.161  1.00  0.00     0.012 A 
ATOM     92  C   UNL A   1      45.725  34.611  27.953  1.00  0.00     0.148 A 
ATOM     93  C   UNL A   1      46.674  35.231  30.524  1.00  0.00     0.002 A 
ATOM     94  C   UNL A   1      45.978  35.933  28.308  1.00  0.00     0.091 A 
ATOM     95  F   UNL A   1      45.250  34.285  26.743  1.00  0.00    -0.205 F 
ATOM     96  C   UNL A   1      46.446  36.244  29.595  1.00  0.00     0.022 A 
BRANCH  94  97
ATOM     97  S   UNL A   1      45.799  37.293  27.147  1.00  0.00     0.127 S 
ATOM     98  O   UNL A   1      44.363  37.268  26.879  1.00  0.00    -0.237 OA
ATOM     99  O   UNL A   1      46.251  38.438  27.937  1.00  0.00    -0.237 OA
ATOM    100  O   UNL A   1      46.654  36.967  26.013  1.00  0.00    -0.744 OA
ENDBRANCH  94  97
ENDBRANCH  67  90
ENDBRANCH  41  42
ENDBRANCH  34  36
ENDBRANCH  33  34
ENDBRANCH  32  33
ENDBRANCH  31  32
ENDBRANCH   1  31
TORSDOF 20
ENDMDL
