MODEL 1
REMARK VINA RESULT:      -9.8      0.000      0.000
REMARK SMILES [NH3+][C@]1(C(=O)OCCOCCOC(=O)c2ccc(-c3c4nc(c(-c5cccc(S(=O)(=O)[O-])c5F)c5ccc([nH]5)c(-c5cccc(S(=O)(=O)[O-])c5F)c5nc(c(-c6cccc(S(=O)(=O)[O-])c6F)c6ccc3[nH]6)C=C5)C=C4)cc2)CCC[C@@H]1CCOc1ccc(CO)cc1
REMARK SMILES IDX 6 1 5 2 3 3 4 4 2 5 77 6 80 7 78 8 79 9 1 10 81 14 82 15
REMARK SMILES IDX 83 16 84 17 85 18 91 19 86 20 90 21 87 22 88 23 89 24 7 26
REMARK SMILES IDX 8 27 9 28 10 29 11 30 12 31 13 32 14 33 15 34 76 35 16 36
REMARK SMILES IDX 75 37 17 38 18 39 19 40 69 41 20 42 74 43 68 44 70 45 21 46
REMARK SMILES IDX 73 47 67 48 66 49 22 51 54 52 34 53 53 54 35 55 38 56 52 57
REMARK SMILES IDX 71 58 36 59 37 60 51 62 72 63 39 64 23 65 24 66 32 67 25 68
REMARK SMILES IDX 27 69 33 70 26 71 28 72 29 73 30 74 31 75 55 76 56 77 64 78
REMARK SMILES IDX 57 79 59 80 65 81 58 82 60 83 61 84 62 85 63 86 40 87 41 88
REMARK SMILES IDX 49 89 42 90 44 91 50 92 43 93 45 94 46 95 47 96 48 97
REMARK H PARENT 1 11 1 12 1 13 89 25 70 50 38 61
REMARK Flexibility Score: inf
ROOT
ATOM      1  C   UNL A   1      35.076  20.754  25.402  1.00  0.00     0.261 C 
ENDROOT
BRANCH   1   2
ATOM      2  O   UNL A   1      34.012  21.094  24.490  1.00  0.00    -0.459 OA
BRANCH   2   3
ATOM      3  C   UNL A   1      32.769  21.053  25.030  1.00  0.00     0.368 C 
ATOM      4  O   UNL A   1      32.184  20.020  25.359  1.00  0.00    -0.245 OA
BRANCH   3   5
ATOM      5  C   UNL A   1      32.121  22.435  25.287  1.00  0.00     0.195 C 
ATOM      6  C   UNL A   1      30.769  22.199  26.000  1.00  0.00     0.081 C 
ATOM      7  C   UNL A   1      32.777  23.452  26.261  1.00  0.00     0.066 C 
ATOM      8  C   UNL A   1      30.321  23.560  26.501  1.00  0.00     0.008 C 
ATOM      9  C   UNL A   1      31.596  24.392  26.580  1.00  0.00     0.011 C 
BRANCH   5  10
ATOM     10  N   UNL A   1      31.860  23.058  23.957  1.00  0.00    -0.343 N 
ATOM     11  H   UNL A   1      31.013  22.658  23.554  1.00  0.00     0.345 HD
ATOM     12  H   UNL A   1      32.649  22.878  23.336  1.00  0.00     0.345 HD
ATOM     13  H   UNL A   1      31.740  24.065  24.070  1.00  0.00     0.345 HD
ENDBRANCH   5  10
BRANCH   7  14
ATOM     14  C   UNL A   1      34.080  24.136  25.763  1.00  0.00     0.052 C 
BRANCH  14  15
ATOM     15  C   UNL A   1      33.982  25.547  25.139  1.00  0.00     0.230 C 
BRANCH  15  16
ATOM     16  O   UNL A   1      33.454  25.603  23.802  1.00  0.00    -0.494 OA
BRANCH  16  17
ATOM     17  C   UNL A   1      32.627  26.667  23.598  1.00  0.00     0.119 A 
ATOM     18  C   UNL A   1      33.092  27.887  23.107  1.00  0.00     0.047 A 
ATOM     19  C   UNL A   1      31.280  26.490  23.895  1.00  0.00     0.047 A 
ATOM     20  C   UNL A   1      32.168  28.881  22.766  1.00  0.00     0.010 A 
ATOM     21  C   UNL A   1      30.359  27.470  23.538  1.00  0.00     0.010 A 
ATOM     22  C   UNL A   1      30.790  28.650  22.914  1.00  0.00    -0.022 A 
BRANCH  22  23
ATOM     23  C   UNL A   1      29.782  29.634  22.388  1.00  0.00     0.191 C 
BRANCH  23  24
ATOM     24  O   UNL A   1      30.275  30.323  21.254  1.00  0.00    -0.392 OA
ATOM     25  H   UNL A   1      29.901  29.932  20.449  1.00  0.00     0.211 HD
ENDBRANCH  23  24
ENDBRANCH  22  23
ENDBRANCH  16  17
ENDBRANCH  15  16
ENDBRANCH  14  15
ENDBRANCH   7  14
ENDBRANCH   3   5
ENDBRANCH   2   3
ENDBRANCH   1   2
BRANCH   1  26
ATOM     26  C   UNL A   1      36.469  21.127  24.873  1.00  0.00     0.202 C 
BRANCH  26  27
ATOM     27  O   UNL A   1      37.140  22.218  25.507  1.00  0.00    -0.374 OA
BRANCH  27  28
ATOM     28  C   UNL A   1      38.410  21.925  26.083  1.00  0.00     0.202 C 
BRANCH  28  29
ATOM     29  C   UNL A   1      39.082  20.604  25.707  1.00  0.00     0.261 C 
BRANCH  29  30
ATOM     30  O   UNL A   1      39.994  20.180  26.728  1.00  0.00    -0.460 OA
BRANCH  30  31
ATOM     31  C   UNL A   1      41.261  20.026  26.288  1.00  0.00     0.338 C 
ATOM     32  O   UNL A   1      41.696  19.095  25.617  1.00  0.00    -0.246 OA
BRANCH  31  33
ATOM     33  C   UNL A   1      42.052  21.234  26.560  1.00  0.00     0.060 A 
ATOM     34  C   UNL A   1      42.331  21.505  27.904  1.00  0.00     0.016 A 
ATOM     35  C   UNL A   1      42.437  22.123  25.553  1.00  0.00     0.016 A 
ATOM     36  C   UNL A   1      42.883  22.725  28.261  1.00  0.00     0.010 A 
ATOM     37  C   UNL A   1      43.000  23.350  25.914  1.00  0.00     0.010 A 
ATOM     38  C   UNL A   1      43.151  23.680  27.273  1.00  0.00    -0.014 A 
BRANCH  38  39
ATOM     39  C   UNL A   1      43.377  25.078  27.704  1.00  0.00     0.031 A 
ATOM     40  C   UNL A   1      44.770  25.644  27.631  1.00  0.00     0.074 A 
ATOM     41  C   UNL A   1      42.347  25.853  28.077  1.00  0.00     0.049 A 
ATOM     42  N   UNL A   1      45.184  26.859  27.878  1.00  0.00    -0.248 NA
ATOM     43  C   UNL A   1      45.840  24.714  27.232  1.00  0.00     0.031 C 
ATOM     44  C   UNL A   1      40.958  25.410  28.189  1.00  0.00     0.029 A 
ATOM     45  N   UNL A   1      42.315  27.173  28.442  1.00  0.00    -0.354 N 
ATOM     46  C   UNL A   1      46.561  26.833  27.697  1.00  0.00     0.074 A 
ATOM     47  C   UNL A   1      46.917  25.476  27.343  1.00  0.00     0.031 C 
ATOM     48  C   UNL A   1      40.210  26.438  28.622  1.00  0.00     0.029 A 
ATOM     49  C   UNL A   1      41.071  27.602  28.831  1.00  0.00     0.049 A 
ATOM     50  H   UNL A   1      43.108  27.756  28.427  1.00  0.00     0.167 HD
ATOM     51  C   UNL A   1      47.451  27.849  27.798  1.00  0.00     0.034 A 
ATOM     52  C   UNL A   1      40.676  28.793  29.318  1.00  0.00     0.034 A 
ATOM     53  C   UNL A   1      47.088  29.199  28.134  1.00  0.00     0.049 A 
ATOM     54  C   UNL A   1      41.673  29.914  29.413  1.00  0.00     0.074 A 
ATOM     55  C   UNL A   1      47.898  30.317  28.205  1.00  0.00     0.029 A 
ATOM     56  N   UNL A   1      45.807  29.610  28.476  1.00  0.00    -0.354 N 
ATOM     57  N   UNL A   1      42.951  29.909  29.117  1.00  0.00    -0.248 NA
ATOM     58  C   UNL A   1      41.166  31.217  29.863  1.00  0.00     0.031 C 
ATOM     59  C   UNL A   1      47.115  31.397  28.630  1.00  0.00     0.029 A 
ATOM     60  C   UNL A   1      45.807  30.961  28.776  1.00  0.00     0.049 A 
ATOM     61  H   UNL A   1      45.015  29.026  28.501  1.00  0.00     0.167 HD
ATOM     62  C   UNL A   1      43.396  31.212  29.314  1.00  0.00     0.074 A 
ATOM     63  C   UNL A   1      42.242  31.982  29.735  1.00  0.00     0.031 C 
ATOM     64  C   UNL A   1      44.644  31.722  29.163  1.00  0.00     0.034 A 
BRANCH  51  65
ATOM     65  C   UNL A   1      48.902  27.526  27.544  1.00  0.00     0.023 A 
ATOM     66  C   UNL A   1      49.722  27.073  28.599  1.00  0.00     0.012 A 
ATOM     67  C   UNL A   1      49.453  27.666  26.256  1.00  0.00     0.148 A 
ATOM     68  C   UNL A   1      51.078  26.819  28.387  1.00  0.00     0.002 A 
ATOM     69  C   UNL A   1      50.792  27.360  26.042  1.00  0.00     0.091 A 
ATOM     70  F   UNL A   1      48.668  28.122  25.269  1.00  0.00    -0.205 F 
ATOM     71  C   UNL A   1      51.610  26.953  27.108  1.00  0.00     0.022 A 
BRANCH  69  72
ATOM     72  S   UNL A   1      51.544  27.423  24.412  1.00  0.00     0.127 S 
ATOM     73  O   UNL A   1      52.346  28.643  24.503  1.00  0.00    -0.237 OA
ATOM     74  O   UNL A   1      52.321  26.184  24.383  1.00  0.00    -0.237 OA
ATOM     75  O   UNL A   1      50.440  27.466  23.464  1.00  0.00    -0.744 OA
ENDBRANCH  69  72
ENDBRANCH  51  65
BRANCH  52  76
ATOM     76  C   UNL A   1      39.256  28.975  29.721  1.00  0.00     0.023 A 
ATOM     77  C   UNL A   1      38.843  28.648  31.025  1.00  0.00     0.012 A 
ATOM     78  C   UNL A   1      38.328  29.545  28.826  1.00  0.00     0.148 A 
ATOM     79  C   UNL A   1      37.524  28.867  31.427  1.00  0.00     0.002 A 
ATOM     80  C   UNL A   1      37.035  29.816  29.249  1.00  0.00     0.091 A 
ATOM     81  F   UNL A   1      38.746  29.841  27.586  1.00  0.00    -0.205 F 
ATOM     82  C   UNL A   1      36.626  29.463  30.544  1.00  0.00     0.022 A 
BRANCH  80  83
ATOM     83  S   UNL A   1      35.855  30.710  28.232  1.00  0.00     0.127 S 
ATOM     84  O   UNL A   1      36.676  31.800  27.712  1.00  0.00    -0.237 OA
ATOM     85  O   UNL A   1      35.482  29.693  27.248  1.00  0.00    -0.237 OA
ATOM     86  O   UNL A   1      34.778  31.107  29.129  1.00  0.00    -0.744 OA
ENDBRANCH  80  83
ENDBRANCH  52  76
BRANCH  64  87
ATOM     87  C   UNL A   1      44.827  33.198  29.417  1.00  0.00     0.023 A 
ATOM     88  C   UNL A   1      45.158  33.659  30.707  1.00  0.00     0.012 A 
ATOM     89  C   UNL A   1      44.724  34.122  28.359  1.00  0.00     0.148 A 
ATOM     90  C   UNL A   1      45.339  35.022  30.948  1.00  0.00     0.002 A 
ATOM     91  C   UNL A   1      44.959  35.471  28.595  1.00  0.00     0.091 A 
ATOM     92  F   UNL A   1      44.390  33.668  27.142  1.00  0.00    -0.205 F 
ATOM     93  C   UNL A   1      45.251  35.925  29.891  1.00  0.00     0.022 A 
BRANCH  91  94
ATOM     94  S   UNL A   1      44.966  36.688  27.274  1.00  0.00     0.127 S 
ATOM     95  O   UNL A   1      45.577  37.840  27.933  1.00  0.00    -0.237 OA
ATOM     96  O   UNL A   1      45.808  36.046  26.264  1.00  0.00    -0.237 OA
ATOM     97  O   UNL A   1      43.574  36.856  26.878  1.00  0.00    -0.744 OA
ENDBRANCH  91  94
ENDBRANCH  64  87
ENDBRANCH  38  39
ENDBRANCH  31  33
ENDBRANCH  30  31
ENDBRANCH  29  30
ENDBRANCH  28  29
ENDBRANCH  27  28
ENDBRANCH  26  27
ENDBRANCH   1  26
TORSDOF 24
ENDMDL
MODEL 2
REMARK VINA RESULT:      -9.3      3.381      5.501
REMARK SMILES [NH3+][C@]1(C(=O)OCCOCCOC(=O)c2ccc(-c3c4nc(c(-c5cccc(S(=O)(=O)[O-])c5F)c5ccc([nH]5)c(-c5cccc(S(=O)(=O)[O-])c5F)c5nc(c(-c6cccc(S(=O)(=O)[O-])c6F)c6ccc3[nH]6)C=C5)C=C4)cc2)CCC[C@@H]1CCOc1ccc(CO)cc1
REMARK SMILES IDX 6 1 5 2 3 3 4 4 2 5 77 6 80 7 78 8 79 9 1 10 81 14 82 15
REMARK SMILES IDX 83 16 84 17 85 18 91 19 86 20 90 21 87 22 88 23 89 24 7 26
REMARK SMILES IDX 8 27 9 28 10 29 11 30 12 31 13 32 14 33 15 34 76 35 16 36
REMARK SMILES IDX 75 37 17 38 18 39 19 40 69 41 20 42 74 43 68 44 70 45 21 46
REMARK SMILES IDX 73 47 67 48 66 49 22 51 54 52 34 53 53 54 35 55 38 56 52 57
REMARK SMILES IDX 71 58 36 59 37 60 51 62 72 63 39 64 23 65 24 66 32 67 25 68
REMARK SMILES IDX 27 69 33 70 26 71 28 72 29 73 30 74 31 75 55 76 56 77 64 78
REMARK SMILES IDX 57 79 59 80 65 81 58 82 60 83 61 84 62 85 63 86 40 87 41 88
REMARK SMILES IDX 49 89 42 90 44 91 50 92 43 93 45 94 46 95 47 96 48 97
REMARK H PARENT 1 11 1 12 1 13 89 25 70 50 38 61
REMARK Flexibility Score: inf
ROOT
ATOM      1  C   UNL A   1      34.522  21.408  26.348  1.00  0.00     0.261 C 
ENDROOT
BRANCH   1   2
ATOM      2  O   UNL A   1      34.086  22.749  26.048  1.00  0.00    -0.459 OA
BRANCH   2   3
ATOM      3  C   UNL A   1      32.788  22.850  25.667  1.00  0.00     0.368 C 
ATOM      4  O   UNL A   1      31.838  22.376  26.290  1.00  0.00    -0.245 OA
BRANCH   3   5
ATOM      5  C   UNL A   1      32.546  23.689  24.388  1.00  0.00     0.195 C 
ATOM      6  C   UNL A   1      33.208  25.071  24.597  1.00  0.00     0.081 C 
ATOM      7  C   UNL A   1      33.182  23.275  23.033  1.00  0.00     0.066 C 
ATOM      8  C   UNL A   1      33.217  25.737  23.232  1.00  0.00     0.008 C 
ATOM      9  C   UNL A   1      33.105  24.592  22.233  1.00  0.00     0.011 C 
BRANCH   5  10
ATOM     10  N   UNL A   1      31.073  23.879  24.254  1.00  0.00    -0.343 N 
ATOM     11  H   UNL A   1      30.698  24.262  25.122  1.00  0.00     0.345 HD
ATOM     12  H   UNL A   1      30.630  22.980  24.062  1.00  0.00     0.345 HD
ATOM     13  H   UNL A   1      30.881  24.523  23.487  1.00  0.00     0.345 HD
ENDBRANCH   5  10
BRANCH   7  14
ATOM     14  C   UNL A   1      32.575  22.021  22.346  1.00  0.00     0.052 C 
BRANCH  14  15
ATOM     15  C   UNL A   1      32.161  20.821  23.229  1.00  0.00     0.230 C 
BRANCH  15  16
ATOM     16  O   UNL A   1      32.317  19.522  22.630  1.00  0.00    -0.494 OA
BRANCH  16  17
ATOM     17  C   UNL A   1      32.609  18.547  23.537  1.00  0.00     0.119 A 
ATOM     18  C   UNL A   1      32.367  18.705  24.901  1.00  0.00     0.047 A 
ATOM     19  C   UNL A   1      33.158  17.367  23.047  1.00  0.00     0.047 A 
ATOM     20  C   UNL A   1      32.534  17.609  25.755  1.00  0.00     0.010 A 
ATOM     21  C   UNL A   1      33.306  16.271  23.891  1.00  0.00     0.010 A 
ATOM     22  C   UNL A   1      32.937  16.365  25.241  1.00  0.00    -0.022 A 
BRANCH  22  23
ATOM     23  C   UNL A   1      32.949  15.138  26.110  1.00  0.00     0.191 C 
BRANCH  23  24
ATOM     24  O   UNL A   1      33.122  13.962  25.342  1.00  0.00    -0.392 OA
ATOM     25  H   UNL A   1      34.063  13.727  25.318  1.00  0.00     0.211 HD
ENDBRANCH  23  24
ENDBRANCH  22  23
ENDBRANCH  16  17
ENDBRANCH  15  16
ENDBRANCH  14  15
ENDBRANCH   7  14
ENDBRANCH   3   5
ENDBRANCH   2   3
ENDBRANCH   1   2
BRANCH   1  26
ATOM     26  C   UNL A   1      35.222  20.720  25.166  1.00  0.00     0.202 C 
BRANCH  26  27
ATOM     27  O   UNL A   1      35.976  21.548  24.280  1.00  0.00    -0.374 OA
BRANCH  27  28
ATOM     28  C   UNL A   1      37.390  21.374  24.308  1.00  0.00     0.202 C 
BRANCH  28  29
ATOM     29  C   UNL A   1      38.075  21.276  25.671  1.00  0.00     0.261 C 
BRANCH  29  30
ATOM     30  O   UNL A   1      38.940  22.397  25.896  1.00  0.00    -0.460 OA
BRANCH  30  31
ATOM     31  C   UNL A   1      38.279  23.536  26.194  1.00  0.00     0.338 C 
ATOM     32  O   UNL A   1      37.065  23.709  26.164  1.00  0.00    -0.246 OA
BRANCH  31  33
ATOM     33  C   UNL A   1      39.201  24.535  26.751  1.00  0.00     0.060 A 
ATOM     34  C   UNL A   1      39.115  24.761  28.129  1.00  0.00     0.016 A 
ATOM     35  C   UNL A   1      40.061  25.294  25.951  1.00  0.00     0.016 A 
ATOM     36  C   UNL A   1      39.793  25.828  28.697  1.00  0.00     0.010 A 
ATOM     37  C   UNL A   1      40.749  26.365  26.527  1.00  0.00     0.010 A 
ATOM     38  C   UNL A   1      40.553  26.677  27.885  1.00  0.00    -0.014 A 
BRANCH  38  39
ATOM     39  C   UNL A   1      40.946  27.994  28.435  1.00  0.00     0.031 A 
ATOM     40  C   UNL A   1      42.404  28.367  28.453  1.00  0.00     0.074 A 
ATOM     41  C   UNL A   1      40.014  28.872  28.837  1.00  0.00     0.049 A 
ATOM     42  N   UNL A   1      42.966  29.492  28.810  1.00  0.00    -0.248 NA
ATOM     43  C   UNL A   1      43.356  27.333  28.013  1.00  0.00     0.031 C 
ATOM     44  C   UNL A   1      38.575  28.616  28.869  1.00  0.00     0.029 A 
ATOM     45  N   UNL A   1      40.144  30.152  29.307  1.00  0.00    -0.354 N 
ATOM     46  C   UNL A   1      44.334  29.291  28.672  1.00  0.00     0.074 A 
ATOM     47  C   UNL A   1      44.519  27.929  28.220  1.00  0.00     0.031 C 
ATOM     48  C   UNL A   1      37.954  29.701  29.360  1.00  0.00     0.029 A 
ATOM     49  C   UNL A   1      38.954  30.716  29.690  1.00  0.00     0.049 A 
ATOM     50  H   UNL A   1      41.008  30.621  29.365  1.00  0.00     0.167 HD
ATOM     51  C   UNL A   1      45.347  30.165  28.883  1.00  0.00     0.034 A 
ATOM     52  C   UNL A   1      38.701  31.910  30.261  1.00  0.00     0.034 A 
ATOM     53  C   UNL A   1      45.154  31.522  29.316  1.00  0.00     0.049 A 
ATOM     54  C   UNL A   1      39.835  32.873  30.478  1.00  0.00     0.074 A 
ATOM     55  C   UNL A   1      46.103  32.510  29.504  1.00  0.00     0.029 A 
ATOM     56  N   UNL A   1      43.927  32.078  29.650  1.00  0.00    -0.354 N 
ATOM     57  N   UNL A   1      41.112  32.715  30.223  1.00  0.00    -0.248 NA
ATOM     58  C   UNL A   1      39.489  34.195  31.016  1.00  0.00     0.031 C 
ATOM     59  C   UNL A   1      45.454  33.651  29.991  1.00  0.00     0.029 A 
ATOM     60  C   UNL A   1      44.095  33.389  30.059  1.00  0.00     0.049 A 
ATOM     61  H   UNL A   1      43.064  31.608  29.603  1.00  0.00     0.167 HD
ATOM     62  C   UNL A   1      41.719  33.926  30.539  1.00  0.00     0.074 A 
ATOM     63  C   UNL A   1      40.662  34.812  30.985  1.00  0.00     0.031 C 
ATOM     64  C   UNL A   1      43.029  34.271  30.470  1.00  0.00     0.034 A 
BRANCH  51  65
ATOM     65  C   UNL A   1      46.751  29.667  28.649  1.00  0.00     0.023 A 
ATOM     66  C   UNL A   1      47.351  29.810  27.380  1.00  0.00     0.012 A 
ATOM     67  C   UNL A   1      47.480  29.060  29.690  1.00  0.00     0.148 A 
ATOM     68  C   UNL A   1      48.630  29.308  27.138  1.00  0.00     0.002 A 
ATOM     69  C   UNL A   1      48.773  28.611  29.455  1.00  0.00     0.091 A 
ATOM     70  F   UNL A   1      46.887  28.908  30.883  1.00  0.00    -0.205 F 
ATOM     71  C   UNL A   1      49.344  28.718  28.176  1.00  0.00     0.022 A 
BRANCH  69  72
ATOM     72  S   UNL A   1      49.800  27.912  30.753  1.00  0.00     0.127 S 
ATOM     73  O   UNL A   1      51.022  28.703  30.621  1.00  0.00    -0.237 OA
ATOM     74  O   UNL A   1      49.015  28.199  31.954  1.00  0.00    -0.237 OA
ATOM     75  O   UNL A   1      49.930  26.496  30.441  1.00  0.00    -0.744 OA
ENDBRANCH  69  72
ENDBRANCH  51  65
BRANCH  52  76
ATOM     76  C   UNL A   1      37.303  32.253  30.632  1.00  0.00     0.023 A 
ATOM     77  C   UNL A   1      36.852  32.058  31.950  1.00  0.00     0.012 A 
ATOM     78  C   UNL A   1      36.440  32.845  29.688  1.00  0.00     0.148 A 
ATOM     79  C   UNL A   1      35.558  32.429  32.318  1.00  0.00     0.002 A 
ATOM     80  C   UNL A   1      35.175  33.266  30.075  1.00  0.00     0.091 A 
ATOM     81  F   UNL A   1      36.891  33.013  28.436  1.00  0.00    -0.205 F 
ATOM     82  C   UNL A   1      34.726  33.044  31.386  1.00  0.00     0.022 A 
BRANCH  80  83
ATOM     83  S   UNL A   1      34.092  34.195  28.984  1.00  0.00     0.127 S 
ATOM     84  O   UNL A   1      33.677  33.168  28.032  1.00  0.00    -0.237 OA
ATOM     85  O   UNL A   1      33.049  34.638  29.909  1.00  0.00    -0.237 OA
ATOM     86  O   UNL A   1      34.908  35.268  28.433  1.00  0.00    -0.744 OA
ENDBRANCH  80  83
ENDBRANCH  52  76
BRANCH  64  87
ATOM     87  C   UNL A   1      43.398  35.683  30.849  1.00  0.00     0.023 A 
ATOM     88  C   UNL A   1      43.559  36.666  29.853  1.00  0.00     0.012 A 
ATOM     89  C   UNL A   1      43.531  36.046  32.204  1.00  0.00     0.148 A 
ATOM     90  C   UNL A   1      43.891  37.977  30.197  1.00  0.00     0.002 A 
ATOM     91  C   UNL A   1      43.807  37.365  32.542  1.00  0.00     0.091 A 
ATOM     92  F   UNL A   1      43.393  35.094  33.139  1.00  0.00    -0.205 F 
ATOM     93  C   UNL A   1      44.003  38.328  31.540  1.00  0.00     0.022 A 
BRANCH  91  94
ATOM     94  S   UNL A   1      43.869  37.925  34.248  1.00  0.00     0.127 S 
ATOM     95  O   UNL A   1      44.976  37.133  34.781  1.00  0.00    -0.237 OA
ATOM     96  O   UNL A   1      44.157  39.352  34.097  1.00  0.00    -0.237 OA
ATOM     97  O   UNL A   1      42.558  37.632  34.812  1.00  0.00    -0.744 OA
ENDBRANCH  91  94
ENDBRANCH  64  87
ENDBRANCH  38  39
ENDBRANCH  31  33
ENDBRANCH  30  31
ENDBRANCH  29  30
ENDBRANCH  28  29
ENDBRANCH  27  28
ENDBRANCH  26  27
ENDBRANCH   1  26
TORSDOF 24
ENDMDL
MODEL 3
REMARK VINA RESULT:      -9.2      2.954      4.649
REMARK SMILES [NH3+][C@]1(C(=O)OCCOCCOC(=O)c2ccc(-c3c4nc(c(-c5cccc(S(=O)(=O)[O-])c5F)c5ccc([nH]5)c(-c5cccc(S(=O)(=O)[O-])c5F)c5nc(c(-c6cccc(S(=O)(=O)[O-])c6F)c6ccc3[nH]6)C=C5)C=C4)cc2)CCC[C@@H]1CCOc1ccc(CO)cc1
REMARK SMILES IDX 6 1 5 2 3 3 4 4 2 5 77 6 80 7 78 8 79 9 1 10 81 14 82 15
REMARK SMILES IDX 83 16 84 17 85 18 91 19 86 20 90 21 87 22 88 23 89 24 7 26
REMARK SMILES IDX 8 27 9 28 10 29 11 30 12 31 13 32 14 33 15 34 76 35 16 36
REMARK SMILES IDX 75 37 17 38 18 39 19 40 69 41 20 42 74 43 68 44 70 45 21 46
REMARK SMILES IDX 73 47 67 48 66 49 22 51 54 52 34 53 53 54 35 55 38 56 52 57
REMARK SMILES IDX 71 58 36 59 37 60 51 62 72 63 39 64 23 65 24 66 32 67 25 68
REMARK SMILES IDX 27 69 33 70 26 71 28 72 29 73 30 74 31 75 55 76 56 77 64 78
REMARK SMILES IDX 57 79 59 80 65 81 58 82 60 83 61 84 62 85 63 86 40 87 41 88
REMARK SMILES IDX 49 89 42 90 44 91 50 92 43 93 45 94 46 95 47 96 48 97
REMARK H PARENT 1 11 1 12 1 13 89 25 70 50 38 61
REMARK Flexibility Score: inf
ROOT
ATOM      1  C   UNL A   1      35.729  23.149  25.380  1.00  0.00     0.261 C 
ENDROOT
BRANCH   1   2
ATOM      2  O   UNL A   1      35.000  24.377  25.180  1.00  0.00    -0.459 OA
BRANCH   2   3
ATOM      3  C   UNL A   1      34.510  24.546  23.927  1.00  0.00     0.368 C 
ATOM      4  O   UNL A   1      34.862  23.892  22.945  1.00  0.00    -0.245 OA
BRANCH   3   5
ATOM      5  C   UNL A   1      33.385  25.603  23.802  1.00  0.00     0.195 C 
ATOM      6  C   UNL A   1      33.440  26.184  22.370  1.00  0.00     0.081 C 
ATOM      7  C   UNL A   1      31.891  25.186  23.878  1.00  0.00     0.066 C 
ATOM      8  C   UNL A   1      32.154  26.973  22.193  1.00  0.00     0.008 C 
ATOM      9  C   UNL A   1      31.192  26.396  23.224  1.00  0.00     0.011 C 
BRANCH   5  10
ATOM     10  N   UNL A   1      33.689  26.692  24.774  1.00  0.00    -0.343 N 
ATOM     11  H   UNL A   1      33.046  26.634  25.564  1.00  0.00     0.345 HD
ATOM     12  H   UNL A   1      33.582  27.597  24.316  1.00  0.00     0.345 HD
ATOM     13  H   UNL A   1      34.647  26.593  25.109  1.00  0.00     0.345 HD
ENDBRANCH   5  10
BRANCH   7  14
ATOM     14  C   UNL A   1      31.366  24.769  25.280  1.00  0.00     0.052 C 
BRANCH  14  15
ATOM     15  C   UNL A   1      31.132  23.268  25.566  1.00  0.00     0.230 C 
BRANCH  15  16
ATOM     16  O   UNL A   1      32.312  22.496  25.853  1.00  0.00    -0.494 OA
BRANCH  16  17
ATOM     17  C   UNL A   1      32.467  21.428  25.020  1.00  0.00     0.119 A 
ATOM     18  C   UNL A   1      32.782  20.155  25.494  1.00  0.00     0.047 A 
ATOM     19  C   UNL A   1      32.289  21.653  23.659  1.00  0.00     0.047 A 
ATOM     20  C   UNL A   1      32.763  19.073  24.607  1.00  0.00     0.010 A 
ATOM     21  C   UNL A   1      32.252  20.575  22.779  1.00  0.00     0.010 A 
ATOM     22  C   UNL A   1      32.428  19.269  23.256  1.00  0.00    -0.022 A 
BRANCH  22  23
ATOM     23  C   UNL A   1      32.230  18.098  22.333  1.00  0.00     0.191 C 
BRANCH  23  24
ATOM     24  O   UNL A   1      32.922  16.953  22.795  1.00  0.00    -0.392 OA
ATOM     25  H   UNL A   1      33.490  17.198  23.542  1.00  0.00     0.211 HD
ENDBRANCH  23  24
ENDBRANCH  22  23
ENDBRANCH  16  17
ENDBRANCH  15  16
ENDBRANCH  14  15
ENDBRANCH   7  14
ENDBRANCH   3   5
ENDBRANCH   2   3
ENDBRANCH   1   2
BRANCH   1  26
ATOM     26  C   UNL A   1      37.250  23.318  25.246  1.00  0.00     0.202 C 
BRANCH  26  27
ATOM     27  O   UNL A   1      38.053  22.144  25.374  1.00  0.00    -0.374 OA
BRANCH  27  28
ATOM     28  C   UNL A   1      39.100  22.201  26.339  1.00  0.00     0.202 C 
BRANCH  28  29
ATOM     29  C   UNL A   1      40.316  21.297  26.134  1.00  0.00     0.261 C 
BRANCH  29  30
ATOM     30  O   UNL A   1      41.391  22.011  25.510  1.00  0.00    -0.460 OA
BRANCH  30  31
ATOM     31  C   UNL A   1      42.360  22.385  26.371  1.00  0.00     0.338 C 
ATOM     32  O   UNL A   1      43.454  21.851  26.521  1.00  0.00    -0.246 OA
BRANCH  31  33
ATOM     33  C   UNL A   1      42.018  23.664  27.008  1.00  0.00     0.060 A 
ATOM     34  C   UNL A   1      41.764  24.739  26.150  1.00  0.00     0.016 A 
ATOM     35  C   UNL A   1      42.027  23.839  28.395  1.00  0.00     0.016 A 
ATOM     36  C   UNL A   1      41.644  26.020  26.665  1.00  0.00     0.010 A 
ATOM     37  C   UNL A   1      41.898  25.131  28.913  1.00  0.00     0.010 A 
ATOM     38  C   UNL A   1      41.784  26.229  28.042  1.00  0.00    -0.014 A 
BRANCH  38  39
ATOM     39  C   UNL A   1      42.026  27.612  28.512  1.00  0.00     0.031 A 
ATOM     40  C   UNL A   1      43.434  28.143  28.510  1.00  0.00     0.074 A 
ATOM     41  C   UNL A   1      41.000  28.404  28.860  1.00  0.00     0.049 A 
ATOM     42  N   UNL A   1      43.866  29.341  28.800  1.00  0.00    -0.248 NA
ATOM     43  C   UNL A   1      44.496  27.195  28.134  1.00  0.00     0.031 C 
ATOM     44  C   UNL A   1      39.597  27.995  28.905  1.00  0.00     0.029 A 
ATOM     45  N   UNL A   1      40.986  29.716  29.253  1.00  0.00    -0.354 N 
ATOM     46  C   UNL A   1      45.249  29.284  28.675  1.00  0.00     0.074 A 
ATOM     47  C   UNL A   1      45.586  27.926  28.306  1.00  0.00     0.031 C 
ATOM     48  C   UNL A   1      38.858  29.032  29.329  1.00  0.00     0.029 A 
ATOM     49  C   UNL A   1      39.738  30.168  29.599  1.00  0.00     0.049 A 
ATOM     50  H   UNL A   1      41.792  30.280  29.283  1.00  0.00     0.167 HD
ATOM     51  C   UNL A   1      46.159  30.275  28.835  1.00  0.00     0.034 A 
ATOM     52  C   UNL A   1      39.351  31.359  30.097  1.00  0.00     0.034 A 
ATOM     53  C   UNL A   1      45.815  31.626  29.186  1.00  0.00     0.049 A 
ATOM     54  C   UNL A   1      40.371  32.452  30.257  1.00  0.00     0.074 A 
ATOM     55  C   UNL A   1      46.649  32.722  29.315  1.00  0.00     0.029 A 
ATOM     56  N   UNL A   1      44.532  32.063  29.484  1.00  0.00    -0.354 N 
ATOM     57  N   UNL A   1      41.660  32.420  30.014  1.00  0.00    -0.248 NA
ATOM     58  C   UNL A   1      39.878  33.757  30.715  1.00  0.00     0.031 C 
ATOM     59  C   UNL A   1      45.875  33.812  29.732  1.00  0.00     0.029 A 
ATOM     60  C   UNL A   1      44.552  33.407  29.814  1.00  0.00     0.049 A 
ATOM     61  H   UNL A   1      43.726  31.499  29.464  1.00  0.00     0.167 HD
ATOM     62  C   UNL A   1      42.128  33.707  30.258  1.00  0.00     0.074 A 
ATOM     63  C   UNL A   1      40.977  34.497  30.648  1.00  0.00     0.031 C 
ATOM     64  C   UNL A   1      43.393  34.189  30.170  1.00  0.00     0.034 A 
BRANCH  51  65
ATOM     65  C   UNL A   1      47.611  29.921  28.634  1.00  0.00     0.023 A 
ATOM     66  C   UNL A   1      48.203  30.058  27.360  1.00  0.00     0.012 A 
ATOM     67  C   UNL A   1      48.392  29.456  29.709  1.00  0.00     0.148 A 
ATOM     68  C   UNL A   1      49.531  29.686  27.150  1.00  0.00     0.002 A 
ATOM     69  C   UNL A   1      49.729  29.138  29.502  1.00  0.00     0.091 A 
ATOM     70  F   UNL A   1      47.809  29.307  30.907  1.00  0.00    -0.205 F 
ATOM     71  C   UNL A   1      50.296  29.236  28.222  1.00  0.00     0.022 A 
BRANCH  69  72
ATOM     72  S   UNL A   1      50.814  28.629  30.841  1.00  0.00     0.127 S 
ATOM     73  O   UNL A   1      52.123  28.665  30.191  1.00  0.00    -0.237 OA
ATOM     74  O   UNL A   1      50.597  29.683  31.832  1.00  0.00    -0.237 OA
ATOM     75  O   UNL A   1      50.350  27.311  31.251  1.00  0.00    -0.744 OA
ENDBRANCH  69  72
ENDBRANCH  51  65
BRANCH  52  76
ATOM     76  C   UNL A   1      37.921  31.568  30.445  1.00  0.00     0.023 A 
ATOM     77  C   UNL A   1      37.498  31.482  31.784  1.00  0.00     0.012 A 
ATOM     78  C   UNL A   1      36.990  31.927  29.449  1.00  0.00     0.148 A 
ATOM     79  C   UNL A   1      36.168  31.732  32.124  1.00  0.00     0.002 A 
ATOM     80  C   UNL A   1      35.683  32.231  29.801  1.00  0.00     0.091 A 
ATOM     81  F   UNL A   1      37.417  31.994  28.180  1.00  0.00    -0.205 F 
ATOM     82  C   UNL A   1      35.265  32.118  31.136  1.00  0.00     0.022 A 
BRANCH  80  83
ATOM     83  S   UNL A   1      34.492  32.876  28.622  1.00  0.00     0.127 S 
ATOM     84  O   UNL A   1      33.651  33.713  29.474  1.00  0.00    -0.237 OA
ATOM     85  O   UNL A   1      35.357  33.609  27.697  1.00  0.00    -0.237 OA
ATOM     86  O   UNL A   1      33.837  31.711  28.042  1.00  0.00    -0.744 OA
ENDBRANCH  80  83
ENDBRANCH  52  76
BRANCH  64  87
ATOM     87  C   UNL A   1      43.602  35.653  30.464  1.00  0.00     0.023 A 
ATOM     88  C   UNL A   1      43.627  36.591  29.413  1.00  0.00     0.012 A 
ATOM     89  C   UNL A   1      43.719  36.103  31.794  1.00  0.00     0.148 A 
ATOM     90  C   UNL A   1      43.811  37.949  29.679  1.00  0.00     0.002 A 
ATOM     91  C   UNL A   1      43.846  37.463  32.054  1.00  0.00     0.091 A 
ATOM     92  F   UNL A   1      43.712  35.196  32.781  1.00  0.00    -0.205 F 
ATOM     93  C   UNL A   1      43.908  38.385  30.998  1.00  0.00     0.022 A 
BRANCH  91  94
ATOM     94  S   UNL A   1      43.877  38.120  33.726  1.00  0.00     0.127 S 
ATOM     95  O   UNL A   1      44.954  37.340  34.333  1.00  0.00    -0.237 OA
ATOM     96  O   UNL A   1      44.198  39.529  33.501  1.00  0.00    -0.237 OA
ATOM     97  O   UNL A   1      42.546  37.885  34.272  1.00  0.00    -0.744 OA
ENDBRANCH  91  94
ENDBRANCH  64  87
ENDBRANCH  38  39
ENDBRANCH  31  33
ENDBRANCH  30  31
ENDBRANCH  29  30
ENDBRANCH  28  29
ENDBRANCH  27  28
ENDBRANCH  26  27
ENDBRANCH   1  26
TORSDOF 24
ENDMDL
