MODEL 1
REMARK VINA RESULT:     -11.1      0.000      0.000
REMARK SMILES COCc1cccc(C(=O)N2C[C@@H](O)C[C@@H]2C(=O)OCCOCCOC(=O)c2ccc(-c3c4nc(c(-c5cccc(S(=O)(=O)[O-])c5F)c5ccc([nH]5)c(-c5cccc(S(=O)(=O)[O-])c5F)c5nc(c(-c6cccc(S(=O)(=O)[O-])c6F)c6ccc3[nH]6)C=C5)C=C4)cc2)c1
REMARK SMILES IDX 21 1 20 2 19 3 17 4 18 5 16 6 11 7 12 8 13 9 15 10 9 11
REMARK SMILES IDX 10 12 8 13 4 14 5 15 91 16 6 17 7 18 3 19 2 20 1 21 14 22
REMARK SMILES IDX 22 24 23 25 24 26 25 27 26 28 27 29 28 30 29 31 90 32 30 33
REMARK SMILES IDX 89 34 31 35 32 36 33 37 83 38 34 39 88 40 82 41 84 42 35 43
REMARK SMILES IDX 87 44 81 45 80 46 36 48 68 49 48 50 67 51 49 52 52 53 66 54
REMARK SMILES IDX 85 55 50 56 51 57 65 59 86 60 53 61 37 62 38 63 46 64 39 65
REMARK SMILES IDX 41 66 47 67 40 68 42 69 43 70 44 71 45 72 69 73 70 74 78 75
REMARK SMILES IDX 71 76 73 77 79 78 72 79 74 80 75 81 76 82 77 83 54 84 55 85
REMARK SMILES IDX 63 86 56 87 58 88 64 89 57 90 59 91 60 92 61 93 62 94
REMARK H PARENT 14 23 84 47 52 58
REMARK Flexibility Score: inf
ROOT
ATOM      1  C   UNL A   1      32.636  29.554  27.243  1.00  0.00     0.202 C 
ENDROOT
BRANCH   1   2
ATOM      2  C   UNL A   1      33.637  28.432  26.955  1.00  0.00     0.261 C 
BRANCH   2   3
ATOM      3  O   UNL A   1      32.980  27.248  26.482  1.00  0.00    -0.462 OA
BRANCH   3   4
ATOM      4  C   UNL A   1      33.099  27.039  25.143  1.00  0.00     0.329 C 
ATOM      5  O   UNL A   1      33.360  27.916  24.327  1.00  0.00    -0.250 OA
BRANCH   4   6
ATOM      6  C   UNL A   1      32.849  25.561  24.789  1.00  0.00     0.198 C 
ATOM      7  N   UNL A   1      31.436  25.394  24.437  1.00  0.00    -0.322 N 
ATOM      8  C   UNL A   1      30.720  24.649  25.461  1.00  0.00     0.152 C 
ATOM      9  C   UNL A   1      31.661  24.683  26.666  1.00  0.00     0.136 C 
ATOM     10  C   UNL A   1      33.048  24.684  26.016  1.00  0.00     0.071 C 
BRANCH   7  11
ATOM     11  C   UNL A   1      30.948  25.914  23.256  1.00  0.00     0.254 C 
ATOM     12  O   UNL A   1      31.503  25.691  22.181  1.00  0.00    -0.269 OA
BRANCH  11  13
ATOM     13  C   UNL A   1      29.871  26.951  23.321  1.00  0.00     0.040 A 
ATOM     14  C   UNL A   1      28.946  29.077  22.522  1.00  0.00    -0.022 A 
ATOM     15  C   UNL A   1      27.701  28.714  23.041  1.00  0.00     0.006 A 
ATOM     16  C   UNL A   1      30.022  28.192  22.687  1.00  0.00     0.020 A 
ATOM     17  C   UNL A   1      27.532  27.481  23.680  1.00  0.00     0.001 A 
ATOM     18  C   UNL A   1      28.610  26.600  23.813  1.00  0.00     0.014 A 
BRANCH  14  19
ATOM     19  C   UNL A   1      29.202  30.363  21.767  1.00  0.00     0.195 C 
BRANCH  19  20
ATOM     20  O   UNL A   1      28.220  30.647  20.769  1.00  0.00    -0.380 OA
ATOM     21  C   UNL A   1      28.070  32.043  20.546  1.00  0.00     0.195 C 
ENDBRANCH  19  20
ENDBRANCH  14  19
ENDBRANCH  11  13
ENDBRANCH   7  11
BRANCH   9  22
ATOM     22  O   UNL A   1      31.473  23.580  27.533  1.00  0.00    -0.391 OA
ATOM     23  H   UNL A   1      31.558  22.755  27.028  1.00  0.00     0.211 HD
ENDBRANCH   9  22
ENDBRANCH   4   6
ENDBRANCH   3   4
ENDBRANCH   2   3
ENDBRANCH   1   2
BRANCH   1  24
ATOM     24  O   UNL A   1      32.586  30.644  26.327  1.00  0.00    -0.374 OA
BRANCH  24  25
ATOM     25  C   UNL A   1      31.590  31.651  26.521  1.00  0.00     0.202 C 
BRANCH  25  26
ATOM     26  C   UNL A   1      32.036  33.030  27.034  1.00  0.00     0.261 C 
BRANCH  26  27
ATOM     27  O   UNL A   1      32.853  32.981  28.218  1.00  0.00    -0.460 OA
BRANCH  27  28
ATOM     28  C   UNL A   1      33.949  33.779  28.180  1.00  0.00     0.338 C 
ATOM     29  O   UNL A   1      33.968  35.004  28.146  1.00  0.00    -0.246 OA
BRANCH  28  30
ATOM     30  C   UNL A   1      35.179  32.991  28.372  1.00  0.00     0.060 A 
ATOM     31  C   UNL A   1      35.038  31.654  28.770  1.00  0.00     0.016 A 
ATOM     32  C   UNL A   1      36.442  33.578  28.293  1.00  0.00     0.016 A 
ATOM     33  C   UNL A   1      36.157  30.912  29.141  1.00  0.00     0.010 A 
ATOM     34  C   UNL A   1      37.564  32.836  28.681  1.00  0.00     0.010 A 
ATOM     35  C   UNL A   1      37.421  31.517  29.147  1.00  0.00    -0.014 A 
BRANCH  35  36
ATOM     36  C   UNL A   1      38.548  30.825  29.818  1.00  0.00     0.031 A 
ATOM     37  C   UNL A   1      38.905  31.224  31.226  1.00  0.00     0.074 A 
ATOM     38  C   UNL A   1      39.223  29.839  29.201  1.00  0.00     0.049 A 
ATOM     39  N   UNL A   1      39.846  30.758  32.005  1.00  0.00    -0.248 NA
ATOM     40  C   UNL A   1      38.094  32.291  31.836  1.00  0.00     0.031 C 
ATOM     41  C   UNL A   1      38.961  29.355  27.846  1.00  0.00     0.029 A 
ATOM     42  N   UNL A   1      40.281  29.080  29.631  1.00  0.00    -0.354 N 
ATOM     43  C   UNL A   1      39.754  31.485  33.186  1.00  0.00     0.074 A 
ATOM     44  C   UNL A   1      38.677  32.435  33.018  1.00  0.00     0.031 C 
ATOM     45  C   UNL A   1      39.852  28.395  27.547  1.00  0.00     0.029 A 
ATOM     46  C   UNL A   1      40.757  28.208  28.680  1.00  0.00     0.049 A 
ATOM     47  H   UNL A   1      40.662  29.151  30.536  1.00  0.00     0.167 HD
ATOM     48  C   UNL A   1      40.487  31.360  34.318  1.00  0.00     0.034 A 
ATOM     49  C   UNL A   1      41.809  27.366  28.720  1.00  0.00     0.034 A 
ATOM     50  C   UNL A   1      41.542  30.400  34.494  1.00  0.00     0.049 A 
ATOM     51  C   UNL A   1      42.619  27.261  29.986  1.00  0.00     0.074 A 
ATOM     52  C   UNL A   1      42.326  30.180  35.612  1.00  0.00     0.029 A 
ATOM     53  N   UNL A   1      41.961  29.503  33.526  1.00  0.00    -0.354 N 
ATOM     54  N   UNL A   1      42.449  27.879  31.131  1.00  0.00    -0.248 NA
ATOM     55  C   UNL A   1      43.746  26.314  29.980  1.00  0.00     0.031 C 
ATOM     56  C   UNL A   1      43.230  29.154  35.315  1.00  0.00     0.029 A 
ATOM     57  C   UNL A   1      42.994  28.726  34.018  1.00  0.00     0.049 A 
ATOM     58  H   UNL A   1      41.581  29.429  32.621  1.00  0.00     0.167 HD
ATOM     59  C   UNL A   1      43.415  27.365  31.991  1.00  0.00     0.074 A 
ATOM     60  C   UNL A   1      44.157  26.374  31.239  1.00  0.00     0.031 C 
ATOM     61  C   UNL A   1      43.675  27.693  33.280  1.00  0.00     0.034 A 
BRANCH  48  62
ATOM     62  C   UNL A   1      40.144  32.262  35.474  1.00  0.00     0.023 A 
ATOM     63  C   UNL A   1      40.839  33.477  35.634  1.00  0.00     0.012 A 
ATOM     64  C   UNL A   1      39.102  31.937  36.364  1.00  0.00     0.148 A 
ATOM     65  C   UNL A   1      40.520  34.345  36.677  1.00  0.00     0.002 A 
ATOM     66  C   UNL A   1      38.763  32.826  37.378  1.00  0.00     0.091 A 
ATOM     67  F   UNL A   1      38.470  30.765  36.208  1.00  0.00    -0.205 F 
ATOM     68  C   UNL A   1      39.476  34.025  37.541  1.00  0.00     0.022 A 
BRANCH  66  69
ATOM     69  S   UNL A   1      37.389  32.537  38.498  1.00  0.00     0.127 S 
ATOM     70  O   UNL A   1      37.746  33.392  39.629  1.00  0.00    -0.237 OA
ATOM     71  O   UNL A   1      36.247  33.009  37.714  1.00  0.00    -0.237 OA
ATOM     72  O   UNL A   1      37.388  31.107  38.771  1.00  0.00    -0.744 OA
ENDBRANCH  66  69
ENDBRANCH  48  62
BRANCH  49  73
ATOM     73  C   UNL A   1      42.133  26.517  27.538  1.00  0.00     0.023 A 
ATOM     74  C   UNL A   1      42.798  27.086  26.435  1.00  0.00     0.012 A 
ATOM     75  C   UNL A   1      41.790  25.151  27.502  1.00  0.00     0.148 A 
ATOM     76  C   UNL A   1      43.087  26.320  25.305  1.00  0.00     0.002 A 
ATOM     77  C   UNL A   1      42.127  24.380  26.395  1.00  0.00     0.091 A 
ATOM     78  F   UNL A   1      41.136  24.631  28.551  1.00  0.00    -0.205 F 
ATOM     79  C   UNL A   1      42.760  24.967  25.288  1.00  0.00     0.022 A 
BRANCH  77  80
ATOM     80  S   UNL A   1      41.857  22.605  26.350  1.00  0.00     0.127 S 
ATOM     81  O   UNL A   1      40.402  22.525  26.260  1.00  0.00    -0.237 OA
ATOM     82  O   UNL A   1      42.573  22.218  25.133  1.00  0.00    -0.237 OA
ATOM     83  O   UNL A   1      42.451  22.092  27.578  1.00  0.00    -0.744 OA
ENDBRANCH  77  80
ENDBRANCH  49  73
BRANCH  61  84
ATOM     84  C   UNL A   1      44.774  26.946  33.987  1.00  0.00     0.023 A 
ATOM     85  C   UNL A   1      46.071  27.493  34.043  1.00  0.00     0.012 A 
ATOM     86  C   UNL A   1      44.501  25.742  34.667  1.00  0.00     0.148 A 
ATOM     87  C   UNL A   1      47.086  26.840  34.741  1.00  0.00     0.002 A 
ATOM     88  C   UNL A   1      45.507  25.120  35.399  1.00  0.00     0.091 A 
ATOM     89  F   UNL A   1      43.266  25.226  34.586  1.00  0.00    -0.205 F 
ATOM     90  C   UNL A   1      46.801  25.661  35.428  1.00  0.00     0.022 A 
BRANCH  88  91
ATOM     91  S   UNL A   1      45.201  23.652  36.389  1.00  0.00     0.127 S 
ATOM     92  O   UNL A   1      46.557  23.146  36.597  1.00  0.00    -0.237 OA
ATOM     93  O   UNL A   1      44.567  24.208  37.585  1.00  0.00    -0.237 OA
ATOM     94  O   UNL A   1      44.329  22.805  35.585  1.00  0.00    -0.744 OA
ENDBRANCH  88  91
ENDBRANCH  61  84
ENDBRANCH  35  36
ENDBRANCH  28  30
ENDBRANCH  27  28
ENDBRANCH  26  27
ENDBRANCH  25  26
ENDBRANCH  24  25
ENDBRANCH   1  24
TORSDOF 22
ENDMDL
MODEL 2
REMARK VINA RESULT:     -11.0      1.940      3.779
REMARK SMILES COCc1cccc(C(=O)N2C[C@@H](O)C[C@@H]2C(=O)OCCOCCOC(=O)c2ccc(-c3c4nc(c(-c5cccc(S(=O)(=O)[O-])c5F)c5ccc([nH]5)c(-c5cccc(S(=O)(=O)[O-])c5F)c5nc(c(-c6cccc(S(=O)(=O)[O-])c6F)c6ccc3[nH]6)C=C5)C=C4)cc2)c1
REMARK SMILES IDX 21 1 20 2 19 3 17 4 18 5 16 6 11 7 12 8 13 9 15 10 9 11
REMARK SMILES IDX 10 12 8 13 4 14 5 15 91 16 6 17 7 18 3 19 2 20 1 21 14 22
REMARK SMILES IDX 22 24 23 25 24 26 25 27 26 28 27 29 28 30 29 31 90 32 30 33
REMARK SMILES IDX 89 34 31 35 32 36 33 37 83 38 34 39 88 40 82 41 84 42 35 43
REMARK SMILES IDX 87 44 81 45 80 46 36 48 68 49 48 50 67 51 49 52 52 53 66 54
REMARK SMILES IDX 85 55 50 56 51 57 65 59 86 60 53 61 37 62 38 63 46 64 39 65
REMARK SMILES IDX 41 66 47 67 40 68 42 69 43 70 44 71 45 72 69 73 70 74 78 75
REMARK SMILES IDX 71 76 73 77 79 78 72 79 74 80 75 81 76 82 77 83 54 84 55 85
REMARK SMILES IDX 63 86 56 87 58 88 64 89 57 90 59 91 60 92 61 93 62 94
REMARK H PARENT 14 23 84 47 52 58
REMARK Flexibility Score: inf
ROOT
ATOM      1  C   UNL A   1      31.534  28.546  25.930  1.00  0.00     0.202 C 
ENDROOT
BRANCH   1   2
ATOM      2  C   UNL A   1      32.587  27.455  26.137  1.00  0.00     0.261 C 
BRANCH   2   3
ATOM      3  O   UNL A   1      32.217  26.234  25.480  1.00  0.00    -0.462 OA
BRANCH   3   4
ATOM      4  C   UNL A   1      32.970  25.937  24.387  1.00  0.00     0.329 C 
ATOM      5  O   UNL A   1      34.055  26.451  24.135  1.00  0.00    -0.250 OA
BRANCH   4   6
ATOM      6  C   UNL A   1      32.276  24.882  23.506  1.00  0.00     0.198 C 
ATOM      7  N   UNL A   1      33.283  24.248  22.650  1.00  0.00    -0.322 N 
ATOM      8  C   UNL A   1      33.123  24.646  21.260  1.00  0.00     0.152 C 
ATOM      9  C   UNL A   1      32.203  25.866  21.331  1.00  0.00     0.136 C 
ATOM     10  C   UNL A   1      31.314  25.554  22.538  1.00  0.00     0.071 C 
BRANCH   7  11
ATOM     11  C   UNL A   1      34.219  23.393  23.194  1.00  0.00     0.254 C 
ATOM     12  O   UNL A   1      35.377  23.365  22.780  1.00  0.00    -0.269 OA
BRANCH  11  13
ATOM     13  C   UNL A   1      33.753  22.328  24.137  1.00  0.00     0.040 A 
ATOM     14  C   UNL A   1      32.947  20.039  24.491  1.00  0.00    -0.022 A 
ATOM     15  C   UNL A   1      33.300  20.138  25.839  1.00  0.00     0.006 A 
ATOM     16  C   UNL A   1      33.164  21.148  23.660  1.00  0.00     0.020 A 
ATOM     17  C   UNL A   1      33.885  21.309  26.333  1.00  0.00     0.001 A 
ATOM     18  C   UNL A   1      34.118  22.397  25.485  1.00  0.00     0.014 A 
BRANCH  14  19
ATOM     19  C   UNL A   1      32.363  18.793  23.863  1.00  0.00     0.195 C 
BRANCH  19  20
ATOM     20  O   UNL A   1      32.931  17.580  24.360  1.00  0.00    -0.380 OA
ATOM     21  C   UNL A   1      33.881  17.025  23.460  1.00  0.00     0.195 C 
ENDBRANCH  19  20
ENDBRANCH  14  19
ENDBRANCH  11  13
ENDBRANCH   7  11
BRANCH   9  22
ATOM     22  O   UNL A   1      31.455  26.052  20.144  1.00  0.00    -0.391 OA
ATOM     23  H   UNL A   1      31.892  25.589  19.411  1.00  0.00     0.211 HD
ENDBRANCH   9  22
ENDBRANCH   4   6
ENDBRANCH   3   4
ENDBRANCH   2   3
ENDBRANCH   1   2
BRANCH   1  24
ATOM     24  O   UNL A   1      31.989  29.829  25.508  1.00  0.00    -0.374 OA
BRANCH  24  25
ATOM     25  C   UNL A   1      31.158  30.963  25.761  1.00  0.00     0.202 C 
BRANCH  25  26
ATOM     26  C   UNL A   1      31.770  32.169  26.493  1.00  0.00     0.261 C 
BRANCH  26  27
ATOM     27  O   UNL A   1      32.721  31.815  27.515  1.00  0.00    -0.460 OA
BRANCH  27  28
ATOM     28  C   UNL A   1      33.649  32.770  27.775  1.00  0.00     0.338 C 
ATOM     29  O   UNL A   1      33.447  33.967  27.945  1.00  0.00    -0.246 OA
BRANCH  28  30
ATOM     30  C   UNL A   1      34.969  32.164  28.022  1.00  0.00     0.060 A 
ATOM     31  C   UNL A   1      35.019  30.780  28.236  1.00  0.00     0.016 A 
ATOM     32  C   UNL A   1      36.114  32.947  28.171  1.00  0.00     0.016 A 
ATOM     33  C   UNL A   1      36.204  30.178  28.651  1.00  0.00     0.010 A 
ATOM     34  C   UNL A   1      37.301  32.343  28.603  1.00  0.00     0.010 A 
ATOM     35  C   UNL A   1      37.339  30.966  28.886  1.00  0.00    -0.014 A 
BRANCH  35  36
ATOM     36  C   UNL A   1      38.493  30.371  29.603  1.00  0.00     0.031 A 
ATOM     37  C   UNL A   1      38.771  30.815  31.016  1.00  0.00     0.074 A 
ATOM     38  C   UNL A   1      39.261  29.433  29.023  1.00  0.00     0.049 A 
ATOM     39  N   UNL A   1      39.719  30.433  31.831  1.00  0.00    -0.248 NA
ATOM     40  C   UNL A   1      37.860  31.823  31.583  1.00  0.00     0.031 C 
ATOM     41  C   UNL A   1      39.082  28.912  27.669  1.00  0.00     0.029 A 
ATOM     42  N   UNL A   1      40.360  28.763  29.499  1.00  0.00    -0.354 N 
ATOM     43  C   UNL A   1      39.532  31.166  32.998  1.00  0.00     0.074 A 
ATOM     44  C   UNL A   1      38.391  32.027  32.780  1.00  0.00     0.031 C 
ATOM     45  C   UNL A   1      40.055  28.021  27.412  1.00  0.00     0.029 A 
ATOM     46  C   UNL A   1      40.933  27.919  28.577  1.00  0.00     0.049 A 
ATOM     47  H   UNL A   1      40.705  28.875  30.414  1.00  0.00     0.167 HD
ATOM     48  C   UNL A   1      40.234  31.113  34.154  1.00  0.00     0.034 A 
ATOM     49  C   UNL A   1      42.045  27.162  28.663  1.00  0.00     0.034 A 
ATOM     50  C   UNL A   1      41.353  30.240  34.379  1.00  0.00     0.049 A 
ATOM     51  C   UNL A   1      42.819  27.136  29.957  1.00  0.00     0.074 A 
ATOM     52  C   UNL A   1      42.115  30.095  35.525  1.00  0.00     0.029 A 
ATOM     53  N   UNL A   1      41.873  29.365  33.439  1.00  0.00    -0.354 N 
ATOM     54  N   UNL A   1      42.564  27.754  31.085  1.00  0.00    -0.248 NA
ATOM     55  C   UNL A   1      44.014  26.280  30.001  1.00  0.00     0.031 C 
ATOM     56  C   UNL A   1      43.105  29.139  35.273  1.00  0.00     0.029 A 
ATOM     57  C   UNL A   1      42.946  28.677  33.976  1.00  0.00     0.049 A 
ATOM     58  H   UNL A   1      41.530  29.251  32.523  1.00  0.00     0.167 HD
ATOM     59  C   UNL A   1      43.537  27.327  31.984  1.00  0.00     0.074 A 
ATOM     60  C   UNL A   1      44.378  26.387  31.272  1.00  0.00     0.031 C 
ATOM     61  C   UNL A   1      43.728  27.691  33.276  1.00  0.00     0.034 A 
BRANCH  48  62
ATOM     62  C   UNL A   1      39.785  32.000  35.285  1.00  0.00     0.023 A 
ATOM     63  C   UNL A   1      40.176  33.353  35.301  1.00  0.00     0.012 A 
ATOM     64  C   UNL A   1      38.933  31.513  36.295  1.00  0.00     0.148 A 
ATOM     65  C   UNL A   1      39.749  34.204  36.319  1.00  0.00     0.002 A 
ATOM     66  C   UNL A   1      38.478  32.377  37.285  1.00  0.00     0.091 A 
ATOM     67  F   UNL A   1      38.592  30.217  36.274  1.00  0.00    -0.205 F 
ATOM     68  C   UNL A   1      38.892  33.719  37.303  1.00  0.00     0.022 A 
BRANCH  66  69
ATOM     69  S   UNL A   1      37.317  31.865  38.557  1.00  0.00     0.127 S 
ATOM     70  O   UNL A   1      36.202  32.783  38.324  1.00  0.00    -0.237 OA
ATOM     71  O   UNL A   1      37.049  30.474  38.188  1.00  0.00    -0.237 OA
ATOM     72  O   UNL A   1      38.012  32.034  39.825  1.00  0.00    -0.744 OA
ENDBRANCH  66  69
ENDBRANCH  48  62
BRANCH  49  73
ATOM     73  C   UNL A   1      42.473  26.325  27.506  1.00  0.00     0.023 A 
ATOM     74  C   UNL A   1      43.259  26.898  26.488  1.00  0.00     0.012 A 
ATOM     75  C   UNL A   1      42.108  24.968  27.409  1.00  0.00     0.148 A 
ATOM     76  C   UNL A   1      43.648  26.145  25.379  1.00  0.00     0.002 A 
ATOM     77  C   UNL A   1      42.542  24.209  26.329  1.00  0.00     0.091 A 
ATOM     78  F   UNL A   1      41.338  24.445  28.375  1.00  0.00    -0.205 F 
ATOM     79  C   UNL A   1      43.298  24.799  25.304  1.00  0.00     0.022 A 
BRANCH  77  80
ATOM     80  S   UNL A   1      42.243  22.441  26.223  1.00  0.00     0.127 S 
ATOM     81  O   UNL A   1      40.787  22.387  26.137  1.00  0.00    -0.237 OA
ATOM     82  O   UNL A   1      42.947  22.085  24.990  1.00  0.00    -0.237 OA
ATOM     83  O   UNL A   1      42.833  21.876  27.429  1.00  0.00    -0.744 OA
ENDBRANCH  77  80
ENDBRANCH  49  73
BRANCH  61  84
ATOM     84  C   UNL A   1      44.858  27.040  34.029  1.00  0.00     0.023 A 
ATOM     85  C   UNL A   1      46.143  27.615  33.999  1.00  0.00     0.012 A 
ATOM     86  C   UNL A   1      44.624  25.907  34.834  1.00  0.00     0.148 A 
ATOM     87  C   UNL A   1      47.186  27.055  34.736  1.00  0.00     0.002 A 
ATOM     88  C   UNL A   1      45.658  25.381  35.601  1.00  0.00     0.091 A 
ATOM     89  F   UNL A   1      43.399  25.362  34.834  1.00  0.00    -0.205 F 
ATOM     90  C   UNL A   1      46.941  25.947  35.545  1.00  0.00     0.022 A 
BRANCH  88  91
ATOM     91  S   UNL A   1      45.405  24.016  36.741  1.00  0.00     0.127 S 
ATOM     92  O   UNL A   1      46.765  23.765  37.212  1.00  0.00    -0.237 OA
ATOM     93  O   UNL A   1      44.513  24.606  37.741  1.00  0.00    -0.237 OA
ATOM     94  O   UNL A   1      44.803  22.948  35.955  1.00  0.00    -0.744 OA
ENDBRANCH  88  91
ENDBRANCH  61  84
ENDBRANCH  35  36
ENDBRANCH  28  30
ENDBRANCH  27  28
ENDBRANCH  26  27
ENDBRANCH  25  26
ENDBRANCH  24  25
ENDBRANCH   1  24
TORSDOF 22
ENDMDL
MODEL 3
REMARK VINA RESULT:     -11.0      2.004      3.844
REMARK SMILES COCc1cccc(C(=O)N2C[C@@H](O)C[C@@H]2C(=O)OCCOCCOC(=O)c2ccc(-c3c4nc(c(-c5cccc(S(=O)(=O)[O-])c5F)c5ccc([nH]5)c(-c5cccc(S(=O)(=O)[O-])c5F)c5nc(c(-c6cccc(S(=O)(=O)[O-])c6F)c6ccc3[nH]6)C=C5)C=C4)cc2)c1
REMARK SMILES IDX 21 1 20 2 19 3 17 4 18 5 16 6 11 7 12 8 13 9 15 10 9 11
REMARK SMILES IDX 10 12 8 13 4 14 5 15 91 16 6 17 7 18 3 19 2 20 1 21 14 22
REMARK SMILES IDX 22 24 23 25 24 26 25 27 26 28 27 29 28 30 29 31 90 32 30 33
REMARK SMILES IDX 89 34 31 35 32 36 33 37 83 38 34 39 88 40 82 41 84 42 35 43
REMARK SMILES IDX 87 44 81 45 80 46 36 48 68 49 48 50 67 51 49 52 52 53 66 54
REMARK SMILES IDX 85 55 50 56 51 57 65 59 86 60 53 61 37 62 38 63 46 64 39 65
REMARK SMILES IDX 41 66 47 67 40 68 42 69 43 70 44 71 45 72 69 73 70 74 78 75
REMARK SMILES IDX 71 76 73 77 79 78 72 79 74 80 75 81 76 82 77 83 54 84 55 85
REMARK SMILES IDX 63 86 56 87 58 88 64 89 57 90 59 91 60 92 61 93 62 94
REMARK H PARENT 14 23 84 47 52 58
REMARK Flexibility Score: inf
ROOT
ATOM      1  C   UNL A   1      31.749  28.769  25.388  1.00  0.00     0.202 C 
ENDROOT
BRANCH   1   2
ATOM      2  C   UNL A   1      32.200  27.527  26.160  1.00  0.00     0.261 C 
BRANCH   2   3
ATOM      3  O   UNL A   1      31.729  26.322  25.541  1.00  0.00    -0.462 OA
BRANCH   3   4
ATOM      4  C   UNL A   1      32.484  25.899  24.492  1.00  0.00     0.329 C 
ATOM      5  O   UNL A   1      33.708  25.969  24.449  1.00  0.00    -0.250 OA
BRANCH   4   6
ATOM      6  C   UNL A   1      31.600  25.338  23.363  1.00  0.00     0.198 C 
ATOM      7  N   UNL A   1      32.064  23.988  23.030  1.00  0.00    -0.322 N 
ATOM      8  C   UNL A   1      32.710  23.956  21.728  1.00  0.00     0.152 C 
ATOM      9  C   UNL A   1      32.979  25.429  21.415  1.00  0.00     0.136 C 
ATOM     10  C   UNL A   1      31.802  26.141  22.087  1.00  0.00     0.071 C 
BRANCH   7  11
ATOM     11  C   UNL A   1      31.859  22.946  23.911  1.00  0.00     0.254 C 
ATOM     12  O   UNL A   1      30.907  22.945  24.691  1.00  0.00    -0.269 OA
BRANCH  11  13
ATOM     13  C   UNL A   1      32.940  21.924  24.076  1.00  0.00     0.040 A 
ATOM     14  C   UNL A   1      35.119  21.299  25.010  1.00  0.00    -0.022 A 
ATOM     15  C   UNL A   1      34.801  19.953  24.816  1.00  0.00     0.006 A 
ATOM     16  C   UNL A   1      34.185  22.270  24.618  1.00  0.00     0.020 A 
ATOM     17  C   UNL A   1      33.564  19.589  24.273  1.00  0.00     0.001 A 
ATOM     18  C   UNL A   1      32.634  20.569  23.911  1.00  0.00     0.014 A 
BRANCH  14  19
ATOM     19  C   UNL A   1      36.408  21.777  25.643  1.00  0.00     0.195 C 
BRANCH  19  20
ATOM     20  O   UNL A   1      36.300  23.060  26.262  1.00  0.00    -0.380 OA
ATOM     21  C   UNL A   1      37.459  23.857  26.050  1.00  0.00     0.195 C 
ENDBRANCH  19  20
ENDBRANCH  14  19
ENDBRANCH  11  13
ENDBRANCH   7  11
BRANCH   9  22
ATOM     22  O   UNL A   1      33.042  25.686  20.024  1.00  0.00    -0.391 OA
ATOM     23  H   UNL A   1      32.171  25.525  19.627  1.00  0.00     0.211 HD
ENDBRANCH   9  22
ENDBRANCH   4   6
ENDBRANCH   3   4
ENDBRANCH   2   3
ENDBRANCH   1   2
BRANCH   1  24
ATOM     24  O   UNL A   1      32.194  30.038  25.861  1.00  0.00    -0.374 OA
BRANCH  24  25
ATOM     25  C   UNL A   1      31.228  31.075  26.039  1.00  0.00     0.202 C 
BRANCH  25  26
ATOM     26  C   UNL A   1      31.713  32.447  26.534  1.00  0.00     0.261 C 
BRANCH  26  27
ATOM     27  O   UNL A   1      32.459  32.398  27.765  1.00  0.00    -0.460 OA
BRANCH  27  28
ATOM     28  C   UNL A   1      33.461  33.308  27.852  1.00  0.00     0.338 C 
ATOM     29  O   UNL A   1      33.348  34.528  27.887  1.00  0.00    -0.246 OA
BRANCH  28  30
ATOM     30  C   UNL A   1      34.754  32.643  28.092  1.00  0.00     0.060 A 
ATOM     31  C   UNL A   1      34.735  31.267  28.364  1.00  0.00     0.016 A 
ATOM     32  C   UNL A   1      35.942  33.367  28.180  1.00  0.00     0.016 A 
ATOM     33  C   UNL A   1      35.898  30.620  28.775  1.00  0.00     0.010 A 
ATOM     34  C   UNL A   1      37.106  32.718  28.608  1.00  0.00     0.010 A 
ATOM     35  C   UNL A   1      37.078  31.354  28.948  1.00  0.00    -0.014 A 
BRANCH  35  36
ATOM     36  C   UNL A   1      38.218  30.728  29.662  1.00  0.00     0.031 A 
ATOM     37  C   UNL A   1      38.479  31.123  31.092  1.00  0.00     0.074 A 
ATOM     38  C   UNL A   1      38.989  29.804  29.062  1.00  0.00     0.049 A 
ATOM     39  N   UNL A   1      39.412  30.707  31.907  1.00  0.00    -0.248 NA
ATOM     40  C   UNL A   1      37.568  32.119  31.679  1.00  0.00     0.031 C 
ATOM     41  C   UNL A   1      38.825  29.329  27.688  1.00  0.00     0.029 A 
ATOM     42  N   UNL A   1      40.076  29.111  29.531  1.00  0.00    -0.354 N 
ATOM     43  C   UNL A   1      39.214  31.403  33.095  1.00  0.00     0.074 A 
ATOM     44  C   UNL A   1      38.082  32.279  32.890  1.00  0.00     0.031 C 
ATOM     45  C   UNL A   1      39.795  28.440  27.417  1.00  0.00     0.029 A 
ATOM     46  C   UNL A   1      40.656  28.293  28.590  1.00  0.00     0.049 A 
ATOM     47  H   UNL A   1      40.408  29.190  30.454  1.00  0.00     0.167 HD
ATOM     48  C   UNL A   1      39.899  31.307  34.259  1.00  0.00     0.034 A 
ATOM     49  C   UNL A   1      41.761  27.525  28.666  1.00  0.00     0.034 A 
ATOM     50  C   UNL A   1      41.010  30.419  34.470  1.00  0.00     0.049 A 
ATOM     51  C   UNL A   1      42.516  27.452  29.969  1.00  0.00     0.074 A 
ATOM     52  C   UNL A   1      41.754  30.231  35.621  1.00  0.00     0.029 A 
ATOM     53  N   UNL A   1      41.536  29.572  33.509  1.00  0.00    -0.354 N 
ATOM     54  N   UNL A   1      42.250  28.034  31.114  1.00  0.00    -0.248 NA
ATOM     55  C   UNL A   1      43.706  26.586  30.002  1.00  0.00     0.031 C 
ATOM     56  C   UNL A   1      42.740  29.277  35.352  1.00  0.00     0.029 A 
ATOM     57  C   UNL A   1      42.597  28.859  34.038  1.00  0.00     0.049 A 
ATOM     58  H   UNL A   1      41.206  29.490  32.585  1.00  0.00     0.167 HD
ATOM     59  C   UNL A   1      43.207  27.571  32.011  1.00  0.00     0.074 A 
ATOM     60  C   UNL A   1      44.052  26.649  31.280  1.00  0.00     0.031 C 
ATOM     61  C   UNL A   1      43.382  27.891  33.317  1.00  0.00     0.034 A 
BRANCH  48  62
ATOM     62  C   UNL A   1      39.440  32.159  35.411  1.00  0.00     0.023 A 
ATOM     63  C   UNL A   1      38.588  31.604  36.386  1.00  0.00     0.012 A 
ATOM     64  C   UNL A   1      39.893  33.484  35.561  1.00  0.00     0.148 A 
ATOM     65  C   UNL A   1      38.173  32.361  37.481  1.00  0.00     0.002 A 
ATOM     66  C   UNL A   1      39.508  34.220  36.676  1.00  0.00     0.091 A 
ATOM     67  F   UNL A   1      40.684  34.001  34.610  1.00  0.00    -0.205 F 
ATOM     68  C   UNL A   1      38.641  33.664  37.631  1.00  0.00     0.022 A 
BRANCH  66  69
ATOM     69  S   UNL A   1      40.113  35.881  36.995  1.00  0.00     0.127 S 
ATOM     70  O   UNL A   1      39.625  36.603  35.820  1.00  0.00    -0.237 OA
ATOM     71  O   UNL A   1      39.433  36.222  38.245  1.00  0.00    -0.237 OA
ATOM     72  O   UNL A   1      41.560  35.767  37.103  1.00  0.00    -0.744 OA
ENDBRANCH  66  69
ENDBRANCH  48  62
BRANCH  49  73
ATOM     73  C   UNL A   1      42.200  26.724  27.488  1.00  0.00     0.023 A 
ATOM     74  C   UNL A   1      42.908  27.353  26.446  1.00  0.00     0.012 A 
ATOM     75  C   UNL A   1      41.923  25.346  27.396  1.00  0.00     0.148 A 
ATOM     76  C   UNL A   1      43.304  26.632  25.318  1.00  0.00     0.002 A 
ATOM     77  C   UNL A   1      42.366  24.622  26.295  1.00  0.00     0.091 A 
ATOM     78  F   UNL A   1      41.226  24.769  28.387  1.00  0.00    -0.205 F 
ATOM     79  C   UNL A   1      43.042  25.266  25.247  1.00  0.00     0.022 A 
BRANCH  77  80
ATOM     80  S   UNL A   1      42.181  22.839  26.188  1.00  0.00     0.127 S 
ATOM     81  O   UNL A   1      42.666  22.567  24.838  1.00  0.00    -0.237 OA
ATOM     82  O   UNL A   1      43.057  22.375  27.264  1.00  0.00    -0.237 OA
ATOM     83  O   UNL A   1      40.765  22.583  26.422  1.00  0.00    -0.744 OA
ENDBRANCH  77  80
ENDBRANCH  49  73
BRANCH  61  84
ATOM     84  C   UNL A   1      44.497  27.207  34.064  1.00  0.00     0.023 A 
ATOM     85  C   UNL A   1      45.772  27.803  34.121  1.00  0.00     0.012 A 
ATOM     86  C   UNL A   1      44.256  26.017  34.780  1.00  0.00     0.148 A 
ATOM     87  C   UNL A   1      46.798  27.211  34.854  1.00  0.00     0.002 A 
ATOM     88  C   UNL A   1      45.272  25.457  35.546  1.00  0.00     0.091 A 
ATOM     89  F   UNL A   1      43.042  25.454  34.698  1.00  0.00    -0.205 F 
ATOM     90  C   UNL A   1      46.546  26.045  35.576  1.00  0.00     0.022 A 
BRANCH  88  91
ATOM     91  S   UNL A   1      45.004  24.012  36.580  1.00  0.00     0.127 S 
ATOM     92  O   UNL A   1      43.883  23.364  35.902  1.00  0.00    -0.237 OA
ATOM     93  O   UNL A   1      46.279  23.303  36.463  1.00  0.00    -0.237 OA
ATOM     94  O   UNL A   1      44.722  24.525  37.914  1.00  0.00    -0.744 OA
ENDBRANCH  88  91
ENDBRANCH  61  84
ENDBRANCH  35  36
ENDBRANCH  28  30
ENDBRANCH  27  28
ENDBRANCH  26  27
ENDBRANCH  25  26
ENDBRANCH  24  25
ENDBRANCH   1  24
TORSDOF 22
ENDMDL
