MODEL 1
REMARK VINA RESULT:     -11.9      0.000      0.000
REMARK SMILES CS(=O)(=O)c1ccc(/C=C(/C(=O)OCCOCCOC(=O)c2ccc(-c3c4nc(c(-c5cccc(S(=O)(=O)[O-])c5F)c5ccc([nH]5)c(-c5cccc(S(=O)(=O)[O-])c5F)c5nc(c(-c6cccc(S(=O)(=O)[O-])c6F)c6ccc3[nH]6)C=C5)C=C4)cc2)c2ccccc2)cc1
REMARK SMILES IDX 17 1 16 2 15 3 14 4 13 5 11 6 12 7 10 8 9 9 8 10 5 11 6 12
REMARK SMILES IDX 92 13 7 14 91 15 2 16 1 17 3 18 4 19 85 20 86 21 90 22 87 23
REMARK SMILES IDX 89 24 88 25 18 26 19 27 20 28 21 29 22 30 23 31 84 32 24 33
REMARK SMILES IDX 83 34 25 35 26 36 27 37 77 38 28 39 82 40 76 41 78 42 29 43
REMARK SMILES IDX 81 44 75 45 74 46 30 48 62 49 42 50 61 51 43 52 46 53 60 54
REMARK SMILES IDX 79 55 44 56 45 57 59 59 80 60 47 61 31 62 32 63 40 64 33 65
REMARK SMILES IDX 35 66 41 67 34 68 36 69 37 70 38 71 39 72 63 73 64 74 72 75
REMARK SMILES IDX 65 76 67 77 73 78 66 79 68 80 69 81 70 82 71 83 48 84 49 85
REMARK SMILES IDX 57 86 50 87 52 88 58 89 51 90 53 91 54 92 55 93 56 94
REMARK H PARENT 78 47 46 58
REMARK Flexibility Score: inf
ROOT
ATOM      1  C   UNL A   1      35.747  20.940  25.038  1.00  0.00     0.202 C 
ENDROOT
BRANCH   1   2
ATOM      2  O   UNL A   1      35.126  21.134  26.304  1.00  0.00    -0.374 OA
BRANCH   2   3
ATOM      3  C   UNL A   1      33.820  21.713  26.317  1.00  0.00     0.202 C 
BRANCH   3   4
ATOM      4  C   UNL A   1      33.651  23.067  27.013  1.00  0.00     0.261 C 
BRANCH   4   5
ATOM      5  O   UNL A   1      32.945  24.006  26.185  1.00  0.00    -0.460 OA
BRANCH   5   6
ATOM      6  C   UNL A   1      33.739  24.858  25.486  1.00  0.00     0.338 C 
ATOM      7  O   UNL A   1      34.904  24.648  25.175  1.00  0.00    -0.246 OA
BRANCH   6   8
ATOM      8  C   UNL A   1      32.988  26.063  25.002  1.00  0.00     0.067 C 
ATOM      9  C   UNL A   1      32.348  26.041  23.809  1.00  0.00     0.024 C 
BRANCH   9  10
ATOM     10  C   UNL A   1      31.340  27.007  23.297  1.00  0.00    -0.025 A 
ATOM     11  C   UNL A   1      29.359  28.959  22.907  1.00  0.00     0.067 A 
ATOM     12  C   UNL A   1      30.678  29.230  22.549  1.00  0.00     0.021 A 
ATOM     13  C   UNL A   1      28.996  27.689  23.354  1.00  0.00     0.021 A 
ATOM     14  C   UNL A   1      31.650  28.237  22.703  1.00  0.00     0.009 A 
ATOM     15  C   UNL A   1      29.987  26.717  23.539  1.00  0.00     0.009 A 
BRANCH  11  16
ATOM     16  S   UNL A   1      28.176  30.283  22.943  1.00  0.00     0.175 S 
ATOM     17  C   UNL A   1      28.032  30.769  21.249  1.00  0.00     0.163 C 
ATOM     18  O   UNL A   1      28.773  31.387  23.673  1.00  0.00    -0.224 OA
ATOM     19  O   UNL A   1      26.903  29.728  23.363  1.00  0.00    -0.224 OA
ENDBRANCH  11  16
ENDBRANCH   9  10
BRANCH   8  20
ATOM     20  C   UNL A   1      32.940  27.201  25.941  1.00  0.00    -0.011 A 
ATOM     21  C   UNL A   1      34.019  28.098  25.992  1.00  0.00     0.009 A 
ATOM     22  C   UNL A   1      31.827  27.422  26.757  1.00  0.00     0.009 A 
ATOM     23  C   UNL A   1      33.979  29.210  26.832  1.00  0.00     0.001 A 
ATOM     24  C   UNL A   1      31.784  28.541  27.590  1.00  0.00     0.001 A 
ATOM     25  C   UNL A   1      32.857  29.434  27.626  1.00  0.00     0.000 A 
ENDBRANCH   8  20
ENDBRANCH   6   8
ENDBRANCH   5   6
ENDBRANCH   4   5
ENDBRANCH   3   4
ENDBRANCH   2   3
ENDBRANCH   1   2
BRANCH   1  26
ATOM     26  C   UNL A   1      37.153  20.328  25.002  1.00  0.00     0.261 C 
BRANCH  26  27
ATOM     27  O   UNL A   1      38.197  21.307  25.047  1.00  0.00    -0.460 OA
BRANCH  27  28
ATOM     28  C   UNL A   1      39.136  21.074  25.994  1.00  0.00     0.338 C 
ATOM     29  O   UNL A   1      39.668  20.003  26.260  1.00  0.00    -0.246 OA
BRANCH  28  30
ATOM     30  C   UNL A   1      39.591  22.349  26.571  1.00  0.00     0.060 A 
ATOM     31  C   UNL A   1      38.966  23.519  26.120  1.00  0.00     0.016 A 
ATOM     32  C   UNL A   1      40.635  22.409  27.496  1.00  0.00     0.016 A 
ATOM     33  C   UNL A   1      39.416  24.761  26.557  1.00  0.00     0.010 A 
ATOM     34  C   UNL A   1      41.091  23.658  27.929  1.00  0.00     0.010 A 
ATOM     35  C   UNL A   1      40.506  24.838  27.433  1.00  0.00    -0.014 A 
BRANCH  35  36
ATOM     36  C   UNL A   1      41.109  26.158  27.729  1.00  0.00     0.031 A 
ATOM     37  C   UNL A   1      42.505  26.449  27.253  1.00  0.00     0.074 A 
ATOM     38  C   UNL A   1      40.414  27.089  28.408  1.00  0.00     0.049 A 
ATOM     39  N   UNL A   1      43.221  27.532  27.404  1.00  0.00    -0.248 NA
ATOM     40  C   UNL A   1      43.186  25.375  26.510  1.00  0.00     0.031 C 
ATOM     41  C   UNL A   1      39.057  26.919  28.923  1.00  0.00     0.029 A 
ATOM     42  N   UNL A   1      40.769  28.355  28.799  1.00  0.00    -0.354 N 
ATOM     43  C   UNL A   1      44.444  27.263  26.804  1.00  0.00     0.074 A 
ATOM     44  C   UNL A   1      44.380  25.910  26.296  1.00  0.00     0.031 C 
ATOM     45  C   UNL A   1      38.702  28.030  29.588  1.00  0.00     0.029 A 
ATOM     46  C   UNL A   1      39.814  28.979  29.565  1.00  0.00     0.049 A 
ATOM     47  H   UNL A   1      41.626  28.775  28.555  1.00  0.00     0.167 HD
ATOM     48  C   UNL A   1      45.520  28.075  26.673  1.00  0.00     0.034 A 
ATOM     49  C   UNL A   1      39.844  30.171  30.193  1.00  0.00     0.034 A 
ATOM     50  C   UNL A   1      45.573  29.426  27.162  1.00  0.00     0.049 A 
ATOM     51  C   UNL A   1      41.057  31.050  30.045  1.00  0.00     0.074 A 
ATOM     52  C   UNL A   1      46.594  30.350  27.027  1.00  0.00     0.029 A 
ATOM     53  N   UNL A   1      44.570  30.043  27.895  1.00  0.00    -0.354 N 
ATOM     54  N   UNL A   1      42.156  30.833  29.362  1.00  0.00    -0.248 NA
ATOM     55  C   UNL A   1      41.021  32.354  30.723  1.00  0.00     0.031 C 
ATOM     56  C   UNL A   1      46.222  31.514  27.707  1.00  0.00     0.029 A 
ATOM     57  C   UNL A   1      44.954  31.328  28.237  1.00  0.00     0.049 A 
ATOM     58  H   UNL A   1      43.712  29.627  28.138  1.00  0.00     0.167 HD
ATOM     59  C   UNL A   1      42.926  31.983  29.500  1.00  0.00     0.074 A 
ATOM     60  C   UNL A   1      42.158  32.903  30.316  1.00  0.00     0.031 C 
ATOM     61  C   UNL A   1      44.161  32.251  29.008  1.00  0.00     0.034 A 
BRANCH  48  62
ATOM     62  C   UNL A   1      46.726  27.529  25.955  1.00  0.00     0.023 A 
ATOM     63  C   UNL A   1      46.854  27.711  24.563  1.00  0.00     0.012 A 
ATOM     64  C   UNL A   1      47.756  26.883  26.665  1.00  0.00     0.148 A 
ATOM     65  C   UNL A   1      47.974  27.232  23.885  1.00  0.00     0.002 A 
ATOM     66  C   UNL A   1      48.890  26.449  25.990  1.00  0.00     0.091 A 
ATOM     67  F   UNL A   1      47.604  26.698  27.985  1.00  0.00    -0.205 F 
ATOM     68  C   UNL A   1      48.995  26.611  24.598  1.00  0.00     0.022 A 
BRANCH  66  69
ATOM     69  S   UNL A   1      50.292  25.706  26.831  1.00  0.00     0.127 S 
ATOM     70  O   UNL A   1      49.714  24.455  27.321  1.00  0.00    -0.237 OA
ATOM     71  O   UNL A   1      51.256  25.545  25.741  1.00  0.00    -0.237 OA
ATOM     72  O   UNL A   1      50.692  26.656  27.860  1.00  0.00    -0.744 OA
ENDBRANCH  66  69
ENDBRANCH  48  62
BRANCH  49  73
ATOM     73  C   UNL A   1      38.670  30.613  30.997  1.00  0.00     0.023 A 
ATOM     74  C   UNL A   1      38.655  30.401  32.389  1.00  0.00     0.012 A 
ATOM     75  C   UNL A   1      37.580  31.266  30.389  1.00  0.00     0.148 A 
ATOM     76  C   UNL A   1      37.563  30.807  33.157  1.00  0.00     0.002 A 
ATOM     77  C   UNL A   1      36.522  31.719  31.168  1.00  0.00     0.091 A 
ATOM     78  F   UNL A   1      37.606  31.444  29.061  1.00  0.00    -0.205 F 
ATOM     79  C   UNL A   1      36.504  31.475  32.550  1.00  0.00     0.022 A 
BRANCH  77  80
ATOM     80  S   UNL A   1      35.182  32.705  30.491  1.00  0.00     0.127 S 
ATOM     81  O   UNL A   1      34.259  32.772  31.621  1.00  0.00    -0.237 OA
ATOM     82  O   UNL A   1      35.864  33.960  30.173  1.00  0.00    -0.237 OA
ATOM     83  O   UNL A   1      34.704  31.971  29.327  1.00  0.00    -0.744 OA
ENDBRANCH  77  80
ENDBRANCH  49  73
BRANCH  61  84
ATOM     84  C   UNL A   1      44.756  33.603  29.305  1.00  0.00     0.023 A 
ATOM     85  C   UNL A   1      45.493  33.802  30.489  1.00  0.00     0.012 A 
ATOM     86  C   UNL A   1      44.648  34.655  28.373  1.00  0.00     0.148 A 
ATOM     87  C   UNL A   1      46.083  35.037  30.757  1.00  0.00     0.002 A 
ATOM     88  C   UNL A   1      45.282  35.867  28.624  1.00  0.00     0.091 A 
ATOM     89  F   UNL A   1      43.929  34.451  27.260  1.00  0.00    -0.205 F 
ATOM     90  C   UNL A   1      45.988  36.064  29.820  1.00  0.00     0.022 A 
BRANCH  88  91
ATOM     91  S   UNL A   1      45.295  37.210  27.432  1.00  0.00     0.127 S 
ATOM     92  O   UNL A   1      46.077  36.631  26.339  1.00  0.00    -0.237 OA
ATOM     93  O   UNL A   1      43.872  37.380  27.138  1.00  0.00    -0.237 OA
ATOM     94  O   UNL A   1      45.912  38.343  28.110  1.00  0.00    -0.744 OA
ENDBRANCH  88  91
ENDBRANCH  61  84
ENDBRANCH  35  36
ENDBRANCH  28  30
ENDBRANCH  27  28
ENDBRANCH  26  27
ENDBRANCH   1  26
TORSDOF 20
ENDMDL
MODEL 2
REMARK VINA RESULT:     -11.8      0.825      7.704
REMARK SMILES CS(=O)(=O)c1ccc(/C=C(/C(=O)OCCOCCOC(=O)c2ccc(-c3c4nc(c(-c5cccc(S(=O)(=O)[O-])c5F)c5ccc([nH]5)c(-c5cccc(S(=O)(=O)[O-])c5F)c5nc(c(-c6cccc(S(=O)(=O)[O-])c6F)c6ccc3[nH]6)C=C5)C=C4)cc2)c2ccccc2)cc1
REMARK SMILES IDX 17 1 16 2 15 3 14 4 13 5 11 6 12 7 10 8 9 9 8 10 5 11 6 12
REMARK SMILES IDX 92 13 7 14 91 15 2 16 1 17 3 18 4 19 85 20 86 21 90 22 87 23
REMARK SMILES IDX 89 24 88 25 18 26 19 27 20 28 21 29 22 30 23 31 84 32 24 33
REMARK SMILES IDX 83 34 25 35 26 36 27 37 77 38 28 39 82 40 76 41 78 42 29 43
REMARK SMILES IDX 81 44 75 45 74 46 30 48 62 49 42 50 61 51 43 52 46 53 60 54
REMARK SMILES IDX 79 55 44 56 45 57 59 59 80 60 47 61 31 62 32 63 40 64 33 65
REMARK SMILES IDX 35 66 41 67 34 68 36 69 37 70 38 71 39 72 63 73 64 74 72 75
REMARK SMILES IDX 65 76 67 77 73 78 66 79 68 80 69 81 70 82 71 83 48 84 49 85
REMARK SMILES IDX 57 86 50 87 52 88 58 89 51 90 53 91 54 92 55 93 56 94
REMARK H PARENT 78 47 46 58
REMARK Flexibility Score: inf
ROOT
ATOM      1  C   UNL A   1      35.409  21.004  24.928  1.00  0.00     0.202 C 
ENDROOT
BRANCH   1   2
ATOM      2  O   UNL A   1      34.540  20.823  26.041  1.00  0.00    -0.374 OA
BRANCH   2   3
ATOM      3  C   UNL A   1      33.150  20.638  25.770  1.00  0.00     0.202 C 
BRANCH   3   4
ATOM      4  C   UNL A   1      32.359  21.848  25.264  1.00  0.00     0.261 C 
BRANCH   4   5
ATOM      5  O   UNL A   1      32.696  23.044  25.989  1.00  0.00    -0.460 OA
BRANCH   5   6
ATOM      6  C   UNL A   1      31.632  23.778  26.404  1.00  0.00     0.338 C 
ATOM      7  O   UNL A   1      30.959  23.550  27.401  1.00  0.00    -0.246 OA
BRANCH   6   8
ATOM      8  C   UNL A   1      31.434  25.009  25.571  1.00  0.00     0.067 C 
ATOM      9  C   UNL A   1      30.646  24.974  24.470  1.00  0.00     0.024 C 
BRANCH   9  10
ATOM     10  C   UNL A   1      30.111  26.126  23.696  1.00  0.00    -0.025 A 
ATOM     11  C   UNL A   1      29.129  28.585  22.757  1.00  0.00     0.067 A 
ATOM     12  C   UNL A   1      30.405  28.162  22.390  1.00  0.00     0.021 A 
ATOM     13  C   UNL A   1      28.295  27.746  23.496  1.00  0.00     0.021 A 
ATOM     14  C   UNL A   1      30.869  26.917  22.823  1.00  0.00     0.009 A 
ATOM     15  C   UNL A   1      28.787  26.518  23.955  1.00  0.00     0.009 A 
BRANCH  11  16
ATOM     16  S   UNL A   1      28.631  30.254  22.417  1.00  0.00     0.175 S 
ATOM     17  C   UNL A   1      29.199  31.162  23.823  1.00  0.00     0.163 C 
ATOM     18  O   UNL A   1      27.179  30.289  22.422  1.00  0.00    -0.224 OA
ATOM     19  O   UNL A   1      29.372  30.710  21.255  1.00  0.00    -0.224 OA
ENDBRANCH  11  16
ENDBRANCH   9  10
BRANCH   8  20
ATOM     20  C   UNL A   1      32.082  26.233  26.082  1.00  0.00    -0.011 A 
ATOM     21  C   UNL A   1      33.403  26.523  25.703  1.00  0.00     0.009 A 
ATOM     22  C   UNL A   1      31.395  27.127  26.909  1.00  0.00     0.009 A 
ATOM     23  C   UNL A   1      34.021  27.698  26.129  1.00  0.00     0.001 A 
ATOM     24  C   UNL A   1      32.012  28.306  27.327  1.00  0.00     0.001 A 
ATOM     25  C   UNL A   1      33.322  28.592  26.936  1.00  0.00     0.000 A 
ENDBRANCH   8  20
ENDBRANCH   6   8
ENDBRANCH   5   6
ENDBRANCH   4   5
ENDBRANCH   3   4
ENDBRANCH   2   3
ENDBRANCH   1   2
BRANCH   1  26
ATOM     26  C   UNL A   1      36.816  20.397  24.996  1.00  0.00     0.261 C 
BRANCH  26  27
ATOM     27  O   UNL A   1      37.855  21.381  25.041  1.00  0.00    -0.460 OA
BRANCH  27  28
ATOM     28  C   UNL A   1      38.879  21.068  25.870  1.00  0.00     0.338 C 
ATOM     29  O   UNL A   1      39.383  19.964  26.038  1.00  0.00    -0.246 OA
BRANCH  28  30
ATOM     30  C   UNL A   1      39.455  22.298  26.440  1.00  0.00     0.060 A 
ATOM     31  C   UNL A   1      38.867  23.514  26.070  1.00  0.00     0.016 A 
ATOM     32  C   UNL A   1      40.572  22.269  27.276  1.00  0.00     0.016 A 
ATOM     33  C   UNL A   1      39.425  24.715  26.499  1.00  0.00     0.010 A 
ATOM     34  C   UNL A   1      41.136  23.476  27.699  1.00  0.00     0.010 A 
ATOM     35  C   UNL A   1      40.585  24.703  27.283  1.00  0.00    -0.014 A 
BRANCH  35  36
ATOM     36  C   UNL A   1      41.289  25.977  27.560  1.00  0.00     0.031 A 
ATOM     37  C   UNL A   1      40.582  27.049  28.340  1.00  0.00     0.074 A 
ATOM     38  C   UNL A   1      42.548  26.168  27.128  1.00  0.00     0.049 A 
ATOM     39  N   UNL A   1      41.008  28.233  28.691  1.00  0.00    -0.248 NA
ATOM     40  C   UNL A   1      39.209  26.748  28.782  1.00  0.00     0.031 C 
ATOM     41  C   UNL A   1      43.332  25.203  26.359  1.00  0.00     0.029 A 
ATOM     42  N   UNL A   1      43.378  27.253  27.255  1.00  0.00    -0.354 N 
ATOM     43  C   UNL A   1      39.952  28.832  29.366  1.00  0.00     0.074 A 
ATOM     44  C   UNL A   1      38.858  27.884  29.367  1.00  0.00     0.031 C 
ATOM     45  C   UNL A   1      44.521  25.750  26.059  1.00  0.00     0.029 A 
ATOM     46  C   UNL A   1      44.573  27.109  26.593  1.00  0.00     0.049 A 
ATOM     47  H   UNL A   1      43.139  28.057  27.771  1.00  0.00     0.167 HD
ATOM     48  C   UNL A   1      39.902  30.053  29.947  1.00  0.00     0.034 A 
ATOM     49  C   UNL A   1      45.583  27.984  26.421  1.00  0.00     0.034 A 
ATOM     50  C   UNL A   1      40.998  30.984  29.961  1.00  0.00     0.049 A 
ATOM     51  C   UNL A   1      45.498  29.342  27.065  1.00  0.00     0.074 A 
ATOM     52  C   UNL A   1      41.067  32.222  30.575  1.00  0.00     0.029 A 
ATOM     53  N   UNL A   1      42.211  30.788  29.319  1.00  0.00    -0.354 N 
ATOM     54  N   UNL A   1      44.545  29.843  27.813  1.00  0.00    -0.248 NA
ATOM     55  C   UNL A   1      46.644  30.244  26.872  1.00  0.00     0.031 C 
ATOM     56  C   UNL A   1      42.310  32.789  30.276  1.00  0.00     0.029 A 
ATOM     57  C   UNL A   1      43.029  31.889  29.505  1.00  0.00     0.049 A 
ATOM     58  H   UNL A   1      42.454  29.984  28.806  1.00  0.00     0.167 HD
ATOM     59  C   UNL A   1      44.988  31.101  28.207  1.00  0.00     0.074 A 
ATOM     60  C   UNL A   1      46.306  31.277  27.631  1.00  0.00     0.031 C 
ATOM     61  C   UNL A   1      44.358  32.032  28.966  1.00  0.00     0.034 A 
BRANCH  48  62
ATOM     62  C   UNL A   1      38.622  30.449  30.636  1.00  0.00     0.023 A 
ATOM     63  C   UNL A   1      38.444  30.160  32.003  1.00  0.00     0.012 A 
ATOM     64  C   UNL A   1      37.619  31.154  29.942  1.00  0.00     0.148 A 
ATOM     65  C   UNL A   1      37.274  30.538  32.662  1.00  0.00     0.002 A 
ATOM     66  C   UNL A   1      36.477  31.567  30.616  1.00  0.00     0.091 A 
ATOM     67  F   UNL A   1      37.797  31.398  28.635  1.00  0.00    -0.205 F 
ATOM     68  C   UNL A   1      36.297  31.250  31.972  1.00  0.00     0.022 A 
BRANCH  66  69
ATOM     69  S   UNL A   1      35.197  32.554  29.834  1.00  0.00     0.127 S 
ATOM     70  O   UNL A   1      34.754  31.667  28.759  1.00  0.00    -0.237 OA
ATOM     71  O   UNL A   1      34.231  32.723  30.921  1.00  0.00    -0.237 OA
ATOM     72  O   UNL A   1      35.845  33.784  29.402  1.00  0.00    -0.744 OA
ENDBRANCH  66  69
ENDBRANCH  48  62
BRANCH  49  73
ATOM     73  C   UNL A   1      46.778  27.587  25.624  1.00  0.00     0.023 A 
ATOM     74  C   UNL A   1      46.815  27.847  24.241  1.00  0.00     0.012 A 
ATOM     75  C   UNL A   1      47.888  26.975  26.239  1.00  0.00     0.148 A 
ATOM     76  C   UNL A   1      47.924  27.479  23.479  1.00  0.00     0.002 A 
ATOM     77  C   UNL A   1      49.014  26.665  25.484  1.00  0.00     0.091 A 
ATOM     78  F   UNL A   1      47.827  26.722  27.553  1.00  0.00    -0.205 F 
ATOM     79  C   UNL A   1      49.027  26.900  24.101  1.00  0.00     0.022 A 
BRANCH  77  80
ATOM     80  S   UNL A   1      50.526  26.041  26.225  1.00  0.00     0.127 S 
ATOM     81  O   UNL A   1      51.387  25.879  25.057  1.00  0.00    -0.237 OA
ATOM     82  O   UNL A   1      50.896  27.138  27.120  1.00  0.00    -0.237 OA
ATOM     83  O   UNL A   1      50.150  24.811  26.909  1.00  0.00    -0.744 OA
ENDBRANCH  77  80
ENDBRANCH  49  73
BRANCH  61  84
ATOM     84  C   UNL A   1      45.092  33.317  29.252  1.00  0.00     0.023 A 
ATOM     85  C   UNL A   1      45.919  33.416  30.388  1.00  0.00     0.012 A 
ATOM     86  C   UNL A   1      45.020  34.400  28.353  1.00  0.00     0.148 A 
ATOM     87  C   UNL A   1      46.635  34.585  30.644  1.00  0.00     0.002 A 
ATOM     88  C   UNL A   1      45.776  35.543  28.588  1.00  0.00     0.091 A 
ATOM     89  F   UNL A   1      44.215  34.293  27.286  1.00  0.00    -0.205 F 
ATOM     90  C   UNL A   1      46.574  35.642  29.738  1.00  0.00     0.022 A 
BRANCH  88  91
ATOM     91  S   UNL A   1      45.835  36.912  27.427  1.00  0.00     0.127 S 
ATOM     92  O   UNL A   1      46.767  37.824  28.090  1.00  0.00    -0.237 OA
ATOM     93  O   UNL A   1      46.361  36.275  26.220  1.00  0.00    -0.237 OA
ATOM     94  O   UNL A   1      44.465  37.396  27.307  1.00  0.00    -0.744 OA
ENDBRANCH  88  91
ENDBRANCH  61  84
ENDBRANCH  35  36
ENDBRANCH  28  30
ENDBRANCH  27  28
ENDBRANCH  26  27
ENDBRANCH   1  26
TORSDOF 20
ENDMDL
MODEL 3
REMARK VINA RESULT:     -11.7      4.775     10.250
REMARK SMILES CS(=O)(=O)c1ccc(/C=C(/C(=O)OCCOCCOC(=O)c2ccc(-c3c4nc(c(-c5cccc(S(=O)(=O)[O-])c5F)c5ccc([nH]5)c(-c5cccc(S(=O)(=O)[O-])c5F)c5nc(c(-c6cccc(S(=O)(=O)[O-])c6F)c6ccc3[nH]6)C=C5)C=C4)cc2)c2ccccc2)cc1
REMARK SMILES IDX 17 1 16 2 15 3 14 4 13 5 11 6 12 7 10 8 9 9 8 10 5 11 6 12
REMARK SMILES IDX 92 13 7 14 91 15 2 16 1 17 3 18 4 19 85 20 86 21 90 22 87 23
REMARK SMILES IDX 89 24 88 25 18 26 19 27 20 28 21 29 22 30 23 31 84 32 24 33
REMARK SMILES IDX 83 34 25 35 26 36 27 37 77 38 28 39 82 40 76 41 78 42 29 43
REMARK SMILES IDX 81 44 75 45 74 46 30 48 62 49 42 50 61 51 43 52 46 53 60 54
REMARK SMILES IDX 79 55 44 56 45 57 59 59 80 60 47 61 31 62 32 63 40 64 33 65
REMARK SMILES IDX 35 66 41 67 34 68 36 69 37 70 38 71 39 72 63 73 64 74 72 75
REMARK SMILES IDX 65 76 67 77 73 78 66 79 68 80 69 81 70 82 71 83 48 84 49 85
REMARK SMILES IDX 57 86 50 87 52 88 58 89 51 90 53 91 54 92 55 93 56 94
REMARK H PARENT 78 47 46 58
REMARK Flexibility Score: inf
ROOT
ATOM      1  C   UNL A   1      31.013  30.493  25.110  1.00  0.00     0.202 C 
ENDROOT
BRANCH   1   2
ATOM      2  O   UNL A   1      29.917  30.861  24.280  1.00  0.00    -0.374 OA
BRANCH   2   3
ATOM      3  C   UNL A   1      29.575  29.980  23.208  1.00  0.00     0.202 C 
BRANCH   3   4
ATOM      4  C   UNL A   1      30.692  29.113  22.619  1.00  0.00     0.261 C 
BRANCH   4   5
ATOM      5  O   UNL A   1      30.216  27.804  22.261  1.00  0.00    -0.460 OA
BRANCH   5   6
ATOM      6  C   UNL A   1      29.554  27.149  23.249  1.00  0.00     0.338 C 
ATOM      7  O   UNL A   1      28.376  27.310  23.542  1.00  0.00    -0.246 OA
BRANCH   6   8
ATOM      8  C   UNL A   1      30.396  26.081  23.882  1.00  0.00     0.067 C 
ATOM      9  C   UNL A   1      30.253  24.785  23.514  1.00  0.00     0.024 C 
BRANCH   9  10
ATOM     10  C   UNL A   1      31.165  23.649  23.808  1.00  0.00    -0.025 A 
ATOM     11  C   UNL A   1      32.393  21.175  24.321  1.00  0.00     0.067 A 
ATOM     12  C   UNL A   1      32.624  21.826  23.111  1.00  0.00     0.021 A 
ATOM     13  C   UNL A   1      31.645  21.794  25.322  1.00  0.00     0.021 A 
ATOM     14  C   UNL A   1      32.047  23.078  22.882  1.00  0.00     0.009 A 
ATOM     15  C   UNL A   1      31.041  23.031  25.064  1.00  0.00     0.009 A 
BRANCH  11  16
ATOM     16  S   UNL A   1      32.919  19.491  24.520  1.00  0.00     0.175 S 
ATOM     17  C   UNL A   1      32.452  18.717  23.001  1.00  0.00     0.163 C 
ATOM     18  O   UNL A   1      32.120  18.904  25.581  1.00  0.00    -0.224 OA
ATOM     19  O   UNL A   1      34.367  19.486  24.604  1.00  0.00    -0.224 OA
ENDBRANCH  11  16
ENDBRANCH   9  10
BRANCH   8  20
ATOM     20  C   UNL A   1      31.411  26.557  24.843  1.00  0.00    -0.011 A 
ATOM     21  C   UNL A   1      32.748  26.675  24.430  1.00  0.00     0.009 A 
ATOM     22  C   UNL A   1      31.061  26.925  26.145  1.00  0.00     0.009 A 
ATOM     23  C   UNL A   1      33.717  27.171  25.300  1.00  0.00     0.001 A 
ATOM     24  C   UNL A   1      32.031  27.430  27.012  1.00  0.00     0.001 A 
ATOM     25  C   UNL A   1      33.356  27.553  26.589  1.00  0.00     0.000 A 
ENDBRANCH   8  20
ENDBRANCH   6   8
ENDBRANCH   5   6
ENDBRANCH   4   5
ENDBRANCH   3   4
ENDBRANCH   2   3
ENDBRANCH   1   2
BRANCH   1  26
ATOM     26  C   UNL A   1      31.424  31.447  26.239  1.00  0.00     0.261 C 
BRANCH  26  27
ATOM     27  O   UNL A   1      32.623  31.043  26.911  1.00  0.00    -0.460 OA
BRANCH  27  28
ATOM     28  C   UNL A   1      33.355  32.070  27.402  1.00  0.00     0.338 C 
ATOM     29  O   UNL A   1      32.979  33.219  27.599  1.00  0.00    -0.246 OA
BRANCH  28  30
ATOM     30  C   UNL A   1      34.666  31.576  27.857  1.00  0.00     0.060 A 
ATOM     31  C   UNL A   1      34.773  30.211  28.150  1.00  0.00     0.016 A 
ATOM     32  C   UNL A   1      35.752  32.433  28.041  1.00  0.00     0.016 A 
ATOM     33  C   UNL A   1      35.957  29.702  28.674  1.00  0.00     0.010 A 
ATOM     34  C   UNL A   1      36.939  31.922  28.575  1.00  0.00     0.010 A 
ATOM     35  C   UNL A   1      37.033  30.563  28.926  1.00  0.00    -0.014 A 
BRANCH  35  36
ATOM     36  C   UNL A   1      38.209  30.058  29.673  1.00  0.00     0.031 A 
ATOM     37  C   UNL A   1      38.432  30.519  31.085  1.00  0.00     0.074 A 
ATOM     38  C   UNL A   1      39.060  29.190  29.098  1.00  0.00     0.049 A 
ATOM     39  N   UNL A   1      39.392  30.206  31.915  1.00  0.00    -0.248 NA
ATOM     40  C   UNL A   1      37.443  31.462  31.636  1.00  0.00     0.031 C 
ATOM     41  C   UNL A   1      38.948  28.677  27.734  1.00  0.00     0.029 A 
ATOM     42  N   UNL A   1      40.203  28.608  29.585  1.00  0.00    -0.354 N 
ATOM     43  C   UNL A   1      39.144  30.932  33.073  1.00  0.00     0.074 A 
ATOM     44  C   UNL A   1      37.948  31.712  32.836  1.00  0.00     0.031 C 
ATOM     45  C   UNL A   1      39.997  27.876  27.483  1.00  0.00     0.029 A 
ATOM     46  C   UNL A   1      40.864  27.839  28.659  1.00  0.00     0.049 A 
ATOM     47  H   UNL A   1      40.518  28.731  30.511  1.00  0.00     0.167 HD
ATOM     48  C   UNL A   1      39.839  30.938  34.235  1.00  0.00     0.034 A 
ATOM     49  C   UNL A   1      42.046  27.196  28.745  1.00  0.00     0.034 A 
ATOM     50  C   UNL A   1      41.016  30.146  34.472  1.00  0.00     0.049 A 
ATOM     51  C   UNL A   1      42.808  27.228  30.044  1.00  0.00     0.074 A 
ATOM     52  C   UNL A   1      41.757  30.036  35.635  1.00  0.00     0.029 A 
ATOM     53  N   UNL A   1      41.634  29.342  33.527  1.00  0.00    -0.354 N 
ATOM     54  N   UNL A   1      42.490  27.814  31.173  1.00  0.00    -0.248 NA
ATOM     55  C   UNL A   1      44.074  26.482  30.092  1.00  0.00     0.031 C 
ATOM     56  C   UNL A   1      42.842  29.191  35.382  1.00  0.00     0.029 A 
ATOM     57  C   UNL A   1      42.758  28.747  34.072  1.00  0.00     0.049 A 
ATOM     58  H   UNL A   1      41.319  29.215  32.603  1.00  0.00     0.167 HD
ATOM     59  C   UNL A   1      43.496  27.481  32.074  1.00  0.00     0.074 A 
ATOM     60  C   UNL A   1      44.423  26.623  31.363  1.00  0.00     0.031 C 
ATOM     61  C   UNL A   1      43.647  27.858  33.368  1.00  0.00     0.034 A 
BRANCH  48  62
ATOM     62  C   UNL A   1      39.333  31.815  35.349  1.00  0.00     0.023 A 
ATOM     63  C   UNL A   1      38.428  31.295  36.295  1.00  0.00     0.012 A 
ATOM     64  C   UNL A   1      39.795  33.139  35.490  1.00  0.00     0.148 A 
ATOM     65  C   UNL A   1      37.966  32.087  37.346  1.00  0.00     0.002 A 
ATOM     66  C   UNL A   1      39.365  33.907  36.564  1.00  0.00     0.091 A 
ATOM     67  F   UNL A   1      40.637  33.623  34.565  1.00  0.00    -0.205 F 
ATOM     68  C   UNL A   1      38.442  33.387  37.486  1.00  0.00     0.022 A 
BRANCH  66  69
ATOM     69  S   UNL A   1      39.980  35.566  36.874  1.00  0.00     0.127 S 
ATOM     70  O   UNL A   1      39.322  35.893  38.138  1.00  0.00    -0.237 OA
ATOM     71  O   UNL A   1      41.423  35.345  36.979  1.00  0.00    -0.237 OA
ATOM     72  O   UNL A   1      39.571  36.367  35.730  1.00  0.00    -0.744 OA
ENDBRANCH  66  69
ENDBRANCH  48  62
BRANCH  49  73
ATOM     73  C   UNL A   1      42.564  26.441  27.570  1.00  0.00     0.023 A 
ATOM     74  C   UNL A   1      43.444  27.069  26.668  1.00  0.00     0.012 A 
ATOM     75  C   UNL A   1      42.209  25.094  27.360  1.00  0.00     0.148 A 
ATOM     76  C   UNL A   1      43.937  26.379  25.561  1.00  0.00     0.002 A 
ATOM     77  C   UNL A   1      42.750  24.395  26.287  1.00  0.00     0.091 A 
ATOM     78  F   UNL A   1      41.359  24.520  28.221  1.00  0.00    -0.205 F 
ATOM     79  C   UNL A   1      43.601  25.040  25.377  1.00  0.00     0.022 A 
BRANCH  77  80
ATOM     80  S   UNL A   1      42.477  22.636  26.051  1.00  0.00     0.127 S 
ATOM     81  O   UNL A   1      43.119  22.405  24.759  1.00  0.00    -0.237 OA
ATOM     82  O   UNL A   1      43.179  22.066  27.201  1.00  0.00    -0.237 OA
ATOM     83  O   UNL A   1      41.032  22.454  26.081  1.00  0.00    -0.744 OA
ENDBRANCH  77  80
ENDBRANCH  49  73
BRANCH  61  84
ATOM     84  C   UNL A   1      44.839  27.325  34.119  1.00  0.00     0.023 A 
ATOM     85  C   UNL A   1      46.070  28.008  34.061  1.00  0.00     0.012 A 
ATOM     86  C   UNL A   1      44.719  26.188  34.944  1.00  0.00     0.148 A 
ATOM     87  C   UNL A   1      47.171  27.548  34.783  1.00  0.00     0.002 A 
ATOM     88  C   UNL A   1      45.806  25.766  35.700  1.00  0.00     0.091 A 
ATOM     89  F   UNL A   1      43.544  25.541  34.973  1.00  0.00    -0.205 F 
ATOM     90  C   UNL A   1      47.035  26.437  35.611  1.00  0.00     0.022 A 
BRANCH  88  91
ATOM     91  S   UNL A   1      45.696  24.404  36.866  1.00  0.00     0.127 S 
ATOM     92  O   UNL A   1      45.406  23.276  35.981  1.00  0.00    -0.237 OA
ATOM     93  O   UNL A   1      47.036  24.389  37.454  1.00  0.00    -0.237 OA
ATOM     94  O   UNL A   1      44.632  24.757  37.797  1.00  0.00    -0.744 OA
ENDBRANCH  88  91
ENDBRANCH  61  84
ENDBRANCH  35  36
ENDBRANCH  28  30
ENDBRANCH  27  28
ENDBRANCH  26  27
ENDBRANCH   1  26
TORSDOF 20
ENDMDL
