MODEL 1
REMARK VINA RESULT:     -11.5      0.000      0.000
REMARK SMILES O=C(OCCOCCOC(=O)[C@]12C[NH2+]C[C@H]1CN(C(=O)c1ccccc1-n1cncn1)C2)c1ccc(-c2c3nc(c(-c4cccc(S(=O)(=O)[O-])c4F)c4ccc([nH]4)c(-c4cccc(S(=O)(=O)[O-])c4F)c4nc(c(-c5cccc(S(=O)(=O)[O-])c5F)c5ccc2[nH]5)C=C4)C=C3)cc1
REMARK SMILES IDX 6 1 5 2 4 3 3 4 2 5 1 6 33 7 34 8 95 9 35 10 94 11 36 12
REMARK SMILES IDX 37 13 38 14 88 15 39 16 93 17 87 18 89 19 40 20 92 21 86 22
REMARK SMILES IDX 85 23 41 25 73 26 53 27 72 28 54 29 57 30 71 31 90 32 55 33
REMARK SMILES IDX 56 34 70 36 91 37 58 38 42 39 43 40 51 41 44 42 46 43 52 44
REMARK SMILES IDX 45 45 47 46 48 47 49 48 50 49 74 50 75 51 83 52 76 53 78 54
REMARK SMILES IDX 84 55 77 56 79 57 80 58 81 59 82 60 59 61 60 62 68 63 61 64
REMARK SMILES IDX 63 65 69 66 62 67 64 68 65 69 66 70 67 71 7 72 8 73 9 74
REMARK SMILES IDX 10 75 11 76 12 77 13 78 16 79 32 80 14 81 15 82 17 83 18 84
REMARK SMILES IDX 19 87 20 88 21 89 22 90 26 91 23 92 25 93 24 94 27 95 28 96
REMARK SMILES IDX 31 97 29 98 30 99
REMARK H PARENT 89 24 57 35 14 85 14 86
REMARK Flexibility Score: inf
ROOT
ATOM      1  O   UNL A   1      31.835  30.220  26.459  1.00  0.00    -0.374 OA
ENDROOT
BRANCH   1   2
ATOM      2  C   UNL A   1      31.877  31.637  26.611  1.00  0.00     0.202 C 
BRANCH   2   3
ATOM      3  C   UNL A   1      32.910  32.315  27.531  1.00  0.00     0.261 C 
BRANCH   3   4
ATOM      4  O   UNL A   1      32.507  33.621  27.964  1.00  0.00    -0.460 OA
BRANCH   4   5
ATOM      5  C   UNL A   1      33.191  34.485  28.748  1.00  0.00     0.338 C 
ATOM      6  O   UNL A   1      32.613  35.491  29.155  1.00  0.00    -0.246 OA
BRANCH   5   7
ATOM      7  C   UNL A   1      34.600  34.247  29.151  1.00  0.00     0.060 A 
ATOM      8  C   UNL A   1      35.717  34.519  28.364  1.00  0.00     0.016 A 
ATOM      9  C   UNL A   1      34.785  33.618  30.390  1.00  0.00     0.016 A 
ATOM     10  C   UNL A   1      36.890  33.857  28.589  1.00  0.00     0.010 A 
ATOM     11  C   UNL A   1      36.006  33.054  30.697  1.00  0.00     0.010 A 
ATOM     12  C   UNL A   1      36.999  33.075  29.727  1.00  0.00    -0.014 A 
BRANCH  12  13
ATOM     13  C   UNL A   1      38.257  32.387  29.888  1.00  0.00     0.031 A 
ATOM     14  C   UNL A   1      38.197  30.972  29.435  1.00  0.00     0.074 A 
ATOM     15  C   UNL A   1      39.324  33.027  30.392  1.00  0.00     0.049 A 
ATOM     16  N   UNL A   1      38.370  29.903  30.139  1.00  0.00    -0.248 NA
ATOM     17  C   UNL A   1      37.654  30.722  28.087  1.00  0.00     0.031 C 
ATOM     18  C   UNL A   1      39.480  34.463  30.643  1.00  0.00     0.029 A 
ATOM     19  N   UNL A   1      40.566  32.538  30.627  1.00  0.00    -0.354 N 
ATOM     20  C   UNL A   1      38.201  28.849  29.244  1.00  0.00     0.074 A 
ATOM     21  C   UNL A   1      37.562  29.394  28.077  1.00  0.00     0.031 C 
ATOM     22  C   UNL A   1      40.797  34.756  30.683  1.00  0.00     0.029 A 
ATOM     23  C   UNL A   1      41.551  33.518  30.597  1.00  0.00     0.049 A 
ATOM     24  H   UNL A   1      40.751  31.587  30.800  1.00  0.00     0.167 HD
ATOM     25  C   UNL A   1      38.864  27.674  29.407  1.00  0.00     0.034 A 
ATOM     26  C   UNL A   1      42.871  33.309  30.379  1.00  0.00     0.034 A 
ATOM     27  C   UNL A   1      39.281  27.484  30.770  1.00  0.00     0.049 A 
ATOM     28  C   UNL A   1      43.138  31.872  30.641  1.00  0.00     0.074 A 
ATOM     29  C   UNL A   1      38.621  27.402  31.979  1.00  0.00     0.029 A 
ATOM     30  N   UNL A   1      40.593  27.762  31.070  1.00  0.00    -0.354 N 
ATOM     31  N   UNL A   1      43.026  31.327  31.821  1.00  0.00    -0.248 NA
ATOM     32  C   UNL A   1      43.064  30.951  29.517  1.00  0.00     0.031 C 
ATOM     33  C   UNL A   1      39.452  28.106  32.897  1.00  0.00     0.029 A 
ATOM     34  C   UNL A   1      40.603  28.512  32.216  1.00  0.00     0.049 A 
ATOM     35  H   UNL A   1      41.381  27.475  30.555  1.00  0.00     0.167 HD
ATOM     36  C   UNL A   1      42.418  30.101  31.580  1.00  0.00     0.074 A 
ATOM     37  C   UNL A   1      42.561  29.881  30.141  1.00  0.00     0.031 C 
ATOM     38  C   UNL A   1      41.594  29.526  32.506  1.00  0.00     0.034 A 
BRANCH  25  39
ATOM     39  C   UNL A   1      39.472  26.908  28.259  1.00  0.00     0.023 A 
ATOM     40  C   UNL A   1      39.102  25.557  28.099  1.00  0.00     0.012 A 
ATOM     41  C   UNL A   1      40.581  27.363  27.503  1.00  0.00     0.148 A 
ATOM     42  C   UNL A   1      39.822  24.699  27.261  1.00  0.00     0.002 A 
ATOM     43  C   UNL A   1      41.234  26.532  26.604  1.00  0.00     0.091 A 
ATOM     44  F   UNL A   1      41.113  28.563  27.745  1.00  0.00    -0.205 F 
ATOM     45  C   UNL A   1      40.880  25.188  26.503  1.00  0.00     0.022 A 
BRANCH  43  46
ATOM     46  S   UNL A   1      42.566  27.148  25.567  1.00  0.00     0.127 S 
ATOM     47  O   UNL A   1      43.609  27.413  26.560  1.00  0.00    -0.237 OA
ATOM     48  O   UNL A   1      42.821  25.995  24.699  1.00  0.00    -0.237 OA
ATOM     49  O   UNL A   1      42.026  28.304  24.878  1.00  0.00    -0.744 OA
ENDBRANCH  43  46
ENDBRANCH  25  39
BRANCH  26  50
ATOM     50  C   UNL A   1      43.819  34.167  29.632  1.00  0.00     0.023 A 
ATOM     51  C   UNL A   1      44.697  35.008  30.340  1.00  0.00     0.012 A 
ATOM     52  C   UNL A   1      44.048  33.974  28.250  1.00  0.00     0.148 A 
ATOM     53  C   UNL A   1      45.781  35.622  29.698  1.00  0.00     0.002 A 
ATOM     54  C   UNL A   1      45.118  34.596  27.614  1.00  0.00     0.091 A 
ATOM     55  F   UNL A   1      43.277  33.110  27.578  1.00  0.00    -0.205 F 
ATOM     56  C   UNL A   1      45.994  35.412  28.338  1.00  0.00     0.022 A 
BRANCH  54  57
ATOM     57  S   UNL A   1      45.464  34.355  25.865  1.00  0.00     0.127 S 
ATOM     58  O   UNL A   1      44.204  34.773  25.248  1.00  0.00    -0.237 OA
ATOM     59  O   UNL A   1      46.583  35.268  25.650  1.00  0.00    -0.237 OA
ATOM     60  O   UNL A   1      45.764  32.938  25.709  1.00  0.00    -0.744 OA
ENDBRANCH  54  57
ENDBRANCH  26  50
BRANCH  38  61
ATOM     61  C   UNL A   1      41.524  30.151  33.879  1.00  0.00     0.023 A 
ATOM     62  C   UNL A   1      42.503  29.917  34.869  1.00  0.00     0.012 A 
ATOM     63  C   UNL A   1      40.551  31.135  34.111  1.00  0.00     0.148 A 
ATOM     64  C   UNL A   1      42.494  30.631  36.072  1.00  0.00     0.002 A 
ATOM     65  C   UNL A   1      40.573  31.875  35.286  1.00  0.00     0.091 A 
ATOM     66  F   UNL A   1      39.633  31.354  33.157  1.00  0.00    -0.205 F 
ATOM     67  C   UNL A   1      41.536  31.620  36.274  1.00  0.00     0.022 A 
BRANCH  65  68
ATOM     68  S   UNL A   1      39.448  33.248  35.545  1.00  0.00     0.127 S 
ATOM     69  O   UNL A   1      38.145  32.589  35.485  1.00  0.00    -0.237 OA
ATOM     70  O   UNL A   1      39.834  33.724  36.874  1.00  0.00    -0.237 OA
ATOM     71  O   UNL A   1      39.722  34.198  34.474  1.00  0.00    -0.744 OA
ENDBRANCH  65  68
ENDBRANCH  38  61
ENDBRANCH  12  13
ENDBRANCH   5   7
ENDBRANCH   4   5
ENDBRANCH   3   4
ENDBRANCH   2   3
ENDBRANCH   1   2
BRANCH   1  72
ATOM     72  C   UNL A   1      31.530  29.591  25.213  1.00  0.00     0.202 C 
BRANCH  72  73
ATOM     73  C   UNL A   1      31.782  28.098  25.046  1.00  0.00     0.261 C 
BRANCH  73  74
ATOM     74  O   UNL A   1      30.584  27.425  24.617  1.00  0.00    -0.463 OA
BRANCH  74  75
ATOM     75  C   UNL A   1      30.680  26.070  24.504  1.00  0.00     0.320 C 
ATOM     76  O   UNL A   1      29.995  25.270  25.134  1.00  0.00    -0.251 OA
BRANCH  75  77
ATOM     77  C   UNL A   1      31.872  25.735  23.569  1.00  0.00     0.144 C 
ATOM     78  C   UNL A   1      30.991  26.350  22.417  1.00  0.00     0.281 C 
ATOM     79  C   UNL A   1      32.505  24.767  22.498  1.00  0.00     0.088 C 
ATOM     80  C   UNL A   1      31.950  24.506  24.580  1.00  0.00     0.145 C 
ATOM     81  N   UNL A   1      31.767  26.520  21.179  1.00  0.00    -0.345 N 
ATOM     82  C   UNL A   1      32.828  25.544  21.244  1.00  0.00     0.267 C 
ATOM     83  C   UNL A   1      33.744  24.159  23.147  1.00  0.00     0.130 C 
ATOM     84  N   UNL A   1      33.286  23.976  24.494  1.00  0.00    -0.337 N 
ATOM     85  H   UNL A   1      32.152  27.463  21.129  1.00  0.00     0.346 HD
ATOM     86  H   UNL A   1      31.185  26.391  20.350  1.00  0.00     0.346 HD
BRANCH  84  87
ATOM     87  C   UNL A   1      34.065  23.545  25.547  1.00  0.00     0.256 C 
ATOM     88  O   UNL A   1      33.831  23.831  26.718  1.00  0.00    -0.269 OA
BRANCH  87  89
ATOM     89  C   UNL A   1      35.227  22.654  25.246  1.00  0.00     0.065 A 
ATOM     90  C   UNL A   1      36.494  23.239  25.424  1.00  0.00     0.016 A 
ATOM     91  C   UNL A   1      35.139  21.271  24.988  1.00  0.00     0.079 A 
ATOM     92  C   UNL A   1      37.656  22.466  25.346  1.00  0.00     0.001 A 
ATOM     93  C   UNL A   1      36.319  20.500  24.942  1.00  0.00     0.029 A 
ATOM     94  C   UNL A   1      37.568  21.098  25.104  1.00  0.00     0.002 A 
BRANCH  91  95
ATOM     95  N   UNL A   1      33.905  20.586  24.864  1.00  0.00    -0.220 N 
ATOM     96  C   UNL A   1      33.182  19.879  25.793  1.00  0.00     0.225 A 
ATOM     97  N   UNL A   1      33.299  20.466  23.655  1.00  0.00    -0.155 NA
ATOM     98  N   UNL A   1      32.238  19.179  25.205  1.00  0.00    -0.223 NA
ATOM     99  C   UNL A   1      32.373  19.537  23.898  1.00  0.00     0.246 A 
ENDBRANCH  91  95
ENDBRANCH  87  89
ENDBRANCH  84  87
ENDBRANCH  75  77
ENDBRANCH  74  75
ENDBRANCH  73  74
ENDBRANCH  72  73
ENDBRANCH   1  72
TORSDOF 20
ENDMDL
MODEL 2
REMARK VINA RESULT:     -11.4      2.863      7.732
REMARK SMILES O=C(OCCOCCOC(=O)[C@]12C[NH2+]C[C@H]1CN(C(=O)c1ccccc1-n1cncn1)C2)c1ccc(-c2c3nc(c(-c4cccc(S(=O)(=O)[O-])c4F)c4ccc([nH]4)c(-c4cccc(S(=O)(=O)[O-])c4F)c4nc(c(-c5cccc(S(=O)(=O)[O-])c5F)c5ccc2[nH]5)C=C4)C=C3)cc1
REMARK SMILES IDX 6 1 5 2 4 3 3 4 2 5 1 6 33 7 34 8 95 9 35 10 94 11 36 12
REMARK SMILES IDX 37 13 38 14 88 15 39 16 93 17 87 18 89 19 40 20 92 21 86 22
REMARK SMILES IDX 85 23 41 25 73 26 53 27 72 28 54 29 57 30 71 31 90 32 55 33
REMARK SMILES IDX 56 34 70 36 91 37 58 38 42 39 43 40 51 41 44 42 46 43 52 44
REMARK SMILES IDX 45 45 47 46 48 47 49 48 50 49 74 50 75 51 83 52 76 53 78 54
REMARK SMILES IDX 84 55 77 56 79 57 80 58 81 59 82 60 59 61 60 62 68 63 61 64
REMARK SMILES IDX 63 65 69 66 62 67 64 68 65 69 66 70 67 71 7 72 8 73 9 74
REMARK SMILES IDX 10 75 11 76 12 77 13 78 16 79 32 80 14 81 15 82 17 83 18 84
REMARK SMILES IDX 19 87 20 88 21 89 22 90 26 91 23 92 25 93 24 94 27 95 28 96
REMARK SMILES IDX 31 97 29 98 30 99
REMARK H PARENT 89 24 57 35 14 85 14 86
REMARK Flexibility Score: inf
ROOT
ATOM      1  O   UNL A   1      37.545  23.386  25.215  1.00  0.00    -0.374 OA
ENDROOT
BRANCH   1   2
ATOM      2  C   UNL A   1      37.918  22.022  25.393  1.00  0.00     0.202 C 
BRANCH   2   3
ATOM      3  C   UNL A   1      39.201  21.634  26.153  1.00  0.00     0.261 C 
BRANCH   3   4
ATOM      4  O   UNL A   1      39.646  22.650  27.062  1.00  0.00    -0.460 OA
BRANCH   4   5
ATOM      5  C   UNL A   1      40.913  23.062  27.293  1.00  0.00     0.338 C 
ATOM      6  O   UNL A   1      41.816  22.228  27.265  1.00  0.00    -0.246 OA
BRANCH   5   7
ATOM      7  C   UNL A   1      41.250  24.485  27.555  1.00  0.00     0.060 A 
ATOM      8  C   UNL A   1      42.265  24.926  28.401  1.00  0.00     0.016 A 
ATOM      9  C   UNL A   1      40.406  25.433  26.961  1.00  0.00     0.016 A 
ATOM     10  C   UNL A   1      42.206  26.177  28.947  1.00  0.00     0.010 A 
ATOM     11  C   UNL A   1      40.421  26.738  27.406  1.00  0.00     0.010 A 
ATOM     12  C   UNL A   1      41.236  27.052  28.486  1.00  0.00    -0.014 A 
BRANCH  12  13
ATOM     13  C   UNL A   1      41.217  28.346  29.124  1.00  0.00     0.031 A 
ATOM     14  C   UNL A   1      42.256  29.264  28.587  1.00  0.00     0.074 A 
ATOM     15  C   UNL A   1      40.320  28.619  30.085  1.00  0.00     0.049 A 
ATOM     16  N   UNL A   1      43.252  29.793  29.217  1.00  0.00    -0.248 NA
ATOM     17  C   UNL A   1      42.317  29.425  27.123  1.00  0.00     0.031 C 
ATOM     18  C   UNL A   1      39.154  27.824  30.483  1.00  0.00     0.029 A 
ATOM     19  N   UNL A   1      40.169  29.762  30.797  1.00  0.00    -0.354 N 
ATOM     20  C   UNL A   1      43.918  30.558  28.262  1.00  0.00     0.074 A 
ATOM     21  C   UNL A   1      43.437  30.129  26.977  1.00  0.00     0.031 C 
ATOM     22  C   UNL A   1      38.272  28.632  31.110  1.00  0.00     0.029 A 
ATOM     23  C   UNL A   1      38.875  29.943  31.268  1.00  0.00     0.049 A 
ATOM     24  H   UNL A   1      40.902  30.399  30.963  1.00  0.00     0.167 HD
ATOM     25  C   UNL A   1      44.591  31.687  28.609  1.00  0.00     0.034 A 
ATOM     26  C   UNL A   1      38.320  31.125  31.627  1.00  0.00     0.034 A 
ATOM     27  C   UNL A   1      44.953  31.683  30.000  1.00  0.00     0.049 A 
ATOM     28  C   UNL A   1      39.433  32.077  31.872  1.00  0.00     0.074 A 
ATOM     29  C   UNL A   1      45.719  30.854  30.796  1.00  0.00     0.029 A 
ATOM     30  N   UNL A   1      44.166  32.413  30.857  1.00  0.00    -0.354 N 
ATOM     31  N   UNL A   1      40.291  31.938  32.845  1.00  0.00    -0.248 NA
ATOM     32  C   UNL A   1      39.873  32.909  30.763  1.00  0.00     0.031 C 
ATOM     33  C   UNL A   1      45.014  30.782  32.031  1.00  0.00     0.029 A 
ATOM     34  C   UNL A   1      43.903  31.625  31.946  1.00  0.00     0.049 A 
ATOM     35  H   UNL A   1      43.849  33.334  30.714  1.00  0.00     0.167 HD
ATOM     36  C   UNL A   1      41.515  32.268  32.276  1.00  0.00     0.074 A 
ATOM     37  C   UNL A   1      41.183  32.955  31.028  1.00  0.00     0.031 C 
ATOM     38  C   UNL A   1      42.676  31.691  32.709  1.00  0.00     0.034 A 
BRANCH  25  39
ATOM     39  C   UNL A   1      44.558  32.949  27.783  1.00  0.00     0.023 A 
ATOM     40  C   UNL A   1      45.648  33.203  26.926  1.00  0.00     0.012 A 
ATOM     41  C   UNL A   1      43.655  34.018  28.007  1.00  0.00     0.148 A 
ATOM     42  C   UNL A   1      45.846  34.464  26.353  1.00  0.00     0.002 A 
ATOM     43  C   UNL A   1      43.806  35.239  27.365  1.00  0.00     0.091 A 
ATOM     44  F   UNL A   1      42.719  33.921  28.954  1.00  0.00    -0.205 F 
ATOM     45  C   UNL A   1      44.919  35.479  26.561  1.00  0.00     0.022 A 
BRANCH  43  46
ATOM     46  S   UNL A   1      42.594  36.551  27.565  1.00  0.00     0.127 S 
ATOM     47  O   UNL A   1      43.014  37.494  26.527  1.00  0.00    -0.237 OA
ATOM     48  O   UNL A   1      41.342  35.841  27.284  1.00  0.00    -0.237 OA
ATOM     49  O   UNL A   1      42.727  37.004  28.936  1.00  0.00    -0.744 OA
ENDBRANCH  43  46
ENDBRANCH  25  39
BRANCH  26  50
ATOM     50  C   UNL A   1      36.923  31.575  31.428  1.00  0.00     0.023 A 
ATOM     51  C   UNL A   1      36.177  32.026  32.533  1.00  0.00     0.012 A 
ATOM     52  C   UNL A   1      36.406  31.810  30.133  1.00  0.00     0.148 A 
ATOM     53  C   UNL A   1      34.966  32.709  32.354  1.00  0.00     0.002 A 
ATOM     54  C   UNL A   1      35.197  32.477  29.961  1.00  0.00     0.091 A 
ATOM     55  F   UNL A   1      37.142  31.467  29.068  1.00  0.00    -0.205 F 
ATOM     56  C   UNL A   1      34.480  32.938  31.070  1.00  0.00     0.022 A 
BRANCH  54  57
ATOM     57  S   UNL A   1      34.519  32.823  28.331  1.00  0.00     0.127 S 
ATOM     58  O   UNL A   1      35.670  33.408  27.643  1.00  0.00    -0.237 OA
ATOM     59  O   UNL A   1      34.143  31.489  27.871  1.00  0.00    -0.237 OA
ATOM     60  O   UNL A   1      33.416  33.752  28.547  1.00  0.00    -0.744 OA
ENDBRANCH  54  57
ENDBRANCH  26  50
BRANCH  38  61
ATOM     61  C   UNL A   1      42.623  30.845  33.959  1.00  0.00     0.023 A 
ATOM     62  C   UNL A   1      42.670  31.403  35.256  1.00  0.00     0.012 A 
ATOM     63  C   UNL A   1      42.338  29.478  33.822  1.00  0.00     0.148 A 
ATOM     64  C   UNL A   1      42.462  30.609  36.388  1.00  0.00     0.002 A 
ATOM     65  C   UNL A   1      42.085  28.702  34.947  1.00  0.00     0.091 A 
ATOM     66  F   UNL A   1      42.287  28.963  32.584  1.00  0.00    -0.205 F 
ATOM     67  C   UNL A   1      42.156  29.260  36.232  1.00  0.00     0.022 A 
BRANCH  65  68
ATOM     68  S   UNL A   1      41.559  26.993  34.801  1.00  0.00     0.127 S 
ATOM     69  O   UNL A   1      41.192  26.669  36.178  1.00  0.00    -0.237 OA
ATOM     70  O   UNL A   1      40.432  27.088  33.872  1.00  0.00    -0.237 OA
ATOM     71  O   UNL A   1      42.705  26.266  34.268  1.00  0.00    -0.744 OA
ENDBRANCH  65  68
ENDBRANCH  38  61
ENDBRANCH  12  13
ENDBRANCH   5   7
ENDBRANCH   4   5
ENDBRANCH   3   4
ENDBRANCH   2   3
ENDBRANCH   1   2
BRANCH   1  72
ATOM     72  C   UNL A   1      36.255  23.773  24.740  1.00  0.00     0.202 C 
BRANCH  72  73
ATOM     73  C   UNL A   1      35.633  23.024  23.568  1.00  0.00     0.261 C 
BRANCH  73  74
ATOM     74  O   UNL A   1      34.221  23.290  23.487  1.00  0.00    -0.463 OA
BRANCH  74  75
ATOM     75  C   UNL A   1      33.412  22.333  24.022  1.00  0.00     0.320 C 
ATOM     76  O   UNL A   1      32.933  21.395  23.390  1.00  0.00    -0.251 OA
BRANCH  75  77
ATOM     77  C   UNL A   1      33.101  22.713  25.493  1.00  0.00     0.144 C 
ATOM     78  C   UNL A   1      33.723  21.313  25.864  1.00  0.00     0.281 C 
ATOM     79  C   UNL A   1      32.154  22.566  26.745  1.00  0.00     0.088 C 
ATOM     80  C   UNL A   1      31.859  23.388  24.759  1.00  0.00     0.145 C 
ATOM     81  N   UNL A   1      33.918  21.179  27.316  1.00  0.00    -0.345 N 
ATOM     82  C   UNL A   1      32.952  22.062  27.925  1.00  0.00     0.267 C 
ATOM     83  C   UNL A   1      31.550  23.944  26.991  1.00  0.00     0.130 C 
ATOM     84  N   UNL A   1      31.344  24.397  25.647  1.00  0.00    -0.337 N 
ATOM     85  H   UNL A   1      34.865  21.456  27.573  1.00  0.00     0.346 HD
ATOM     86  H   UNL A   1      33.794  20.214  27.624  1.00  0.00     0.346 HD
BRANCH  84  87
ATOM     87  C   UNL A   1      30.906  25.655  25.290  1.00  0.00     0.256 C 
ATOM     88  O   UNL A   1      29.749  25.895  24.956  1.00  0.00    -0.269 OA
BRANCH  87  89
ATOM     89  C   UNL A   1      31.882  26.785  25.354  1.00  0.00     0.065 A 
ATOM     90  C   UNL A   1      32.190  27.239  26.650  1.00  0.00     0.016 A 
ATOM     91  C   UNL A   1      32.623  27.278  24.260  1.00  0.00     0.079 A 
ATOM     92  C   UNL A   1      33.214  28.168  26.858  1.00  0.00     0.001 A 
ATOM     93  C   UNL A   1      33.671  28.192  24.490  1.00  0.00     0.029 A 
ATOM     94  C   UNL A   1      33.953  28.644  25.778  1.00  0.00     0.002 A 
BRANCH  91  95
ATOM     95  N   UNL A   1      32.428  26.826  22.932  1.00  0.00    -0.220 N 
ATOM     96  C   UNL A   1      31.340  26.944  22.102  1.00  0.00     0.225 A 
ATOM     97  N   UNL A   1      33.366  26.060  22.316  1.00  0.00    -0.155 NA
ATOM     98  N   UNL A   1      31.471  26.156  21.058  1.00  0.00    -0.223 NA
ATOM     99  C   UNL A   1      32.702  25.608  21.251  1.00  0.00     0.246 A 
ENDBRANCH  91  95
ENDBRANCH  87  89
ENDBRANCH  84  87
ENDBRANCH  75  77
ENDBRANCH  74  75
ENDBRANCH  73  74
ENDBRANCH  72  73
ENDBRANCH   1  72
TORSDOF 20
ENDMDL
MODEL 3
REMARK VINA RESULT:     -11.2      2.880      7.568
REMARK SMILES O=C(OCCOCCOC(=O)[C@]12C[NH2+]C[C@H]1CN(C(=O)c1ccccc1-n1cncn1)C2)c1ccc(-c2c3nc(c(-c4cccc(S(=O)(=O)[O-])c4F)c4ccc([nH]4)c(-c4cccc(S(=O)(=O)[O-])c4F)c4nc(c(-c5cccc(S(=O)(=O)[O-])c5F)c5ccc2[nH]5)C=C4)C=C3)cc1
REMARK SMILES IDX 6 1 5 2 4 3 3 4 2 5 1 6 33 7 34 8 95 9 35 10 94 11 36 12
REMARK SMILES IDX 37 13 38 14 88 15 39 16 93 17 87 18 89 19 40 20 92 21 86 22
REMARK SMILES IDX 85 23 41 25 73 26 53 27 72 28 54 29 57 30 71 31 90 32 55 33
REMARK SMILES IDX 56 34 70 36 91 37 58 38 42 39 43 40 51 41 44 42 46 43 52 44
REMARK SMILES IDX 45 45 47 46 48 47 49 48 50 49 74 50 75 51 83 52 76 53 78 54
REMARK SMILES IDX 84 55 77 56 79 57 80 58 81 59 82 60 59 61 60 62 68 63 61 64
REMARK SMILES IDX 63 65 69 66 62 67 64 68 65 69 66 70 67 71 7 72 8 73 9 74
REMARK SMILES IDX 10 75 11 76 12 77 13 78 16 79 32 80 14 81 15 82 17 83 18 84
REMARK SMILES IDX 19 87 20 88 21 89 22 90 26 91 23 92 25 93 24 94 27 95 28 96
REMARK SMILES IDX 31 97 29 98 30 99
REMARK H PARENT 89 24 57 35 14 85 14 86
REMARK Flexibility Score: inf
ROOT
ATOM      1  O   UNL A   1      36.328  22.977  25.973  1.00  0.00    -0.374 OA
ENDROOT
BRANCH   1   2
ATOM      2  C   UNL A   1      37.692  23.089  25.576  1.00  0.00     0.202 C 
BRANCH   2   3
ATOM      3  C   UNL A   1      38.701  21.956  25.845  1.00  0.00     0.261 C 
BRANCH   3   4
ATOM      4  O   UNL A   1      39.691  22.304  26.823  1.00  0.00    -0.460 OA
BRANCH   4   5
ATOM      5  C   UNL A   1      40.549  23.348  26.803  1.00  0.00     0.338 C 
ATOM      6  O   UNL A   1      41.405  23.389  25.921  1.00  0.00    -0.246 OA
BRANCH   5   7
ATOM      7  C   UNL A   1      40.476  24.455  27.792  1.00  0.00     0.060 A 
ATOM      8  C   UNL A   1      39.369  25.275  27.999  1.00  0.00     0.016 A 
ATOM      9  C   UNL A   1      41.659  24.727  28.493  1.00  0.00     0.016 A 
ATOM     10  C   UNL A   1      39.529  26.516  28.546  1.00  0.00     0.010 A 
ATOM     11  C   UNL A   1      41.796  25.924  29.166  1.00  0.00     0.010 A 
ATOM     12  C   UNL A   1      40.768  26.852  29.068  1.00  0.00    -0.014 A 
BRANCH  12  13
ATOM     13  C   UNL A   1      40.872  28.186  29.606  1.00  0.00     0.031 A 
ATOM     14  C   UNL A   1      41.885  29.012  28.898  1.00  0.00     0.074 A 
ATOM     15  C   UNL A   1      40.095  28.569  30.633  1.00  0.00     0.049 A 
ATOM     16  N   UNL A   1      42.964  29.534  29.380  1.00  0.00    -0.248 NA
ATOM     17  C   UNL A   1      41.795  29.068  27.428  1.00  0.00     0.031 C 
ATOM     18  C   UNL A   1      38.946  27.862  31.208  1.00  0.00     0.029 A 
ATOM     19  N   UNL A   1      40.070  29.764  31.271  1.00  0.00    -0.354 N 
ATOM     20  C   UNL A   1      43.555  30.197  28.307  1.00  0.00     0.074 A 
ATOM     21  C   UNL A   1      42.921  29.704  27.114  1.00  0.00     0.031 C 
ATOM     22  C   UNL A   1      38.171  28.753  31.862  1.00  0.00     0.029 A 
ATOM     23  C   UNL A   1      38.842  30.041  31.859  1.00  0.00     0.049 A 
ATOM     24  H   UNL A   1      40.842  30.374  31.312  1.00  0.00     0.167 HD
ATOM     25  C   UNL A   1      44.308  31.313  28.498  1.00  0.00     0.034 A 
ATOM     26  C   UNL A   1      38.379  31.271  32.185  1.00  0.00     0.034 A 
ATOM     27  C   UNL A   1      44.817  31.386  29.840  1.00  0.00     0.049 A 
ATOM     28  C   UNL A   1      39.551  32.181  32.243  1.00  0.00     0.074 A 
ATOM     29  C   UNL A   1      45.628  30.578  30.611  1.00  0.00     0.029 A 
ATOM     30  N   UNL A   1      44.158  32.212  30.718  1.00  0.00    -0.354 N 
ATOM     31  N   UNL A   1      40.502  32.068  33.128  1.00  0.00    -0.248 NA
ATOM     32  C   UNL A   1      39.904  32.911  31.035  1.00  0.00     0.031 C 
ATOM     33  C   UNL A   1      45.058  30.626  31.915  1.00  0.00     0.029 A 
ATOM     34  C   UNL A   1      43.980  31.515  31.884  1.00  0.00     0.049 A 
ATOM     35  H   UNL A   1      43.866  33.135  30.541  1.00  0.00     0.167 HD
ATOM     36  C   UNL A   1      41.671  32.296  32.412  1.00  0.00     0.074 A 
ATOM     37  C   UNL A   1      41.235  32.911  31.158  1.00  0.00     0.031 C 
ATOM     38  C   UNL A   1      42.846  31.694  32.764  1.00  0.00     0.034 A 
BRANCH  25  39
ATOM     39  C   UNL A   1      44.240  32.514  27.589  1.00  0.00     0.023 A 
ATOM     40  C   UNL A   1      45.132  32.567  26.500  1.00  0.00     0.012 A 
ATOM     41  C   UNL A   1      43.541  33.706  27.905  1.00  0.00     0.148 A 
ATOM     42  C   UNL A   1      45.344  33.753  25.788  1.00  0.00     0.002 A 
ATOM     43  C   UNL A   1      43.686  34.854  27.139  1.00  0.00     0.091 A 
ATOM     44  F   UNL A   1      42.835  33.793  29.034  1.00  0.00    -0.205 F 
ATOM     45  C   UNL A   1      44.612  34.894  26.098  1.00  0.00     0.022 A 
BRANCH  43  46
ATOM     46  S   UNL A   1      42.712  36.326  27.476  1.00  0.00     0.127 S 
ATOM     47  O   UNL A   1      41.354  35.779  27.486  1.00  0.00    -0.237 OA
ATOM     48  O   UNL A   1      43.225  36.725  28.790  1.00  0.00    -0.237 OA
ATOM     49  O   UNL A   1      43.022  37.257  26.408  1.00  0.00    -0.744 OA
ENDBRANCH  43  46
ENDBRANCH  25  39
BRANCH  26  50
ATOM     50  C   UNL A   1      36.989  31.775  32.101  1.00  0.00     0.023 A 
ATOM     51  C   UNL A   1      36.312  32.142  33.279  1.00  0.00     0.012 A 
ATOM     52  C   UNL A   1      36.417  32.143  30.860  1.00  0.00     0.148 A 
ATOM     53  C   UNL A   1      35.116  32.870  33.225  1.00  0.00     0.002 A 
ATOM     54  C   UNL A   1      35.223  32.854  30.811  1.00  0.00     0.091 A 
ATOM     55  F   UNL A   1      37.090  31.879  29.732  1.00  0.00    -0.205 F 
ATOM     56  C   UNL A   1      34.575  33.230  31.993  1.00  0.00     0.022 A 
BRANCH  54  57
ATOM     57  S   UNL A   1      34.477  33.368  29.257  1.00  0.00     0.127 S 
ATOM     58  O   UNL A   1      33.319  34.135  29.717  1.00  0.00    -0.237 OA
ATOM     59  O   UNL A   1      35.544  34.168  28.661  1.00  0.00    -0.237 OA
ATOM     60  O   UNL A   1      34.138  32.139  28.552  1.00  0.00    -0.744 OA
ENDBRANCH  54  57
ENDBRANCH  26  50
BRANCH  38  61
ATOM     61  C   UNL A   1      42.892  30.940  34.072  1.00  0.00     0.023 A 
ATOM     62  C   UNL A   1      43.087  31.585  35.313  1.00  0.00     0.012 A 
ATOM     63  C   UNL A   1      42.551  29.579  34.064  1.00  0.00     0.148 A 
ATOM     64  C   UNL A   1      42.969  30.881  36.515  1.00  0.00     0.002 A 
ATOM     65  C   UNL A   1      42.388  28.894  35.261  1.00  0.00     0.091 A 
ATOM     66  F   UNL A   1      42.359  28.982  32.878  1.00  0.00    -0.205 F 
ATOM     67  C   UNL A   1      42.606  29.537  36.489  1.00  0.00     0.022 A 
BRANCH  65  68
ATOM     68  S   UNL A   1      41.795  27.201  35.294  1.00  0.00     0.127 S 
ATOM     69  O   UNL A   1      41.379  27.050  36.686  1.00  0.00    -0.237 OA
ATOM     70  O   UNL A   1      40.698  27.233  34.326  1.00  0.00    -0.237 OA
ATOM     71  O   UNL A   1      42.923  26.374  34.882  1.00  0.00    -0.744 OA
ENDBRANCH  65  68
ENDBRANCH  38  61
ENDBRANCH  12  13
ENDBRANCH   5   7
ENDBRANCH   4   5
ENDBRANCH   3   4
ENDBRANCH   2   3
ENDBRANCH   1   2
BRANCH   1  72
ATOM     72  C   UNL A   1      35.673  21.716  26.120  1.00  0.00     0.202 C 
BRANCH  72  73
ATOM     73  C   UNL A   1      34.226  21.674  26.596  1.00  0.00     0.261 C 
BRANCH  73  74
ATOM     74  O   UNL A   1      33.330  22.036  25.531  1.00  0.00    -0.463 OA
BRANCH  74  75
ATOM     75  C   UNL A   1      32.994  23.355  25.469  1.00  0.00     0.320 C 
ATOM     76  O   UNL A   1      32.740  24.053  26.447  1.00  0.00    -0.251 OA
BRANCH  75  77
ATOM     77  C   UNL A   1      32.856  23.762  23.979  1.00  0.00     0.144 C 
ATOM     78  C   UNL A   1      32.772  22.217  23.685  1.00  0.00     0.281 C 
ATOM     79  C   UNL A   1      33.538  23.941  22.569  1.00  0.00     0.088 C 
ATOM     80  C   UNL A   1      33.848  24.898  24.491  1.00  0.00     0.145 C 
ATOM     81  N   UNL A   1      32.381  21.955  22.291  1.00  0.00    -0.345 N 
ATOM     82  C   UNL A   1      32.798  23.116  21.542  1.00  0.00     0.267 C 
ATOM     83  C   UNL A   1      33.502  25.433  22.259  1.00  0.00     0.130 C 
ATOM     84  N   UNL A   1      33.758  25.989  23.556  1.00  0.00    -0.337 N 
ATOM     85  H   UNL A   1      31.372  21.831  22.223  1.00  0.00     0.346 HD
ATOM     86  H   UNL A   1      32.813  21.101  21.934  1.00  0.00     0.346 HD
BRANCH  84  87
ATOM     87  C   UNL A   1      33.729  27.332  23.866  1.00  0.00     0.256 C 
ATOM     88  O   UNL A   1      34.063  28.212  23.077  1.00  0.00    -0.269 OA
BRANCH  87  89
ATOM     89  C   UNL A   1      33.226  27.733  25.215  1.00  0.00     0.065 A 
ATOM     90  C   UNL A   1      34.206  28.219  26.100  1.00  0.00     0.016 A 
ATOM     91  C   UNL A   1      31.867  27.829  25.576  1.00  0.00     0.079 A 
ATOM     92  C   UNL A   1      33.844  28.788  27.325  1.00  0.00     0.001 A 
ATOM     93  C   UNL A   1      31.517  28.432  26.802  1.00  0.00     0.029 A 
ATOM     94  C   UNL A   1      32.501  28.893  27.675  1.00  0.00     0.002 A 
BRANCH  91  95
ATOM     95  N   UNL A   1      30.812  27.430  24.719  1.00  0.00    -0.220 N 
ATOM     96  C   UNL A   1      30.198  28.101  23.690  1.00  0.00     0.225 A 
ATOM     97  N   UNL A   1      30.166  26.251  24.918  1.00  0.00    -0.155 NA
ATOM     98  N   UNL A   1      29.093  27.485  23.333  1.00  0.00    -0.223 NA
ATOM     99  C   UNL A   1      29.094  26.385  24.136  1.00  0.00     0.246 A 
ENDBRANCH  91  95
ENDBRANCH  87  89
ENDBRANCH  84  87
ENDBRANCH  75  77
ENDBRANCH  74  75
ENDBRANCH  73  74
ENDBRANCH  72  73
ENDBRANCH   1  72
TORSDOF 20
ENDMDL
