MODEL 1
REMARK VINA RESULT:     -10.5      0.000      0.000
REMARK SMILES COc1cc(C)c(S(=O)(=O)Nc2cc(C(=O)OCCOCCOC(=O)c3ccc(-c4c5nc(c(-c6cccc(S(=O)(=O)[O-])c6F)c6ccc([nH]6)c(-c6cccc(S(=O)(=O)[O-])c6F)c6nc(c(-c7cccc(S(=O)(=O)[O-])c7F)c7ccc4[nH]7)C=C6)C=C5)cc3)ccc2F)cc1OC
REMARK SMILES IDX 19 1 18 2 17 3 15 4 16 5 14 6 12 7 13 8 91 9 90 10 92 11
REMARK SMILES IDX 89 12 11 13 8 15 9 16 10 17 7 18 3 19 4 20 94 21 5 22 93 23
REMARK SMILES IDX 6 24 2 25 1 26 95 27 96 28 20 29 21 30 22 31 23 32 24 33
REMARK SMILES IDX 25 34 26 35 27 36 88 37 28 38 87 39 29 40 30 41 31 42 81 43
REMARK SMILES IDX 32 44 86 45 80 46 82 47 33 48 85 49 79 50 78 51 34 53 66 54
REMARK SMILES IDX 46 55 65 56 47 57 50 58 64 59 83 60 48 61 49 62 63 64 84 65
REMARK SMILES IDX 51 66 35 67 36 68 44 69 37 70 39 71 45 72 38 73 40 74 41 75
REMARK SMILES IDX 42 76 43 77 67 78 68 79 76 80 69 81 71 82 77 83 70 84 72 85
REMARK SMILES IDX 73 86 74 87 75 88 52 89 53 90 61 91 54 92 56 93 62 94 55 95
REMARK SMILES IDX 57 96 58 97 59 98 60 99
REMARK H PARENT 11 14 82 52 50 63
REMARK Flexibility Score: inf
ROOT
ATOM      1  C   UNL A   1      32.549  28.618  22.763  1.00  0.00     0.202 C 
ENDROOT
BRANCH   1   2
ATOM      2  C   UNL A   1      32.344  27.115  22.432  1.00  0.00     0.261 C 
BRANCH   2   3
ATOM      3  O   UNL A   1      31.038  26.740  22.043  1.00  0.00    -0.460 OA
BRANCH   3   4
ATOM      4  C   UNL A   1      30.170  27.047  23.007  1.00  0.00     0.338 C 
ATOM      5  O   UNL A   1      29.319  27.918  23.028  1.00  0.00    -0.246 OA
BRANCH   4   6
ATOM      6  C   UNL A   1      30.161  25.958  23.966  1.00  0.00     0.062 A 
ATOM      7  C   UNL A   1      30.900  23.798  24.585  1.00  0.00     0.085 A 
ATOM      8  C   UNL A   1      30.378  24.621  23.594  1.00  0.00     0.045 A 
ATOM      9  C   UNL A   1      30.889  24.229  25.936  1.00  0.00     0.147 A 
ATOM     10  C   UNL A   1      30.586  25.537  26.290  1.00  0.00     0.042 A 
ATOM     11  F   UNL A   1      31.398  23.425  26.883  1.00  0.00    -0.205 F 
ATOM     12  C   UNL A   1      30.263  26.421  25.286  1.00  0.00     0.019 A 
BRANCH   7  13
ATOM     13  N   UNL A   1      31.684  22.635  24.329  1.00  0.00    -0.277 N 
ATOM     14  H   UNL A   1      31.288  21.780  24.616  1.00  0.00     0.180 HD
BRANCH  13  15
ATOM     15  S   UNL A   1      33.187  22.534  23.606  1.00  0.00     0.262 S 
ATOM     16  O   UNL A   1      33.248  23.542  22.566  1.00  0.00    -0.201 OA
ATOM     17  O   UNL A   1      33.291  21.128  23.261  1.00  0.00    -0.201 OA
BRANCH  15  18
ATOM     18  C   UNL A   1      34.581  22.840  24.694  1.00  0.00     0.094 A 
ATOM     19  C   UNL A   1      37.129  23.278  25.679  1.00  0.00     0.161 A 
ATOM     20  C   UNL A   1      36.089  24.084  26.096  1.00  0.00     0.055 A 
ATOM     21  C   UNL A   1      36.845  22.033  25.143  1.00  0.00     0.162 A 
ATOM     22  C   UNL A   1      34.861  23.981  25.453  1.00  0.00    -0.027 A 
ATOM     23  C   UNL A   1      35.546  21.804  24.683  1.00  0.00     0.073 A 
ATOM     24  C   UNL A   1      34.156  25.281  25.444  1.00  0.00     0.046 C 
BRANCH  19  25
ATOM     25  O   UNL A   1      38.355  23.876  25.551  1.00  0.00    -0.493 OA
ATOM     26  C   UNL A   1      38.729  24.490  26.816  1.00  0.00     0.278 C 
ENDBRANCH  19  25
BRANCH  21  27
ATOM     27  O   UNL A   1      37.679  20.956  25.236  1.00  0.00    -0.493 OA
ATOM     28  C   UNL A   1      37.077  19.709  24.922  1.00  0.00     0.278 C 
ENDBRANCH  21  27
ENDBRANCH  15  18
ENDBRANCH  13  15
ENDBRANCH   7  13
ENDBRANCH   4   6
ENDBRANCH   3   4
ENDBRANCH   2   3
ENDBRANCH   1   2
BRANCH   1  29
ATOM     29  O   UNL A   1      33.001  28.952  24.047  1.00  0.00    -0.374 OA
BRANCH  29  30
ATOM     30  C   UNL A   1      32.015  29.644  24.771  1.00  0.00     0.202 C 
BRANCH  30  31
ATOM     31  C   UNL A   1      32.303  30.300  26.170  1.00  0.00     0.261 C 
BRANCH  31  32
ATOM     32  O   UNL A   1      33.624  30.342  26.994  1.00  0.00    -0.460 OA
BRANCH  32  33
ATOM     33  C   UNL A   1      34.792  30.314  27.690  1.00  0.00     0.338 C 
ATOM     34  O   UNL A   1      35.406  29.253  27.696  1.00  0.00    -0.246 OA
BRANCH  33  35
ATOM     35  C   UNL A   1      35.351  31.421  28.602  1.00  0.00     0.060 A 
ATOM     36  C   UNL A   1      36.211  32.382  28.082  1.00  0.00     0.016 A 
ATOM     37  C   UNL A   1      35.232  31.509  29.969  1.00  0.00     0.016 A 
ATOM     38  C   UNL A   1      37.360  32.753  28.802  1.00  0.00     0.010 A 
ATOM     39  C   UNL A   1      36.398  31.777  30.688  1.00  0.00     0.010 A 
ATOM     40  C   UNL A   1      37.565  32.150  30.010  1.00  0.00    -0.014 A 
BRANCH  40  41
ATOM     41  C   UNL A   1      38.861  31.705  30.581  1.00  0.00     0.031 A 
ATOM     42  C   UNL A   1      39.468  30.504  29.937  1.00  0.00     0.074 A 
ATOM     43  C   UNL A   1      39.585  32.582  31.319  1.00  0.00     0.049 A 
ATOM     44  N   UNL A   1      40.704  30.159  29.790  1.00  0.00    -0.248 NA
ATOM     45  C   UNL A   1      38.524  29.544  29.352  1.00  0.00     0.031 C 
ATOM     46  C   UNL A   1      41.006  32.861  31.208  1.00  0.00     0.029 A 
ATOM     47  N   UNL A   1      39.210  33.404  32.364  1.00  0.00    -0.354 N 
ATOM     48  C   UNL A   1      40.697  28.978  29.042  1.00  0.00     0.074 A 
ATOM     49  C   UNL A   1      39.326  28.709  28.701  1.00  0.00     0.031 C 
ATOM     50  C   UNL A   1      41.425  33.588  32.256  1.00  0.00     0.029 A 
ATOM     51  C   UNL A   1      40.316  33.754  33.151  1.00  0.00     0.049 A 
ATOM     52  H   UNL A   1      38.287  33.704  32.534  1.00  0.00     0.167 HD
ATOM     53  C   UNL A   1      41.761  28.133  28.973  1.00  0.00     0.034 A 
ATOM     54  C   UNL A   1      40.435  33.362  34.452  1.00  0.00     0.034 A 
ATOM     55  C   UNL A   1      42.600  28.287  30.167  1.00  0.00     0.049 A 
ATOM     56  C   UNL A   1      40.806  31.860  34.647  1.00  0.00     0.074 A 
ATOM     57  C   UNL A   1      43.940  28.428  30.460  1.00  0.00     0.029 A 
ATOM     58  N   UNL A   1      41.944  28.313  31.402  1.00  0.00    -0.354 N 
ATOM     59  N   UNL A   1      41.430  31.062  33.794  1.00  0.00    -0.248 NA
ATOM     60  C   UNL A   1      40.522  31.163  35.903  1.00  0.00     0.031 C 
ATOM     61  C   UNL A   1      44.064  28.574  31.882  1.00  0.00     0.029 A 
ATOM     62  C   UNL A   1      42.790  28.644  32.442  1.00  0.00     0.049 A 
ATOM     63  H   UNL A   1      40.987  28.117  31.518  1.00  0.00     0.167 HD
ATOM     64  C   UNL A   1      41.614  29.787  34.346  1.00  0.00     0.074 A 
ATOM     65  C   UNL A   1      40.984  29.925  35.660  1.00  0.00     0.031 C 
ATOM     66  C   UNL A   1      42.254  28.676  33.804  1.00  0.00     0.034 A 
BRANCH  53  67
ATOM     67  C   UNL A   1      42.024  27.101  27.857  1.00  0.00     0.023 A 
ATOM     68  C   UNL A   1      41.817  27.535  26.525  1.00  0.00     0.012 A 
ATOM     69  C   UNL A   1      42.317  25.711  27.993  1.00  0.00     0.148 A 
ATOM     70  C   UNL A   1      41.835  26.674  25.419  1.00  0.00     0.002 A 
ATOM     71  C   UNL A   1      42.402  24.859  26.875  1.00  0.00     0.091 A 
ATOM     72  F   UNL A   1      42.457  25.171  29.208  1.00  0.00    -0.205 F 
ATOM     73  C   UNL A   1      42.132  25.335  25.591  1.00  0.00     0.022 A 
BRANCH  71  74
ATOM     74  S   UNL A   1      42.843  23.109  26.976  1.00  0.00     0.127 S 
ATOM     75  O   UNL A   1      42.207  22.561  25.777  1.00  0.00    -0.237 OA
ATOM     76  O   UNL A   1      44.306  23.148  26.916  1.00  0.00    -0.237 OA
ATOM     77  O   UNL A   1      42.304  22.621  28.239  1.00  0.00    -0.744 OA
ENDBRANCH  71  74
ENDBRANCH  53  67
BRANCH  54  78
ATOM     78  C   UNL A   1      39.521  34.288  35.240  1.00  0.00     0.023 A 
ATOM     79  C   UNL A   1      38.144  33.876  35.232  1.00  0.00     0.012 A 
ATOM     80  C   UNL A   1      40.041  34.811  36.423  1.00  0.00     0.148 A 
ATOM     81  C   UNL A   1      37.462  33.634  36.431  1.00  0.00     0.002 A 
ATOM     82  C   UNL A   1      39.389  34.498  37.611  1.00  0.00     0.091 A 
ATOM     83  F   UNL A   1      41.260  35.364  36.400  1.00  0.00    -0.205 F 
ATOM     84  C   UNL A   1      38.115  33.887  37.623  1.00  0.00     0.022 A 
BRANCH  82  85
ATOM     85  S   UNL A   1      40.378  34.145  39.062  1.00  0.00     0.127 S 
ATOM     86  O   UNL A   1      41.523  33.415  38.538  1.00  0.00    -0.237 OA
ATOM     87  O   UNL A   1      40.645  35.526  39.452  1.00  0.00    -0.237 OA
ATOM     88  O   UNL A   1      39.512  33.405  39.966  1.00  0.00    -0.744 OA
ENDBRANCH  82  85
ENDBRANCH  54  78
BRANCH  66  89
ATOM     89  C   UNL A   1      42.455  27.352  34.548  1.00  0.00     0.023 A 
ATOM     90  C   UNL A   1      41.400  26.450  34.750  1.00  0.00     0.012 A 
ATOM     91  C   UNL A   1      43.698  27.035  35.177  1.00  0.00     0.148 A 
ATOM     92  C   UNL A   1      41.608  25.215  35.376  1.00  0.00     0.002 A 
ATOM     93  C   UNL A   1      43.874  25.852  35.881  1.00  0.00     0.091 A 
ATOM     94  F   UNL A   1      44.732  27.878  35.088  1.00  0.00    -0.205 F 
ATOM     95  C   UNL A   1      42.846  24.912  35.931  1.00  0.00     0.022 A 
BRANCH  93  96
ATOM     96  S   UNL A   1      45.376  25.487  36.805  1.00  0.00     0.127 S 
ATOM     97  O   UNL A   1      45.217  26.344  37.981  1.00  0.00    -0.237 OA
ATOM     98  O   UNL A   1      45.222  24.058  37.066  1.00  0.00    -0.237 OA
ATOM     99  O   UNL A   1      46.493  25.849  35.944  1.00  0.00    -0.744 OA
ENDBRANCH  93  96
ENDBRANCH  66  89
ENDBRANCH  40  41
ENDBRANCH  33  35
ENDBRANCH  32  33
ENDBRANCH  31  32
ENDBRANCH  30  31
ENDBRANCH  29  30
ENDBRANCH   1  29
TORSDOF 22
ENDMDL
MODEL 2
REMARK VINA RESULT:     -10.5      2.740      3.949
REMARK SMILES COc1cc(C)c(S(=O)(=O)Nc2cc(C(=O)OCCOCCOC(=O)c3ccc(-c4c5nc(c(-c6cccc(S(=O)(=O)[O-])c6F)c6ccc([nH]6)c(-c6cccc(S(=O)(=O)[O-])c6F)c6nc(c(-c7cccc(S(=O)(=O)[O-])c7F)c7ccc4[nH]7)C=C6)C=C5)cc3)ccc2F)cc1OC
REMARK SMILES IDX 19 1 18 2 17 3 15 4 16 5 14 6 12 7 13 8 91 9 90 10 92 11
REMARK SMILES IDX 89 12 11 13 8 15 9 16 10 17 7 18 3 19 4 20 94 21 5 22 93 23
REMARK SMILES IDX 6 24 2 25 1 26 95 27 96 28 20 29 21 30 22 31 23 32 24 33
REMARK SMILES IDX 25 34 26 35 27 36 88 37 28 38 87 39 29 40 30 41 31 42 81 43
REMARK SMILES IDX 32 44 86 45 80 46 82 47 33 48 85 49 79 50 78 51 34 53 66 54
REMARK SMILES IDX 46 55 65 56 47 57 50 58 64 59 83 60 48 61 49 62 63 64 84 65
REMARK SMILES IDX 51 66 35 67 36 68 44 69 37 70 39 71 45 72 38 73 40 74 41 75
REMARK SMILES IDX 42 76 43 77 67 78 68 79 76 80 69 81 71 82 77 83 70 84 72 85
REMARK SMILES IDX 73 86 74 87 75 88 52 89 53 90 61 91 54 92 56 93 62 94 55 95
REMARK SMILES IDX 57 96 58 97 59 98 60 99
REMARK H PARENT 11 14 82 52 50 63
REMARK Flexibility Score: inf
ROOT
ATOM      1  C   UNL A   1      33.690  30.338  26.706  1.00  0.00     0.202 C 
ENDROOT
BRANCH   1   2
ATOM      2  C   UNL A   1      33.984  28.890  27.184  1.00  0.00     0.261 C 
BRANCH   2   3
ATOM      3  O   UNL A   1      33.388  27.856  26.426  1.00  0.00    -0.460 OA
BRANCH   3   4
ATOM      4  C   UNL A   1      32.190  27.557  26.927  1.00  0.00     0.338 C 
ATOM      5  O   UNL A   1      31.705  27.863  28.003  1.00  0.00    -0.246 OA
BRANCH   4   6
ATOM      6  C   UNL A   1      31.369  27.040  25.848  1.00  0.00     0.062 A 
ATOM      7  C   UNL A   1      31.190  26.340  23.596  1.00  0.00     0.085 A 
ATOM      8  C   UNL A   1      31.651  27.294  24.496  1.00  0.00     0.045 A 
ATOM      9  C   UNL A   1      30.236  25.379  24.016  1.00  0.00     0.147 A 
ATOM     10  C   UNL A   1      29.907  25.203  25.354  1.00  0.00     0.042 A 
ATOM     11  F   UNL A   1      29.801  24.462  23.137  1.00  0.00    -0.205 F 
ATOM     12  C   UNL A   1      30.517  26.014  26.283  1.00  0.00     0.019 A 
BRANCH   7  13
ATOM     13  N   UNL A   1      31.786  26.083  22.326  1.00  0.00    -0.277 N 
ATOM     14  H   UNL A   1      31.266  26.374  21.542  1.00  0.00     0.180 HD
BRANCH  13  15
ATOM     15  S   UNL A   1      33.254  25.356  21.995  1.00  0.00     0.262 S 
ATOM     16  O   UNL A   1      34.276  26.381  22.032  1.00  0.00    -0.201 OA
ATOM     17  O   UNL A   1      32.991  24.635  20.762  1.00  0.00    -0.201 OA
BRANCH  15  18
ATOM     18  C   UNL A   1      33.759  24.090  23.163  1.00  0.00     0.094 A 
ATOM     19  C   UNL A   1      34.285  22.686  25.488  1.00  0.00     0.161 A 
ATOM     20  C   UNL A   1      33.642  22.056  24.441  1.00  0.00     0.055 A 
ATOM     21  C   UNL A   1      35.031  23.825  25.234  1.00  0.00     0.162 A 
ATOM     22  C   UNL A   1      33.212  22.818  23.362  1.00  0.00    -0.027 A 
ATOM     23  C   UNL A   1      34.790  24.507  24.040  1.00  0.00     0.073 A 
ATOM     24  C   UNL A   1      31.989  22.245  22.761  1.00  0.00     0.046 C 
BRANCH  19  25
ATOM     25  O   UNL A   1      33.907  22.316  26.752  1.00  0.00    -0.493 OA
ATOM     26  C   UNL A   1      32.505  22.646  26.955  1.00  0.00     0.278 C 
ENDBRANCH  19  25
BRANCH  21  27
ATOM     27  O   UNL A   1      36.129  24.193  25.959  1.00  0.00    -0.493 OA
ATOM     28  C   UNL A   1      37.365  23.714  25.452  1.00  0.00     0.278 C 
ENDBRANCH  21  27
ENDBRANCH  15  18
ENDBRANCH  13  15
ENDBRANCH   7  13
ENDBRANCH   4   6
ENDBRANCH   3   4
ENDBRANCH   2   3
ENDBRANCH   1   2
BRANCH   1  29
ATOM     29  O   UNL A   1      32.671  31.049  27.355  1.00  0.00    -0.374 OA
BRANCH  29  30
ATOM     30  C   UNL A   1      32.954  32.426  27.391  1.00  0.00     0.202 C 
BRANCH  30  31
ATOM     31  C   UNL A   1      34.112  33.024  28.268  1.00  0.00     0.261 C 
BRANCH  31  32
ATOM     32  O   UNL A   1      35.551  32.482  28.517  1.00  0.00    -0.460 OA
BRANCH  32  33
ATOM     33  C   UNL A   1      36.779  31.944  28.747  1.00  0.00     0.338 C 
ATOM     34  O   UNL A   1      37.701  32.731  28.930  1.00  0.00    -0.246 OA
BRANCH  33  35
ATOM     35  C   UNL A   1      37.172  30.459  28.647  1.00  0.00     0.060 A 
ATOM     36  C   UNL A   1      36.828  29.579  29.668  1.00  0.00     0.016 A 
ATOM     37  C   UNL A   1      37.990  29.878  27.707  1.00  0.00     0.016 A 
ATOM     38  C   UNL A   1      37.772  28.646  30.131  1.00  0.00     0.010 A 
ATOM     39  C   UNL A   1      38.993  29.030  28.182  1.00  0.00     0.010 A 
ATOM     40  C   UNL A   1      38.997  28.641  29.526  1.00  0.00    -0.014 A 
BRANCH  40  41
ATOM     41  C   UNL A   1      40.316  28.438  30.177  1.00  0.00     0.031 A 
ATOM     42  C   UNL A   1      41.247  27.513  29.468  1.00  0.00     0.074 A 
ATOM     43  C   UNL A   1      40.744  29.350  31.084  1.00  0.00     0.049 A 
ATOM     44  N   UNL A   1      42.537  27.491  29.415  1.00  0.00    -0.248 NA
ATOM     45  C   UNL A   1      40.616  26.449  28.679  1.00  0.00     0.031 C 
ATOM     46  C   UNL A   1      42.057  29.968  31.158  1.00  0.00     0.029 A 
ATOM     47  N   UNL A   1      40.100  29.910  32.171  1.00  0.00    -0.354 N 
ATOM     48  C   UNL A   1      42.879  26.456  28.540  1.00  0.00     0.074 A 
ATOM     49  C   UNL A   1      41.646  25.923  28.026  1.00  0.00     0.031 C 
ATOM     50  C   UNL A   1      42.203  30.621  32.322  1.00  0.00     0.029 A 
ATOM     51  C   UNL A   1      41.023  30.398  33.106  1.00  0.00     0.049 A 
ATOM     52  H   UNL A   1      39.122  29.959  32.274  1.00  0.00     0.167 HD
ATOM     53  C   UNL A   1      44.120  25.901  28.488  1.00  0.00     0.034 A 
ATOM     54  C   UNL A   1      41.135  29.870  34.359  1.00  0.00     0.034 A 
ATOM     55  C   UNL A   1      44.802  26.082  29.774  1.00  0.00     0.049 A 
ATOM     56  C   UNL A   1      41.849  28.485  34.418  1.00  0.00     0.074 A 
ATOM     57  C   UNL A   1      46.040  26.492  30.224  1.00  0.00     0.029 A 
ATOM     58  N   UNL A   1      44.068  25.784  30.927  1.00  0.00    -0.354 N 
ATOM     59  N   UNL A   1      42.713  27.980  33.551  1.00  0.00    -0.248 NA
ATOM     60  C   UNL A   1      41.651  27.574  35.548  1.00  0.00     0.031 C 
ATOM     61  C   UNL A   1      46.017  26.466  31.658  1.00  0.00     0.029 A 
ATOM     62  C   UNL A   1      44.725  26.158  32.083  1.00  0.00     0.049 A 
ATOM     63  H   UNL A   1      43.183  25.355  30.917  1.00  0.00     0.167 HD
ATOM     64  C   UNL A   1      43.163  26.720  33.969  1.00  0.00     0.074 A 
ATOM     65  C   UNL A   1      42.421  26.525  35.216  1.00  0.00     0.031 C 
ATOM     66  C   UNL A   1      44.097  25.876  33.374  1.00  0.00     0.034 A 
BRANCH  53  67
ATOM     67  C   UNL A   1      44.713  25.123  27.295  1.00  0.00     0.023 A 
ATOM     68  C   UNL A   1      45.703  25.787  26.530  1.00  0.00     0.012 A 
ATOM     69  C   UNL A   1      44.295  23.865  26.770  1.00  0.00     0.148 A 
ATOM     70  C   UNL A   1      46.203  25.292  25.317  1.00  0.00     0.002 A 
ATOM     71  C   UNL A   1      44.847  23.336  25.586  1.00  0.00     0.091 A 
ATOM     72  F   UNL A   1      43.312  23.182  27.364  1.00  0.00    -0.205 F 
ATOM     73  C   UNL A   1      45.780  24.064  24.845  1.00  0.00     0.022 A 
BRANCH  71  74
ATOM     74  S   UNL A   1      44.415  21.716  24.911  1.00  0.00     0.127 S 
ATOM     75  O   UNL A   1      44.462  21.961  23.468  1.00  0.00    -0.237 OA
ATOM     76  O   UNL A   1      45.496  20.866  25.413  1.00  0.00    -0.237 OA
ATOM     77  O   UNL A   1      43.096  21.390  25.439  1.00  0.00    -0.744 OA
ENDBRANCH  71  74
ENDBRANCH  53  67
BRANCH  54  78
ATOM     78  C   UNL A   1      39.964  30.439  35.146  1.00  0.00     0.023 A 
ATOM     79  C   UNL A   1      40.327  31.537  35.997  1.00  0.00     0.012 A 
ATOM     80  C   UNL A   1      38.743  30.505  34.475  1.00  0.00     0.148 A 
ATOM     81  C   UNL A   1      39.698  32.782  35.869  1.00  0.00     0.002 A 
ATOM     82  C   UNL A   1      38.171  31.760  34.295  1.00  0.00     0.091 A 
ATOM     83  F   UNL A   1      38.308  29.420  33.824  1.00  0.00    -0.205 F 
ATOM     84  C   UNL A   1      38.658  32.904  34.965  1.00  0.00     0.022 A 
BRANCH  82  85
ATOM     85  S   UNL A   1      37.372  32.119  32.732  1.00  0.00     0.127 S 
ATOM     86  O   UNL A   1      36.733  33.408  32.951  1.00  0.00    -0.237 OA
ATOM     87  O   UNL A   1      38.575  32.151  31.907  1.00  0.00    -0.237 OA
ATOM     88  O   UNL A   1      36.477  31.001  32.475  1.00  0.00    -0.744 OA
ENDBRANCH  82  85
ENDBRANCH  54  78
BRANCH  66  89
ATOM     89  C   UNL A   1      44.560  24.547  33.979  1.00  0.00     0.023 A 
ATOM     90  C   UNL A   1      44.022  23.319  33.565  1.00  0.00     0.012 A 
ATOM     91  C   UNL A   1      45.472  24.508  35.077  1.00  0.00     0.148 A 
ATOM     92  C   UNL A   1      44.497  22.106  34.079  1.00  0.00     0.002 A 
ATOM     93  C   UNL A   1      45.868  23.308  35.650  1.00  0.00     0.091 A 
ATOM     94  F   UNL A   1      45.976  25.643  35.574  1.00  0.00    -0.205 F 
ATOM     95  C   UNL A   1      45.428  22.101  35.111  1.00  0.00     0.022 A 
BRANCH  93  96
ATOM     96  S   UNL A   1      46.901  23.231  37.124  1.00  0.00     0.127 S 
ATOM     97  O   UNL A   1      48.245  23.221  36.544  1.00  0.00    -0.237 OA
ATOM     98  O   UNL A   1      46.539  24.472  37.804  1.00  0.00    -0.237 OA
ATOM     99  O   UNL A   1      46.538  22.006  37.822  1.00  0.00    -0.744 OA
ENDBRANCH  93  96
ENDBRANCH  66  89
ENDBRANCH  40  41
ENDBRANCH  33  35
ENDBRANCH  32  33
ENDBRANCH  31  32
ENDBRANCH  30  31
ENDBRANCH  29  30
ENDBRANCH   1  29
TORSDOF 22
ENDMDL
MODEL 3
REMARK VINA RESULT:     -10.2      1.478      2.094
REMARK SMILES COc1cc(C)c(S(=O)(=O)Nc2cc(C(=O)OCCOCCOC(=O)c3ccc(-c4c5nc(c(-c6cccc(S(=O)(=O)[O-])c6F)c6ccc([nH]6)c(-c6cccc(S(=O)(=O)[O-])c6F)c6nc(c(-c7cccc(S(=O)(=O)[O-])c7F)c7ccc4[nH]7)C=C6)C=C5)cc3)ccc2F)cc1OC
REMARK SMILES IDX 19 1 18 2 17 3 15 4 16 5 14 6 12 7 13 8 91 9 90 10 92 11
REMARK SMILES IDX 89 12 11 13 8 15 9 16 10 17 7 18 3 19 4 20 94 21 5 22 93 23
REMARK SMILES IDX 6 24 2 25 1 26 95 27 96 28 20 29 21 30 22 31 23 32 24 33
REMARK SMILES IDX 25 34 26 35 27 36 88 37 28 38 87 39 29 40 30 41 31 42 81 43
REMARK SMILES IDX 32 44 86 45 80 46 82 47 33 48 85 49 79 50 78 51 34 53 66 54
REMARK SMILES IDX 46 55 65 56 47 57 50 58 64 59 83 60 48 61 49 62 63 64 84 65
REMARK SMILES IDX 51 66 35 67 36 68 44 69 37 70 39 71 45 72 38 73 40 74 41 75
REMARK SMILES IDX 42 76 43 77 67 78 68 79 76 80 69 81 71 82 77 83 70 84 72 85
REMARK SMILES IDX 73 86 74 87 75 88 52 89 53 90 61 91 54 92 56 93 62 94 55 95
REMARK SMILES IDX 57 96 58 97 59 98 60 99
REMARK H PARENT 11 14 82 52 50 63
REMARK Flexibility Score: inf
ROOT
ATOM      1  C   UNL A   1      33.149  29.280  24.384  1.00  0.00     0.202 C 
ENDROOT
BRANCH   1   2
ATOM      2  C   UNL A   1      33.824  28.305  23.382  1.00  0.00     0.261 C 
BRANCH   2   3
ATOM      3  O   UNL A   1      33.102  28.037  22.198  1.00  0.00    -0.460 OA
BRANCH   3   4
ATOM      4  C   UNL A   1      33.022  26.721  22.001  1.00  0.00     0.338 C 
ATOM      5  O   UNL A   1      33.875  25.948  21.603  1.00  0.00    -0.246 OA
BRANCH   4   6
ATOM      6  C   UNL A   1      31.809  26.244  22.641  1.00  0.00     0.062 A 
ATOM      7  C   UNL A   1      30.767  25.242  24.513  1.00  0.00     0.085 A 
ATOM      8  C   UNL A   1      31.815  25.218  23.599  1.00  0.00     0.045 A 
ATOM      9  C   UNL A   1      29.633  26.054  24.261  1.00  0.00     0.147 A 
ATOM     10  C   UNL A   1      29.617  27.005  23.249  1.00  0.00     0.042 A 
ATOM     11  F   UNL A   1      28.629  26.069  25.153  1.00  0.00    -0.205 F 
ATOM     12  C   UNL A   1      30.738  27.130  22.461  1.00  0.00     0.019 A 
BRANCH   7  13
ATOM     13  N   UNL A   1      30.841  24.699  25.829  1.00  0.00    -0.277 N 
ATOM     14  H   UNL A   1      30.545  25.295  26.555  1.00  0.00     0.180 HD
BRANCH  13  15
ATOM     15  S   UNL A   1      31.362  23.183  26.301  1.00  0.00     0.262 S 
ATOM     16  O   UNL A   1      30.385  22.216  25.845  1.00  0.00    -0.201 OA
ATOM     17  O   UNL A   1      31.611  23.350  27.722  1.00  0.00    -0.201 OA
BRANCH  15  18
ATOM     18  C   UNL A   1      32.942  22.672  25.619  1.00  0.00     0.094 A 
ATOM     19  C   UNL A   1      35.536  21.752  25.341  1.00  0.00     0.161 A 
ATOM     20  C   UNL A   1      34.546  21.260  24.513  1.00  0.00     0.055 A 
ATOM     21  C   UNL A   1      35.343  22.965  25.978  1.00  0.00     0.162 A 
ATOM     22  C   UNL A   1      33.222  21.582  24.788  1.00  0.00    -0.027 A 
ATOM     23  C   UNL A   1      34.035  23.445  26.081  1.00  0.00     0.073 A 
ATOM     24  C   UNL A   1      32.314  20.491  24.374  1.00  0.00     0.046 C 
BRANCH  19  25
ATOM     25  O   UNL A   1      36.519  20.871  25.708  1.00  0.00    -0.493 OA
ATOM     26  C   UNL A   1      36.518  19.736  24.800  1.00  0.00     0.278 C 
ENDBRANCH  19  25
BRANCH  21  27
ATOM     27  O   UNL A   1      36.355  23.820  26.311  1.00  0.00    -0.493 OA
ATOM     28  C   UNL A   1      37.466  23.798  25.428  1.00  0.00     0.278 C 
ENDBRANCH  21  27
ENDBRANCH  15  18
ENDBRANCH  13  15
ENDBRANCH   7  13
ENDBRANCH   4   6
ENDBRANCH   3   4
ENDBRANCH   2   3
ENDBRANCH   1   2
BRANCH   1  29
ATOM     29  O   UNL A   1      31.897  28.924  24.904  1.00  0.00    -0.374 OA
BRANCH  29  30
ATOM     30  C   UNL A   1      31.627  29.613  26.099  1.00  0.00     0.202 C 
BRANCH  30  31
ATOM     31  C   UNL A   1      32.483  30.843  26.573  1.00  0.00     0.261 C 
BRANCH  31  32
ATOM     32  O   UNL A   1      33.849  30.873  27.322  1.00  0.00    -0.460 OA
BRANCH  32  33
ATOM     33  C   UNL A   1      35.068  30.934  27.921  1.00  0.00     0.338 C 
ATOM     34  O   UNL A   1      35.811  29.973  27.760  1.00  0.00    -0.246 OA
BRANCH  33  35
ATOM     35  C   UNL A   1      35.560  32.008  28.908  1.00  0.00     0.060 A 
ATOM     36  C   UNL A   1      36.316  33.081  28.448  1.00  0.00     0.016 A 
ATOM     37  C   UNL A   1      35.479  31.974  30.280  1.00  0.00     0.016 A 
ATOM     38  C   UNL A   1      37.452  33.492  29.167  1.00  0.00     0.010 A 
ATOM     39  C   UNL A   1      36.641  32.285  30.988  1.00  0.00     0.010 A 
ATOM     40  C   UNL A   1      37.748  32.813  30.315  1.00  0.00    -0.014 A 
BRANCH  40  41
ATOM     41  C   UNL A   1      39.096  32.439  30.812  1.00  0.00     0.031 A 
ATOM     42  C   UNL A   1      39.742  31.290  30.115  1.00  0.00     0.074 A 
ATOM     43  C   UNL A   1      39.800  33.347  31.533  1.00  0.00     0.049 A 
ATOM     44  N   UNL A   1      40.988  31.024  29.902  1.00  0.00    -0.248 NA
ATOM     45  C   UNL A   1      38.830  30.284  29.557  1.00  0.00     0.031 C 
ATOM     46  C   UNL A   1      41.195  33.715  31.358  1.00  0.00     0.029 A 
ATOM     47  N   UNL A   1      39.429  34.125  32.611  1.00  0.00    -0.354 N 
ATOM     48  C   UNL A   1      41.016  29.859  29.131  1.00  0.00     0.074 A 
ATOM     49  C   UNL A   1      39.649  29.512  28.851  1.00  0.00     0.031 C 
ATOM     50  C   UNL A   1      41.620  34.448  32.400  1.00  0.00     0.029 A 
ATOM     51  C   UNL A   1      40.549  34.529  33.351  1.00  0.00     0.049 A 
ATOM     52  H   UNL A   1      38.499  34.364  32.832  1.00  0.00     0.167 HD
ATOM     53  C   UNL A   1      42.125  29.082  28.992  1.00  0.00     0.034 A 
ATOM     54  C   UNL A   1      40.756  34.123  34.636  1.00  0.00     0.034 A 
ATOM     55  C   UNL A   1      43.011  29.267  30.147  1.00  0.00     0.049 A 
ATOM     56  C   UNL A   1      41.228  32.643  34.781  1.00  0.00     0.074 A 
ATOM     57  C   UNL A   1      44.353  29.486  30.378  1.00  0.00     0.029 A 
ATOM     58  N   UNL A   1      42.417  29.231  31.413  1.00  0.00    -0.354 N 
ATOM     59  N   UNL A   1      41.856  31.901  33.883  1.00  0.00    -0.248 NA
ATOM     60  C   UNL A   1      41.049  31.908  36.035  1.00  0.00     0.031 C 
ATOM     61  C   UNL A   1      44.539  29.614  31.795  1.00  0.00     0.029 A 
ATOM     62  C   UNL A   1      43.292  29.596  32.417  1.00  0.00     0.049 A 
ATOM     63  H   UNL A   1      41.480  28.974  31.571  1.00  0.00     0.167 HD
ATOM     64  C   UNL A   1      42.144  30.630  34.400  1.00  0.00     0.074 A 
ATOM     65  C   UNL A   1      41.574  30.705  35.745  1.00  0.00     0.031 C 
ATOM     66  C   UNL A   1      42.824  29.570  33.804  1.00  0.00     0.034 A 
BRANCH  53  67
ATOM     67  C   UNL A   1      42.395  28.088  27.844  1.00  0.00     0.023 A 
ATOM     68  C   UNL A   1      42.502  28.634  26.541  1.00  0.00     0.012 A 
ATOM     69  C   UNL A   1      42.412  26.663  27.899  1.00  0.00     0.148 A 
ATOM     70  C   UNL A   1      42.562  27.852  25.379  1.00  0.00     0.002 A 
ATOM     71  C   UNL A   1      42.541  25.879  26.736  1.00  0.00     0.091 A 
ATOM     72  F   UNL A   1      42.242  26.034  29.066  1.00  0.00    -0.205 F 
ATOM     73  C   UNL A   1      42.586  26.473  25.473  1.00  0.00     0.022 A 
BRANCH  71  74
ATOM     74  S   UNL A   1      42.646  24.074  26.746  1.00  0.00     0.127 S 
ATOM     75  O   UNL A   1      42.851  23.769  25.329  1.00  0.00    -0.237 OA
ATOM     76  O   UNL A   1      43.818  23.831  27.590  1.00  0.00    -0.237 OA
ATOM     77  O   UNL A   1      41.389  23.593  27.306  1.00  0.00    -0.744 OA
ENDBRANCH  71  74
ENDBRANCH  53  67
BRANCH  54  78
ATOM     78  C   UNL A   1      39.827  34.976  35.486  1.00  0.00     0.023 A 
ATOM     79  C   UNL A   1      38.576  34.337  35.784  1.00  0.00     0.012 A 
ATOM     80  C   UNL A   1      40.430  35.736  36.489  1.00  0.00     0.148 A 
ATOM     81  C   UNL A   1      38.166  34.146  37.110  1.00  0.00     0.002 A 
ATOM     82  C   UNL A   1      40.062  35.479  37.805  1.00  0.00     0.091 A 
ATOM     83  F   UNL A   1      41.497  36.481  36.176  1.00  0.00    -0.205 F 
ATOM     84  C   UNL A   1      38.951  34.667  38.123  1.00  0.00     0.022 A 
BRANCH  82  85
ATOM     85  S   UNL A   1      41.332  35.500  39.067  1.00  0.00     0.127 S 
ATOM     86  O   UNL A   1      41.567  36.916  39.307  1.00  0.00    -0.237 OA
ATOM     87  O   UNL A   1      40.578  34.808  40.108  1.00  0.00    -0.237 OA
ATOM     88  O   UNL A   1      42.454  34.754  38.518  1.00  0.00    -0.744 OA
ENDBRANCH  82  85
ENDBRANCH  54  78
BRANCH  66  89
ATOM     89  C   UNL A   1      43.141  28.249  34.510  1.00  0.00     0.023 A 
ATOM     90  C   UNL A   1      42.409  27.079  34.255  1.00  0.00     0.012 A 
ATOM     91  C   UNL A   1      44.117  28.179  35.551  1.00  0.00     0.148 A 
ATOM     92  C   UNL A   1      42.749  25.863  34.859  1.00  0.00     0.002 A 
ATOM     93  C   UNL A   1      44.385  26.991  36.217  1.00  0.00     0.091 A 
ATOM     94  F   UNL A   1      44.809  29.269  35.900  1.00  0.00    -0.205 F 
ATOM     95  C   UNL A   1      43.743  25.816  35.830  1.00  0.00     0.022 A 
BRANCH  93  96
ATOM     96  S   UNL A   1      45.502  26.899  37.627  1.00  0.00     0.127 S 
ATOM     97  O   UNL A   1      44.780  27.687  38.628  1.00  0.00    -0.237 OA
ATOM     98  O   UNL A   1      45.531  25.462  37.887  1.00  0.00    -0.237 OA
ATOM     99  O   UNL A   1      46.764  27.484  37.197  1.00  0.00    -0.744 OA
ENDBRANCH  93  96
ENDBRANCH  66  89
ENDBRANCH  40  41
ENDBRANCH  33  35
ENDBRANCH  32  33
ENDBRANCH  31  32
ENDBRANCH  30  31
ENDBRANCH  29  30
ENDBRANCH   1  29
TORSDOF 22
ENDMDL
