MODEL 1
REMARK VINA RESULT:     -10.6      0.000      0.000
REMARK SMILES CC[N@H+]([C@@H]1CSCC(C)(C)C1)[C@@H]1COC[C@@H]1C(=O)OCCOCCOC(=O)c1ccc(-c2c3nc(c(-c4cccc(S(=O)(=O)[O-])c4F)c4ccc([nH]4)c(-c4cccc(S(=O)(=O)[O-])c4F)c4nc(c(-c5cccc(S(=O)(=O)[O-])c5F)c5ccc2[nH]5)C=C4)C=C3)cc1
REMARK SMILES IDX 23 1 22 2 21 3 20 4 19 5 17 6 18 7 16 8 12 9 13 10 14 11
REMARK SMILES IDX 15 12 3 13 2 15 1 16 4 17 5 18 11 19 6 20 8 21 7 22 9 23
REMARK SMILES IDX 10 24 24 25 25 26 26 27 27 28 28 29 29 30 90 31 30 32 89 33
REMARK SMILES IDX 31 34 32 35 33 36 83 37 34 38 88 39 82 40 84 41 35 42 87 43
REMARK SMILES IDX 81 44 80 45 36 47 68 48 48 49 67 50 49 51 52 52 66 53 85 54
REMARK SMILES IDX 50 55 51 56 65 58 86 59 53 60 37 61 38 62 46 63 39 64 41 65
REMARK SMILES IDX 47 66 40 67 42 68 43 69 44 70 45 71 69 72 70 73 78 74 71 75
REMARK SMILES IDX 73 76 79 77 72 78 74 79 75 80 76 81 77 82 54 83 55 84 63 85
REMARK SMILES IDX 56 86 58 87 64 88 57 89 59 90 60 91 61 92 62 93
REMARK H PARENT 3 14 84 46 52 57
REMARK Flexibility Score: inf
ROOT
ATOM      1  C   UNL A   1      31.485  29.708  25.561  1.00  0.00     0.202 C 
ENDROOT
BRANCH   1   2
ATOM      2  O   UNL A   1      30.576  29.870  24.470  1.00  0.00    -0.374 OA
BRANCH   2   3
ATOM      3  C   UNL A   1      30.285  28.739  23.644  1.00  0.00     0.202 C 
BRANCH   3   4
ATOM      4  C   UNL A   1      31.397  28.159  22.711  1.00  0.00     0.261 C 
BRANCH   4   5
ATOM      5  O   UNL A   1      31.506  26.718  22.573  1.00  0.00    -0.463 OA
BRANCH   5   6
ATOM      6  C   UNL A   1      31.661  25.915  23.663  1.00  0.00     0.317 C 
ATOM      7  O   UNL A   1      30.715  25.533  24.339  1.00  0.00    -0.252 OA
BRANCH   6   8
ATOM      8  C   UNL A   1      33.159  25.618  23.959  1.00  0.00     0.185 C 
ATOM      9  C   UNL A   1      33.573  25.212  25.413  1.00  0.00     0.227 C 
ATOM     10  C   UNL A   1      33.394  26.603  26.053  1.00  0.00     0.226 C 
ATOM     11  O   UNL A   1      33.889  27.572  25.106  1.00  0.00    -0.374 OA
ATOM     12  C   UNL A   1      33.882  26.954  23.812  1.00  0.00     0.182 C 
BRANCH   9  13
ATOM     13  N   UNL A   1      33.016  23.977  26.025  1.00  0.00    -0.327 N 
ATOM     14  H   UNL A   1      32.666  23.703  25.107  1.00  0.00     0.348 HD
BRANCH  13  15
ATOM     15  C   UNL A   1      31.832  24.017  26.930  1.00  0.00     0.259 C 
ATOM     16  C   UNL A   1      30.472  23.385  26.656  1.00  0.00     0.071 C 
ENDBRANCH  13  15
BRANCH  13  17
ATOM     17  C   UNL A   1      33.983  22.906  26.564  1.00  0.00     0.194 C 
ATOM     18  C   UNL A   1      35.485  22.817  26.163  1.00  0.00     0.134 C 
ATOM     19  C   UNL A   1      33.358  21.466  26.513  1.00  0.00     0.073 C 
ATOM     20  S   UNL A   1      35.993  21.906  24.671  1.00  0.00    -0.155 SA
ATOM     21  C   UNL A   1      33.455  20.780  25.133  1.00  0.00    -0.021 C 
ATOM     22  C   UNL A   1      34.904  20.449  24.777  1.00  0.00     0.076 C 
ATOM     23  C   UNL A   1      32.884  21.720  24.131  1.00  0.00     0.012 C 
ATOM     24  C   UNL A   1      32.613  19.523  24.934  1.00  0.00     0.012 C 
ENDBRANCH  13  17
ENDBRANCH   9  13
ENDBRANCH   6   8
ENDBRANCH   5   6
ENDBRANCH   4   5
ENDBRANCH   3   4
ENDBRANCH   2   3
ENDBRANCH   1   2
BRANCH   1  25
ATOM     25  C   UNL A   1      31.659  30.933  26.511  1.00  0.00     0.261 C 
BRANCH  25  26
ATOM     26  O   UNL A   1      32.854  31.737  26.320  1.00  0.00    -0.460 OA
BRANCH  26  27
ATOM     27  C   UNL A   1      33.243  32.497  27.397  1.00  0.00     0.338 C 
ATOM     28  O   UNL A   1      32.654  33.481  27.828  1.00  0.00    -0.246 OA
BRANCH  27  29
ATOM     29  C   UNL A   1      34.511  31.989  28.007  1.00  0.00     0.060 A 
ATOM     30  C   UNL A   1      34.633  30.636  28.349  1.00  0.00     0.016 A 
ATOM     31  C   UNL A   1      35.610  32.836  28.216  1.00  0.00     0.016 A 
ATOM     32  C   UNL A   1      35.869  30.116  28.793  1.00  0.00     0.010 A 
ATOM     33  C   UNL A   1      36.857  32.308  28.626  1.00  0.00     0.010 A 
ATOM     34  C   UNL A   1      37.009  30.934  28.904  1.00  0.00    -0.014 A 
BRANCH  34  35
ATOM     35  C   UNL A   1      38.261  30.394  29.534  1.00  0.00     0.031 A 
ATOM     36  C   UNL A   1      38.545  30.842  30.945  1.00  0.00     0.074 A 
ATOM     37  C   UNL A   1      39.121  29.523  28.957  1.00  0.00     0.049 A 
ATOM     38  N   UNL A   1      39.478  30.455  31.774  1.00  0.00    -0.248 NA
ATOM     39  C   UNL A   1      37.640  31.868  31.489  1.00  0.00     0.031 C 
ATOM     40  C   UNL A   1      39.036  28.987  27.600  1.00  0.00     0.029 A 
ATOM     41  N   UNL A   1      40.268  28.930  29.462  1.00  0.00    -0.354 N 
ATOM     42  C   UNL A   1      39.269  31.185  32.935  1.00  0.00     0.074 A 
ATOM     43  C   UNL A   1      38.148  32.064  32.693  1.00  0.00     0.031 C 
ATOM     44  C   UNL A   1      40.077  28.159  27.380  1.00  0.00     0.029 A 
ATOM     45  C   UNL A   1      40.918  28.094  28.576  1.00  0.00     0.049 A 
ATOM     46  H   UNL A   1      40.592  29.092  30.377  1.00  0.00     0.167 HD
ATOM     47  C   UNL A   1      39.920  31.122  34.119  1.00  0.00     0.034 A 
ATOM     48  C   UNL A   1      42.048  27.358  28.711  1.00  0.00     0.034 A 
ATOM     49  C   UNL A   1      41.041  30.275  34.398  1.00  0.00     0.049 A 
ATOM     50  C   UNL A   1      42.791  27.338  30.035  1.00  0.00     0.074 A 
ATOM     51  C   UNL A   1      41.739  30.143  35.585  1.00  0.00     0.029 A 
ATOM     52  N   UNL A   1      41.646  29.436  33.479  1.00  0.00    -0.354 N 
ATOM     53  N   UNL A   1      42.478  27.914  31.170  1.00  0.00    -0.248 NA
ATOM     54  C   UNL A   1      44.027  26.535  30.104  1.00  0.00     0.031 C 
ATOM     55  C   UNL A   1      42.787  29.241  35.376  1.00  0.00     0.029 A 
ATOM     56  C   UNL A   1      42.719  28.789  34.069  1.00  0.00     0.049 A 
ATOM     57  H   UNL A   1      41.357  29.316  32.546  1.00  0.00     0.167 HD
ATOM     58  C   UNL A   1      43.446  27.509  32.090  1.00  0.00     0.074 A 
ATOM     59  C   UNL A   1      44.349  26.625  31.388  1.00  0.00     0.031 C 
ATOM     60  C   UNL A   1      43.580  27.854  33.395  1.00  0.00     0.034 A 
BRANCH  47  61
ATOM     61  C   UNL A   1      39.399  32.004  35.216  1.00  0.00     0.023 A 
ATOM     62  C   UNL A   1      38.367  31.532  36.053  1.00  0.00     0.012 A 
ATOM     63  C   UNL A   1      39.924  33.293  35.413  1.00  0.00     0.148 A 
ATOM     64  C   UNL A   1      37.835  32.349  37.048  1.00  0.00     0.002 A 
ATOM     65  C   UNL A   1      39.422  34.084  36.436  1.00  0.00     0.091 A 
ATOM     66  F   UNL A   1      40.880  33.728  34.580  1.00  0.00    -0.205 F 
ATOM     67  C   UNL A   1      38.369  33.620  37.244  1.00  0.00     0.022 A 
BRANCH  65  68
ATOM     68  S   UNL A   1      40.090  35.705  36.814  1.00  0.00     0.127 S 
ATOM     69  O   UNL A   1      39.600  36.496  35.686  1.00  0.00    -0.237 OA
ATOM     70  O   UNL A   1      39.451  36.008  38.095  1.00  0.00    -0.237 OA
ATOM     71  O   UNL A   1      41.535  35.539  36.880  1.00  0.00    -0.744 OA
ENDBRANCH  65  68
ENDBRANCH  47  61
BRANCH  48  72
ATOM     72  C   UNL A   1      42.568  26.517  27.581  1.00  0.00     0.023 A 
ATOM     73  C   UNL A   1      43.385  27.104  26.590  1.00  0.00     0.012 A 
ATOM     74  C   UNL A   1      42.200  25.165  27.441  1.00  0.00     0.148 A 
ATOM     75  C   UNL A   1      43.788  26.376  25.466  1.00  0.00     0.002 A 
ATOM     76  C   UNL A   1      42.649  24.430  26.346  1.00  0.00     0.091 A 
ATOM     77  F   UNL A   1      41.399  24.628  28.371  1.00  0.00    -0.205 F 
ATOM     78  C   UNL A   1      43.427  25.037  25.348  1.00  0.00     0.022 A 
BRANCH  76  79
ATOM     79  S   UNL A   1      42.318  22.673  26.156  1.00  0.00     0.127 S 
ATOM     80  O   UNL A   1      42.996  22.112  27.322  1.00  0.00    -0.237 OA
ATOM     81  O   UNL A   1      40.857  22.636  26.213  1.00  0.00    -0.237 OA
ATOM     82  O   UNL A   1      42.880  22.306  24.863  1.00  0.00    -0.744 OA
ENDBRANCH  76  79
ENDBRANCH  48  72
BRANCH  60  83
ATOM     83  C   UNL A   1      44.710  27.253  34.196  1.00  0.00     0.023 A 
ATOM     84  C   UNL A   1      45.946  27.922  34.282  1.00  0.00     0.012 A 
ATOM     85  C   UNL A   1      44.504  26.087  34.962  1.00  0.00     0.148 A 
ATOM     86  C   UNL A   1      46.966  27.429  35.098  1.00  0.00     0.002 A 
ATOM     87  C   UNL A   1      45.507  25.627  35.810  1.00  0.00     0.091 A 
ATOM     88  F   UNL A   1      43.327  25.453  34.859  1.00  0.00    -0.205 F 
ATOM     89  C   UNL A   1      46.742  26.292  35.871  1.00  0.00     0.022 A 
BRANCH  87  90
ATOM     90  S   UNL A   1      45.271  24.232  36.917  1.00  0.00     0.127 S 
ATOM     91  O   UNL A   1      44.672  23.241  36.024  1.00  0.00    -0.237 OA
ATOM     92  O   UNL A   1      46.641  23.928  37.333  1.00  0.00    -0.237 OA
ATOM     93  O   UNL A   1      44.409  24.712  37.989  1.00  0.00    -0.744 OA
ENDBRANCH  87  90
ENDBRANCH  60  83
ENDBRANCH  34  35
ENDBRANCH  27  29
ENDBRANCH  26  27
ENDBRANCH  25  26
ENDBRANCH   1  25
TORSDOF 20
ENDMDL
MODEL 2
REMARK VINA RESULT:     -10.6      5.271     10.399
REMARK SMILES CC[N@H+]([C@@H]1CSCC(C)(C)C1)[C@@H]1COC[C@@H]1C(=O)OCCOCCOC(=O)c1ccc(-c2c3nc(c(-c4cccc(S(=O)(=O)[O-])c4F)c4ccc([nH]4)c(-c4cccc(S(=O)(=O)[O-])c4F)c4nc(c(-c5cccc(S(=O)(=O)[O-])c5F)c5ccc2[nH]5)C=C4)C=C3)cc1
REMARK SMILES IDX 23 1 22 2 21 3 20 4 19 5 17 6 18 7 16 8 12 9 13 10 14 11
REMARK SMILES IDX 15 12 3 13 2 15 1 16 4 17 5 18 11 19 6 20 8 21 7 22 9 23
REMARK SMILES IDX 10 24 24 25 25 26 26 27 27 28 28 29 29 30 90 31 30 32 89 33
REMARK SMILES IDX 31 34 32 35 33 36 83 37 34 38 88 39 82 40 84 41 35 42 87 43
REMARK SMILES IDX 81 44 80 45 36 47 68 48 48 49 67 50 49 51 52 52 66 53 85 54
REMARK SMILES IDX 50 55 51 56 65 58 86 59 53 60 37 61 38 62 46 63 39 64 41 65
REMARK SMILES IDX 47 66 40 67 42 68 43 69 44 70 45 71 69 72 70 73 78 74 71 75
REMARK SMILES IDX 73 76 79 77 72 78 74 79 75 80 76 81 77 82 54 83 55 84 63 85
REMARK SMILES IDX 56 86 58 87 64 88 57 89 59 90 60 91 61 92 62 93
REMARK H PARENT 3 14 84 46 52 57
REMARK Flexibility Score: inf
ROOT
ATOM      1  C   UNL A   1      38.739  20.737  25.488  1.00  0.00     0.202 C 
ENDROOT
BRANCH   1   2
ATOM      2  O   UNL A   1      38.882  21.837  26.391  1.00  0.00    -0.374 OA
BRANCH   2   3
ATOM      3  C   UNL A   1      38.629  23.159  25.908  1.00  0.00     0.202 C 
BRANCH   3   4
ATOM      4  C   UNL A   1      37.221  23.802  26.124  1.00  0.00     0.261 C 
BRANCH   4   5
ATOM      5  O   UNL A   1      36.130  23.395  25.257  1.00  0.00    -0.463 OA
BRANCH   5   6
ATOM      6  C   UNL A   1      34.836  23.449  25.681  1.00  0.00     0.317 C 
ATOM      7  O   UNL A   1      34.527  23.364  26.862  1.00  0.00    -0.252 OA
BRANCH   6   8
ATOM      8  C   UNL A   1      33.839  23.563  24.493  1.00  0.00     0.185 C 
ATOM      9  C   UNL A   1      32.327  23.249  24.747  1.00  0.00     0.227 C 
ATOM     10  C   UNL A   1      32.477  21.720  24.889  1.00  0.00     0.226 C 
ATOM     11  O   UNL A   1      33.434  21.295  23.897  1.00  0.00    -0.374 OA
ATOM     12  C   UNL A   1      34.214  22.441  23.530  1.00  0.00     0.182 C 
BRANCH   9  13
ATOM     13  N   UNL A   1      31.552  24.065  25.717  1.00  0.00    -0.327 N 
ATOM     14  H   UNL A   1      32.425  24.491  26.028  1.00  0.00     0.348 HD
BRANCH  13  15
ATOM     15  C   UNL A   1      30.927  23.460  26.927  1.00  0.00     0.259 C 
ATOM     16  C   UNL A   1      29.574  22.760  26.984  1.00  0.00     0.071 C 
ENDBRANCH  13  15
BRANCH  13  17
ATOM     17  C   UNL A   1      30.595  25.150  25.186  1.00  0.00     0.194 C 
ATOM     18  C   UNL A   1      30.654  25.724  23.740  1.00  0.00     0.134 C 
ATOM     19  C   UNL A   1      30.431  26.340  26.199  1.00  0.00     0.073 C 
ATOM     20  S   UNL A   1      31.759  27.115  23.341  1.00  0.00    -0.155 SA
ATOM     21  C   UNL A   1      31.564  27.386  26.136  1.00  0.00    -0.021 C 
ATOM     22  C   UNL A   1      31.535  28.160  24.818  1.00  0.00     0.076 C 
ATOM     23  C   UNL A   1      32.851  26.654  26.272  1.00  0.00     0.012 C 
ATOM     24  C   UNL A   1      31.628  28.394  27.281  1.00  0.00     0.012 C 
ENDBRANCH  13  17
ENDBRANCH   9  13
ENDBRANCH   6   8
ENDBRANCH   5   6
ENDBRANCH   4   5
ENDBRANCH   3   4
ENDBRANCH   2   3
ENDBRANCH   1   2
BRANCH   1  25
ATOM     25  C   UNL A   1      39.614  19.478  25.779  1.00  0.00     0.261 C 
BRANCH  25  26
ATOM     26  O   UNL A   1      40.975  19.501  25.269  1.00  0.00    -0.460 OA
BRANCH  26  27
ATOM     27  C   UNL A   1      41.965  19.635  26.212  1.00  0.00     0.338 C 
ATOM     28  O   UNL A   1      42.626  18.721  26.690  1.00  0.00    -0.246 OA
BRANCH  27  29
ATOM     29  C   UNL A   1      42.156  21.062  26.620  1.00  0.00     0.060 A 
ATOM     30  C   UNL A   1      42.247  21.398  27.976  1.00  0.00     0.016 A 
ATOM     31  C   UNL A   1      42.283  22.082  25.665  1.00  0.00     0.016 A 
ATOM     32  C   UNL A   1      42.567  22.717  28.369  1.00  0.00     0.010 A 
ATOM     33  C   UNL A   1      42.639  23.394  26.057  1.00  0.00     0.010 A 
ATOM     34  C   UNL A   1      42.804  23.727  27.418  1.00  0.00    -0.014 A 
BRANCH  34  35
ATOM     35  C   UNL A   1      42.977  25.150  27.863  1.00  0.00     0.031 A 
ATOM     36  C   UNL A   1      44.368  25.719  27.753  1.00  0.00     0.074 A 
ATOM     37  C   UNL A   1      41.992  25.960  28.317  1.00  0.00     0.049 A 
ATOM     38  N   UNL A   1      44.791  26.940  27.952  1.00  0.00    -0.248 NA
ATOM     39  C   UNL A   1      45.422  24.771  27.356  1.00  0.00     0.031 C 
ATOM     40  C   UNL A   1      40.591  25.596  28.516  1.00  0.00     0.029 A 
ATOM     41  N   UNL A   1      42.033  27.290  28.704  1.00  0.00    -0.354 N 
ATOM     42  C   UNL A   1      46.155  26.906  27.700  1.00  0.00     0.074 A 
ATOM     43  C   UNL A   1      46.496  25.540  27.372  1.00  0.00     0.031 C 
ATOM     44  C   UNL A   1      39.914  26.663  28.989  1.00  0.00     0.029 A 
ATOM     45  C   UNL A   1      40.825  27.800  29.134  1.00  0.00     0.049 A 
ATOM     46  H   UNL A   1      42.858  27.827  28.676  1.00  0.00     0.167 HD
ATOM     47  C   UNL A   1      47.055  27.915  27.705  1.00  0.00     0.034 A 
ATOM     48  C   UNL A   1      40.486  29.033  29.582  1.00  0.00     0.034 A 
ATOM     49  C   UNL A   1      46.763  29.278  28.034  1.00  0.00     0.049 A 
ATOM     50  C   UNL A   1      41.524  30.140  29.625  1.00  0.00     0.074 A 
ATOM     51  C   UNL A   1      47.624  30.360  28.039  1.00  0.00     0.029 A 
ATOM     52  N   UNL A   1      45.526  29.745  28.441  1.00  0.00    -0.354 N 
ATOM     53  N   UNL A   1      42.772  30.121  29.226  1.00  0.00    -0.248 NA
ATOM     54  C   UNL A   1      41.092  31.451  30.147  1.00  0.00     0.031 C 
ATOM     55  C   UNL A   1      46.912  31.481  28.476  1.00  0.00     0.029 A 
ATOM     56  C   UNL A   1      45.602  31.100  28.711  1.00  0.00     0.049 A 
ATOM     57  H   UNL A   1      44.714  29.196  28.525  1.00  0.00     0.167 HD
ATOM     58  C   UNL A   1      43.256  31.417  29.408  1.00  0.00     0.074 A 
ATOM     59  C   UNL A   1      42.165  32.203  29.936  1.00  0.00     0.031 C 
ATOM     60  C   UNL A   1      44.500  31.904  29.170  1.00  0.00     0.034 A 
BRANCH  47  61
ATOM     61  C   UNL A   1      48.461  27.558  27.315  1.00  0.00     0.023 A 
ATOM     62  C   UNL A   1      49.356  27.092  28.299  1.00  0.00     0.012 A 
ATOM     63  C   UNL A   1      48.892  27.689  25.983  1.00  0.00     0.148 A 
ATOM     64  C   UNL A   1      50.677  26.800  27.970  1.00  0.00     0.002 A 
ATOM     65  C   UNL A   1      50.197  27.351  25.654  1.00  0.00     0.091 A 
ATOM     66  F   UNL A   1      48.030  28.168  25.076  1.00  0.00    -0.205 F 
ATOM     67  C   UNL A   1      51.094  26.920  26.646  1.00  0.00     0.022 A 
BRANCH  65  68
ATOM     68  S   UNL A   1      50.807  27.405  23.968  1.00  0.00     0.127 S 
ATOM     69  O   UNL A   1      52.052  26.648  24.081  1.00  0.00    -0.237 OA
ATOM     70  O   UNL A   1      49.741  26.721  23.235  1.00  0.00    -0.237 OA
ATOM     71  O   UNL A   1      50.960  28.815  23.640  1.00  0.00    -0.744 OA
ENDBRANCH  65  68
ENDBRANCH  47  61
BRANCH  48  72
ATOM     72  C   UNL A   1      39.080  29.348  30.006  1.00  0.00     0.023 A 
ATOM     73  C   UNL A   1      38.646  29.002  31.304  1.00  0.00     0.012 A 
ATOM     74  C   UNL A   1      38.153  29.916  29.111  1.00  0.00     0.148 A 
ATOM     75  C   UNL A   1      37.312  29.178  31.687  1.00  0.00     0.002 A 
ATOM     76  C   UNL A   1      36.838  30.136  29.516  1.00  0.00     0.091 A 
ATOM     77  F   UNL A   1      38.568  30.210  27.872  1.00  0.00    -0.205 F 
ATOM     78  C   UNL A   1      36.411  29.752  30.796  1.00  0.00     0.022 A 
BRANCH  76  79
ATOM     79  S   UNL A   1      35.627  30.961  28.474  1.00  0.00     0.127 S 
ATOM     80  O   UNL A   1      35.089  29.846  27.699  1.00  0.00    -0.237 OA
ATOM     81  O   UNL A   1      34.711  31.522  29.467  1.00  0.00    -0.237 OA
ATOM     82  O   UNL A   1      36.375  31.954  27.715  1.00  0.00    -0.744 OA
ENDBRANCH  76  79
ENDBRANCH  48  72
BRANCH  60  83
ATOM     83  C   UNL A   1      44.771  33.368  29.425  1.00  0.00     0.023 A 
ATOM     84  C   UNL A   1      45.211  33.793  30.693  1.00  0.00     0.012 A 
ATOM     85  C   UNL A   1      44.706  34.302  28.370  1.00  0.00     0.148 A 
ATOM     86  C   UNL A   1      45.560  35.127  30.914  1.00  0.00     0.002 A 
ATOM     87  C   UNL A   1      45.100  35.620  28.585  1.00  0.00     0.091 A 
ATOM     88  F   UNL A   1      44.272  33.886  27.172  1.00  0.00    -0.205 F 
ATOM     89  C   UNL A   1      45.517  36.035  29.859  1.00  0.00     0.022 A 
BRANCH  87  90
ATOM     90  S   UNL A   1      45.177  36.832  27.261  1.00  0.00     0.127 S 
ATOM     91  O   UNL A   1      43.760  37.046  26.970  1.00  0.00    -0.237 OA
ATOM     92  O   UNL A   1      45.844  37.962  27.911  1.00  0.00    -0.237 OA
ATOM     93  O   UNL A   1      45.948  36.211  26.192  1.00  0.00    -0.744 OA
ENDBRANCH  87  90
ENDBRANCH  60  83
ENDBRANCH  34  35
ENDBRANCH  27  29
ENDBRANCH  26  27
ENDBRANCH  25  26
ENDBRANCH   1  25
TORSDOF 20
ENDMDL
MODEL 3
REMARK VINA RESULT:     -10.6      1.664      2.205
REMARK SMILES CC[N@H+]([C@@H]1CSCC(C)(C)C1)[C@@H]1COC[C@@H]1C(=O)OCCOCCOC(=O)c1ccc(-c2c3nc(c(-c4cccc(S(=O)(=O)[O-])c4F)c4ccc([nH]4)c(-c4cccc(S(=O)(=O)[O-])c4F)c4nc(c(-c5cccc(S(=O)(=O)[O-])c5F)c5ccc2[nH]5)C=C4)C=C3)cc1
REMARK SMILES IDX 23 1 22 2 21 3 20 4 19 5 17 6 18 7 16 8 12 9 13 10 14 11
REMARK SMILES IDX 15 12 3 13 2 15 1 16 4 17 5 18 11 19 6 20 8 21 7 22 9 23
REMARK SMILES IDX 10 24 24 25 25 26 26 27 27 28 28 29 29 30 90 31 30 32 89 33
REMARK SMILES IDX 31 34 32 35 33 36 83 37 34 38 88 39 82 40 84 41 35 42 87 43
REMARK SMILES IDX 81 44 80 45 36 47 68 48 48 49 67 50 49 51 52 52 66 53 85 54
REMARK SMILES IDX 50 55 51 56 65 58 86 59 53 60 37 61 38 62 46 63 39 64 41 65
REMARK SMILES IDX 47 66 40 67 42 68 43 69 44 70 45 71 69 72 70 73 78 74 71 75
REMARK SMILES IDX 73 76 79 77 72 78 74 79 75 80 76 81 77 82 54 83 55 84 63 85
REMARK SMILES IDX 56 86 58 87 64 88 57 89 59 90 60 91 61 92 62 93
REMARK H PARENT 3 14 84 46 52 57
REMARK Flexibility Score: inf
ROOT
ATOM      1  C   UNL A   1      33.409  30.727  26.969  1.00  0.00     0.202 C 
ENDROOT
BRANCH   1   2
ATOM      2  O   UNL A   1      32.837  29.530  26.433  1.00  0.00    -0.374 OA
BRANCH   2   3
ATOM      3  C   UNL A   1      32.715  28.387  27.284  1.00  0.00     0.202 C 
BRANCH   3   4
ATOM      4  C   UNL A   1      31.306  27.758  27.532  1.00  0.00     0.261 C 
BRANCH   4   5
ATOM      5  O   UNL A   1      30.749  26.877  26.522  1.00  0.00    -0.463 OA
BRANCH   5   6
ATOM      6  C   UNL A   1      31.286  25.646  26.288  1.00  0.00     0.317 C 
ATOM      7  O   UNL A   1      31.614  24.889  27.192  1.00  0.00    -0.252 OA
BRANCH   6   8
ATOM      8  C   UNL A   1      31.478  25.374  24.769  1.00  0.00     0.185 C 
ATOM      9  C   UNL A   1      32.904  24.997  24.246  1.00  0.00     0.227 C 
ATOM     10  C   UNL A   1      33.534  26.396  24.400  1.00  0.00     0.226 C 
ATOM     11  O   UNL A   1      32.539  27.355  23.987  1.00  0.00    -0.374 OA
ATOM     12  C   UNL A   1      31.259  26.716  24.078  1.00  0.00     0.182 C 
BRANCH   9  13
ATOM     13  N   UNL A   1      33.573  23.765  24.740  1.00  0.00    -0.327 N 
ATOM     14  H   UNL A   1      32.699  23.492  25.189  1.00  0.00     0.348 HD
BRANCH  13  15
ATOM     15  C   UNL A   1      34.601  23.810  25.819  1.00  0.00     0.259 C 
ATOM     16  C   UNL A   1      34.530  23.083  27.157  1.00  0.00     0.071 C 
ENDBRANCH  13  15
BRANCH  13  17
ATOM     17  C   UNL A   1      34.005  22.689  23.725  1.00  0.00     0.194 C 
ATOM     18  C   UNL A   1      33.348  22.507  22.325  1.00  0.00     0.134 C 
ATOM     19  C   UNL A   1      34.171  21.278  24.395  1.00  0.00     0.073 C 
ATOM     20  S   UNL A   1      31.859  21.480  22.128  1.00  0.00    -0.155 SA
ATOM     21  C   UNL A   1      32.850  20.501  24.574  1.00  0.00    -0.021 C 
ATOM     22  C   UNL A   1      32.263  20.082  23.226  1.00  0.00     0.076 C 
ATOM     23  C   UNL A   1      31.902  21.398  25.288  1.00  0.00     0.012 C 
ATOM     24  C   UNL A   1      32.897  19.272  25.479  1.00  0.00     0.012 C 
ENDBRANCH  13  17
ENDBRANCH   9  13
ENDBRANCH   6   8
ENDBRANCH   5   6
ENDBRANCH   4   5
ENDBRANCH   3   4
ENDBRANCH   2   3
ENDBRANCH   1   2
BRANCH   1  25
ATOM     25  C   UNL A   1      32.419  31.891  27.282  1.00  0.00     0.261 C 
BRANCH  25  26
ATOM     26  O   UNL A   1      32.957  33.239  27.205  1.00  0.00    -0.460 OA
BRANCH  26  27
ATOM     27  C   UNL A   1      33.407  33.773  28.388  1.00  0.00     0.338 C 
ATOM     28  O   UNL A   1      32.875  34.685  29.009  1.00  0.00    -0.246 OA
BRANCH  27  29
ATOM     29  C   UNL A   1      34.666  33.112  28.853  1.00  0.00     0.060 A 
ATOM     30  C   UNL A   1      34.642  32.261  29.966  1.00  0.00     0.016 A 
ATOM     31  C   UNL A   1      35.879  33.294  28.174  1.00  0.00     0.016 A 
ATOM     32  C   UNL A   1      35.789  31.522  30.330  1.00  0.00     0.010 A 
ATOM     33  C   UNL A   1      37.018  32.528  28.516  1.00  0.00     0.010 A 
ATOM     34  C   UNL A   1      36.984  31.615  29.591  1.00  0.00    -0.014 A 
BRANCH  34  35
ATOM     35  C   UNL A   1      38.231  30.949  30.097  1.00  0.00     0.031 A 
ATOM     36  C   UNL A   1      38.654  31.301  31.500  1.00  0.00     0.074 A 
ATOM     37  C   UNL A   1      38.974  30.046  29.414  1.00  0.00     0.049 A 
ATOM     38  N   UNL A   1      39.612  30.800  32.235  1.00  0.00    -0.248 NA
ATOM     39  C   UNL A   1      37.876  32.362  32.159  1.00  0.00     0.031 C 
ATOM     40  C   UNL A   1      38.746  29.590  28.045  1.00  0.00     0.029 A 
ATOM     41  N   UNL A   1      40.104  29.342  29.801  1.00  0.00    -0.354 N 
ATOM     42  C   UNL A   1      39.549  31.483  33.441  1.00  0.00     0.074 A 
ATOM     43  C   UNL A   1      38.486  32.456  33.328  1.00  0.00     0.031 C 
ATOM     44  C   UNL A   1      39.699  28.697  27.706  1.00  0.00     0.029 A 
ATOM     45  C   UNL A   1      40.618  28.506  28.830  1.00  0.00     0.049 A 
ATOM     46  H   UNL A   1      40.507  29.431  30.694  1.00  0.00     0.167 HD
ATOM     47  C   UNL A   1      40.278  31.309  34.566  1.00  0.00     0.034 A 
ATOM     48  C   UNL A   1      41.692  27.680  28.842  1.00  0.00     0.034 A 
ATOM     49  C   UNL A   1      41.345  30.366  34.718  1.00  0.00     0.049 A 
ATOM     50  C   UNL A   1      42.527  27.535  30.101  1.00  0.00     0.074 A 
ATOM     51  C   UNL A   1      42.116  30.120  35.839  1.00  0.00     0.029 A 
ATOM     52  N   UNL A   1      41.812  29.532  33.718  1.00  0.00    -0.354 N 
ATOM     53  N   UNL A   1      42.346  28.073  31.283  1.00  0.00    -0.248 NA
ATOM     54  C   UNL A   1      43.696  26.637  30.037  1.00  0.00     0.031 C 
ATOM     55  C   UNL A   1      43.070  29.152  35.509  1.00  0.00     0.029 A 
ATOM     56  C   UNL A   1      42.870  28.776  34.192  1.00  0.00     0.049 A 
ATOM     57  H   UNL A   1      41.446  29.484  32.805  1.00  0.00     0.167 HD
ATOM     58  C   UNL A   1      43.344  27.548  32.105  1.00  0.00     0.074 A 
ATOM     59  C   UNL A   1      44.119  26.636  31.295  1.00  0.00     0.031 C 
ATOM     60  C   UNL A   1      43.601  27.814  33.410  1.00  0.00     0.034 A 
BRANCH  47  61
ATOM     61  C   UNL A   1      39.912  32.170  35.740  1.00  0.00     0.023 A 
ATOM     62  C   UNL A   1      40.648  33.347  35.993  1.00  0.00     0.012 A 
ATOM     63  C   UNL A   1      38.850  31.814  36.590  1.00  0.00     0.148 A 
ATOM     64  C   UNL A   1      40.356  34.137  37.102  1.00  0.00     0.002 A 
ATOM     65  C   UNL A   1      38.536  32.631  37.666  1.00  0.00     0.091 A 
ATOM     66  F   UNL A   1      38.191  30.673  36.346  1.00  0.00    -0.205 F 
ATOM     67  C   UNL A   1      39.295  33.784  37.932  1.00  0.00     0.022 A 
BRANCH  65  68
ATOM     68  S   UNL A   1      37.145  32.300  38.749  1.00  0.00     0.127 S 
ATOM     69  O   UNL A   1      37.566  32.967  39.980  1.00  0.00    -0.237 OA
ATOM     70  O   UNL A   1      36.045  32.959  38.044  1.00  0.00    -0.237 OA
ATOM     71  O   UNL A   1      37.033  30.851  38.830  1.00  0.00    -0.744 OA
ENDBRANCH  65  68
ENDBRANCH  47  61
BRANCH  48  72
ATOM     72  C   UNL A   1      42.058  26.862  27.637  1.00  0.00     0.023 A 
ATOM     73  C   UNL A   1      42.596  27.497  26.497  1.00  0.00     0.012 A 
ATOM     74  C   UNL A   1      41.810  25.477  27.587  1.00  0.00     0.148 A 
ATOM     75  C   UNL A   1      42.838  26.779  25.321  1.00  0.00     0.002 A 
ATOM     76  C   UNL A   1      42.102  24.758  26.429  1.00  0.00     0.091 A 
ATOM     77  F   UNL A   1      41.269  24.891  28.663  1.00  0.00    -0.205 F 
ATOM     78  C   UNL A   1      42.599  25.409  25.290  1.00  0.00     0.022 A 
BRANCH  76  79
ATOM     79  S   UNL A   1      41.921  22.972  26.325  1.00  0.00     0.127 S 
ATOM     80  O   UNL A   1      42.651  22.526  27.509  1.00  0.00    -0.237 OA
ATOM     81  O   UNL A   1      40.469  22.814  26.400  1.00  0.00    -0.237 OA
ATOM     82  O   UNL A   1      42.503  22.593  25.044  1.00  0.00    -0.744 OA
ENDBRANCH  76  79
ENDBRANCH  48  72
BRANCH  60  83
ATOM     83  C   UNL A   1      44.736  27.088  34.092  1.00  0.00     0.023 A 
ATOM     84  C   UNL A   1      46.045  27.604  34.024  1.00  0.00     0.012 A 
ATOM     85  C   UNL A   1      44.482  25.961  34.902  1.00  0.00     0.148 A 
ATOM     86  C   UNL A   1      47.085  26.998  34.732  1.00  0.00     0.002 A 
ATOM     87  C   UNL A   1      45.513  25.391  35.642  1.00  0.00     0.091 A 
ATOM     88  F   UNL A   1      43.233  25.473  34.945  1.00  0.00    -0.205 F 
ATOM     89  C   UNL A   1      46.817  25.902  35.549  1.00  0.00     0.022 A 
BRANCH  87  90
ATOM     90  S   UNL A   1      45.240  24.044  36.799  1.00  0.00     0.127 S 
ATOM     91  O   UNL A   1      46.586  23.829  37.329  1.00  0.00    -0.237 OA
ATOM     92  O   UNL A   1      44.298  24.636  37.750  1.00  0.00    -0.237 OA
ATOM     93  O   UNL A   1      44.694  22.945  36.015  1.00  0.00    -0.744 OA
ENDBRANCH  87  90
ENDBRANCH  60  83
ENDBRANCH  34  35
ENDBRANCH  27  29
ENDBRANCH  26  27
ENDBRANCH  25  26
ENDBRANCH   1  25
TORSDOF 20
ENDMDL
