MODEL 1
REMARK VINA RESULT:     -13.1      0.000      0.000
REMARK SMILES Cc1ccccc1/C=C1\SC(=O)N(CC(=O)Nc2ccccc2C(=O)OCCOCCOC(=O)c2ccc(-c3c4nc(c(-c5cccc(S(=O)(=O)[O-])c5F)c5ccc([nH]5)c(-c5cccc(S(=O)(=O)[O-])c5F)c5nc(c(-c6cccc(S(=O)(=O)[O-])c6F)c6ccc3[nH]6)C=C5)C=C4)cc2)C1=O
REMARK SMILES IDX 28 1 27 2 26 3 24 4 25 5 23 6 18 7 19 8 20 9 22 10 21 11
REMARK SMILES IDX 17 12 15 13 16 14 14 16 13 17 8 18 9 19 10 20 98 21 11 22
REMARK SMILES IDX 99 23 12 24 7 25 1 26 2 27 3 28 4 29 6 30 5 31 29 32 30 33
REMARK SMILES IDX 31 34 32 35 33 36 34 37 35 38 36 39 97 40 37 41 96 42 38 43
REMARK SMILES IDX 39 44 40 45 90 46 41 47 95 48 89 49 91 50 42 51 94 52 88 53
REMARK SMILES IDX 87 54 43 56 75 57 55 58 74 59 56 60 59 61 73 62 92 63 57 64
REMARK SMILES IDX 58 65 72 67 93 68 60 69 44 70 45 71 53 72 46 73 48 74 54 75
REMARK SMILES IDX 47 76 49 77 50 78 51 79 52 80 76 81 77 82 85 83 78 84 80 85
REMARK SMILES IDX 86 86 79 87 81 88 82 89 83 90 84 91 61 92 62 93 70 94 63 95
REMARK SMILES IDX 65 96 71 97 64 98 66 99 67 100 68 101 69 102
REMARK H PARENT 17 15 91 55 59 66
REMARK Flexibility Score: inf
ROOT
ATOM      1  C   UNL A   1      35.169  31.112  27.681  1.00  0.00     0.202 C 
ENDROOT
BRANCH   1   2
ATOM      2  C   UNL A   1      34.883  29.634  27.024  1.00  0.00     0.261 C 
BRANCH   2   3
ATOM      3  O   UNL A   1      33.312  28.380  27.250  1.00  0.00    -0.460 OA
BRANCH   3   4
ATOM      4  C   UNL A   1      31.883  27.985  27.106  1.00  0.00     0.340 C 
ATOM      5  O   UNL A   1      31.168  27.807  28.079  1.00  0.00    -0.246 OA
BRANCH   4   6
ATOM      6  C   UNL A   1      31.119  27.907  25.855  1.00  0.00     0.083 A 
ATOM      7  C   UNL A   1      30.403  26.743  25.521  1.00  0.00     0.055 A 
ATOM      8  C   UNL A   1      29.879  26.603  24.235  1.00  0.00     0.027 A 
ATOM      9  C   UNL A   1      30.031  27.633  23.309  1.00  0.00     0.002 A 
ATOM     10  C   UNL A   1      31.375  28.878  24.887  1.00  0.00     0.018 A 
ATOM     11  C   UNL A   1      30.791  28.759  23.629  1.00  0.00     0.001 A 
BRANCH   7  12
ATOM     12  N   UNL A   1      30.182  25.674  26.397  1.00  0.00    -0.324 N 
ATOM     13  C   UNL A   1      30.484  24.356  26.198  1.00  0.00     0.244 C 
ATOM     14  O   UNL A   1      30.352  23.588  27.158  1.00  0.00    -0.273 OA
ATOM     15  H   UNL A   1      29.759  25.896  27.257  1.00  0.00     0.170 HD
BRANCH  13  16
ATOM     16  C   UNL A   1      31.302  23.935  24.974  1.00  0.00     0.230 C 
BRANCH  16  17
ATOM     17  N   UNL A   1      32.608  23.293  25.118  1.00  0.00    -0.259 N 
ATOM     18  C   UNL A   1      37.111  23.612  26.013  1.00  0.00     0.029 C 
ATOM     19  C   UNL A   1      35.706  23.175  25.764  1.00  0.00     0.083 C 
ATOM     20  S   UNL A   1      34.918  21.056  26.004  1.00  0.00    -0.022 SA
ATOM     21  C   UNL A   1      34.077  24.311  25.390  1.00  0.00     0.268 C 
ATOM     22  C   UNL A   1      32.779  21.559  25.321  1.00  0.00     0.294 C 
ATOM     23  O   UNL A   1      33.737  25.402  25.889  1.00  0.00    -0.268 OA
ATOM     24  O   UNL A   1      31.956  20.656  25.151  1.00  0.00    -0.261 OA
BRANCH  18  25
ATOM     25  C   UNL A   1      38.855  23.678  26.479  1.00  0.00    -0.021 A 
ATOM     26  C   UNL A   1      40.446  21.396  26.277  1.00  0.00     0.045 C 
ATOM     27  C   UNL A   1      40.041  22.792  26.732  1.00  0.00    -0.044 A 
ATOM     28  C   UNL A   1      41.073  23.170  27.695  1.00  0.00     0.004 A 
ATOM     29  C   UNL A   1      41.115  24.386  28.330  1.00  0.00     0.000 A 
ATOM     30  C   UNL A   1      39.126  24.983  27.032  1.00  0.00     0.008 A 
ATOM     31  C   UNL A   1      40.191  25.319  27.927  1.00  0.00     0.001 A 
ENDBRANCH  18  25
ENDBRANCH  16  17
ENDBRANCH  13  16
ENDBRANCH   7  12
ENDBRANCH   4   6
ENDBRANCH   3   4
ENDBRANCH   2   3
ENDBRANCH   1   2
BRANCH   1  32
ATOM     32  O   UNL A   1      34.040  31.595  28.399  1.00  0.00    -0.374 OA
BRANCH  32  33
ATOM     33  C   UNL A   1      33.155  32.389  27.623  1.00  0.00     0.202 C 
BRANCH  33  34
ATOM     34  C   UNL A   1      33.424  33.866  27.888  1.00  0.00     0.261 C 
BRANCH  34  35
ATOM     35  O   UNL A   1      32.898  34.202  29.200  1.00  0.00    -0.460 OA
BRANCH  35  36
ATOM     36  C   UNL A   1      33.739  34.740  30.136  1.00  0.00     0.338 C 
ATOM     37  O   UNL A   1      33.551  35.833  30.646  1.00  0.00    -0.246 OA
BRANCH  36  38
ATOM     38  C   UNL A   1      34.816  33.773  30.559  1.00  0.00     0.060 A 
ATOM     39  C   UNL A   1      34.576  32.703  31.427  1.00  0.00     0.016 A 
ATOM     40  C   UNL A   1      36.123  33.941  30.139  1.00  0.00     0.016 A 
ATOM     41  C   UNL A   1      35.650  31.930  31.970  1.00  0.00     0.010 A 
ATOM     42  C   UNL A   1      37.165  33.277  30.801  1.00  0.00     0.010 A 
ATOM     43  C   UNL A   1      36.981  32.358  31.865  1.00  0.00    -0.014 A 
BRANCH  43  44
ATOM     44  C   UNL A   1      38.228  31.961  32.792  1.00  0.00     0.031 A 
ATOM     45  C   UNL A   1      38.235  32.781  34.012  1.00  0.00     0.074 A 
ATOM     46  C   UNL A   1      39.296  31.040  32.766  1.00  0.00     0.049 A 
ATOM     47  N   UNL A   1      39.263  33.450  34.431  1.00  0.00    -0.248 NA
ATOM     48  C   UNL A   1      36.991  33.072  34.730  1.00  0.00     0.031 C 
ATOM     49  C   UNL A   1      40.118  30.544  33.884  1.00  0.00     0.029 A 
ATOM     50  N   UNL A   1      39.816  30.169  31.774  1.00  0.00    -0.354 N 
ATOM     51  C   UNL A   1      38.852  33.908  35.663  1.00  0.00     0.074 A 
ATOM     52  C   UNL A   1      37.429  34.024  35.542  1.00  0.00     0.031 C 
ATOM     53  C   UNL A   1      41.089  29.692  33.457  1.00  0.00     0.029 A 
ATOM     54  C   UNL A   1      41.065  29.597  31.986  1.00  0.00     0.049 A 
ATOM     55  H   UNL A   1      39.305  29.975  30.956  1.00  0.00     0.167 HD
ATOM     56  C   UNL A   1      39.572  33.618  36.786  1.00  0.00     0.034 A 
ATOM     57  C   UNL A   1      42.085  29.376  31.075  1.00  0.00     0.034 A 
ATOM     58  C   UNL A   1      40.807  32.846  36.468  1.00  0.00     0.049 A 
ATOM     59  C   UNL A   1      43.173  30.351  31.665  1.00  0.00     0.074 A 
ATOM     60  C   UNL A   1      41.270  31.593  36.851  1.00  0.00     0.029 A 
ATOM     61  N   UNL A   1      41.662  33.249  35.434  1.00  0.00    -0.354 N 
ATOM     62  N   UNL A   1      42.885  31.128  32.687  1.00  0.00    -0.248 NA
ATOM     63  C   UNL A   1      44.577  30.561  31.306  1.00  0.00     0.031 C 
ATOM     64  C   UNL A   1      42.415  31.267  36.069  1.00  0.00     0.029 A 
ATOM     65  C   UNL A   1      42.653  32.306  35.183  1.00  0.00     0.049 A 
ATOM     66  H   UNL A   1      41.572  34.098  34.944  1.00  0.00     0.167 HD
ATOM     67  C   UNL A   1      43.935  31.827  33.172  1.00  0.00     0.074 A 
ATOM     68  C   UNL A   1      44.982  31.484  32.221  1.00  0.00     0.031 C 
ATOM     69  C   UNL A   1      43.790  32.603  34.298  1.00  0.00     0.034 A 
BRANCH  56  70
ATOM     70  C   UNL A   1      38.952  33.686  38.199  1.00  0.00     0.023 A 
ATOM     71  C   UNL A   1      39.242  34.826  38.975  1.00  0.00     0.012 A 
ATOM     72  C   UNL A   1      38.110  32.733  38.840  1.00  0.00     0.148 A 
ATOM     73  C   UNL A   1      38.845  34.958  40.313  1.00  0.00     0.002 A 
ATOM     74  C   UNL A   1      37.763  32.829  40.193  1.00  0.00     0.091 A 
ATOM     75  F   UNL A   1      37.497  31.780  38.134  1.00  0.00    -0.205 F 
ATOM     76  C   UNL A   1      38.137  33.942  40.937  1.00  0.00     0.022 A 
BRANCH  74  77
ATOM     77  S   UNL A   1      36.847  31.527  41.048  1.00  0.00     0.127 S 
ATOM     78  O   UNL A   1      37.822  30.434  41.098  1.00  0.00    -0.237 OA
ATOM     79  O   UNL A   1      36.561  32.140  42.342  1.00  0.00    -0.237 OA
ATOM     80  O   UNL A   1      35.685  31.237  40.215  1.00  0.00    -0.744 OA
ENDBRANCH  74  77
ENDBRANCH  56  70
BRANCH  57  81
ATOM     81  C   UNL A   1      41.818  28.948  29.536  1.00  0.00     0.023 A 
ATOM     82  C   UNL A   1      40.781  29.306  28.642  1.00  0.00     0.012 A 
ATOM     83  C   UNL A   1      42.717  28.086  28.873  1.00  0.00     0.148 A 
ATOM     84  C   UNL A   1      40.786  28.928  27.224  1.00  0.00     0.002 A 
ATOM     85  C   UNL A   1      42.891  27.882  27.415  1.00  0.00     0.091 A 
ATOM     86  F   UNL A   1      42.628  26.974  29.618  1.00  0.00    -0.205 F 
ATOM     87  C   UNL A   1      41.857  28.272  26.602  1.00  0.00     0.022 A 
BRANCH  85  88
ATOM     88  S   UNL A   1      44.630  27.717  26.258  1.00  0.00     0.127 S 
ATOM     89  O   UNL A   1      45.394  28.861  26.759  1.00  0.00    -0.237 OA
ATOM     90  O   UNL A   1      45.244  26.451  26.634  1.00  0.00    -0.237 OA
ATOM     91  O   UNL A   1      44.312  27.788  24.840  1.00  0.00    -0.744 OA
ENDBRANCH  85  88
ENDBRANCH  57  81
BRANCH  69  92
ATOM     92  C   UNL A   1      44.719  33.705  34.768  1.00  0.00     0.023 A 
ATOM     93  C   UNL A   1      45.874  33.425  35.512  1.00  0.00     0.012 A 
ATOM     94  C   UNL A   1      44.571  35.040  34.283  1.00  0.00     0.148 A 
ATOM     95  C   UNL A   1      46.823  34.420  35.777  1.00  0.00     0.002 A 
ATOM     96  C   UNL A   1      45.574  35.985  34.443  1.00  0.00     0.091 A 
ATOM     97  F   UNL A   1      43.437  35.424  33.679  1.00  0.00    -0.205 F 
ATOM     98  C   UNL A   1      46.691  35.688  35.217  1.00  0.00     0.022 A 
BRANCH  96  99
ATOM     99  S   UNL A   1      45.538  37.539  33.534  1.00  0.00     0.127 S 
ATOM    100  O   UNL A   1      44.327  38.166  34.057  1.00  0.00    -0.237 OA
ATOM    101  O   UNL A   1      46.786  38.176  33.961  1.00  0.00    -0.237 OA
ATOM    102  O   UNL A   1      45.513  37.164  32.128  1.00  0.00    -0.744 OA
ENDBRANCH  96  99
ENDBRANCH  69  92
ENDBRANCH  43  44
ENDBRANCH  36  38
ENDBRANCH  35  36
ENDBRANCH  34  35
ENDBRANCH  33  34
ENDBRANCH  32  33
ENDBRANCH   1  32
TORSDOF 21
ENDMDL
MODEL 2
REMARK VINA RESULT:     -12.7      1.897      2.211
REMARK SMILES Cc1ccccc1/C=C1\SC(=O)N(CC(=O)Nc2ccccc2C(=O)OCCOCCOC(=O)c2ccc(-c3c4nc(c(-c5cccc(S(=O)(=O)[O-])c5F)c5ccc([nH]5)c(-c5cccc(S(=O)(=O)[O-])c5F)c5nc(c(-c6cccc(S(=O)(=O)[O-])c6F)c6ccc3[nH]6)C=C5)C=C4)cc2)C1=O
REMARK SMILES IDX 28 1 27 2 26 3 24 4 25 5 23 6 18 7 19 8 20 9 22 10 21 11
REMARK SMILES IDX 17 12 15 13 16 14 14 16 13 17 8 18 9 19 10 20 98 21 11 22
REMARK SMILES IDX 99 23 12 24 7 25 1 26 2 27 3 28 4 29 6 30 5 31 29 32 30 33
REMARK SMILES IDX 31 34 32 35 33 36 34 37 35 38 36 39 97 40 37 41 96 42 38 43
REMARK SMILES IDX 39 44 40 45 90 46 41 47 95 48 89 49 91 50 42 51 94 52 88 53
REMARK SMILES IDX 87 54 43 56 75 57 55 58 74 59 56 60 59 61 73 62 92 63 57 64
REMARK SMILES IDX 58 65 72 67 93 68 60 69 44 70 45 71 53 72 46 73 48 74 54 75
REMARK SMILES IDX 47 76 49 77 50 78 51 79 52 80 76 81 77 82 85 83 78 84 80 85
REMARK SMILES IDX 86 86 79 87 81 88 82 89 83 90 84 91 61 92 62 93 70 94 63 95
REMARK SMILES IDX 65 96 71 97 64 98 66 99 67 100 68 101 69 102
REMARK H PARENT 17 15 91 55 59 66
REMARK Flexibility Score: inf
ROOT
ATOM      1  C   UNL A   1      33.993  31.252  28.060  1.00  0.00     0.202 C 
ENDROOT
BRANCH   1   2
ATOM      2  C   UNL A   1      33.450  29.996  27.152  1.00  0.00     0.261 C 
BRANCH   2   3
ATOM      3  O   UNL A   1      31.995  29.925  25.748  1.00  0.00    -0.460 OA
BRANCH   3   4
ATOM      4  C   UNL A   1      31.399  29.475  24.460  1.00  0.00     0.340 C 
ATOM      5  O   UNL A   1      30.312  29.882  24.082  1.00  0.00    -0.246 OA
BRANCH   4   6
ATOM      6  C   UNL A   1      32.051  28.649  23.437  1.00  0.00     0.083 A 
ATOM      7  C   UNL A   1      31.485  27.427  23.031  1.00  0.00     0.055 A 
ATOM      8  C   UNL A   1      32.229  26.554  22.236  1.00  0.00     0.027 A 
ATOM      9  C   UNL A   1      33.506  26.919  21.814  1.00  0.00     0.002 A 
ATOM     10  C   UNL A   1      33.375  28.952  23.117  1.00  0.00     0.018 A 
ATOM     11  C   UNL A   1      34.083  28.106  22.268  1.00  0.00     0.001 A 
BRANCH   7  12
ATOM     12  N   UNL A   1      30.202  26.994  23.386  1.00  0.00    -0.324 N 
ATOM     13  C   UNL A   1      29.816  26.398  24.553  1.00  0.00     0.244 C 
ATOM     14  O   UNL A   1      28.604  26.233  24.737  1.00  0.00    -0.273 OA
ATOM     15  H   UNL A   1      29.494  27.137  22.718  1.00  0.00     0.170 HD
BRANCH  13  16
ATOM     16  C   UNL A   1      30.799  26.294  25.722  1.00  0.00     0.230 C 
BRANCH  16  17
ATOM     17  N   UNL A   1      31.760  25.196  25.810  1.00  0.00    -0.259 N 
ATOM     18  C   UNL A   1      36.123  23.730  25.806  1.00  0.00     0.029 C 
ATOM     19  C   UNL A   1      34.644  23.893  25.927  1.00  0.00     0.083 C 
ATOM     20  S   UNL A   1      33.220  22.387  26.861  1.00  0.00    -0.022 SA
ATOM     21  C   UNL A   1      33.518  25.526  25.543  1.00  0.00     0.268 C 
ATOM     22  C   UNL A   1      31.322  23.620  26.441  1.00  0.00     0.294 C 
ATOM     23  O   UNL A   1      33.753  26.728  25.779  1.00  0.00    -0.268 OA
ATOM     24  O   UNL A   1      30.210  23.136  26.664  1.00  0.00    -0.261 OA
BRANCH  18  25
ATOM     25  C   UNL A   1      37.823  23.132  25.934  1.00  0.00    -0.021 A 
ATOM     26  C   UNL A   1      38.448  20.517  25.191  1.00  0.00     0.045 C 
ATOM     27  C   UNL A   1      38.637  21.872  25.860  1.00  0.00    -0.044 A 
ATOM     28  C   UNL A   1      39.862  21.719  26.642  1.00  0.00     0.004 A 
ATOM     29  C   UNL A   1      40.426  22.728  27.382  1.00  0.00     0.000 A 
ATOM     30  C   UNL A   1      38.619  24.161  26.559  1.00  0.00     0.008 A 
ATOM     31  C   UNL A   1      39.849  23.969  27.264  1.00  0.00     0.001 A 
ENDBRANCH  18  25
ENDBRANCH  16  17
ENDBRANCH  13  16
ENDBRANCH   7  12
ENDBRANCH   4   6
ENDBRANCH   3   4
ENDBRANCH   2   3
ENDBRANCH   1   2
BRANCH   1  32
ATOM     32  O   UNL A   1      33.948  32.479  27.342  1.00  0.00    -0.374 OA
BRANCH  32  33
ATOM     33  C   UNL A   1      32.702  33.156  27.431  1.00  0.00     0.202 C 
BRANCH  33  34
ATOM     34  C   UNL A   1      32.924  34.571  27.954  1.00  0.00     0.261 C 
BRANCH  34  35
ATOM     35  O   UNL A   1      32.666  34.579  29.384  1.00  0.00    -0.460 OA
BRANCH  35  36
ATOM     36  C   UNL A   1      33.630  35.055  30.231  1.00  0.00     0.338 C 
ATOM     37  O   UNL A   1      33.640  36.202  30.647  1.00  0.00    -0.246 OA
BRANCH  36  38
ATOM     38  C   UNL A   1      34.569  33.970  30.695  1.00  0.00     0.060 A 
ATOM     39  C   UNL A   1      34.270  33.113  31.760  1.00  0.00     0.016 A 
ATOM     40  C   UNL A   1      35.810  33.809  30.108  1.00  0.00     0.016 A 
ATOM     41  C   UNL A   1      35.257  32.234  32.307  1.00  0.00     0.010 A 
ATOM     42  C   UNL A   1      36.803  33.060  30.756  1.00  0.00     0.010 A 
ATOM     43  C   UNL A   1      36.613  32.369  31.980  1.00  0.00    -0.014 A 
BRANCH  43  44
ATOM     44  C   UNL A   1      37.891  31.878  32.817  1.00  0.00     0.031 A 
ATOM     45  C   UNL A   1      38.042  32.689  34.034  1.00  0.00     0.074 A 
ATOM     46  C   UNL A   1      38.885  30.883  32.715  1.00  0.00     0.049 A 
ATOM     47  N   UNL A   1      39.143  33.280  34.379  1.00  0.00    -0.248 NA
ATOM     48  C   UNL A   1      36.876  33.064  34.837  1.00  0.00     0.031 C 
ATOM     49  C   UNL A   1      39.746  30.323  33.772  1.00  0.00     0.029 A 
ATOM     50  N   UNL A   1      39.270  29.982  31.688  1.00  0.00    -0.354 N 
ATOM     51  C   UNL A   1      38.854  33.760  35.636  1.00  0.00     0.074 A 
ATOM     52  C   UNL A   1      37.438  33.978  35.616  1.00  0.00     0.031 C 
ATOM     53  C   UNL A   1      40.620  29.405  33.277  1.00  0.00     0.029 A 
ATOM     54  C   UNL A   1      40.486  29.321  31.812  1.00  0.00     0.049 A 
ATOM     55  H   UNL A   1      38.690  29.829  30.908  1.00  0.00     0.167 HD
ATOM     56  C   UNL A   1      39.628  33.413  36.706  1.00  0.00     0.034 A 
ATOM     57  C   UNL A   1      41.421  29.032  30.832  1.00  0.00     0.034 A 
ATOM     58  C   UNL A   1      40.778  32.556  36.302  1.00  0.00     0.049 A 
ATOM     59  C   UNL A   1      42.616  29.923  31.344  1.00  0.00     0.074 A 
ATOM     60  C   UNL A   1      41.176  31.270  36.651  1.00  0.00     0.029 A 
ATOM     61  N   UNL A   1      41.585  32.901  35.211  1.00  0.00    -0.354 N 
ATOM     62  N   UNL A   1      42.457  30.714  32.383  1.00  0.00    -0.248 NA
ATOM     63  C   UNL A   1      44.003  30.034  30.887  1.00  0.00     0.031 C 
ATOM     64  C   UNL A   1      42.236  30.867  35.791  1.00  0.00     0.029 A 
ATOM     65  C   UNL A   1      42.486  31.892  34.890  1.00  0.00     0.049 A 
ATOM     66  H   UNL A   1      41.523  33.758  34.729  1.00  0.00     0.167 HD
ATOM     67  C   UNL A   1      43.586  31.332  32.794  1.00  0.00     0.074 A 
ATOM     68  C   UNL A   1      44.536  30.920  31.771  1.00  0.00     0.031 C 
ATOM     69  C   UNL A   1      43.576  32.111  33.927  1.00  0.00     0.034 A 
BRANCH  56  70
ATOM     70  C   UNL A   1      39.115  33.518  38.159  1.00  0.00     0.023 A 
ATOM     71  C   UNL A   1      39.469  34.672  38.885  1.00  0.00     0.012 A 
ATOM     72  C   UNL A   1      38.317  32.586  38.883  1.00  0.00     0.148 A 
ATOM     73  C   UNL A   1      39.173  34.838  40.246  1.00  0.00     0.002 A 
ATOM     74  C   UNL A   1      38.073  32.715  40.256  1.00  0.00     0.091 A 
ATOM     75  F   UNL A   1      37.648  31.622  38.247  1.00  0.00    -0.205 F 
ATOM     76  C   UNL A   1      38.507  33.842  40.944  1.00  0.00     0.022 A 
BRANCH  74  77
ATOM     77  S   UNL A   1      37.214  31.440  41.206  1.00  0.00     0.127 S 
ATOM     78  O   UNL A   1      37.400  31.894  42.587  1.00  0.00    -0.237 OA
ATOM     79  O   UNL A   1      35.843  31.551  40.714  1.00  0.00    -0.237 OA
ATOM     80  O   UNL A   1      37.895  30.185  40.905  1.00  0.00    -0.744 OA
ENDBRANCH  74  77
ENDBRANCH  56  70
BRANCH  57  81
ATOM     81  C   UNL A   1      41.017  28.632  29.315  1.00  0.00     0.023 A 
ATOM     82  C   UNL A   1      40.238  29.319  28.353  1.00  0.00     0.012 A 
ATOM     83  C   UNL A   1      41.477  27.422  28.753  1.00  0.00     0.148 A 
ATOM     84  C   UNL A   1      40.101  28.861  26.966  1.00  0.00     0.002 A 
ATOM     85  C   UNL A   1      41.566  27.048  27.321  1.00  0.00     0.091 A 
ATOM     86  F   UNL A   1      40.919  26.515  29.568  1.00  0.00    -0.205 F 
ATOM     87  C   UNL A   1      40.802  27.768  26.438  1.00  0.00     0.022 A 
BRANCH  85  88
ATOM     88  S   UNL A   1      43.087  26.077  26.257  1.00  0.00     0.127 S 
ATOM     89  O   UNL A   1      44.138  27.095  26.302  1.00  0.00    -0.237 OA
ATOM     90  O   UNL A   1      43.440  24.902  27.042  1.00  0.00    -0.237 OA
ATOM     91  O   UNL A   1      42.641  25.740  24.914  1.00  0.00    -0.744 OA
ENDBRANCH  85  88
ENDBRANCH  57  81
BRANCH  69  92
ATOM     92  C   UNL A   1      44.613  33.141  34.332  1.00  0.00     0.023 A 
ATOM     93  C   UNL A   1      44.488  34.489  33.972  1.00  0.00     0.012 A 
ATOM     94  C   UNL A   1      45.633  32.816  35.278  1.00  0.00     0.148 A 
ATOM     95  C   UNL A   1      45.341  35.464  34.506  1.00  0.00     0.002 A 
ATOM     96  C   UNL A   1      46.389  33.802  35.894  1.00  0.00     0.091 A 
ATOM     97  F   UNL A   1      45.906  31.537  35.574  1.00  0.00    -0.205 F 
ATOM     98  C   UNL A   1      46.267  35.127  35.490  1.00  0.00     0.022 A 
BRANCH  96  99
ATOM     99  S   UNL A   1      47.414  33.425  37.327  1.00  0.00     0.127 S 
ATOM    100  O   UNL A   1      47.814  34.757  37.771  1.00  0.00    -0.237 OA
ATOM    101  O   UNL A   1      46.467  32.746  38.215  1.00  0.00    -0.237 OA
ATOM    102  O   UNL A   1      48.478  32.566  36.826  1.00  0.00    -0.744 OA
ENDBRANCH  96  99
ENDBRANCH  69  92
ENDBRANCH  43  44
ENDBRANCH  36  38
ENDBRANCH  35  36
ENDBRANCH  34  35
ENDBRANCH  33  34
ENDBRANCH  32  33
ENDBRANCH   1  32
TORSDOF 21
ENDMDL
MODEL 3
REMARK VINA RESULT:     -12.6      4.314      9.581
REMARK SMILES Cc1ccccc1/C=C1\SC(=O)N(CC(=O)Nc2ccccc2C(=O)OCCOCCOC(=O)c2ccc(-c3c4nc(c(-c5cccc(S(=O)(=O)[O-])c5F)c5ccc([nH]5)c(-c5cccc(S(=O)(=O)[O-])c5F)c5nc(c(-c6cccc(S(=O)(=O)[O-])c6F)c6ccc3[nH]6)C=C5)C=C4)cc2)C1=O
REMARK SMILES IDX 28 1 27 2 26 3 24 4 25 5 23 6 18 7 19 8 20 9 22 10 21 11
REMARK SMILES IDX 17 12 15 13 16 14 14 16 13 17 8 18 9 19 10 20 98 21 11 22
REMARK SMILES IDX 99 23 12 24 7 25 1 26 2 27 3 28 4 29 6 30 5 31 29 32 30 33
REMARK SMILES IDX 31 34 32 35 33 36 34 37 35 38 36 39 97 40 37 41 96 42 38 43
REMARK SMILES IDX 39 44 40 45 90 46 41 47 95 48 89 49 91 50 42 51 94 52 88 53
REMARK SMILES IDX 87 54 43 56 75 57 55 58 74 59 56 60 59 61 73 62 92 63 57 64
REMARK SMILES IDX 58 65 72 67 93 68 60 69 44 70 45 71 53 72 46 73 48 74 54 75
REMARK SMILES IDX 47 76 49 77 50 78 51 79 52 80 76 81 77 82 85 83 78 84 80 85
REMARK SMILES IDX 86 86 79 87 81 88 82 89 83 90 84 91 61 92 62 93 70 94 63 95
REMARK SMILES IDX 65 96 71 97 64 98 66 99 67 100 68 101 69 102
REMARK H PARENT 17 15 91 55 59 66
REMARK Flexibility Score: inf
ROOT
ATOM      1  C   UNL A   1      32.632  31.223  26.882  1.00  0.00     0.202 C 
ENDROOT
BRANCH   1   2
ATOM      2  C   UNL A   1      32.489  29.641  27.298  1.00  0.00     0.261 C 
BRANCH   2   3
ATOM      3  O   UNL A   1      33.373  27.995  26.522  1.00  0.00    -0.460 OA
BRANCH   3   4
ATOM      4  C   UNL A   1      33.467  26.844  25.581  1.00  0.00     0.340 C 
ATOM      5  O   UNL A   1      34.348  26.005  25.685  1.00  0.00    -0.246 OA
BRANCH   4   6
ATOM      6  C   UNL A   1      32.491  26.477  24.550  1.00  0.00     0.083 A 
ATOM      7  C   UNL A   1      31.585  25.420  24.759  1.00  0.00     0.055 A 
ATOM      8  C   UNL A   1      30.829  24.939  23.689  1.00  0.00     0.027 A 
ATOM      9  C   UNL A   1      30.943  25.538  22.436  1.00  0.00     0.002 A 
ATOM     10  C   UNL A   1      32.691  26.987  23.267  1.00  0.00     0.018 A 
ATOM     11  C   UNL A   1      31.884  26.546  22.222  1.00  0.00     0.001 A 
BRANCH   7  12
ATOM     12  N   UNL A   1      31.390  24.781  25.989  1.00  0.00    -0.324 N 
ATOM     13  C   UNL A   1      31.649  23.476  26.301  1.00  0.00     0.244 C 
ATOM     14  O   UNL A   1      31.555  23.143  27.489  1.00  0.00    -0.273 OA
ATOM     15  H   UNL A   1      31.022  25.335  26.714  1.00  0.00     0.170 HD
BRANCH  13  16
ATOM     16  C   UNL A   1      32.385  22.581  25.301  1.00  0.00     0.230 C 
BRANCH  16  17
ATOM     17  N   UNL A   1      33.800  22.786  24.997  1.00  0.00    -0.259 N 
ATOM     18  C   UNL A   1      38.224  22.316  26.178  1.00  0.00     0.029 C 
ATOM     19  C   UNL A   1      36.919  22.541  25.489  1.00  0.00     0.083 C 
ATOM     20  S   UNL A   1      36.647  22.904  23.261  1.00  0.00    -0.022 SA
ATOM     21  C   UNL A   1      35.049  22.362  26.233  1.00  0.00     0.268 C 
ATOM     22  C   UNL A   1      34.363  23.163  23.379  1.00  0.00     0.294 C 
ATOM     23  O   UNL A   1      34.583  21.510  27.016  1.00  0.00    -0.268 OA
ATOM     24  O   UNL A   1      33.730  23.523  22.383  1.00  0.00    -0.261 OA
BRANCH  18  25
ATOM     25  C   UNL A   1      39.970  22.039  26.549  1.00  0.00    -0.021 A 
ATOM     26  C   UNL A   1      41.130  19.552  26.050  1.00  0.00     0.045 C 
ATOM     27  C   UNL A   1      40.992  20.944  26.652  1.00  0.00    -0.044 A 
ATOM     28  C   UNL A   1      42.113  21.044  27.585  1.00  0.00     0.004 A 
ATOM     29  C   UNL A   1      42.391  22.166  28.325  1.00  0.00     0.000 A 
ATOM     30  C   UNL A   1      40.487  23.218  27.201  1.00  0.00     0.008 A 
ATOM     31  C   UNL A   1      41.629  23.278  28.061  1.00  0.00     0.001 A 
ENDBRANCH  18  25
ENDBRANCH  16  17
ENDBRANCH  13  16
ENDBRANCH   7  12
ENDBRANCH   4   6
ENDBRANCH   3   4
ENDBRANCH   2   3
ENDBRANCH   1   2
BRANCH   1  32
ATOM     32  O   UNL A   1      33.680  31.863  27.600  1.00  0.00    -0.374 OA
BRANCH  32  33
ATOM     33  C   UNL A   1      34.868  31.090  27.702  1.00  0.00     0.202 C 
BRANCH  33  34
ATOM     34  C   UNL A   1      35.486  31.280  29.083  1.00  0.00     0.261 C 
BRANCH  34  35
ATOM     35  O   UNL A   1      35.754  29.970  29.652  1.00  0.00    -0.460 OA
BRANCH  35  36
ATOM     36  C   UNL A   1      36.587  29.872  30.733  1.00  0.00     0.338 C 
ATOM     37  O   UNL A   1      36.213  30.060  31.879  1.00  0.00    -0.246 OA
BRANCH  36  38
ATOM     38  C   UNL A   1      37.957  29.367  30.354  1.00  0.00     0.060 A 
ATOM     39  C   UNL A   1      38.393  28.069  30.643  1.00  0.00     0.016 A 
ATOM     40  C   UNL A   1      38.873  30.200  29.739  1.00  0.00     0.016 A 
ATOM     41  C   UNL A   1      39.758  27.684  30.456  1.00  0.00     0.010 A 
ATOM     42  C   UNL A   1      40.232  29.853  29.713  1.00  0.00     0.010 A 
ATOM     43  C   UNL A   1      40.758  28.638  30.224  1.00  0.00    -0.014 A 
BRANCH  43  44
ATOM     44  C   UNL A   1      42.334  28.511  30.494  1.00  0.00     0.031 A 
ATOM     45  C   UNL A   1      42.916  27.477  29.627  1.00  0.00     0.074 A 
ATOM     46  C   UNL A   1      43.305  29.124  31.314  1.00  0.00     0.049 A 
ATOM     47  N   UNL A   1      43.655  26.502  30.056  1.00  0.00    -0.248 NA
ATOM     48  C   UNL A   1      42.512  27.358  28.224  1.00  0.00     0.031 C 
ATOM     49  C   UNL A   1      44.768  29.156  31.149  1.00  0.00     0.029 A 
ATOM     50  N   UNL A   1      43.238  30.029  32.405  1.00  0.00    -0.354 N 
ATOM     51  C   UNL A   1      44.091  25.911  28.891  1.00  0.00     0.074 A 
ATOM     52  C   UNL A   1      43.049  26.178  27.945  1.00  0.00     0.031 C 
ATOM     53  C   UNL A   1      45.378  29.812  32.174  1.00  0.00     0.029 A 
ATOM     54  C   UNL A   1      44.377  30.217  33.178  1.00  0.00     0.049 A 
ATOM     55  H   UNL A   1      42.405  30.511  32.610  1.00  0.00     0.167 HD
ATOM     56  C   UNL A   1      45.427  25.771  28.642  1.00  0.00     0.034 A 
ATOM     57  C   UNL A   1      44.481  30.366  34.550  1.00  0.00     0.034 A 
ATOM     58  C   UNL A   1      46.256  26.264  29.778  1.00  0.00     0.049 A 
ATOM     59  C   UNL A   1      45.279  29.051  34.894  1.00  0.00     0.074 A 
ATOM     60  C   UNL A   1      47.225  27.255  29.889  1.00  0.00     0.029 A 
ATOM     61  N   UNL A   1      45.967  25.890  31.096  1.00  0.00    -0.354 N 
ATOM     62  N   UNL A   1      45.547  28.172  33.952  1.00  0.00    -0.248 NA
ATOM     63  C   UNL A   1      45.873  28.582  36.147  1.00  0.00     0.031 C 
ATOM     64  C   UNL A   1      47.532  27.446  31.267  1.00  0.00     0.029 A 
ATOM     65  C   UNL A   1      46.739  26.590  32.017  1.00  0.00     0.049 A 
ATOM     66  H   UNL A   1      45.297  25.212  31.342  1.00  0.00     0.167 HD
ATOM     67  C   UNL A   1      46.337  27.151  34.350  1.00  0.00     0.074 A 
ATOM     68  C   UNL A   1      46.469  27.417  35.774  1.00  0.00     0.031 C 
ATOM     69  C   UNL A   1      46.769  26.215  33.439  1.00  0.00     0.034 A 
BRANCH  56  70
ATOM     70  C   UNL A   1      45.978  25.562  27.214  1.00  0.00     0.023 A 
ATOM     71  C   UNL A   1      46.070  24.236  26.748  1.00  0.00     0.012 A 
ATOM     72  C   UNL A   1      46.418  26.548  26.285  1.00  0.00     0.148 A 
ATOM     73  C   UNL A   1      46.663  23.899  25.522  1.00  0.00     0.002 A 
ATOM     74  C   UNL A   1      47.068  26.215  25.090  1.00  0.00     0.091 A 
ATOM     75  F   UNL A   1      46.100  27.833  26.452  1.00  0.00    -0.205 F 
ATOM     76  C   UNL A   1      47.198  24.885  24.709  1.00  0.00     0.022 A 
BRANCH  74  77
ATOM     77  S   UNL A   1      47.785  27.468  24.003  1.00  0.00     0.127 S 
ATOM     78  O   UNL A   1      48.236  26.672  22.857  1.00  0.00    -0.237 OA
ATOM     79  O   UNL A   1      46.642  28.333  23.724  1.00  0.00    -0.237 OA
ATOM     80  O   UNL A   1      48.875  28.081  24.755  1.00  0.00    -0.744 OA
ENDBRANCH  74  77
ENDBRANCH  56  70
BRANCH  57  81
ATOM     81  C   UNL A   1      43.384  31.162  35.439  1.00  0.00     0.023 A 
ATOM     82  C   UNL A   1      43.410  32.465  35.991  1.00  0.00     0.012 A 
ATOM     83  C   UNL A   1      42.155  30.550  35.764  1.00  0.00     0.148 A 
ATOM     84  C   UNL A   1      42.248  33.072  36.652  1.00  0.00     0.002 A 
ATOM     85  C   UNL A   1      40.894  31.195  36.204  1.00  0.00     0.091 A 
ATOM     86  F   UNL A   1      42.559  29.492  36.482  1.00  0.00    -0.205 F 
ATOM     87  C   UNL A   1      40.985  32.467  36.708  1.00  0.00     0.022 A 
BRANCH  85  88
ATOM     88  S   UNL A   1      38.910  30.838  35.635  1.00  0.00     0.127 S 
ATOM     89  O   UNL A   1      39.116  29.991  34.458  1.00  0.00    -0.237 OA
ATOM     90  O   UNL A   1      38.303  30.099  36.733  1.00  0.00    -0.237 OA
ATOM     91  O   UNL A   1      38.223  32.090  35.354  1.00  0.00    -0.744 OA
ENDBRANCH  85  88
ENDBRANCH  57  81
BRANCH  69  92
ATOM     92  C   UNL A   1      47.341  24.844  33.746  1.00  0.00     0.023 A 
ATOM     93  C   UNL A   1      48.721  24.605  33.735  1.00  0.00     0.012 A 
ATOM     94  C   UNL A   1      46.509  23.809  34.273  1.00  0.00     0.148 A 
ATOM     95  C   UNL A   1      49.250  23.395  34.203  1.00  0.00     0.002 A 
ATOM     96  C   UNL A   1      47.049  22.669  34.848  1.00  0.00     0.091 A 
ATOM     97  F   UNL A   1      45.174  23.903  34.198  1.00  0.00    -0.205 F 
ATOM     98  C   UNL A   1      48.421  22.443  34.789  1.00  0.00     0.022 A 
BRANCH  96  99
ATOM     99  S   UNL A   1      46.028  21.546  35.818  1.00  0.00     0.127 S 
ATOM    100  O   UNL A   1      47.030  20.673  36.422  1.00  0.00    -0.237 OA
ATOM    101  O   UNL A   1      45.370  22.459  36.756  1.00  0.00    -0.237 OA
ATOM    102  O   UNL A   1      45.123  20.924  34.862  1.00  0.00    -0.744 OA
ENDBRANCH  96  99
ENDBRANCH  69  92
ENDBRANCH  43  44
ENDBRANCH  36  38
ENDBRANCH  35  36
ENDBRANCH  34  35
ENDBRANCH  33  34
ENDBRANCH  32  33
ENDBRANCH   1  32
TORSDOF 21
ENDMDL
