MODEL 1
REMARK VINA RESULT:     -12.4      0.000      0.000
REMARK SMILES O=C(OCCOCCOC(=O)[C@@H](Cc1c[nH]c2ccccc12)NC(=O)c1ccc(F)cc1F)c1ccc(-c2c3nc(c(-c4cccc(S(=O)(=O)[O-])c4F)c4ccc([nH]4)c(-c4cccc(S(=O)(=O)[O-])c4F)c4nc(c(-c5cccc(S(=O)(=O)[O-])c5F)c5ccc2[nH]5)C=C4)C=C3)cc1
REMARK SMILES IDX 5 1 4 2 3 3 2 4 1 5 34 6 35 7 96 8 36 9 95 10 37 11 38 12
REMARK SMILES IDX 39 13 89 14 40 15 94 16 88 17 90 18 41 19 93 20 87 21 86 22
REMARK SMILES IDX 42 24 74 25 54 26 73 27 55 28 58 29 72 30 91 31 56 32 57 33
REMARK SMILES IDX 71 35 92 36 59 37 43 38 44 39 52 40 45 41 47 42 53 43 46 44
REMARK SMILES IDX 48 45 49 46 50 47 51 48 75 49 76 50 84 51 77 52 79 53 85 54
REMARK SMILES IDX 78 55 80 56 81 57 82 58 83 59 60 60 61 61 69 62 62 63 64 64
REMARK SMILES IDX 70 65 63 66 65 67 66 68 67 69 68 70 6 71 7 72 8 73 9 74
REMARK SMILES IDX 10 75 11 76 12 77 13 78 14 79 15 80 22 81 16 82 17 83 21 84
REMARK SMILES IDX 18 86 20 87 19 88 23 89 24 90 25 92 26 93 27 94 32 95 28 96
REMARK SMILES IDX 31 97 33 98 29 99 30 100
REMARK H PARENT 90 23 58 34 16 85 23 91
REMARK Flexibility Score: inf
ROOT
ATOM      1  C   UNL A   1      37.712  20.622  25.000  1.00  0.00     0.202 C 
ENDROOT
BRANCH   1   2
ATOM      2  C   UNL A   1      38.710  19.510  25.375  1.00  0.00     0.261 C 
BRANCH   2   3
ATOM      3  O   UNL A   1      40.015  20.035  25.682  1.00  0.00    -0.460 OA
BRANCH   3   4
ATOM      4  C   UNL A   1      40.524  20.402  26.884  1.00  0.00     0.338 C 
ATOM      5  O   UNL A   1      40.800  19.556  27.727  1.00  0.00    -0.246 OA
BRANCH   4   6
ATOM      6  C   UNL A   1      40.810  21.818  27.188  1.00  0.00     0.060 A 
ATOM      7  C   UNL A   1      40.266  22.876  26.466  1.00  0.00     0.016 A 
ATOM      8  C   UNL A   1      41.640  22.092  28.282  1.00  0.00     0.016 A 
ATOM      9  C   UNL A   1      40.636  24.169  26.700  1.00  0.00     0.010 A 
ATOM     10  C   UNL A   1      41.965  23.407  28.585  1.00  0.00     0.010 A 
ATOM     11  C   UNL A   1      41.481  24.430  27.764  1.00  0.00    -0.014 A 
BRANCH  11  12
ATOM     12  C   UNL A   1      41.904  25.812  27.905  1.00  0.00     0.031 A 
ATOM     13  C   UNL A   1      43.201  26.192  27.287  1.00  0.00     0.074 A 
ATOM     14  C   UNL A   1      41.036  26.672  28.455  1.00  0.00     0.049 A 
ATOM     15  N   UNL A   1      43.838  27.320  27.359  1.00  0.00    -0.248 NA
ATOM     16  C   UNL A   1      43.875  25.161  26.472  1.00  0.00     0.031 C 
ATOM     17  C   UNL A   1      39.690  26.321  28.930  1.00  0.00     0.029 A 
ATOM     18  N   UNL A   1      41.141  28.006  28.701  1.00  0.00    -0.354 N 
ATOM     19  C   UNL A   1      45.028  27.113  26.679  1.00  0.00     0.074 A 
ATOM     20  C   UNL A   1      45.007  25.770  26.153  1.00  0.00     0.031 C 
ATOM     21  C   UNL A   1      39.102  27.416  29.429  1.00  0.00     0.029 A 
ATOM     22  C   UNL A   1      40.063  28.506  29.389  1.00  0.00     0.049 A 
ATOM     23  H   UNL A   1      41.908  28.554  28.416  1.00  0.00     0.167 HD
ATOM     24  C   UNL A   1      46.051  27.984  26.553  1.00  0.00     0.034 A 
ATOM     25  C   UNL A   1      39.923  29.702  29.985  1.00  0.00     0.034 A 
ATOM     26  C   UNL A   1      45.989  29.301  27.119  1.00  0.00     0.049 A 
ATOM     27  C   UNL A   1      41.083  30.647  29.854  1.00  0.00     0.074 A 
ATOM     28  C   UNL A   1      46.950  30.288  27.136  1.00  0.00     0.029 A 
ATOM     29  N   UNL A   1      44.874  29.804  27.788  1.00  0.00    -0.354 N 
ATOM     30  N   UNL A   1      42.228  30.452  29.237  1.00  0.00    -0.248 NA
ATOM     31  C   UNL A   1      40.945  31.964  30.475  1.00  0.00     0.031 C 
ATOM     32  C   UNL A   1      46.423  31.379  27.838  1.00  0.00     0.029 A 
ATOM     33  C   UNL A   1      45.119  31.087  28.226  1.00  0.00     0.049 A 
ATOM     34  H   UNL A   1      44.032  29.312  27.927  1.00  0.00     0.167 HD
ATOM     35  C   UNL A   1      42.944  31.628  29.372  1.00  0.00     0.074 A 
ATOM     36  C   UNL A   1      42.091  32.536  30.124  1.00  0.00     0.031 C 
ATOM     37  C   UNL A   1      44.189  31.938  28.932  1.00  0.00     0.034 A 
BRANCH  24  38
ATOM     38  C   UNL A   1      47.292  27.481  25.871  1.00  0.00     0.023 A 
ATOM     39  C   UNL A   1      48.332  26.894  26.619  1.00  0.00     0.012 A 
ATOM     40  C   UNL A   1      47.466  27.674  24.486  1.00  0.00     0.148 A 
ATOM     41  C   UNL A   1      49.542  26.552  26.011  1.00  0.00     0.002 A 
ATOM     42  C   UNL A   1      48.658  27.294  23.880  1.00  0.00     0.091 A 
ATOM     43  F   UNL A   1      46.486  28.275  23.796  1.00  0.00    -0.205 F 
ATOM     44  C   UNL A   1      49.702  26.747  24.641  1.00  0.00     0.022 A 
BRANCH  42  45
ATOM     45  S   UNL A   1      48.937  27.466  22.114  1.00  0.00     0.127 S 
ATOM     46  O   UNL A   1      47.972  28.507  21.762  1.00  0.00    -0.237 OA
ATOM     47  O   UNL A   1      50.337  27.892  22.064  1.00  0.00    -0.237 OA
ATOM     48  O   UNL A   1      48.683  26.154  21.538  1.00  0.00    -0.744 OA
ENDBRANCH  42  45
ENDBRANCH  24  38
BRANCH  25  49
ATOM     49  C   UNL A   1      38.676  30.006  30.736  1.00  0.00     0.023 A 
ATOM     50  C   UNL A   1      38.555  29.612  32.080  1.00  0.00     0.012 A 
ATOM     51  C   UNL A   1      37.660  30.801  30.161  1.00  0.00     0.148 A 
ATOM     52  C   UNL A   1      37.445  29.999  32.836  1.00  0.00     0.002 A 
ATOM     53  C   UNL A   1      36.587  31.229  30.934  1.00  0.00     0.091 A 
ATOM     54  F   UNL A   1      37.788  31.164  28.877  1.00  0.00    -0.205 F 
ATOM     55  C   UNL A   1      36.470  30.817  32.269  1.00  0.00     0.022 A 
BRANCH  53  56
ATOM     56  S   UNL A   1      35.369  32.404  30.328  1.00  0.00     0.127 S 
ATOM     57  O   UNL A   1      34.842  31.711  29.155  1.00  0.00    -0.237 OA
ATOM     58  O   UNL A   1      34.441  32.491  31.458  1.00  0.00    -0.237 OA
ATOM     59  O   UNL A   1      36.103  33.633  30.061  1.00  0.00    -0.744 OA
ENDBRANCH  53  56
ENDBRANCH  25  49
BRANCH  37  60
ATOM     60  C   UNL A   1      44.670  33.329  29.210  1.00  0.00     0.023 A 
ATOM     61  C   UNL A   1      45.278  33.626  30.444  1.00  0.00     0.012 A 
ATOM     62  C   UNL A   1      44.642  34.291  28.185  1.00  0.00     0.148 A 
ATOM     63  C   UNL A   1      45.849  34.876  30.655  1.00  0.00     0.002 A 
ATOM     64  C   UNL A   1      45.260  35.515  28.384  1.00  0.00     0.091 A 
ATOM     65  F   UNL A   1      44.034  33.978  27.032  1.00  0.00    -0.205 F 
ATOM     66  C   UNL A   1      45.856  35.813  29.622  1.00  0.00     0.022 A 
BRANCH  64  67
ATOM     67  S   UNL A   1      45.420  36.726  27.071  1.00  0.00     0.127 S 
ATOM     68  O   UNL A   1      45.904  35.900  25.966  1.00  0.00    -0.237 OA
ATOM     69  O   UNL A   1      44.046  37.203  26.922  1.00  0.00    -0.237 OA
ATOM     70  O   UNL A   1      46.359  37.727  27.559  1.00  0.00    -0.744 OA
ENDBRANCH  64  67
ENDBRANCH  37  60
ENDBRANCH  11  12
ENDBRANCH   4   6
ENDBRANCH   3   4
ENDBRANCH   2   3
ENDBRANCH   1   2
BRANCH   1  71
ATOM     71  O   UNL A   1      36.312  20.361  25.107  1.00  0.00    -0.374 OA
BRANCH  71  72
ATOM     72  C   UNL A   1      35.459  21.454  25.476  1.00  0.00     0.202 C 
BRANCH  72  73
ATOM     73  C   UNL A   1      34.035  21.238  24.980  1.00  0.00     0.261 C 
BRANCH  73  74
ATOM     74  O   UNL A   1      33.921  21.931  23.729  1.00  0.00    -0.462 OA
BRANCH  74  75
ATOM     75  C   UNL A   1      32.737  22.537  23.510  1.00  0.00     0.329 C 
ATOM     76  O   UNL A   1      31.691  21.953  23.247  1.00  0.00    -0.250 OA
BRANCH  75  77
ATOM     77  C   UNL A   1      32.822  24.069  23.563  1.00  0.00     0.197 C 
BRANCH  77  78
ATOM     78  C   UNL A   1      33.490  24.806  24.748  1.00  0.00     0.074 C 
BRANCH  78  79
ATOM     79  C   UNL A   1      32.642  25.623  25.671  1.00  0.00    -0.020 A 
ATOM     80  C   UNL A   1      31.418  25.273  26.207  1.00  0.00     0.087 A 
ATOM     81  C   UNL A   1      32.946  26.938  26.177  1.00  0.00     0.003 A 
ATOM     82  N   UNL A   1      30.920  26.354  26.885  1.00  0.00    -0.361 N 
ATOM     83  C   UNL A   1      31.818  27.392  26.862  1.00  0.00     0.046 A 
ATOM     84  C   UNL A   1      34.051  27.810  26.081  1.00  0.00     0.010 A 
ATOM     85  H   UNL A   1      30.041  26.383  27.327  1.00  0.00     0.166 HD
ATOM     86  C   UNL A   1      31.708  28.689  27.381  1.00  0.00     0.026 A 
ATOM     87  C   UNL A   1      33.965  29.105  26.612  1.00  0.00     0.001 A 
ATOM     88  C   UNL A   1      32.800  29.545  27.228  1.00  0.00     0.002 A 
ENDBRANCH  78  79
ENDBRANCH  77  78
BRANCH  77  89
ATOM     89  N   UNL A   1      33.293  24.519  22.253  1.00  0.00    -0.338 N 
ATOM     90  C   UNL A   1      32.891  25.631  21.551  1.00  0.00     0.254 C 
ATOM     91  H   UNL A   1      33.979  23.958  21.823  1.00  0.00     0.164 HD
ATOM     92  O   UNL A   1      33.161  25.726  20.360  1.00  0.00    -0.269 OA
BRANCH  90  93
ATOM     93  C   UNL A   1      32.194  26.738  22.240  1.00  0.00     0.075 A 
ATOM     94  C   UNL A   1      30.863  26.585  22.655  1.00  0.00     0.020 A 
ATOM     95  C   UNL A   1      32.888  27.908  22.557  1.00  0.00     0.138 A 
ATOM     96  C   UNL A   1      30.230  27.617  23.351  1.00  0.00     0.040 A 
ATOM     97  C   UNL A   1      32.264  28.933  23.262  1.00  0.00     0.079 A 
ATOM     98  F   UNL A   1      34.167  28.074  22.190  1.00  0.00    -0.206 F 
ATOM     99  C   UNL A   1      30.939  28.778  23.651  1.00  0.00     0.126 A 
ATOM    100  F   UNL A   1      30.334  29.752  24.343  1.00  0.00    -0.207 F 
ENDBRANCH  90  93
ENDBRANCH  77  89
ENDBRANCH  75  77
ENDBRANCH  74  75
ENDBRANCH  73  74
ENDBRANCH  72  73
ENDBRANCH  71  72
ENDBRANCH   1  71
TORSDOF 21
ENDMDL
MODEL 2
REMARK VINA RESULT:     -12.3      5.107     10.708
REMARK SMILES O=C(OCCOCCOC(=O)[C@@H](Cc1c[nH]c2ccccc12)NC(=O)c1ccc(F)cc1F)c1ccc(-c2c3nc(c(-c4cccc(S(=O)(=O)[O-])c4F)c4ccc([nH]4)c(-c4cccc(S(=O)(=O)[O-])c4F)c4nc(c(-c5cccc(S(=O)(=O)[O-])c5F)c5ccc2[nH]5)C=C4)C=C3)cc1
REMARK SMILES IDX 5 1 4 2 3 3 2 4 1 5 34 6 35 7 96 8 36 9 95 10 37 11 38 12
REMARK SMILES IDX 39 13 89 14 40 15 94 16 88 17 90 18 41 19 93 20 87 21 86 22
REMARK SMILES IDX 42 24 74 25 54 26 73 27 55 28 58 29 72 30 91 31 56 32 57 33
REMARK SMILES IDX 71 35 92 36 59 37 43 38 44 39 52 40 45 41 47 42 53 43 46 44
REMARK SMILES IDX 48 45 49 46 50 47 51 48 75 49 76 50 84 51 77 52 79 53 85 54
REMARK SMILES IDX 78 55 80 56 81 57 82 58 83 59 60 60 61 61 69 62 62 63 64 64
REMARK SMILES IDX 70 65 63 66 65 67 66 68 67 69 68 70 6 71 7 72 8 73 9 74
REMARK SMILES IDX 10 75 11 76 12 77 13 78 14 79 15 80 22 81 16 82 17 83 21 84
REMARK SMILES IDX 18 86 20 87 19 88 23 89 24 90 25 92 26 93 27 94 32 95 28 96
REMARK SMILES IDX 31 97 33 98 29 99 30 100
REMARK H PARENT 90 23 58 34 16 85 23 91
REMARK Flexibility Score: inf
ROOT
ATOM      1  C   UNL A   1      31.893  30.884  26.866  1.00  0.00     0.202 C 
ENDROOT
BRANCH   1   2
ATOM      2  C   UNL A   1      31.918  32.404  26.616  1.00  0.00     0.261 C 
BRANCH   2   3
ATOM      3  O   UNL A   1      32.421  33.131  27.751  1.00  0.00    -0.460 OA
BRANCH   3   4
ATOM      4  C   UNL A   1      33.631  33.720  27.917  1.00  0.00     0.338 C 
ATOM      5  O   UNL A   1      33.780  34.913  27.680  1.00  0.00    -0.246 OA
BRANCH   4   6
ATOM      6  C   UNL A   1      34.784  32.957  28.435  1.00  0.00     0.060 A 
ATOM      7  C   UNL A   1      34.694  31.633  28.852  1.00  0.00     0.016 A 
ATOM      8  C   UNL A   1      36.027  33.601  28.468  1.00  0.00     0.016 A 
ATOM      9  C   UNL A   1      35.750  30.990  29.431  1.00  0.00     0.010 A 
ATOM     10  C   UNL A   1      37.132  32.935  28.979  1.00  0.00     0.010 A 
ATOM     11  C   UNL A   1      36.968  31.643  29.487  1.00  0.00    -0.014 A 
BRANCH  11  12
ATOM     12  C   UNL A   1      38.026  30.939  30.191  1.00  0.00     0.031 A 
ATOM     13  C   UNL A   1      38.177  31.216  31.642  1.00  0.00     0.074 A 
ATOM     14  C   UNL A   1      38.694  29.992  29.517  1.00  0.00     0.049 A 
ATOM     15  N   UNL A   1      39.095  30.799  32.460  1.00  0.00    -0.248 NA
ATOM     16  C   UNL A   1      37.153  32.079  32.263  1.00  0.00     0.031 C 
ATOM     17  C   UNL A   1      38.439  29.615  28.120  1.00  0.00     0.029 A 
ATOM     18  N   UNL A   1      39.707  29.171  29.907  1.00  0.00    -0.354 N 
ATOM     19  C   UNL A   1      38.816  31.418  33.669  1.00  0.00     0.074 A 
ATOM     20  C   UNL A   1      37.614  32.197  33.498  1.00  0.00     0.031 C 
ATOM     21  C   UNL A   1      39.292  28.646  27.765  1.00  0.00     0.029 A 
ATOM     22  C   UNL A   1      40.199  28.410  28.876  1.00  0.00     0.049 A 
ATOM     23  H   UNL A   1      40.049  29.129  30.828  1.00  0.00     0.167 HD
ATOM     24  C   UNL A   1      39.547  31.348  34.802  1.00  0.00     0.034 A 
ATOM     25  C   UNL A   1      41.317  27.666  28.836  1.00  0.00     0.034 A 
ATOM     26  C   UNL A   1      40.738  30.552  34.878  1.00  0.00     0.049 A 
ATOM     27  C   UNL A   1      42.129  27.621  30.099  1.00  0.00     0.074 A 
ATOM     28  C   UNL A   1      41.626  30.410  35.922  1.00  0.00     0.029 A 
ATOM     29  N   UNL A   1      41.207  29.759  33.831  1.00  0.00    -0.354 N 
ATOM     30  N   UNL A   1      41.892  28.226  31.242  1.00  0.00    -0.248 NA
ATOM     31  C   UNL A   1      43.338  26.800  30.086  1.00  0.00     0.031 C 
ATOM     32  C   UNL A   1      42.646  29.550  35.496  1.00  0.00     0.029 A 
ATOM     33  C   UNL A   1      42.374  29.125  34.199  1.00  0.00     0.049 A 
ATOM     34  H   UNL A   1      40.768  29.666  32.955  1.00  0.00     0.167 HD
ATOM     35  C   UNL A   1      42.908  27.843  32.099  1.00  0.00     0.074 A 
ATOM     36  C   UNL A   1      43.759  26.941  31.338  1.00  0.00     0.031 C 
ATOM     37  C   UNL A   1      43.135  28.202  33.387  1.00  0.00     0.034 A 
BRANCH  24  38
ATOM     38  C   UNL A   1      39.105  32.210  35.951  1.00  0.00     0.023 A 
ATOM     39  C   UNL A   1      39.597  33.523  36.090  1.00  0.00     0.012 A 
ATOM     40  C   UNL A   1      38.264  31.681  36.949  1.00  0.00     0.148 A 
ATOM     41  C   UNL A   1      39.298  34.279  37.226  1.00  0.00     0.002 A 
ATOM     42  C   UNL A   1      37.938  32.454  38.058  1.00  0.00     0.091 A 
ATOM     43  F   UNL A   1      37.840  30.416  36.825  1.00  0.00    -0.205 F 
ATOM     44  C   UNL A   1      38.466  33.746  38.207  1.00  0.00     0.022 A 
BRANCH  42  45
ATOM     45  S   UNL A   1      36.836  31.868  39.350  1.00  0.00     0.127 S 
ATOM     46  O   UNL A   1      37.132  30.435  39.363  1.00  0.00    -0.237 OA
ATOM     47  O   UNL A   1      37.320  32.600  40.522  1.00  0.00    -0.237 OA
ATOM     48  O   UNL A   1      35.492  32.228  38.925  1.00  0.00    -0.744 OA
ENDBRANCH  42  45
ENDBRANCH  24  38
BRANCH  25  49
ATOM     49  C   UNL A   1      41.689  26.968  27.576  1.00  0.00     0.023 A 
ATOM     50  C   UNL A   1      42.279  27.691  26.524  1.00  0.00     0.012 A 
ATOM     51  C   UNL A   1      41.582  25.564  27.467  1.00  0.00     0.148 A 
ATOM     52  C   UNL A   1      42.748  27.031  25.385  1.00  0.00     0.002 A 
ATOM     53  C   UNL A   1      42.103  24.908  26.357  1.00  0.00     0.091 A 
ATOM     54  F   UNL A   1      41.014  24.890  28.477  1.00  0.00    -0.205 F 
ATOM     55  C   UNL A   1      42.675  25.642  25.308  1.00  0.00     0.022 A 
BRANCH  53  56
ATOM     56  S   UNL A   1      42.185  23.116  26.246  1.00  0.00     0.127 S 
ATOM     57  O   UNL A   1      43.097  22.790  27.339  1.00  0.00    -0.237 OA
ATOM     58  O   UNL A   1      40.790  22.733  26.474  1.00  0.00    -0.237 OA
ATOM     59  O   UNL A   1      42.674  22.824  24.906  1.00  0.00    -0.744 OA
ENDBRANCH  53  56
ENDBRANCH  25  49
BRANCH  37  60
ATOM     60  C   UNL A   1      44.317  27.575  34.060  1.00  0.00     0.023 A 
ATOM     61  C   UNL A   1      45.550  28.251  34.082  1.00  0.00     0.012 A 
ATOM     62  C   UNL A   1      44.150  26.383  34.787  1.00  0.00     0.148 A 
ATOM     63  C   UNL A   1      46.612  27.738  34.820  1.00  0.00     0.002 A 
ATOM     64  C   UNL A   1      45.194  25.908  35.562  1.00  0.00     0.091 A 
ATOM     65  F   UNL A   1      42.966  25.756  34.723  1.00  0.00    -0.205 F 
ATOM     66  C   UNL A   1      46.429  26.579  35.573  1.00  0.00     0.022 A 
BRANCH  64  67
ATOM     67  S   UNL A   1      45.006  24.496  36.652  1.00  0.00     0.127 S 
ATOM     68  O   UNL A   1      46.351  24.372  37.210  1.00  0.00    -0.237 OA
ATOM     69  O   UNL A   1      43.993  24.969  37.595  1.00  0.00    -0.237 OA
ATOM     70  O   UNL A   1      44.576  23.389  35.808  1.00  0.00    -0.744 OA
ENDBRANCH  64  67
ENDBRANCH  37  60
ENDBRANCH  11  12
ENDBRANCH   4   6
ENDBRANCH   3   4
ENDBRANCH   2   3
ENDBRANCH   1   2
BRANCH   1  71
ATOM     71  O   UNL A   1      32.924  30.072  26.303  1.00  0.00    -0.374 OA
BRANCH  71  72
ATOM     72  C   UNL A   1      32.626  29.368  25.090  1.00  0.00     0.202 C 
BRANCH  72  73
ATOM     73  C   UNL A   1      31.345  28.554  25.221  1.00  0.00     0.261 C 
BRANCH  73  74
ATOM     74  O   UNL A   1      31.387  27.546  24.201  1.00  0.00    -0.462 OA
BRANCH  74  75
ATOM     75  C   UNL A   1      30.703  26.417  24.478  1.00  0.00     0.329 C 
ATOM     76  O   UNL A   1      29.490  26.286  24.354  1.00  0.00    -0.250 OA
BRANCH  75  77
ATOM     77  C   UNL A   1      31.590  25.293  25.032  1.00  0.00     0.197 C 
BRANCH  77  78
ATOM     78  C   UNL A   1      33.125  25.448  25.145  1.00  0.00     0.074 C 
BRANCH  78  79
ATOM     79  C   UNL A   1      34.009  24.594  24.292  1.00  0.00    -0.020 A 
ATOM     80  C   UNL A   1      33.784  24.203  22.987  1.00  0.00     0.087 A 
ATOM     81  C   UNL A   1      35.272  24.014  24.677  1.00  0.00     0.003 A 
ATOM     82  N   UNL A   1      34.765  23.318  22.627  1.00  0.00    -0.361 N 
ATOM     83  C   UNL A   1      35.672  23.164  23.646  1.00  0.00     0.046 A 
ATOM     84  C   UNL A   1      36.093  24.089  25.822  1.00  0.00     0.010 A 
ATOM     85  H   UNL A   1      34.814  22.857  21.759  1.00  0.00     0.166 HD
ATOM     86  C   UNL A   1      36.797  22.333  23.731  1.00  0.00     0.026 A 
ATOM     87  C   UNL A   1      37.234  23.278  25.916  1.00  0.00     0.001 A 
ATOM     88  C   UNL A   1      37.563  22.394  24.897  1.00  0.00     0.002 A 
ENDBRANCH  78  79
ENDBRANCH  77  78
BRANCH  77  89
ATOM     89  N   UNL A   1      30.958  24.814  26.263  1.00  0.00    -0.338 N 
ATOM     90  C   UNL A   1      30.904  23.523  26.733  1.00  0.00     0.254 C 
ATOM     91  H   UNL A   1      30.520  25.498  26.819  1.00  0.00     0.164 HD
ATOM     92  O   UNL A   1      30.109  23.234  27.619  1.00  0.00    -0.269 OA
BRANCH  90  93
ATOM     93  C   UNL A   1      31.842  22.500  26.221  1.00  0.00     0.075 A 
ATOM     94  C   UNL A   1      31.621  21.901  24.972  1.00  0.00     0.020 A 
ATOM     95  C   UNL A   1      32.999  22.195  26.941  1.00  0.00     0.138 A 
ATOM     96  C   UNL A   1      32.540  20.975  24.475  1.00  0.00     0.040 A 
ATOM     97  C   UNL A   1      33.924  21.282  26.441  1.00  0.00     0.079 A 
ATOM     98  F   UNL A   1      33.247  22.768  28.127  1.00  0.00    -0.206 F 
ATOM     99  C   UNL A   1      33.684  20.679  25.212  1.00  0.00     0.126 A 
ATOM    100  F   UNL A   1      34.574  19.811  24.716  1.00  0.00    -0.207 F 
ENDBRANCH  90  93
ENDBRANCH  77  89
ENDBRANCH  75  77
ENDBRANCH  74  75
ENDBRANCH  73  74
ENDBRANCH  72  73
ENDBRANCH  71  72
ENDBRANCH   1  71
TORSDOF 21
ENDMDL
MODEL 3
REMARK VINA RESULT:     -12.0      1.185      2.368
REMARK SMILES O=C(OCCOCCOC(=O)[C@@H](Cc1c[nH]c2ccccc12)NC(=O)c1ccc(F)cc1F)c1ccc(-c2c3nc(c(-c4cccc(S(=O)(=O)[O-])c4F)c4ccc([nH]4)c(-c4cccc(S(=O)(=O)[O-])c4F)c4nc(c(-c5cccc(S(=O)(=O)[O-])c5F)c5ccc2[nH]5)C=C4)C=C3)cc1
REMARK SMILES IDX 5 1 4 2 3 3 2 4 1 5 34 6 35 7 96 8 36 9 95 10 37 11 38 12
REMARK SMILES IDX 39 13 89 14 40 15 94 16 88 17 90 18 41 19 93 20 87 21 86 22
REMARK SMILES IDX 42 24 74 25 54 26 73 27 55 28 58 29 72 30 91 31 56 32 57 33
REMARK SMILES IDX 71 35 92 36 59 37 43 38 44 39 52 40 45 41 47 42 53 43 46 44
REMARK SMILES IDX 48 45 49 46 50 47 51 48 75 49 76 50 84 51 77 52 79 53 85 54
REMARK SMILES IDX 78 55 80 56 81 57 82 58 83 59 60 60 61 61 69 62 62 63 64 64
REMARK SMILES IDX 70 65 63 66 65 67 66 68 67 69 68 70 6 71 7 72 8 73 9 74
REMARK SMILES IDX 10 75 11 76 12 77 13 78 14 79 15 80 22 81 16 82 17 83 21 84
REMARK SMILES IDX 18 86 20 87 19 88 23 89 24 90 25 92 26 93 27 94 32 95 28 96
REMARK SMILES IDX 31 97 33 98 29 99 30 100
REMARK H PARENT 90 23 58 34 16 85 23 91
REMARK Flexibility Score: inf
ROOT
ATOM      1  C   UNL A   1      38.022  20.429  25.018  1.00  0.00     0.202 C 
ENDROOT
BRANCH   1   2
ATOM      2  C   UNL A   1      38.884  19.306  25.623  1.00  0.00     0.261 C 
BRANCH   2   3
ATOM      3  O   UNL A   1      40.271  19.679  25.718  1.00  0.00    -0.460 OA
BRANCH   3   4
ATOM      4  C   UNL A   1      40.974  20.071  26.809  1.00  0.00     0.338 C 
ATOM      5  O   UNL A   1      41.474  19.240  27.559  1.00  0.00    -0.246 OA
BRANCH   4   6
ATOM      6  C   UNL A   1      41.203  21.502  27.093  1.00  0.00     0.060 A 
ATOM      7  C   UNL A   1      40.799  22.521  26.236  1.00  0.00     0.016 A 
ATOM      8  C   UNL A   1      41.825  21.832  28.303  1.00  0.00     0.016 A 
ATOM      9  C   UNL A   1      41.123  23.826  26.472  1.00  0.00     0.010 A 
ATOM     10  C   UNL A   1      42.092  23.163  28.598  1.00  0.00     0.010 A 
ATOM     11  C   UNL A   1      41.765  24.142  27.656  1.00  0.00    -0.014 A 
BRANCH  11  12
ATOM     12  C   UNL A   1      42.158  25.532  27.805  1.00  0.00     0.031 A 
ATOM     13  C   UNL A   1      43.472  25.931  27.239  1.00  0.00     0.074 A 
ATOM     14  C   UNL A   1      41.253  26.380  28.315  1.00  0.00     0.049 A 
ATOM     15  N   UNL A   1      44.086  27.071  27.329  1.00  0.00    -0.248 NA
ATOM     16  C   UNL A   1      44.196  24.908  26.459  1.00  0.00     0.031 C 
ATOM     17  C   UNL A   1      39.895  26.009  28.736  1.00  0.00     0.029 A 
ATOM     18  N   UNL A   1      41.325  27.718  28.556  1.00  0.00    -0.354 N 
ATOM     19  C   UNL A   1      45.306  26.880  26.700  1.00  0.00     0.074 A 
ATOM     20  C   UNL A   1      45.329  25.534  26.182  1.00  0.00     0.031 C 
ATOM     21  C   UNL A   1      39.268  27.096  29.203  1.00  0.00     0.029 A 
ATOM     22  C   UNL A   1      40.212  28.203  29.196  1.00  0.00     0.049 A 
ATOM     23  H   UNL A   1      42.093  28.277  28.299  1.00  0.00     0.167 HD
ATOM     24  C   UNL A   1      46.319  27.768  26.611  1.00  0.00     0.034 A 
ATOM     25  C   UNL A   1      40.027  29.399  29.778  1.00  0.00     0.034 A 
ATOM     26  C   UNL A   1      46.211  29.087  27.165  1.00  0.00     0.049 A 
ATOM     27  C   UNL A   1      41.174  30.363  29.688  1.00  0.00     0.074 A 
ATOM     28  C   UNL A   1      47.153  30.091  27.214  1.00  0.00     0.029 A 
ATOM     29  N   UNL A   1      45.060  29.575  27.784  1.00  0.00    -0.354 N 
ATOM     30  N   UNL A   1      42.347  30.185  29.120  1.00  0.00    -0.248 NA
ATOM     31  C   UNL A   1      40.988  31.681  30.295  1.00  0.00     0.031 C 
ATOM     32  C   UNL A   1      46.579  31.177  27.887  1.00  0.00     0.029 A 
ATOM     33  C   UNL A   1      45.266  30.864  28.224  1.00  0.00     0.049 A 
ATOM     34  H   UNL A   1      44.223  29.069  27.892  1.00  0.00     0.167 HD
ATOM     35  C   UNL A   1      43.036  31.374  29.276  1.00  0.00     0.074 A 
ATOM     36  C   UNL A   1      42.138  32.271  29.987  1.00  0.00     0.031 C 
ATOM     37  C   UNL A   1      44.293  31.703  28.886  1.00  0.00     0.034 A 
BRANCH  24  38
ATOM     38  C   UNL A   1      47.595  27.284  25.982  1.00  0.00     0.023 A 
ATOM     39  C   UNL A   1      48.626  26.746  26.780  1.00  0.00     0.012 A 
ATOM     40  C   UNL A   1      47.809  27.445  24.600  1.00  0.00     0.148 A 
ATOM     41  C   UNL A   1      49.864  26.423  26.220  1.00  0.00     0.002 A 
ATOM     42  C   UNL A   1      49.030  27.082  24.042  1.00  0.00     0.091 A 
ATOM     43  F   UNL A   1      46.836  27.998  23.862  1.00  0.00    -0.205 F 
ATOM     44  C   UNL A   1      50.064  26.586  24.852  1.00  0.00     0.022 A 
BRANCH  42  45
ATOM     45  S   UNL A   1      49.363  27.215  22.282  1.00  0.00     0.127 S 
ATOM     46  O   UNL A   1      48.478  26.186  21.736  1.00  0.00    -0.237 OA
ATOM     47  O   UNL A   1      48.949  28.590  21.994  1.00  0.00    -0.237 OA
ATOM     48  O   UNL A   1      50.788  26.966  22.124  1.00  0.00    -0.744 OA
ENDBRANCH  42  45
ENDBRANCH  24  38
BRANCH  25  49
ATOM     49  C   UNL A   1      38.744  29.686  30.475  1.00  0.00     0.023 A 
ATOM     50  C   UNL A   1      38.554  29.246  31.797  1.00  0.00     0.012 A 
ATOM     51  C   UNL A   1      37.763  30.508  29.878  1.00  0.00     0.148 A 
ATOM     52  C   UNL A   1      37.409  29.613  32.509  1.00  0.00     0.002 A 
ATOM     53  C   UNL A   1      36.655  30.916  30.612  1.00  0.00     0.091 A 
ATOM     54  F   UNL A   1      37.958  30.915  28.616  1.00  0.00    -0.205 F 
ATOM     55  C   UNL A   1      36.469  30.458  31.924  1.00  0.00     0.022 A 
BRANCH  53  56
ATOM     56  S   UNL A   1      35.476  32.121  29.987  1.00  0.00     0.127 S 
ATOM     57  O   UNL A   1      36.343  33.255  29.676  1.00  0.00    -0.237 OA
ATOM     58  O   UNL A   1      34.924  31.430  28.820  1.00  0.00    -0.237 OA
ATOM     59  O   UNL A   1      34.519  32.333  31.064  1.00  0.00    -0.744 OA
ENDBRANCH  53  56
ENDBRANCH  25  49
BRANCH  37  60
ATOM     60  C   UNL A   1      44.739  33.104  29.175  1.00  0.00     0.023 A 
ATOM     61  C   UNL A   1      45.378  33.398  30.393  1.00  0.00     0.012 A 
ATOM     62  C   UNL A   1      44.646  34.083  28.170  1.00  0.00     0.148 A 
ATOM     63  C   UNL A   1      45.915  34.662  30.610  1.00  0.00     0.002 A 
ATOM     64  C   UNL A   1      45.230  35.322  28.372  1.00  0.00     0.091 A 
ATOM     65  F   UNL A   1      44.011  33.771  27.031  1.00  0.00    -0.205 F 
ATOM     66  C   UNL A   1      45.858  35.617  29.595  1.00  0.00     0.022 A 
BRANCH  64  67
ATOM     67  S   UNL A   1      45.309  36.561  27.077  1.00  0.00     0.127 S 
ATOM     68  O   UNL A   1      43.893  36.846  26.856  1.00  0.00    -0.237 OA
ATOM     69  O   UNL A   1      46.056  37.637  27.726  1.00  0.00    -0.237 OA
ATOM     70  O   UNL A   1      46.001  35.932  25.960  1.00  0.00    -0.744 OA
ENDBRANCH  64  67
ENDBRANCH  37  60
ENDBRANCH  11  12
ENDBRANCH   4   6
ENDBRANCH   3   4
ENDBRANCH   2   3
ENDBRANCH   1   2
BRANCH   1  71
ATOM     71  O   UNL A   1      36.623  20.460  25.307  1.00  0.00    -0.374 OA
BRANCH  71  72
ATOM     72  C   UNL A   1      36.025  21.741  25.554  1.00  0.00     0.202 C 
BRANCH  72  73
ATOM     73  C   UNL A   1      36.876  22.870  24.985  1.00  0.00     0.261 C 
BRANCH  73  74
ATOM     74  O   UNL A   1      36.006  23.996  24.807  1.00  0.00    -0.462 OA
BRANCH  74  75
ATOM     75  C   UNL A   1      35.218  23.949  23.713  1.00  0.00     0.329 C 
ATOM     76  O   UNL A   1      35.443  23.266  22.718  1.00  0.00    -0.250 OA
BRANCH  75  77
ATOM     77  C   UNL A   1      34.011  24.894  23.795  1.00  0.00     0.197 C 
BRANCH  77  78
ATOM     78  C   UNL A   1      33.319  25.441  22.525  1.00  0.00     0.074 C 
BRANCH  78  79
ATOM     79  C   UNL A   1      32.886  26.873  22.489  1.00  0.00    -0.020 A 
ATOM     80  C   UNL A   1      33.674  27.976  22.223  1.00  0.00     0.087 A 
ATOM     81  C   UNL A   1      31.555  27.373  22.727  1.00  0.00     0.003 A 
ATOM     82  N   UNL A   1      32.922  29.102  22.425  1.00  0.00    -0.361 N 
ATOM     83  C   UNL A   1      31.633  28.766  22.758  1.00  0.00     0.046 A 
ATOM     84  C   UNL A   1      30.298  26.781  22.967  1.00  0.00     0.010 A 
ATOM     85  H   UNL A   1      33.258  30.023  22.344  1.00  0.00     0.166 HD
ATOM     86  C   UNL A   1      30.547  29.586  23.093  1.00  0.00     0.026 A 
ATOM     87  C   UNL A   1      29.196  27.588  23.286  1.00  0.00     0.001 A 
ATOM     88  C   UNL A   1      29.328  28.968  23.374  1.00  0.00     0.002 A 
ENDBRANCH  78  79
ENDBRANCH  77  78
BRANCH  77  89
ATOM     89  N   UNL A   1      33.081  24.320  24.768  1.00  0.00    -0.338 N 
ATOM     90  C   UNL A   1      32.613  24.896  25.926  1.00  0.00     0.254 C 
ATOM     91  H   UNL A   1      32.751  23.413  24.570  1.00  0.00     0.164 HD
ATOM     92  O   UNL A   1      32.070  24.197  26.774  1.00  0.00    -0.269 OA
BRANCH  90  93
ATOM     93  C   UNL A   1      32.705  26.358  26.124  1.00  0.00     0.075 A 
ATOM     94  C   UNL A   1      33.945  27.008  26.034  1.00  0.00     0.020 A 
ATOM     95  C   UNL A   1      31.542  27.109  26.312  1.00  0.00     0.138 A 
ATOM     96  C   UNL A   1      34.013  28.395  26.170  1.00  0.00     0.040 A 
ATOM     97  C   UNL A   1      31.606  28.495  26.435  1.00  0.00     0.079 A 
ATOM     98  F   UNL A   1      30.341  26.518  26.382  1.00  0.00    -0.206 F 
ATOM     99  C   UNL A   1      32.842  29.125  26.365  1.00  0.00     0.126 A 
ATOM    100  F   UNL A   1      32.913  30.458  26.466  1.00  0.00    -0.207 F 
ENDBRANCH  90  93
ENDBRANCH  77  89
ENDBRANCH  75  77
ENDBRANCH  74  75
ENDBRANCH  73  74
ENDBRANCH  72  73
ENDBRANCH  71  72
ENDBRANCH   1  71
TORSDOF 21
ENDMDL
