MODEL 1
REMARK VINA RESULT:     -12.3      0.000      0.000
REMARK SMILES O=C(OCCOCCOC(=O)c1ccccc1Nc1nc(Cl)nc(Nc2ccc(N3CCOCC3=O)cc2)n1)c1ccc(-c2c3nc(c(-c4cccc(S(=O)(=O)[O-])c4F)c4ccc([nH]4)c(-c4cccc(S(=O)(=O)[O-])c4F)c4nc(c(-c5cccc(S(=O)(=O)[O-])c5F)c5ccc2[nH]5)C=C4)C=C3)cc1
REMARK SMILES IDX 7 1 6 2 5 3 4 4 3 5 2 6 1 7 40 8 41 9 102 10 42 11 101 12
REMARK SMILES IDX 43 13 44 14 45 15 95 16 46 17 100 18 94 19 96 20 47 21 99 22
REMARK SMILES IDX 93 23 92 24 48 26 80 27 60 28 79 29 61 30 64 31 78 32 97 33
REMARK SMILES IDX 62 34 63 35 77 37 98 38 65 39 49 40 50 41 58 42 51 43 53 44
REMARK SMILES IDX 59 45 52 46 54 47 55 48 56 49 57 50 81 51 82 52 90 53 83 54
REMARK SMILES IDX 85 55 91 56 84 57 86 58 87 59 88 60 89 61 66 62 67 63 75 64
REMARK SMILES IDX 68 65 70 66 76 67 69 68 71 69 72 70 73 71 74 72 8 73 9 74
REMARK SMILES IDX 10 75 11 76 12 77 13 78 17 79 14 80 16 81 15 82 18 83 19 85
REMARK SMILES IDX 20 86 39 87 21 88 24 89 22 90 23 91 25 92 26 94 27 95 38 96
REMARK SMILES IDX 28 97 37 98 29 99 30 100 31 101 35 102 32 103 34 104 36 105
REMARK SMILES IDX 33 106
REMARK H PARENT 96 25 64 36 18 84 25 93
REMARK Flexibility Score: inf
ROOT
ATOM      1  C   UNL A   1      37.464  23.034  25.663  1.00  0.00     0.202 C 
ENDROOT
BRANCH   1   2
ATOM      2  O   UNL A   1      38.011  21.839  25.094  1.00  0.00    -0.374 OA
BRANCH   2   3
ATOM      3  C   UNL A   1      38.789  21.018  25.959  1.00  0.00     0.202 C 
BRANCH   3   4
ATOM      4  C   UNL A   1      39.178  19.668  25.355  1.00  0.00     0.261 C 
BRANCH   4   5
ATOM      5  O   UNL A   1      40.300  19.117  26.066  1.00  0.00    -0.460 OA
BRANCH   5   6
ATOM      6  C   UNL A   1      41.571  19.579  26.121  1.00  0.00     0.338 C 
ATOM      7  O   UNL A   1      42.486  18.790  25.890  1.00  0.00    -0.246 OA
BRANCH   6   8
ATOM      8  C   UNL A   1      41.926  20.993  26.452  1.00  0.00     0.060 A 
ATOM      9  C   UNL A   1      42.178  21.470  27.739  1.00  0.00     0.016 A 
ATOM     10  C   UNL A   1      42.118  21.876  25.376  1.00  0.00     0.016 A 
ATOM     11  C   UNL A   1      42.560  22.780  27.972  1.00  0.00     0.010 A 
ATOM     12  C   UNL A   1      42.537  23.193  25.596  1.00  0.00     0.010 A 
ATOM     13  C   UNL A   1      42.748  23.645  26.902  1.00  0.00    -0.014 A 
BRANCH  13  14
ATOM     14  C   UNL A   1      43.079  25.043  27.215  1.00  0.00     0.031 A 
ATOM     15  C   UNL A   1      44.395  25.579  26.754  1.00  0.00     0.074 A 
ATOM     16  C   UNL A   1      42.142  25.828  27.779  1.00  0.00     0.049 A 
ATOM     17  N   UNL A   1      44.898  26.771  26.909  1.00  0.00    -0.248 NA
ATOM     18  C   UNL A   1      45.253  24.651  25.994  1.00  0.00     0.031 C 
ATOM     19  C   UNL A   1      40.792  25.393  28.149  1.00  0.00     0.029 A 
ATOM     20  N   UNL A   1      42.171  27.152  28.116  1.00  0.00    -0.354 N 
ATOM     21  C   UNL A   1      46.151  26.725  26.315  1.00  0.00     0.074 A 
ATOM     22  C   UNL A   1      46.326  25.395  25.774  1.00  0.00     0.031 C 
ATOM     23  C   UNL A   1      40.120  26.437  28.661  1.00  0.00     0.029 A 
ATOM     24  C   UNL A   1      41.010  27.591  28.709  1.00  0.00     0.049 A 
ATOM     25  H   UNL A   1      42.947  27.736  27.951  1.00  0.00     0.167 HD
ATOM     26  C   UNL A   1      47.071  27.712  26.237  1.00  0.00     0.034 A 
ATOM     27  C   UNL A   1      40.723  28.786  29.259  1.00  0.00     0.034 A 
ATOM     28  C   UNL A   1      46.859  29.022  26.783  1.00  0.00     0.049 A 
ATOM     29  C   UNL A   1      41.792  29.845  29.214  1.00  0.00     0.074 A 
ATOM     30  C   UNL A   1      47.729  30.095  26.820  1.00  0.00     0.029 A 
ATOM     31  N   UNL A   1      45.684  29.431  27.399  1.00  0.00    -0.354 N 
ATOM     32  N   UNL A   1      42.975  29.798  28.647  1.00  0.00    -0.248 NA
ATOM     33  C   UNL A   1      41.490  31.121  29.873  1.00  0.00     0.031 C 
ATOM     34  C   UNL A   1      47.085  31.145  27.483  1.00  0.00     0.029 A 
ATOM     35  C   UNL A   1      45.804  30.739  27.829  1.00  0.00     0.049 A 
ATOM     36  H   UNL A   1      44.882  28.872  27.514  1.00  0.00     0.167 HD
ATOM     37  C   UNL A   1      43.550  31.043  28.858  1.00  0.00     0.074 A 
ATOM     38  C   UNL A   1      42.572  31.832  29.585  1.00  0.00     0.031 C 
ATOM     39  C   UNL A   1      44.780  31.495  28.506  1.00  0.00     0.034 A 
BRANCH  26  40
ATOM     40  C   UNL A   1      48.383  27.377  25.583  1.00  0.00     0.023 A 
ATOM     41  C   UNL A   1      49.473  26.940  26.362  1.00  0.00     0.012 A 
ATOM     42  C   UNL A   1      48.541  27.522  24.191  1.00  0.00     0.148 A 
ATOM     43  C   UNL A   1      50.712  26.690  25.771  1.00  0.00     0.002 A 
ATOM     44  C   UNL A   1      49.767  27.234  23.604  1.00  0.00     0.091 A 
ATOM     45  F   UNL A   1      47.500  27.968  23.474  1.00  0.00    -0.205 F 
ATOM     46  C   UNL A   1      50.856  26.830  24.392  1.00  0.00     0.022 A 
BRANCH  44  47
ATOM     47  S   UNL A   1      50.040  27.336  21.832  1.00  0.00     0.127 S 
ATOM     48  O   UNL A   1      49.126  26.309  21.333  1.00  0.00    -0.237 OA
ATOM     49  O   UNL A   1      49.633  28.710  21.539  1.00  0.00    -0.237 OA
ATOM     50  O   UNL A   1      51.456  27.062  21.626  1.00  0.00    -0.744 OA
ENDBRANCH  44  47
ENDBRANCH  26  40
BRANCH  27  51
ATOM     51  C   UNL A   1      39.395  29.033  29.892  1.00  0.00     0.023 A 
ATOM     52  C   UNL A   1      39.131  28.535  31.182  1.00  0.00     0.012 A 
ATOM     53  C   UNL A   1      38.397  29.777  29.230  1.00  0.00     0.148 A 
ATOM     54  C   UNL A   1      37.890  28.747  31.788  1.00  0.00     0.002 A 
ATOM     55  C   UNL A   1      37.185  30.033  29.861  1.00  0.00     0.091 A 
ATOM     56  F   UNL A   1      38.653  30.225  27.993  1.00  0.00    -0.205 F 
ATOM     57  C   UNL A   1      36.922  29.505  31.133  1.00  0.00     0.022 A 
BRANCH  55  58
ATOM     58  S   UNL A   1      35.934  31.104  29.141  1.00  0.00     0.127 S 
ATOM     59  O   UNL A   1      35.239  30.189  28.240  1.00  0.00    -0.237 OA
ATOM     60  O   UNL A   1      35.167  31.511  30.319  1.00  0.00    -0.237 OA
ATOM     61  O   UNL A   1      36.669  32.188  28.502  1.00  0.00    -0.744 OA
ENDBRANCH  55  58
ENDBRANCH  27  51
BRANCH  39  62
ATOM     62  C   UNL A   1      45.118  32.914  28.871  1.00  0.00     0.023 A 
ATOM     63  C   UNL A   1      45.671  33.198  30.134  1.00  0.00     0.012 A 
ATOM     64  C   UNL A   1      44.973  33.944  27.922  1.00  0.00     0.148 A 
ATOM     65  C   UNL A   1      46.054  34.499  30.457  1.00  0.00     0.002 A 
ATOM     66  C   UNL A   1      45.406  35.224  28.232  1.00  0.00     0.091 A 
ATOM     67  F   UNL A   1      44.424  33.648  26.735  1.00  0.00    -0.205 F 
ATOM     68  C   UNL A   1      45.935  35.507  29.502  1.00  0.00     0.022 A 
BRANCH  66  69
ATOM     69  S   UNL A   1      45.394  36.555  27.026  1.00  0.00     0.127 S 
ATOM     70  O   UNL A   1      43.972  36.648  26.701  1.00  0.00    -0.237 OA
ATOM     71  O   UNL A   1      45.919  37.680  27.801  1.00  0.00    -0.237 OA
ATOM     72  O   UNL A   1      46.258  36.117  25.938  1.00  0.00    -0.744 OA
ENDBRANCH  66  69
ENDBRANCH  39  62
ENDBRANCH  13  14
ENDBRANCH   6   8
ENDBRANCH   5   6
ENDBRANCH   4   5
ENDBRANCH   3   4
ENDBRANCH   2   3
ENDBRANCH   1   2
BRANCH   1  73
ATOM     73  C   UNL A   1      36.024  23.182  25.163  1.00  0.00     0.261 C 
BRANCH  73  74
ATOM     74  O   UNL A   1      35.603  21.905  24.651  1.00  0.00    -0.460 OA
BRANCH  74  75
ATOM     75  C   UNL A   1      34.839  21.156  25.491  1.00  0.00     0.340 C 
ATOM     76  O   UNL A   1      34.693  21.334  26.689  1.00  0.00    -0.246 OA
BRANCH  75  77
ATOM     77  C   UNL A   1      34.064  20.159  24.691  1.00  0.00     0.083 A 
ATOM     78  C   UNL A   1      34.598  18.864  24.620  1.00  0.00     0.018 A 
ATOM     79  C   UNL A   1      32.830  20.462  24.065  1.00  0.00     0.055 A 
ATOM     80  C   UNL A   1      33.908  17.856  23.951  1.00  0.00     0.001 A 
ATOM     81  C   UNL A   1      32.154  19.429  23.404  1.00  0.00     0.027 A 
ATOM     82  C   UNL A   1      32.687  18.138  23.347  1.00  0.00     0.002 A 
BRANCH  79  83
ATOM     83  N   UNL A   1      32.350  21.774  24.078  1.00  0.00    -0.323 N 
ATOM     84  H   UNL A   1      32.509  22.237  23.224  1.00  0.00     0.170 HD
BRANCH  83  85
ATOM     85  C   UNL A   1      31.707  22.575  24.996  1.00  0.00     0.233 A 
ATOM     86  N   UNL A   1      30.700  22.151  25.735  1.00  0.00    -0.182 NA
ATOM     87  N   UNL A   1      32.212  23.800  25.044  1.00  0.00    -0.176 NA
ATOM     88  C   UNL A   1      30.265  23.068  26.584  1.00  0.00     0.228 A 
ATOM     89  C   UNL A   1      31.630  24.656  25.860  1.00  0.00     0.233 A 
ATOM     90  Cl  UNL A   1      28.998  22.586  27.625  1.00  0.00    -0.041 Cl
ATOM     91  N   UNL A   1      30.661  24.325  26.699  1.00  0.00    -0.182 NA
BRANCH  89  92
ATOM     92  N   UNL A   1      32.021  25.979  25.691  1.00  0.00    -0.324 N 
ATOM     93  H   UNL A   1      32.847  26.247  26.153  1.00  0.00     0.170 HD
BRANCH  92  94
ATOM     94  C   UNL A   1      31.390  26.968  24.948  1.00  0.00     0.041 A 
ATOM     95  C   UNL A   1      30.397  26.627  24.026  1.00  0.00     0.028 A 
ATOM     96  C   UNL A   1      31.651  28.316  25.198  1.00  0.00     0.028 A 
ATOM     97  C   UNL A   1      29.642  27.623  23.401  1.00  0.00     0.028 A 
ATOM     98  C   UNL A   1      30.943  29.310  24.535  1.00  0.00     0.028 A 
ATOM     99  C   UNL A   1      29.914  28.971  23.653  1.00  0.00     0.044 A 
BRANCH  99 100
ATOM    100  N   UNL A   1      29.095  29.995  23.103  1.00  0.00    -0.308 N 
ATOM    101  C   UNL A   1      28.277  30.749  24.058  1.00  0.00     0.154 C 
ATOM    102  C   UNL A   1      29.362  30.501  21.827  1.00  0.00     0.253 C 
ATOM    103  C   UNL A   1      27.312  31.717  23.388  1.00  0.00     0.183 C 
ATOM    104  C   UNL A   1      28.583  31.764  21.439  1.00  0.00     0.260 C 
ATOM    105  O   UNL A   1      30.097  29.959  20.999  1.00  0.00    -0.272 OA
ATOM    106  O   UNL A   1      28.027  32.551  22.481  1.00  0.00    -0.370 OA
ENDBRANCH  99 100
ENDBRANCH  92  94
ENDBRANCH  89  92
ENDBRANCH  83  85
ENDBRANCH  79  83
ENDBRANCH  75  77
ENDBRANCH  74  75
ENDBRANCH  73  74
ENDBRANCH   1  73
TORSDOF 22
ENDMDL
MODEL 2
REMARK VINA RESULT:     -11.7      2.288      7.675
REMARK SMILES O=C(OCCOCCOC(=O)c1ccccc1Nc1nc(Cl)nc(Nc2ccc(N3CCOCC3=O)cc2)n1)c1ccc(-c2c3nc(c(-c4cccc(S(=O)(=O)[O-])c4F)c4ccc([nH]4)c(-c4cccc(S(=O)(=O)[O-])c4F)c4nc(c(-c5cccc(S(=O)(=O)[O-])c5F)c5ccc2[nH]5)C=C4)C=C3)cc1
REMARK SMILES IDX 7 1 6 2 5 3 4 4 3 5 2 6 1 7 40 8 41 9 102 10 42 11 101 12
REMARK SMILES IDX 43 13 44 14 45 15 95 16 46 17 100 18 94 19 96 20 47 21 99 22
REMARK SMILES IDX 93 23 92 24 48 26 80 27 60 28 79 29 61 30 64 31 78 32 97 33
REMARK SMILES IDX 62 34 63 35 77 37 98 38 65 39 49 40 50 41 58 42 51 43 53 44
REMARK SMILES IDX 59 45 52 46 54 47 55 48 56 49 57 50 81 51 82 52 90 53 83 54
REMARK SMILES IDX 85 55 91 56 84 57 86 58 87 59 88 60 89 61 66 62 67 63 75 64
REMARK SMILES IDX 68 65 70 66 76 67 69 68 71 69 72 70 73 71 74 72 8 73 9 74
REMARK SMILES IDX 10 75 11 76 12 77 13 78 17 79 14 80 16 81 15 82 18 83 19 85
REMARK SMILES IDX 20 86 39 87 21 88 24 89 22 90 23 91 25 92 26 94 27 95 38 96
REMARK SMILES IDX 28 97 37 98 29 99 30 100 31 101 35 102 32 103 34 104 36 105
REMARK SMILES IDX 33 106
REMARK H PARENT 96 25 64 36 18 84 25 93
REMARK Flexibility Score: inf
ROOT
ATOM      1  C   UNL A   1      37.793  22.809  25.752  1.00  0.00     0.202 C 
ENDROOT
BRANCH   1   2
ATOM      2  O   UNL A   1      38.307  21.523  25.387  1.00  0.00    -0.374 OA
BRANCH   2   3
ATOM      3  C   UNL A   1      39.481  21.089  26.066  1.00  0.00     0.202 C 
BRANCH   3   4
ATOM      4  C   UNL A   1      39.789  19.602  25.888  1.00  0.00     0.261 C 
BRANCH   4   5
ATOM      5  O   UNL A   1      41.135  19.325  26.310  1.00  0.00    -0.460 OA
BRANCH   5   6
ATOM      6  C   UNL A   1      42.293  19.800  25.793  1.00  0.00     0.338 C 
ATOM      7  O   UNL A   1      42.950  19.060  25.063  1.00  0.00    -0.246 OA
BRANCH   6   8
ATOM      8  C   UNL A   1      42.821  21.172  26.065  1.00  0.00     0.060 A 
ATOM      9  C   UNL A   1      43.088  22.131  25.086  1.00  0.00     0.016 A 
ATOM     10  C   UNL A   1      42.961  21.552  27.410  1.00  0.00     0.016 A 
ATOM     11  C   UNL A   1      43.521  23.405  25.409  1.00  0.00     0.010 A 
ATOM     12  C   UNL A   1      43.366  22.848  27.751  1.00  0.00     0.010 A 
ATOM     13  C   UNL A   1      43.656  23.771  26.742  1.00  0.00    -0.014 A 
BRANCH  13  14
ATOM     14  C   UNL A   1      44.193  25.111  27.022  1.00  0.00     0.031 A 
ATOM     15  C   UNL A   1      43.291  26.113  27.667  1.00  0.00     0.074 A 
ATOM     16  C   UNL A   1      45.501  25.348  26.819  1.00  0.00     0.049 A 
ATOM     17  N   UNL A   1      43.543  27.346  28.009  1.00  0.00    -0.248 NA
ATOM     18  C   UNL A   1      41.927  25.660  27.990  1.00  0.00     0.031 C 
ATOM     19  C   UNL A   1      46.463  24.372  26.299  1.00  0.00     0.029 A 
ATOM     20  N   UNL A   1      46.252  26.468  27.046  1.00  0.00    -0.354 N 
ATOM     21  C   UNL A   1      42.357  27.832  28.540  1.00  0.00     0.074 A 
ATOM     22  C   UNL A   1      41.390  26.759  28.498  1.00  0.00     0.031 C 
ATOM     23  C   UNL A   1      47.680  24.937  26.249  1.00  0.00     0.029 A 
ATOM     24  C   UNL A   1      47.570  26.327  26.676  1.00  0.00     0.049 A 
ATOM     25  H   UNL A   1      45.887  27.294  27.437  1.00  0.00     0.167 HD
ATOM     26  C   UNL A   1      42.105  29.073  29.014  1.00  0.00     0.034 A 
ATOM     27  C   UNL A   1      48.560  27.239  26.655  1.00  0.00     0.034 A 
ATOM     28  C   UNL A   1      43.094  30.113  29.043  1.00  0.00     0.049 A 
ATOM     29  C   UNL A   1      48.232  28.630  27.129  1.00  0.00     0.074 A 
ATOM     30  C   UNL A   1      42.955  31.427  29.447  1.00  0.00     0.029 A 
ATOM     31  N   UNL A   1      44.413  29.950  28.640  1.00  0.00    -0.354 N 
ATOM     32  N   UNL A   1      47.109  29.085  27.634  1.00  0.00    -0.248 NA
ATOM     33  C   UNL A   1      49.302  29.631  27.041  1.00  0.00     0.031 C 
ATOM     34  C   UNL A   1      44.187  32.064  29.263  1.00  0.00     0.029 A 
ATOM     35  C   UNL A   1      45.101  31.139  28.776  1.00  0.00     0.049 A 
ATOM     36  H   UNL A   1      44.801  29.109  28.305  1.00  0.00     0.167 HD
ATOM     37  C   UNL A   1      47.342  30.417  27.947  1.00  0.00     0.074 A 
ATOM     38  C   UNL A   1      48.725  30.687  27.597  1.00  0.00     0.031 C 
ATOM     39  C   UNL A   1      46.492  31.344  28.457  1.00  0.00     0.034 A 
BRANCH  26  40
ATOM     40  C   UNL A   1      40.706  29.357  29.483  1.00  0.00     0.023 A 
ATOM     41  C   UNL A   1      39.723  29.785  28.567  1.00  0.00     0.012 A 
ATOM     42  C   UNL A   1      40.371  29.225  30.845  1.00  0.00     0.148 A 
ATOM     43  C   UNL A   1      38.440  30.113  29.005  1.00  0.00     0.002 A 
ATOM     44  C   UNL A   1      39.080  29.517  31.268  1.00  0.00     0.091 A 
ATOM     45  F   UNL A   1      41.328  28.846  31.703  1.00  0.00    -0.205 F 
ATOM     46  C   UNL A   1      38.118  29.972  30.353  1.00  0.00     0.022 A 
BRANCH  44  47
ATOM     47  S   UNL A   1      38.552  29.321  32.973  1.00  0.00     0.127 S 
ATOM     48  O   UNL A   1      39.809  28.971  33.633  1.00  0.00    -0.237 OA
ATOM     49  O   UNL A   1      38.046  30.656  33.291  1.00  0.00    -0.237 OA
ATOM     50  O   UNL A   1      37.541  28.272  32.964  1.00  0.00    -0.744 OA
ENDBRANCH  44  47
ENDBRANCH  26  40
BRANCH  27  51
ATOM     51  C   UNL A   1      49.921  26.873  26.169  1.00  0.00     0.023 A 
ATOM     52  C   UNL A   1      50.806  26.182  27.019  1.00  0.00     0.012 A 
ATOM     53  C   UNL A   1      50.339  27.187  24.860  1.00  0.00     0.148 A 
ATOM     54  C   UNL A   1      52.090  25.839  26.586  1.00  0.00     0.002 A 
ATOM     55  C   UNL A   1      51.596  26.793  24.415  1.00  0.00     0.091 A 
ATOM     56  F   UNL A   1      49.495  27.864  24.069  1.00  0.00    -0.205 F 
ATOM     57  C   UNL A   1      52.480  26.134  25.282  1.00  0.00     0.022 A 
BRANCH  55  58
ATOM     58  S   UNL A   1      52.129  27.021  22.714  1.00  0.00     0.127 S 
ATOM     59  O   UNL A   1      52.615  28.398  22.735  1.00  0.00    -0.237 OA
ATOM     60  O   UNL A   1      53.170  26.002  22.582  1.00  0.00    -0.237 OA
ATOM     61  O   UNL A   1      50.947  26.777  21.898  1.00  0.00    -0.744 OA
ENDBRANCH  55  58
ENDBRANCH  27  51
BRANCH  39  62
ATOM     62  C   UNL A   1      47.046  32.720  28.699  1.00  0.00     0.023 A 
ATOM     63  C   UNL A   1      47.620  33.034  29.945  1.00  0.00     0.012 A 
ATOM     64  C   UNL A   1      47.081  33.664  27.655  1.00  0.00     0.148 A 
ATOM     65  C   UNL A   1      48.200  34.283  30.158  1.00  0.00     0.002 A 
ATOM     66  C   UNL A   1      47.708  34.884  27.857  1.00  0.00     0.091 A 
ATOM     67  F   UNL A   1      46.509  33.345  26.485  1.00  0.00    -0.205 F 
ATOM     68  C   UNL A   1      48.257  35.201  29.110  1.00  0.00     0.022 A 
BRANCH  66  69
ATOM     69  S   UNL A   1      47.925  36.078  26.534  1.00  0.00     0.127 S 
ATOM     70  O   UNL A   1      48.546  37.196  27.241  1.00  0.00    -0.237 OA
ATOM     71  O   UNL A   1      48.815  35.365  25.616  1.00  0.00    -0.237 OA
ATOM     72  O   UNL A   1      46.593  36.336  26.004  1.00  0.00    -0.744 OA
ENDBRANCH  66  69
ENDBRANCH  39  62
ENDBRANCH  13  14
ENDBRANCH   6   8
ENDBRANCH   5   6
ENDBRANCH   4   5
ENDBRANCH   3   4
ENDBRANCH   2   3
ENDBRANCH   1   2
BRANCH   1  73
ATOM     73  C   UNL A   1      36.380  22.938  25.176  1.00  0.00     0.261 C 
BRANCH  73  74
ATOM     74  O   UNL A   1      35.941  21.623  24.791  1.00  0.00    -0.460 OA
BRANCH  74  75
ATOM     75  C   UNL A   1      34.961  21.078  25.561  1.00  0.00     0.340 C 
ATOM     76  O   UNL A   1      34.706  21.369  26.718  1.00  0.00    -0.246 OA
BRANCH  75  77
ATOM     77  C   UNL A   1      34.124  20.170  24.720  1.00  0.00     0.083 A 
ATOM     78  C   UNL A   1      34.547  18.835  24.632  1.00  0.00     0.018 A 
ATOM     79  C   UNL A   1      32.938  20.591  24.072  1.00  0.00     0.055 A 
ATOM     80  C   UNL A   1      33.791  17.904  23.924  1.00  0.00     0.001 A 
ATOM     81  C   UNL A   1      32.193  19.633  23.372  1.00  0.00     0.027 A 
ATOM     82  C   UNL A   1      32.615  18.303  23.297  1.00  0.00     0.002 A 
BRANCH  79  83
ATOM     83  N   UNL A   1      32.571  21.938  24.104  1.00  0.00    -0.323 N 
ATOM     84  H   UNL A   1      32.989  22.455  23.378  1.00  0.00     0.170 HD
BRANCH  83  85
ATOM     85  C   UNL A   1      31.766  22.717  24.905  1.00  0.00     0.233 A 
ATOM     86  N   UNL A   1      30.923  22.210  25.784  1.00  0.00    -0.182 NA
ATOM     87  N   UNL A   1      31.935  24.014  24.688  1.00  0.00    -0.176 NA
ATOM     88  C   UNL A   1      30.287  23.137  26.480  1.00  0.00     0.228 A 
ATOM     89  C   UNL A   1      31.171  24.842  25.374  1.00  0.00     0.233 A 
ATOM     90  Cl  UNL A   1      29.217  22.569  27.685  1.00  0.00    -0.041 Cl
ATOM     91  N   UNL A   1      30.344  24.450  26.330  1.00  0.00    -0.182 NA
BRANCH  89  92
ATOM     92  N   UNL A   1      31.199  26.159  24.934  1.00  0.00    -0.324 N 
ATOM     93  H   UNL A   1      30.681  26.353  24.120  1.00  0.00     0.170 HD
BRANCH  92  94
ATOM     94  C   UNL A   1      31.867  27.236  25.503  1.00  0.00     0.041 A 
ATOM     95  C   UNL A   1      32.815  27.944  24.759  1.00  0.00     0.028 A 
ATOM     96  C   UNL A   1      31.517  27.696  26.772  1.00  0.00     0.028 A 
ATOM     97  C   UNL A   1      33.366  29.126  25.261  1.00  0.00     0.028 A 
ATOM     98  C   UNL A   1      32.107  28.838  27.300  1.00  0.00     0.028 A 
ATOM     99  C   UNL A   1      33.013  29.578  26.537  1.00  0.00     0.044 A 
BRANCH  99 100
ATOM    100  N   UNL A   1      33.488  30.826  27.026  1.00  0.00    -0.308 N 
ATOM    101  C   UNL A   1      32.467  31.844  27.292  1.00  0.00     0.154 C 
ATOM    102  C   UNL A   1      34.765  30.922  27.587  1.00  0.00     0.253 C 
ATOM    103  C   UNL A   1      33.054  33.199  27.658  1.00  0.00     0.183 C 
ATOM    104  C   UNL A   1      35.075  32.243  28.305  1.00  0.00     0.260 C 
ATOM    105  O   UNL A   1      35.649  30.072  27.467  1.00  0.00    -0.272 OA
ATOM    106  O   UNL A   1      33.982  33.043  28.728  1.00  0.00    -0.370 OA
ENDBRANCH  99 100
ENDBRANCH  92  94
ENDBRANCH  89  92
ENDBRANCH  83  85
ENDBRANCH  79  83
ENDBRANCH  75  77
ENDBRANCH  74  75
ENDBRANCH  73  74
ENDBRANCH   1  73
TORSDOF 22
ENDMDL
MODEL 3
REMARK VINA RESULT:     -11.2      2.418      3.728
REMARK SMILES O=C(OCCOCCOC(=O)c1ccccc1Nc1nc(Cl)nc(Nc2ccc(N3CCOCC3=O)cc2)n1)c1ccc(-c2c3nc(c(-c4cccc(S(=O)(=O)[O-])c4F)c4ccc([nH]4)c(-c4cccc(S(=O)(=O)[O-])c4F)c4nc(c(-c5cccc(S(=O)(=O)[O-])c5F)c5ccc2[nH]5)C=C4)C=C3)cc1
REMARK SMILES IDX 7 1 6 2 5 3 4 4 3 5 2 6 1 7 40 8 41 9 102 10 42 11 101 12
REMARK SMILES IDX 43 13 44 14 45 15 95 16 46 17 100 18 94 19 96 20 47 21 99 22
REMARK SMILES IDX 93 23 92 24 48 26 80 27 60 28 79 29 61 30 64 31 78 32 97 33
REMARK SMILES IDX 62 34 63 35 77 37 98 38 65 39 49 40 50 41 58 42 51 43 53 44
REMARK SMILES IDX 59 45 52 46 54 47 55 48 56 49 57 50 81 51 82 52 90 53 83 54
REMARK SMILES IDX 85 55 91 56 84 57 86 58 87 59 88 60 89 61 66 62 67 63 75 64
REMARK SMILES IDX 68 65 70 66 76 67 69 68 71 69 72 70 73 71 74 72 8 73 9 74
REMARK SMILES IDX 10 75 11 76 12 77 13 78 17 79 14 80 16 81 15 82 18 83 19 85
REMARK SMILES IDX 20 86 39 87 21 88 24 89 22 90 23 91 25 92 26 94 27 95 38 96
REMARK SMILES IDX 28 97 37 98 29 99 30 100 31 101 35 102 32 103 34 104 36 105
REMARK SMILES IDX 33 106
REMARK H PARENT 96 25 64 36 18 84 25 93
REMARK Flexibility Score: inf
ROOT
ATOM      1  C   UNL A   1      35.998  23.688  25.750  1.00  0.00     0.202 C 
ENDROOT
BRANCH   1   2
ATOM      2  O   UNL A   1      36.136  22.265  25.829  1.00  0.00    -0.374 OA
BRANCH   2   3
ATOM      3  C   UNL A   1      36.981  21.651  24.860  1.00  0.00     0.202 C 
BRANCH   3   4
ATOM      4  C   UNL A   1      38.042  20.726  25.456  1.00  0.00     0.261 C 
BRANCH   4   5
ATOM      5  O   UNL A   1      39.294  21.423  25.569  1.00  0.00    -0.460 OA
BRANCH   5   6
ATOM      6  C   UNL A   1      39.998  21.712  26.688  1.00  0.00     0.338 C 
ATOM      7  O   UNL A   1      40.093  20.844  27.555  1.00  0.00    -0.246 OA
BRANCH   6   8
ATOM      8  C   UNL A   1      40.663  23.028  26.934  1.00  0.00     0.060 A 
ATOM      9  C   UNL A   1      40.409  24.195  26.212  1.00  0.00     0.016 A 
ATOM     10  C   UNL A   1      41.529  23.114  28.037  1.00  0.00     0.016 A 
ATOM     11  C   UNL A   1      41.017  25.398  26.529  1.00  0.00     0.010 A 
ATOM     12  C   UNL A   1      42.124  24.332  28.388  1.00  0.00     0.010 A 
ATOM     13  C   UNL A   1      41.872  25.473  27.621  1.00  0.00    -0.014 A 
BRANCH  13  14
ATOM     14  C   UNL A   1      42.546  26.757  27.862  1.00  0.00     0.031 A 
ATOM     15  C   UNL A   1      43.866  26.997  27.204  1.00  0.00     0.074 A 
ATOM     16  C   UNL A   1      41.900  27.719  28.546  1.00  0.00     0.049 A 
ATOM     17  N   UNL A   1      44.638  28.045  27.267  1.00  0.00    -0.248 NA
ATOM     18  C   UNL A   1      44.377  25.917  26.340  1.00  0.00     0.031 C 
ATOM     19  C   UNL A   1      40.557  27.587  29.118  1.00  0.00     0.029 A 
ATOM     20  N   UNL A   1      42.271  28.997  28.857  1.00  0.00    -0.354 N 
ATOM     21  C   UNL A   1      45.748  27.734  26.495  1.00  0.00     0.074 A 
ATOM     22  C   UNL A   1      45.544  26.409  25.953  1.00  0.00     0.031 C 
ATOM     23  C   UNL A   1      40.215  28.744  29.708  1.00  0.00     0.029 A 
ATOM     24  C   UNL A   1      41.336  29.671  29.608  1.00  0.00     0.049 A 
ATOM     25  H   UNL A   1      43.124  29.398  28.570  1.00  0.00     0.167 HD
ATOM     26  C   UNL A   1      46.843  28.495  26.268  1.00  0.00     0.034 A 
ATOM     27  C   UNL A   1      41.404  30.889  30.176  1.00  0.00     0.034 A 
ATOM     28  C   UNL A   1      47.009  29.809  26.821  1.00  0.00     0.049 A 
ATOM     29  C   UNL A   1      42.663  31.687  29.960  1.00  0.00     0.074 A 
ATOM     30  C   UNL A   1      48.090  30.661  26.714  1.00  0.00     0.029 A 
ATOM     31  N   UNL A   1      46.057  30.456  27.597  1.00  0.00    -0.354 N 
ATOM     32  N   UNL A   1      43.710  31.390  29.225  1.00  0.00    -0.248 NA
ATOM     33  C   UNL A   1      42.751  32.986  30.637  1.00  0.00     0.031 C 
ATOM     34  C   UNL A   1      47.800  31.816  27.448  1.00  0.00     0.029 A 
ATOM     35  C   UNL A   1      46.525  31.696  27.986  1.00  0.00     0.049 A 
ATOM     36  H   UNL A   1      45.177  30.086  27.836  1.00  0.00     0.167 HD
ATOM     37  C   UNL A   1      44.571  32.473  29.331  1.00  0.00     0.074 A 
ATOM     38  C   UNL A   1      43.909  33.445  30.183  1.00  0.00     0.031 C 
ATOM     39  C   UNL A   1      45.806  32.648  28.796  1.00  0.00     0.034 A 
BRANCH  26  40
ATOM     40  C   UNL A   1      47.937  27.890  25.433  1.00  0.00     0.023 A 
ATOM     41  C   UNL A   1      49.010  27.215  26.049  1.00  0.00     0.012 A 
ATOM     42  C   UNL A   1      47.913  28.017  24.030  1.00  0.00     0.148 A 
ATOM     43  C   UNL A   1      50.062  26.708  25.285  1.00  0.00     0.002 A 
ATOM     44  C   UNL A   1      48.945  27.476  23.273  1.00  0.00     0.091 A 
ATOM     45  F   UNL A   1      46.899  28.688  23.467  1.00  0.00    -0.205 F 
ATOM     46  C   UNL A   1      50.025  26.833  23.898  1.00  0.00     0.022 A 
BRANCH  44  47
ATOM     47  S   UNL A   1      48.966  27.539  21.479  1.00  0.00     0.127 S 
ATOM     48  O   UNL A   1      49.690  28.786  21.237  1.00  0.00    -0.237 OA
ATOM     49  O   UNL A   1      49.709  26.326  21.139  1.00  0.00    -0.237 OA
ATOM     50  O   UNL A   1      47.571  27.538  21.058  1.00  0.00    -0.744 OA
ENDBRANCH  44  47
ENDBRANCH  26  40
BRANCH  27  51
ATOM     51  C   UNL A   1      40.272  31.412  30.995  1.00  0.00     0.023 A 
ATOM     52  C   UNL A   1      39.270  32.192  30.387  1.00  0.00     0.012 A 
ATOM     53  C   UNL A   1      40.171  31.123  32.371  1.00  0.00     0.148 A 
ATOM     54  C   UNL A   1      38.206  32.698  31.139  1.00  0.00     0.002 A 
ATOM     55  C   UNL A   1      39.082  31.583  33.102  1.00  0.00     0.091 A 
ATOM     56  F   UNL A   1      41.144  30.399  32.942  1.00  0.00    -0.205 F 
ATOM     57  C   UNL A   1      38.106  32.385  32.493  1.00  0.00     0.022 A 
BRANCH  55  58
ATOM     58  S   UNL A   1      38.811  31.119  34.817  1.00  0.00     0.127 S 
ATOM     59  O   UNL A   1      39.094  29.687  34.788  1.00  0.00    -0.237 OA
ATOM     60  O   UNL A   1      39.810  31.931  35.513  1.00  0.00    -0.237 OA
ATOM     61  O   UNL A   1      37.432  31.488  35.109  1.00  0.00    -0.744 OA
ENDBRANCH  55  58
ENDBRANCH  27  51
BRANCH  39  62
ATOM     62  C   UNL A   1      46.499  33.950  29.086  1.00  0.00     0.023 A 
ATOM     63  C   UNL A   1      47.360  34.051  30.196  1.00  0.00     0.012 A 
ATOM     64  C   UNL A   1      46.367  35.036  28.201  1.00  0.00     0.148 A 
ATOM     65  C   UNL A   1      48.062  35.230  30.435  1.00  0.00     0.002 A 
ATOM     66  C   UNL A   1      47.111  36.187  28.416  1.00  0.00     0.091 A 
ATOM     67  F   UNL A   1      45.524  34.919  27.165  1.00  0.00    -0.205 F 
ATOM     68  C   UNL A   1      47.949  36.291  29.537  1.00  0.00     0.022 A 
BRANCH  66  69
ATOM     69  S   UNL A   1      47.112  37.555  27.253  1.00  0.00     0.127 S 
ATOM     70  O   UNL A   1      48.312  38.286  27.655  1.00  0.00    -0.237 OA
ATOM     71  O   UNL A   1      47.216  36.868  25.965  1.00  0.00    -0.237 OA
ATOM     72  O   UNL A   1      45.852  38.258  27.461  1.00  0.00    -0.744 OA
ENDBRANCH  66  69
ENDBRANCH  39  62
ENDBRANCH  13  14
ENDBRANCH   6   8
ENDBRANCH   5   6
ENDBRANCH   4   5
ENDBRANCH   3   4
ENDBRANCH   2   3
ENDBRANCH   1   2
BRANCH   1  73
ATOM     73  C   UNL A   1      34.531  24.039  26.014  1.00  0.00     0.261 C 
BRANCH  73  74
ATOM     74  O   UNL A   1      34.041  23.146  27.031  1.00  0.00    -0.460 OA
BRANCH  74  75
ATOM     75  C   UNL A   1      32.780  22.674  26.845  1.00  0.00     0.340 C 
ATOM     76  O   UNL A   1      31.764  23.095  27.374  1.00  0.00    -0.246 OA
BRANCH  75  77
ATOM     77  C   UNL A   1      32.794  21.651  25.756  1.00  0.00     0.083 A 
ATOM     78  C   UNL A   1      33.650  20.554  25.940  1.00  0.00     0.018 A 
ATOM     79  C   UNL A   1      31.969  21.730  24.608  1.00  0.00     0.055 A 
ATOM     80  C   UNL A   1      33.679  19.521  25.008  1.00  0.00     0.001 A 
ATOM     81  C   UNL A   1      32.012  20.675  23.689  1.00  0.00     0.027 A 
ATOM     82  C   UNL A   1      32.859  19.581  23.885  1.00  0.00     0.002 A 
BRANCH  79  83
ATOM     83  N   UNL A   1      31.180  22.864  24.399  1.00  0.00    -0.323 N 
ATOM     84  H   UNL A   1      30.314  22.807  24.862  1.00  0.00     0.170 HD
BRANCH  83  85
ATOM     85  C   UNL A   1      31.322  24.043  23.700  1.00  0.00     0.233 A 
ATOM     86  N   UNL A   1      31.930  24.114  22.531  1.00  0.00    -0.182 NA
ATOM     87  N   UNL A   1      30.787  25.078  24.333  1.00  0.00    -0.176 NA
ATOM     88  C   UNL A   1      31.910  25.331  22.015  1.00  0.00     0.228 A 
ATOM     89  C   UNL A   1      30.917  26.261  23.765  1.00  0.00     0.233 A 
ATOM     90  Cl  UNL A   1      32.624  25.505  20.472  1.00  0.00    -0.041 Cl
ATOM     91  N   UNL A   1      31.443  26.441  22.564  1.00  0.00    -0.182 NA
BRANCH  89  92
ATOM     92  N   UNL A   1      30.574  27.336  24.575  1.00  0.00    -0.324 N 
ATOM     93  H   UNL A   1      29.615  27.552  24.621  1.00  0.00     0.170 HD
BRANCH  92  94
ATOM     94  C   UNL A   1      31.418  28.142  25.328  1.00  0.00     0.041 A 
ATOM     95  C   UNL A   1      31.487  27.982  26.715  1.00  0.00     0.028 A 
ATOM     96  C   UNL A   1      32.290  29.033  24.702  1.00  0.00     0.028 A 
ATOM     97  C   UNL A   1      32.451  28.668  27.456  1.00  0.00     0.028 A 
ATOM     98  C   UNL A   1      33.211  29.762  25.444  1.00  0.00     0.028 A 
ATOM     99  C   UNL A   1      33.319  29.564  26.822  1.00  0.00     0.044 A 
BRANCH  99 100
ATOM    100  N   UNL A   1      34.368  30.197  27.543  1.00  0.00    -0.308 N 
ATOM    101  C   UNL A   1      35.647  29.480  27.583  1.00  0.00     0.154 C 
ATOM    102  C   UNL A   1      34.299  31.563  27.832  1.00  0.00     0.253 C 
ATOM    103  C   UNL A   1      36.672  30.133  28.498  1.00  0.00     0.183 C 
ATOM    104  C   UNL A   1      35.587  32.189  28.385  1.00  0.00     0.260 C 
ATOM    105  O   UNL A   1      33.276  32.245  27.751  1.00  0.00    -0.272 OA
ATOM    106  O   UNL A   1      36.810  31.509  28.154  1.00  0.00    -0.370 OA
ENDBRANCH  99 100
ENDBRANCH  92  94
ENDBRANCH  89  92
ENDBRANCH  83  85
ENDBRANCH  79  83
ENDBRANCH  75  77
ENDBRANCH  74  75
ENDBRANCH  73  74
ENDBRANCH   1  73
TORSDOF 22
ENDMDL
