MODEL 1
REMARK VINA RESULT:     -11.3      0.000      0.000
REMARK SMILES CCc1n[nH]c(C(=O)N[C@@]2(C(=O)OCCOCCOC(=O)c3ccc(-c4c5nc(c(-c6cccc(S(=O)(=O)[O-])c6F)c6ccc([nH]6)c(-c6cccc(S(=O)(=O)[O-])c6F)c6nc(c(-c7cccc(S(=O)(=O)[O-])c7F)c7ccc4[nH]7)C=C6)C=C5)cc3)CCCC[C@H]2C)n1
REMARK SMILES IDX 16 1 15 2 14 3 13 4 11 5 12 6 10 7 85 8 89 9 86 10 88 11
REMARK SMILES IDX 90 12 87 13 9 14 7 15 8 16 6 18 3 19 4 20 91 21 5 22 2 24
REMARK SMILES IDX 1 25 17 26 18 27 19 28 20 29 21 30 22 31 23 32 84 33 24 34
REMARK SMILES IDX 83 35 25 36 26 37 27 38 77 39 28 40 82 41 76 42 78 43 29 44
REMARK SMILES IDX 81 45 75 46 74 47 30 49 62 50 42 51 61 52 43 53 46 54 60 55
REMARK SMILES IDX 79 56 44 57 45 58 59 60 80 61 47 62 31 63 32 64 40 65 33 66
REMARK SMILES IDX 35 67 41 68 34 69 36 70 37 71 38 72 39 73 63 74 64 75 72 76
REMARK SMILES IDX 65 77 67 78 73 79 66 80 68 81 69 82 70 83 71 84 48 85 49 86
REMARK SMILES IDX 57 87 50 88 52 89 58 90 51 91 53 92 54 93 55 94 56 95
REMARK H PARENT 9 17 5 23 78 48 46 59
REMARK Flexibility Score: inf
ROOT
ATOM      1  O   UNL A   1      32.477  30.614  27.197  1.00  0.00    -0.374 OA
ENDROOT
BRANCH   1   2
ATOM      2  C   UNL A   1      33.633  30.013  26.638  1.00  0.00     0.202 C 
BRANCH   2   3
ATOM      3  C   UNL A   1      34.023  28.513  26.620  1.00  0.00     0.261 C 
BRANCH   3   4
ATOM      4  O   UNL A   1      33.745  27.639  25.529  1.00  0.00    -0.461 OA
BRANCH   4   5
ATOM      5  C   UNL A   1      32.785  26.713  25.760  1.00  0.00     0.332 C 
ATOM      6  O   UNL A   1      32.061  26.741  26.750  1.00  0.00    -0.249 OA
BRANCH   5   7
ATOM      7  C   UNL A   1      32.608  25.709  24.587  1.00  0.00     0.141 C 
ATOM      8  C   UNL A   1      31.123  25.495  24.219  1.00  0.00     0.041 C 
ATOM      9  C   UNL A   1      33.248  24.340  25.075  1.00  0.00     0.023 C 
ATOM     10  C   UNL A   1      30.917  24.305  23.278  1.00  0.00     0.003 C 
ATOM     11  C   UNL A   1      32.868  23.097  24.247  1.00  0.00     0.006 C 
ATOM     12  C   UNL A   1      34.780  24.358  25.194  1.00  0.00     0.011 C 
ATOM     13  C   UNL A   1      31.388  23.015  23.928  1.00  0.00     0.000 C 
BRANCH   7  14
ATOM     14  N   UNL A   1      33.335  26.248  23.405  1.00  0.00    -0.333 N 
ATOM     15  C   UNL A   1      33.012  27.269  22.519  1.00  0.00     0.289 C 
ATOM     16  O   UNL A   1      33.846  27.485  21.633  1.00  0.00    -0.266 OA
ATOM     17  H   UNL A   1      34.193  25.804  23.217  1.00  0.00     0.165 HD
BRANCH  15  18
ATOM     18  C   UNL A   1      31.858  28.145  22.683  1.00  0.00     0.214 A 
ATOM     19  C   UNL A   1      29.900  28.947  22.903  1.00  0.00     0.151 A 
ATOM     20  N   UNL A   1      30.603  29.643  23.806  1.00  0.00    -0.158 NA
ATOM     21  N   UNL A   1      30.655  28.082  22.129  1.00  0.00    -0.207 NA
ATOM     22  N   UNL A   1      31.825  29.105  23.659  1.00  0.00    -0.255 N 
ATOM     23  H   UNL A   1      32.609  29.371  24.193  1.00  0.00     0.192 HD
BRANCH  19  24
ATOM     24  C   UNL A   1      28.409  28.915  22.923  1.00  0.00     0.076 C 
ATOM     25  C   UNL A   1      27.728  29.888  21.980  1.00  0.00     0.012 C 
ENDBRANCH  19  24
ENDBRANCH  15  18
ENDBRANCH   7  14
ENDBRANCH   5   7
ENDBRANCH   4   5
ENDBRANCH   3   4
ENDBRANCH   2   3
ENDBRANCH   1   2
BRANCH   1  26
ATOM     26  C   UNL A   1      31.847  31.748  26.643  1.00  0.00     0.202 C 
BRANCH  26  27
ATOM     27  C   UNL A   1      32.051  33.117  27.267  1.00  0.00     0.261 C 
BRANCH  27  28
ATOM     28  O   UNL A   1      33.422  33.493  27.294  1.00  0.00    -0.460 OA
BRANCH  28  29
ATOM     29  C   UNL A   1      33.895  33.640  28.548  1.00  0.00     0.338 C 
ATOM     30  O   UNL A   1      33.373  34.244  29.478  1.00  0.00    -0.246 OA
BRANCH  29  31
ATOM     31  C   UNL A   1      35.097  32.820  28.700  1.00  0.00     0.060 A 
ATOM     32  C   UNL A   1      34.934  31.531  29.219  1.00  0.00     0.016 A 
ATOM     33  C   UNL A   1      36.360  33.331  28.391  1.00  0.00     0.016 A 
ATOM     34  C   UNL A   1      36.049  30.767  29.508  1.00  0.00     0.010 A 
ATOM     35  C   UNL A   1      37.481  32.570  28.697  1.00  0.00     0.010 A 
ATOM     36  C   UNL A   1      37.321  31.316  29.309  1.00  0.00    -0.014 A 
BRANCH  36  37
ATOM     37  C   UNL A   1      38.467  30.669  29.966  1.00  0.00     0.031 A 
ATOM     38  C   UNL A   1      38.777  31.056  31.382  1.00  0.00     0.074 A 
ATOM     39  C   UNL A   1      39.170  29.731  29.314  1.00  0.00     0.049 A 
ATOM     40  N   UNL A   1      39.724  30.624  32.167  1.00  0.00    -0.248 NA
ATOM     41  C   UNL A   1      37.903  32.072  31.998  1.00  0.00     0.031 C 
ATOM     42  C   UNL A   1      38.918  29.288  27.943  1.00  0.00     0.029 A 
ATOM     43  N   UNL A   1      40.248  28.995  29.718  1.00  0.00    -0.354 N 
ATOM     44  C   UNL A   1      39.582  31.332  33.353  1.00  0.00     0.074 A 
ATOM     45  C   UNL A   1      38.468  32.237  33.184  1.00  0.00     0.031 C 
ATOM     46  C   UNL A   1      39.839  28.370  27.609  1.00  0.00     0.029 A 
ATOM     47  C   UNL A   1      40.752  28.184  28.733  1.00  0.00     0.049 A 
ATOM     48  H   UNL A   1      40.625  29.042  30.627  1.00  0.00     0.167 HD
ATOM     49  C   UNL A   1      40.312  31.224  34.486  1.00  0.00     0.034 A 
ATOM     50  C   UNL A   1      41.846  27.400  28.743  1.00  0.00     0.034 A 
ATOM     51  C   UNL A   1      41.406  30.306  34.632  1.00  0.00     0.049 A 
ATOM     52  C   UNL A   1      42.650  27.312  30.012  1.00  0.00     0.074 A 
ATOM     53  C   UNL A   1      42.199  30.080  35.741  1.00  0.00     0.029 A 
ATOM     54  N   UNL A   1      41.871  29.470  33.627  1.00  0.00    -0.354 N 
ATOM     55  N   UNL A   1      42.452  27.917  31.159  1.00  0.00    -0.248 NA
ATOM     56  C   UNL A   1      43.804  26.404  30.002  1.00  0.00     0.031 C 
ATOM     57  C   UNL A   1      43.167  29.133  35.395  1.00  0.00     0.029 A 
ATOM     58  C   UNL A   1      42.946  28.733  34.085  1.00  0.00     0.049 A 
ATOM     59  H   UNL A   1      41.490  29.411  32.721  1.00  0.00     0.167 HD
ATOM     60  C   UNL A   1      43.428  27.431  32.021  1.00  0.00     0.074 A 
ATOM     61  C   UNL A   1      44.206  26.470  31.263  1.00  0.00     0.031 C 
ATOM     62  C   UNL A   1      43.668  27.750  33.318  1.00  0.00     0.034 A 
BRANCH  49  63
ATOM     63  C   UNL A   1      39.946  32.113  35.645  1.00  0.00     0.023 A 
ATOM     64  C   UNL A   1      40.595  33.353  35.817  1.00  0.00     0.012 A 
ATOM     65  C   UNL A   1      38.928  31.736  36.542  1.00  0.00     0.148 A 
ATOM     66  C   UNL A   1      40.258  34.190  36.881  1.00  0.00     0.002 A 
ATOM     67  C   UNL A   1      38.563  32.597  37.570  1.00  0.00     0.091 A 
ATOM     68  F   UNL A   1      38.343  30.542  36.379  1.00  0.00    -0.205 F 
ATOM     69  C   UNL A   1      39.234  33.818  37.749  1.00  0.00     0.022 A 
BRANCH  67  70
ATOM     70  S   UNL A   1      37.206  32.245  38.692  1.00  0.00     0.127 S 
ATOM     71  O   UNL A   1      36.096  32.938  38.041  1.00  0.00    -0.237 OA
ATOM     72  O   UNL A   1      37.133  30.785  38.634  1.00  0.00    -0.237 OA
ATOM     73  O   UNL A   1      37.603  32.785  39.985  1.00  0.00    -0.744 OA
ENDBRANCH  67  70
ENDBRANCH  49  63
BRANCH  50  74
ATOM     74  C   UNL A   1      42.216  26.624  27.529  1.00  0.00     0.023 A 
ATOM     75  C   UNL A   1      42.867  27.266  26.459  1.00  0.00     0.012 A 
ATOM     76  C   UNL A   1      41.950  25.244  27.444  1.00  0.00     0.148 A 
ATOM     77  C   UNL A   1      43.212  26.555  25.309  1.00  0.00     0.002 A 
ATOM     78  C   UNL A   1      42.347  24.530  26.321  1.00  0.00     0.091 A 
ATOM     79  F   UNL A   1      41.322  24.654  28.471  1.00  0.00    -0.205 F 
ATOM     80  C   UNL A   1      42.962  25.186  25.244  1.00  0.00     0.022 A 
BRANCH  78  81
ATOM     81  S   UNL A   1      42.185  22.745  26.210  1.00  0.00     0.127 S 
ATOM     82  O   UNL A   1      40.737  22.571  26.302  1.00  0.00    -0.237 OA
ATOM     83  O   UNL A   1      42.758  22.472  24.892  1.00  0.00    -0.237 OA
ATOM     84  O   UNL A   1      42.957  22.209  27.322  1.00  0.00    -0.744 OA
ENDBRANCH  78  81
ENDBRANCH  50  74
BRANCH  62  85
ATOM     85  C   UNL A   1      44.776  27.011  34.017  1.00  0.00     0.023 A 
ATOM     86  C   UNL A   1      46.109  27.452  33.900  1.00  0.00     0.012 A 
ATOM     87  C   UNL A   1      44.480  25.914  34.850  1.00  0.00     0.148 A 
ATOM     88  C   UNL A   1      47.134  26.786  34.567  1.00  0.00     0.002 A 
ATOM     89  C   UNL A   1      45.499  25.292  35.558  1.00  0.00     0.091 A 
ATOM     90  F   UNL A   1      43.206  25.501  34.936  1.00  0.00    -0.205 F 
ATOM     91  C   UNL A   1      46.829  25.715  35.404  1.00  0.00     0.022 A 
BRANCH  89  92
ATOM     92  S   UNL A   1      45.183  23.976  36.738  1.00  0.00     0.127 S 
ATOM     93  O   UNL A   1      44.533  22.973  35.898  1.00  0.00    -0.237 OA
ATOM     94  O   UNL A   1      46.535  23.624  37.176  1.00  0.00    -0.237 OA
ATOM     95  O   UNL A   1      44.346  24.560  37.777  1.00  0.00    -0.744 OA
ENDBRANCH  89  92
ENDBRANCH  62  85
ENDBRANCH  36  37
ENDBRANCH  29  31
ENDBRANCH  28  29
ENDBRANCH  27  28
ENDBRANCH  26  27
ENDBRANCH   1  26
TORSDOF 20
ENDMDL
MODEL 2
REMARK VINA RESULT:     -10.7      1.991      7.915
REMARK SMILES CCc1n[nH]c(C(=O)N[C@@]2(C(=O)OCCOCCOC(=O)c3ccc(-c4c5nc(c(-c6cccc(S(=O)(=O)[O-])c6F)c6ccc([nH]6)c(-c6cccc(S(=O)(=O)[O-])c6F)c6nc(c(-c7cccc(S(=O)(=O)[O-])c7F)c7ccc4[nH]7)C=C6)C=C5)cc3)CCCC[C@H]2C)n1
REMARK SMILES IDX 16 1 15 2 14 3 13 4 11 5 12 6 10 7 85 8 89 9 86 10 88 11
REMARK SMILES IDX 90 12 87 13 9 14 7 15 8 16 6 18 3 19 4 20 91 21 5 22 2 24
REMARK SMILES IDX 1 25 17 26 18 27 19 28 20 29 21 30 22 31 23 32 84 33 24 34
REMARK SMILES IDX 83 35 25 36 26 37 27 38 77 39 28 40 82 41 76 42 78 43 29 44
REMARK SMILES IDX 81 45 75 46 74 47 30 49 62 50 42 51 61 52 43 53 46 54 60 55
REMARK SMILES IDX 79 56 44 57 45 58 59 60 80 61 47 62 31 63 32 64 40 65 33 66
REMARK SMILES IDX 35 67 41 68 34 69 36 70 37 71 38 72 39 73 63 74 64 75 72 76
REMARK SMILES IDX 65 77 67 78 73 79 66 80 68 81 69 82 70 83 71 84 48 85 49 86
REMARK SMILES IDX 57 87 50 88 52 89 58 90 51 91 53 92 54 93 55 94 56 95
REMARK H PARENT 9 17 5 23 78 48 46 59
REMARK Flexibility Score: inf
ROOT
ATOM      1  O   UNL A   1      32.209  30.486  26.949  1.00  0.00    -0.374 OA
ENDROOT
BRANCH   1   2
ATOM      2  C   UNL A   1      31.595  29.244  27.250  1.00  0.00     0.202 C 
BRANCH   2   3
ATOM      3  C   UNL A   1      32.276  27.882  27.538  1.00  0.00     0.261 C 
BRANCH   3   4
ATOM      4  O   UNL A   1      32.218  26.768  26.651  1.00  0.00    -0.461 OA
BRANCH   4   5
ATOM      5  C   UNL A   1      33.320  26.578  25.888  1.00  0.00     0.332 C 
ATOM      6  O   UNL A   1      34.396  27.114  26.133  1.00  0.00    -0.249 OA
BRANCH   5   7
ATOM      7  C   UNL A   1      33.116  25.517  24.771  1.00  0.00     0.141 C 
ATOM      8  C   UNL A   1      31.629  25.142  24.586  1.00  0.00     0.041 C 
ATOM      9  C   UNL A   1      33.946  24.238  25.215  1.00  0.00     0.023 C 
ATOM     10  C   UNL A   1      31.441  23.902  23.707  1.00  0.00     0.003 C 
ATOM     11  C   UNL A   1      33.605  22.933  24.471  1.00  0.00     0.006 C 
ATOM     12  C   UNL A   1      35.472  24.414  25.154  1.00  0.00     0.011 C 
ATOM     13  C   UNL A   1      32.114  22.691  24.331  1.00  0.00     0.000 C 
BRANCH   7  14
ATOM     14  N   UNL A   1      33.643  26.081  23.498  1.00  0.00    -0.333 N 
ATOM     15  C   UNL A   1      33.082  26.971  22.590  1.00  0.00     0.289 C 
ATOM     16  O   UNL A   1      33.793  27.255  21.619  1.00  0.00    -0.266 OA
ATOM     17  H   UNL A   1      34.545  25.769  23.257  1.00  0.00     0.165 HD
BRANCH  15  18
ATOM     18  C   UNL A   1      31.816  27.660  22.810  1.00  0.00     0.214 A 
ATOM     19  C   UNL A   1      30.299  29.101  23.194  1.00  0.00     0.151 A 
ATOM     20  N   UNL A   1      29.780  28.394  22.182  1.00  0.00    -0.158 NA
ATOM     21  N   UNL A   1      31.509  28.622  23.669  1.00  0.00    -0.207 NA
ATOM     22  N   UNL A   1      30.763  27.508  21.949  1.00  0.00    -0.255 N 
ATOM     23  H   UNL A   1      30.729  26.826  21.239  1.00  0.00     0.192 HD
BRANCH  19  24
ATOM     24  C   UNL A   1      29.752  30.432  23.585  1.00  0.00     0.076 C 
ATOM     25  C   UNL A   1      28.275  30.632  23.309  1.00  0.00     0.012 C 
ENDBRANCH  19  24
ENDBRANCH  15  18
ENDBRANCH   7  14
ENDBRANCH   5   7
ENDBRANCH   4   5
ENDBRANCH   3   4
ENDBRANCH   2   3
ENDBRANCH   1   2
BRANCH   1  26
ATOM     26  C   UNL A   1      31.494  31.617  26.500  1.00  0.00     0.202 C 
BRANCH  26  27
ATOM     27  C   UNL A   1      31.965  33.014  26.863  1.00  0.00     0.261 C 
BRANCH  27  28
ATOM     28  O   UNL A   1      33.125  32.989  27.684  1.00  0.00    -0.460 OA
BRANCH  28  29
ATOM     29  C   UNL A   1      33.300  34.137  28.371  1.00  0.00     0.338 C 
ATOM     30  O   UNL A   1      32.620  35.154  28.312  1.00  0.00    -0.246 OA
BRANCH  29  31
ATOM     31  C   UNL A   1      34.367  33.943  29.353  1.00  0.00     0.060 A 
ATOM     32  C   UNL A   1      35.680  34.182  28.931  1.00  0.00     0.016 A 
ATOM     33  C   UNL A   1      34.085  33.481  30.641  1.00  0.00     0.016 A 
ATOM     34  C   UNL A   1      36.732  33.885  29.776  1.00  0.00     0.010 A 
ATOM     35  C   UNL A   1      35.143  33.166  31.484  1.00  0.00     0.010 A 
ATOM     36  C   UNL A   1      36.462  33.314  31.024  1.00  0.00    -0.014 A 
BRANCH  36  37
ATOM     37  C   UNL A   1      37.566  32.655  31.740  1.00  0.00     0.031 A 
ATOM     38  C   UNL A   1      38.264  31.514  31.059  1.00  0.00     0.074 A 
ATOM     39  C   UNL A   1      37.949  33.108  32.943  1.00  0.00     0.049 A 
ATOM     40  N   UNL A   1      39.259  30.786  31.482  1.00  0.00    -0.248 NA
ATOM     41  C   UNL A   1      37.770  31.139  29.720  1.00  0.00     0.031 C 
ATOM     42  C   UNL A   1      37.331  34.223  33.660  1.00  0.00     0.029 A 
ATOM     43  N   UNL A   1      38.940  32.672  33.776  1.00  0.00    -0.354 N 
ATOM     44  C   UNL A   1      39.492  29.851  30.482  1.00  0.00     0.074 A 
ATOM     45  C   UNL A   1      38.524  30.089  29.436  1.00  0.00     0.031 C 
ATOM     46  C   UNL A   1      37.946  34.368  34.845  1.00  0.00     0.029 A 
ATOM     47  C   UNL A   1      38.977  33.342  34.973  1.00  0.00     0.049 A 
ATOM     48  H   UNL A   1      39.567  31.950  33.540  1.00  0.00     0.167 HD
ATOM     49  C   UNL A   1      40.440  28.888  30.440  1.00  0.00     0.034 A 
ATOM     50  C   UNL A   1      39.748  33.125  36.054  1.00  0.00     0.034 A 
ATOM     51  C   UNL A   1      41.399  28.681  31.488  1.00  0.00     0.049 A 
ATOM     52  C   UNL A   1      40.784  32.035  35.986  1.00  0.00     0.074 A 
ATOM     53  C   UNL A   1      42.429  27.762  31.545  1.00  0.00     0.029 A 
ATOM     54  N   UNL A   1      41.434  29.400  32.674  1.00  0.00    -0.354 N 
ATOM     55  N   UNL A   1      41.058  31.216  34.999  1.00  0.00    -0.248 NA
ATOM     56  C   UNL A   1      41.643  31.865  37.165  1.00  0.00     0.031 C 
ATOM     57  C   UNL A   1      43.065  27.901  32.782  1.00  0.00     0.029 A 
ATOM     58  C   UNL A   1      42.462  28.940  33.476  1.00  0.00     0.049 A 
ATOM     59  H   UNL A   1      40.818  30.132  32.909  1.00  0.00     0.167 HD
ATOM     60  C   UNL A   1      42.148  30.464  35.417  1.00  0.00     0.074 A 
ATOM     61  C   UNL A   1      42.491  30.937  36.744  1.00  0.00     0.031 C 
ATOM     62  C   UNL A   1      42.805  29.467  34.772  1.00  0.00     0.034 A 
BRANCH  49  63
ATOM     63  C   UNL A   1      40.484  27.997  29.226  1.00  0.00     0.023 A 
ATOM     64  C   UNL A   1      39.590  26.913  29.112  1.00  0.00     0.012 A 
ATOM     65  C   UNL A   1      41.386  28.261  28.178  1.00  0.00     0.148 A 
ATOM     66  C   UNL A   1      39.613  26.088  27.988  1.00  0.00     0.002 A 
ATOM     67  C   UNL A   1      41.371  27.465  27.039  1.00  0.00     0.091 A 
ATOM     68  F   UNL A   1      42.248  29.278  28.317  1.00  0.00    -0.205 F 
ATOM     69  C   UNL A   1      40.494  26.371  26.947  1.00  0.00     0.022 A 
BRANCH  67  70
ATOM     70  S   UNL A   1      42.411  27.793  25.613  1.00  0.00     0.127 S 
ATOM     71  O   UNL A   1      43.741  27.829  26.219  1.00  0.00    -0.237 OA
ATOM     72  O   UNL A   1      42.154  26.623  24.772  1.00  0.00    -0.237 OA
ATOM     73  O   UNL A   1      41.946  29.057  25.058  1.00  0.00    -0.744 OA
ENDBRANCH  67  70
ENDBRANCH  49  63
BRANCH  50  74
ATOM     74  C   UNL A   1      39.587  33.973  37.265  1.00  0.00     0.023 A 
ATOM     75  C   UNL A   1      40.074  35.295  37.265  1.00  0.00     0.012 A 
ATOM     76  C   UNL A   1      38.927  33.484  38.409  1.00  0.00     0.148 A 
ATOM     77  C   UNL A   1      39.940  36.101  38.395  1.00  0.00     0.002 A 
ATOM     78  C   UNL A   1      38.746  34.310  39.511  1.00  0.00     0.091 A 
ATOM     79  F   UNL A   1      38.479  32.221  38.392  1.00  0.00    -0.205 F 
ATOM     80  C   UNL A   1      39.268  35.613  39.514  1.00  0.00     0.022 A 
BRANCH  78  81
ATOM     81  S   UNL A   1      37.779  33.810  40.939  1.00  0.00     0.127 S 
ATOM     82  O   UNL A   1      37.603  35.080  41.640  1.00  0.00    -0.237 OA
ATOM     83  O   UNL A   1      36.570  33.277  40.311  1.00  0.00    -0.237 OA
ATOM     84  O   UNL A   1      38.585  32.813  41.631  1.00  0.00    -0.744 OA
ENDBRANCH  78  81
ENDBRANCH  50  74
BRANCH  62  85
ATOM     85  C   UNL A   1      43.998  28.865  35.464  1.00  0.00     0.023 A 
ATOM     86  C   UNL A   1      45.281  29.415  35.274  1.00  0.00     0.012 A 
ATOM     87  C   UNL A   1      43.829  27.792  36.360  1.00  0.00     0.148 A 
ATOM     88  C   UNL A   1      46.384  28.876  35.933  1.00  0.00     0.002 A 
ATOM     89  C   UNL A   1      44.923  27.299  37.058  1.00  0.00     0.091 A 
ATOM     90  F   UNL A   1      42.600  27.275  36.515  1.00  0.00    -0.205 F 
ATOM     91  C   UNL A   1      46.203  27.828  36.833  1.00  0.00     0.022 A 
BRANCH  89  92
ATOM     92  S   UNL A   1      44.765  26.024  38.313  1.00  0.00     0.127 S 
ATOM     93  O   UNL A   1      44.180  24.925  37.548  1.00  0.00    -0.237 OA
ATOM     94  O   UNL A   1      46.157  25.814  38.715  1.00  0.00    -0.237 OA
ATOM     95  O   UNL A   1      43.914  26.586  39.352  1.00  0.00    -0.744 OA
ENDBRANCH  89  92
ENDBRANCH  62  85
ENDBRANCH  36  37
ENDBRANCH  29  31
ENDBRANCH  28  29
ENDBRANCH  27  28
ENDBRANCH  26  27
ENDBRANCH   1  26
TORSDOF 20
ENDMDL
MODEL 3
REMARK VINA RESULT:     -10.6      4.991     10.227
REMARK SMILES CCc1n[nH]c(C(=O)N[C@@]2(C(=O)OCCOCCOC(=O)c3ccc(-c4c5nc(c(-c6cccc(S(=O)(=O)[O-])c6F)c6ccc([nH]6)c(-c6cccc(S(=O)(=O)[O-])c6F)c6nc(c(-c7cccc(S(=O)(=O)[O-])c7F)c7ccc4[nH]7)C=C6)C=C5)cc3)CCCC[C@H]2C)n1
REMARK SMILES IDX 16 1 15 2 14 3 13 4 11 5 12 6 10 7 85 8 89 9 86 10 88 11
REMARK SMILES IDX 90 12 87 13 9 14 7 15 8 16 6 18 3 19 4 20 91 21 5 22 2 24
REMARK SMILES IDX 1 25 17 26 18 27 19 28 20 29 21 30 22 31 23 32 84 33 24 34
REMARK SMILES IDX 83 35 25 36 26 37 27 38 77 39 28 40 82 41 76 42 78 43 29 44
REMARK SMILES IDX 81 45 75 46 74 47 30 49 62 50 42 51 61 52 43 53 46 54 60 55
REMARK SMILES IDX 79 56 44 57 45 58 59 60 80 61 47 62 31 63 32 64 40 65 33 66
REMARK SMILES IDX 35 67 41 68 34 69 36 70 37 71 38 72 39 73 63 74 64 75 72 76
REMARK SMILES IDX 65 77 67 78 73 79 66 80 68 81 69 82 70 83 71 84 48 85 49 86
REMARK SMILES IDX 57 87 50 88 52 89 58 90 51 91 53 92 54 93 55 94 56 95
REMARK H PARENT 9 17 5 23 78 48 46 59
REMARK Flexibility Score: inf
ROOT
ATOM      1  O   UNL A   1      35.426  23.113  23.260  1.00  0.00    -0.374 OA
ENDROOT
BRANCH   1   2
ATOM      2  C   UNL A   1      34.146  23.108  22.650  1.00  0.00     0.202 C 
BRANCH   2   3
ATOM      3  C   UNL A   1      32.850  23.809  23.132  1.00  0.00     0.261 C 
BRANCH   3   4
ATOM      4  O   UNL A   1      32.408  25.073  22.643  1.00  0.00    -0.461 OA
BRANCH   4   5
ATOM      5  C   UNL A   1      32.663  26.127  23.453  1.00  0.00     0.332 C 
ATOM      6  O   UNL A   1      33.801  26.488  23.734  1.00  0.00    -0.249 OA
BRANCH   5   7
ATOM      7  C   UNL A   1      31.382  26.903  23.870  1.00  0.00     0.141 C 
ATOM      8  C   UNL A   1      30.118  26.016  23.814  1.00  0.00     0.041 C 
ATOM      9  C   UNL A   1      31.241  28.110  22.848  1.00  0.00     0.023 C 
ATOM     10  C   UNL A   1      28.825  26.828  23.934  1.00  0.00     0.003 C 
ATOM     11  C   UNL A   1      29.863  28.797  22.817  1.00  0.00     0.006 C 
ATOM     12  C   UNL A   1      32.299  29.214  23.015  1.00  0.00     0.011 C 
ATOM     13  C   UNL A   1      28.703  27.821  22.791  1.00  0.00     0.000 C 
BRANCH   7  14
ATOM     14  N   UNL A   1      31.574  27.398  25.261  1.00  0.00    -0.333 N 
ATOM     15  C   UNL A   1      31.657  26.719  26.471  1.00  0.00     0.289 C 
ATOM     16  O   UNL A   1      31.833  27.431  27.466  1.00  0.00    -0.266 OA
ATOM     17  H   UNL A   1      31.656  28.376  25.337  1.00  0.00     0.165 HD
BRANCH  15  18
ATOM     18  C   UNL A   1      31.693  25.266  26.581  1.00  0.00     0.214 A 
ATOM     19  C   UNL A   1      32.188  23.251  27.052  1.00  0.00     0.151 A 
ATOM     20  N   UNL A   1      30.857  23.266  27.196  1.00  0.00    -0.158 NA
ATOM     21  N   UNL A   1      32.728  24.438  26.585  1.00  0.00    -0.207 NA
ATOM     22  N   UNL A   1      30.575  24.549  26.912  1.00  0.00    -0.255 N 
ATOM     23  H   UNL A   1      29.667  24.929  26.940  1.00  0.00     0.192 HD
BRANCH  19  24
ATOM     24  C   UNL A   1      33.027  22.147  27.602  1.00  0.00     0.076 C 
ATOM     25  C   UNL A   1      33.561  21.167  26.576  1.00  0.00     0.012 C 
ENDBRANCH  19  24
ENDBRANCH  15  18
ENDBRANCH   7  14
ENDBRANCH   5   7
ENDBRANCH   4   5
ENDBRANCH   3   4
ENDBRANCH   2   3
ENDBRANCH   1   2
BRANCH   1  26
ATOM     26  C   UNL A   1      35.867  22.107  24.144  1.00  0.00     0.202 C 
BRANCH  26  27
ATOM     27  C   UNL A   1      37.352  21.880  24.364  1.00  0.00     0.261 C 
BRANCH  27  28
ATOM     28  O   UNL A   1      37.644  21.517  25.707  1.00  0.00    -0.460 OA
BRANCH  28  29
ATOM     29  C   UNL A   1      38.968  21.418  25.944  1.00  0.00     0.338 C 
ATOM     30  O   UNL A   1      39.742  20.572  25.512  1.00  0.00    -0.246 OA
BRANCH  29  31
ATOM     31  C   UNL A   1      39.404  22.593  26.697  1.00  0.00     0.060 A 
ATOM     32  C   UNL A   1      38.678  23.777  26.518  1.00  0.00     0.016 A 
ATOM     33  C   UNL A   1      40.535  22.545  27.515  1.00  0.00     0.016 A 
ATOM     34  C   UNL A   1      39.129  24.946  27.100  1.00  0.00     0.010 A 
ATOM     35  C   UNL A   1      40.997  23.724  28.086  1.00  0.00     0.010 A 
ATOM     36  C   UNL A   1      40.325  24.929  27.826  1.00  0.00    -0.014 A 
BRANCH  36  37
ATOM     37  C   UNL A   1      40.987  26.213  28.104  1.00  0.00     0.031 A 
ATOM     38  C   UNL A   1      42.392  26.401  27.612  1.00  0.00     0.074 A 
ATOM     39  C   UNL A   1      40.319  27.186  28.740  1.00  0.00     0.049 A 
ATOM     40  N   UNL A   1      43.175  27.436  27.730  1.00  0.00    -0.248 NA
ATOM     41  C   UNL A   1      43.000  25.265  26.893  1.00  0.00     0.031 C 
ATOM     42  C   UNL A   1      38.945  27.085  29.232  1.00  0.00     0.029 A 
ATOM     43  N   UNL A   1      40.715  28.446  29.091  1.00  0.00    -0.354 N 
ATOM     44  C   UNL A   1      44.373  27.071  27.130  1.00  0.00     0.074 A 
ATOM     45  C   UNL A   1      44.225  25.712  26.664  1.00  0.00     0.031 C 
ATOM     46  C   UNL A   1      38.621  28.233  29.849  1.00  0.00     0.029 A 
ATOM     47  C   UNL A   1      39.771  29.132  29.812  1.00  0.00     0.049 A 
ATOM     48  H   UNL A   1      41.592  28.825  28.849  1.00  0.00     0.167 HD
ATOM     49  C   UNL A   1      45.493  27.813  26.974  1.00  0.00     0.034 A 
ATOM     50  C   UNL A   1      39.848  30.343  30.394  1.00  0.00     0.034 A 
ATOM     51  C   UNL A   1      45.609  29.168  27.436  1.00  0.00     0.049 A 
ATOM     52  C   UNL A   1      41.112  31.141  30.219  1.00  0.00     0.074 A 
ATOM     53  C   UNL A   1      46.678  30.033  27.306  1.00  0.00     0.029 A 
ATOM     54  N   UNL A   1      44.621  29.849  28.132  1.00  0.00    -0.354 N 
ATOM     55  N   UNL A   1      42.207  30.822  29.570  1.00  0.00    -0.248 NA
ATOM     56  C   UNL A   1      41.138  32.479  30.821  1.00  0.00     0.031 C 
ATOM     57  C   UNL A   1      46.350  31.227  27.956  1.00  0.00     0.029 A 
ATOM     58  C   UNL A   1      45.057  31.121  28.449  1.00  0.00     0.049 A 
ATOM     59  H   UNL A   1      43.739  29.479  28.366  1.00  0.00     0.167 HD
ATOM     60  C   UNL A   1      43.035  31.935  29.647  1.00  0.00     0.074 A 
ATOM     61  C   UNL A   1      42.305  32.941  30.395  1.00  0.00     0.031 C 
ATOM     62  C   UNL A   1      44.286  32.114  29.153  1.00  0.00     0.034 A 
BRANCH  49  63
ATOM     63  C   UNL A   1      46.666  27.178  26.276  1.00  0.00     0.023 A 
ATOM     64  C   UNL A   1      46.758  27.219  24.870  1.00  0.00     0.012 A 
ATOM     65  C   UNL A   1      47.699  26.575  27.019  1.00  0.00     0.148 A 
ATOM     66  C   UNL A   1      47.846  26.644  24.212  1.00  0.00     0.002 A 
ATOM     67  C   UNL A   1      48.803  26.047  26.360  1.00  0.00     0.091 A 
ATOM     68  F   UNL A   1      47.579  26.519  28.352  1.00  0.00    -0.205 F 
ATOM     69  C   UNL A   1      48.873  26.070  24.957  1.00  0.00     0.022 A 
BRANCH  67  70
ATOM     70  S   UNL A   1      50.213  25.357  27.231  1.00  0.00     0.127 S 
ATOM     71  O   UNL A   1      50.607  26.473  28.089  1.00  0.00    -0.237 OA
ATOM     72  O   UNL A   1      49.610  24.226  27.939  1.00  0.00    -0.237 OA
ATOM     73  O   UNL A   1      51.179  24.989  26.206  1.00  0.00    -0.744 OA
ENDBRANCH  67  70
ENDBRANCH  49  63
BRANCH  50  74
ATOM     74  C   UNL A   1      38.689  30.876  31.160  1.00  0.00     0.023 A 
ATOM     75  C   UNL A   1      38.702  30.832  32.568  1.00  0.00     0.012 A 
ATOM     76  C   UNL A   1      37.587  31.451  30.500  1.00  0.00     0.148 A 
ATOM     77  C   UNL A   1      37.619  31.318  33.302  1.00  0.00     0.002 A 
ATOM     78  C   UNL A   1      36.539  31.985  31.237  1.00  0.00     0.091 A 
ATOM     79  F   UNL A   1      37.592  31.474  29.160  1.00  0.00    -0.205 F 
ATOM     80  C   UNL A   1      36.543  31.903  32.638  1.00  0.00     0.022 A 
BRANCH  78  81
ATOM     81  S   UNL A   1      35.179  32.873  30.471  1.00  0.00     0.127 S 
ATOM     82  O   UNL A   1      34.777  31.948  29.413  1.00  0.00    -0.237 OA
ATOM     83  O   UNL A   1      34.233  32.991  31.581  1.00  0.00    -0.237 OA
ATOM     84  O   UNL A   1      35.739  34.140  30.023  1.00  0.00    -0.744 OA
ENDBRANCH  78  81
ENDBRANCH  50  74
BRANCH  62  85
ATOM     85  C   UNL A   1      44.920  33.464  29.350  1.00  0.00     0.023 A 
ATOM     86  C   UNL A   1      45.652  33.740  30.522  1.00  0.00     0.012 A 
ATOM     87  C   UNL A   1      44.846  34.437  28.334  1.00  0.00     0.148 A 
ATOM     88  C   UNL A   1      46.263  34.980  30.697  1.00  0.00     0.002 A 
ATOM     89  C   UNL A   1      45.506  35.647  28.490  1.00  0.00     0.091 A 
ATOM     90  F   UNL A   1      44.131  34.158  27.233  1.00  0.00    -0.205 F 
ATOM     91  C   UNL A   1      46.200  35.927  29.678  1.00  0.00     0.022 A 
BRANCH  89  92
ATOM     92  S   UNL A   1      45.568  36.882  27.187  1.00  0.00     0.127 S 
ATOM     93  O   UNL A   1      44.161  37.258  27.068  1.00  0.00    -0.237 OA
ATOM     94  O   UNL A   1      46.427  37.909  27.777  1.00  0.00    -0.237 OA
ATOM     95  O   UNL A   1      46.136  36.213  26.026  1.00  0.00    -0.744 OA
ENDBRANCH  89  92
ENDBRANCH  62  85
ENDBRANCH  36  37
ENDBRANCH  29  31
ENDBRANCH  28  29
ENDBRANCH  27  28
ENDBRANCH  26  27
ENDBRANCH   1  26
TORSDOF 20
ENDMDL
