MODEL 1
REMARK VINA RESULT:     -11.4      0.000      0.000
REMARK SMILES CN(C)C(=O)c1ccc2c(c1)N(CC(=O)OCCOCCOC(=O)c1ccc(-c3c4nc(c(-c5cccc(S(=O)(=O)[O-])c5F)c5ccc([nH]5)c(-c5cccc(S(=O)(=O)[O-])c5F)c5nc(c(-c6cccc(S(=O)(=O)[O-])c6F)c6ccc3[nH]6)C=C5)C=C4)cc1)C(=O)[C@@H]1CCCCN21
REMARK SMILES IDX 20 1 19 2 18 3 17 4 16 5 14 6 15 7 13 8 12 9 6 10 7 11 11 12
REMARK SMILES IDX 8 13 10 14 9 15 95 16 88 17 90 18 94 19 89 20 91 21 93 22
REMARK SMILES IDX 92 23 4 24 1 25 2 26 3 27 5 28 21 29 22 30 23 31 24 32 25 33
REMARK SMILES IDX 26 34 87 35 27 36 86 37 28 38 29 39 30 40 80 41 31 42 85 43
REMARK SMILES IDX 79 44 81 45 32 46 84 47 78 48 77 49 33 51 65 52 45 53 64 54
REMARK SMILES IDX 46 55 49 56 63 57 82 58 47 59 48 60 62 62 83 63 50 64 34 65
REMARK SMILES IDX 35 66 43 67 36 68 38 69 44 70 37 71 39 72 40 73 41 74 42 75
REMARK SMILES IDX 66 76 67 77 75 78 68 79 70 80 76 81 69 82 71 83 72 84 73 85
REMARK SMILES IDX 74 86 51 87 52 88 60 89 53 90 55 91 61 92 54 93 56 94 57 95
REMARK SMILES IDX 58 96 59 97
REMARK H PARENT 81 50 49 61
REMARK Flexibility Score: inf
ROOT
ATOM      1  C   UNL A   1      31.451  31.960  26.525  1.00  0.00     0.202 C 
ENDROOT
BRANCH   1   2
ATOM      2  O   UNL A   1      31.365  30.705  27.179  1.00  0.00    -0.374 OA
BRANCH   2   3
ATOM      3  C   UNL A   1      32.010  29.633  26.479  1.00  0.00     0.202 C 
BRANCH   3   4
ATOM      4  C   UNL A   1      33.368  29.162  27.051  1.00  0.00     0.261 C 
BRANCH   4   5
ATOM      5  O   UNL A   1      34.342  28.886  26.013  1.00  0.00    -0.462 OA
BRANCH   5   6
ATOM      6  C   UNL A   1      34.111  27.788  25.245  1.00  0.00     0.326 C 
ATOM      7  O   UNL A   1      34.046  27.816  24.018  1.00  0.00    -0.250 OA
BRANCH   6   8
ATOM      8  C   UNL A   1      33.935  26.455  26.011  1.00  0.00     0.248 C 
BRANCH   8   9
ATOM      9  N   UNL A   1      33.464  25.196  25.413  1.00  0.00    -0.297 N 
ATOM     10  C   UNL A   1      30.107  26.020  23.825  1.00  0.00     0.042 A 
ATOM     11  C   UNL A   1      29.824  24.792  23.232  1.00  0.00     0.016 A 
ATOM     12  C   UNL A   1      31.228  26.106  24.676  1.00  0.00     0.042 A 
ATOM     13  C   UNL A   1      30.659  23.685  23.445  1.00  0.00     0.029 A 
ATOM     14  C   UNL A   1      32.153  25.016  24.816  1.00  0.00     0.069 A 
ATOM     15  C   UNL A   1      31.841  23.753  24.217  1.00  0.00     0.062 A 
ATOM     16  N   UNL A   1      32.674  22.637  24.351  1.00  0.00    -0.358 N 
ATOM     17  C   UNL A   1      34.367  24.134  25.477  1.00  0.00     0.250 C 
ATOM     18  C   UNL A   1      33.780  22.725  25.318  1.00  0.00     0.172 C 
ATOM     19  C   UNL A   1      32.594  21.459  23.472  1.00  0.00     0.117 C 
ATOM     20  O   UNL A   1      35.544  24.308  25.806  1.00  0.00    -0.272 OA
ATOM     21  C   UNL A   1      34.894  21.723  24.989  1.00  0.00     0.035 C 
ATOM     22  C   UNL A   1      33.142  20.161  24.079  1.00  0.00     0.022 C 
ATOM     23  C   UNL A   1      34.343  20.310  25.001  1.00  0.00     0.004 C 
BRANCH  10  24
ATOM     24  C   UNL A   1      29.059  27.078  23.680  1.00  0.00     0.253 C 
ATOM     25  C   UNL A   1      28.068  29.103  22.731  1.00  0.00     0.146 C 
ATOM     26  N   UNL A   1      29.246  28.302  23.015  1.00  0.00    -0.345 N 
ATOM     27  C   UNL A   1      30.459  28.847  22.431  1.00  0.00     0.146 C 
ATOM     28  O   UNL A   1      27.953  26.746  24.117  1.00  0.00    -0.269 OA
ENDBRANCH  10  24
ENDBRANCH   8   9
ENDBRANCH   6   8
ENDBRANCH   5   6
ENDBRANCH   4   5
ENDBRANCH   3   4
ENDBRANCH   2   3
ENDBRANCH   1   2
BRANCH   1  29
ATOM     29  C   UNL A   1      32.128  33.125  27.223  1.00  0.00     0.261 C 
BRANCH  29  30
ATOM     30  O   UNL A   1      33.354  32.731  27.748  1.00  0.00    -0.460 OA
BRANCH  30  31
ATOM     31  C   UNL A   1      34.193  33.739  28.046  1.00  0.00     0.338 C 
ATOM     32  O   UNL A   1      34.045  34.938  27.921  1.00  0.00    -0.246 OA
BRANCH  31  33
ATOM     33  C   UNL A   1      35.257  33.004  28.710  1.00  0.00     0.060 A 
ATOM     34  C   UNL A   1      36.544  33.568  28.691  1.00  0.00     0.016 A 
ATOM     35  C   UNL A   1      35.006  31.699  29.120  1.00  0.00     0.016 A 
ATOM     36  C   UNL A   1      37.614  32.788  29.043  1.00  0.00     0.010 A 
ATOM     37  C   UNL A   1      36.078  30.941  29.548  1.00  0.00     0.010 A 
ATOM     38  C   UNL A   1      37.369  31.494  29.517  1.00  0.00    -0.014 A 
BRANCH  38  39
ATOM     39  C   UNL A   1      38.472  30.807  30.183  1.00  0.00     0.031 A 
ATOM     40  C   UNL A   1      39.258  29.765  29.477  1.00  0.00     0.074 A 
ATOM     41  C   UNL A   1      38.710  31.193  31.448  1.00  0.00     0.049 A 
ATOM     42  N   UNL A   1      40.276  29.090  29.926  1.00  0.00    -0.248 NA
ATOM     43  C   UNL A   1      38.857  29.425  28.100  1.00  0.00     0.031 C 
ATOM     44  C   UNL A   1      37.933  32.204  32.179  1.00  0.00     0.029 A 
ATOM     45  N   UNL A   1      39.665  30.801  32.336  1.00  0.00    -0.354 N 
ATOM     46  C   UNL A   1      40.623  28.221  28.907  1.00  0.00     0.074 A 
ATOM     47  C   UNL A   1      39.711  28.451  27.810  1.00  0.00     0.031 C 
ATOM     48  C   UNL A   1      38.463  32.372  33.395  1.00  0.00     0.029 A 
ATOM     49  C   UNL A   1      39.579  31.451  33.542  1.00  0.00     0.049 A 
ATOM     50  H   UNL A   1      40.347  30.121  32.135  1.00  0.00     0.167 HD
ATOM     51  C   UNL A   1      41.633  27.325  28.908  1.00  0.00     0.034 A 
ATOM     52  C   UNL A   1      40.321  31.305  34.650  1.00  0.00     0.034 A 
ATOM     53  C   UNL A   1      42.529  27.152  30.019  1.00  0.00     0.049 A 
ATOM     54  C   UNL A   1      41.437  30.312  34.610  1.00  0.00     0.074 A 
ATOM     55  C   UNL A   1      43.619  26.309  30.117  1.00  0.00     0.029 A 
ATOM     56  N   UNL A   1      42.431  27.832  31.225  1.00  0.00    -0.354 N 
ATOM     57  N   UNL A   1      41.819  29.557  33.606  1.00  0.00    -0.248 NA
ATOM     58  C   UNL A   1      42.232  30.153  35.829  1.00  0.00     0.031 C 
ATOM     59  C   UNL A   1      44.171  26.469  31.391  1.00  0.00     0.029 A 
ATOM     60  C   UNL A   1      43.435  27.423  32.080  1.00  0.00     0.049 A 
ATOM     61  H   UNL A   1      41.747  28.506  31.439  1.00  0.00     0.167 HD
ATOM     62  C   UNL A   1      42.908  28.837  34.067  1.00  0.00     0.074 A 
ATOM     63  C   UNL A   1      43.135  29.263  35.437  1.00  0.00     0.031 C 
ATOM     64  C   UNL A   1      43.643  27.899  33.424  1.00  0.00     0.034 A 
BRANCH  51  65
ATOM     65  C   UNL A   1      41.850  26.497  27.677  1.00  0.00     0.023 A 
ATOM     66  C   UNL A   1      42.455  27.085  26.549  1.00  0.00     0.012 A 
ATOM     67  C   UNL A   1      41.547  25.124  27.669  1.00  0.00     0.148 A 
ATOM     68  C   UNL A   1      42.755  26.315  25.426  1.00  0.00     0.002 A 
ATOM     69  C   UNL A   1      41.876  24.356  26.558  1.00  0.00     0.091 A 
ATOM     70  F   UNL A   1      40.953  24.595  28.748  1.00  0.00    -0.205 F 
ATOM     71  C   UNL A   1      42.478  24.950  25.436  1.00  0.00     0.022 A 
BRANCH  69  72
ATOM     72  S   UNL A   1      41.603  22.582  26.484  1.00  0.00     0.127 S 
ATOM     73  O   UNL A   1      40.141  22.508  26.485  1.00  0.00    -0.237 OA
ATOM     74  O   UNL A   1      42.231  22.231  25.211  1.00  0.00    -0.237 OA
ATOM     75  O   UNL A   1      42.247  22.023  27.664  1.00  0.00    -0.744 OA
ENDBRANCH  69  72
ENDBRANCH  51  65
BRANCH  52  76
ATOM     76  C   UNL A   1      40.038  32.165  35.825  1.00  0.00     0.023 A 
ATOM     77  C   UNL A   1      40.693  33.404  35.940  1.00  0.00     0.012 A 
ATOM     78  C   UNL A   1      39.029  31.825  36.747  1.00  0.00     0.148 A 
ATOM     79  C   UNL A   1      40.352  34.291  36.961  1.00  0.00     0.002 A 
ATOM     80  C   UNL A   1      38.667  32.728  37.739  1.00  0.00     0.091 A 
ATOM     81  F   UNL A   1      38.409  30.645  36.602  1.00  0.00    -0.205 F 
ATOM     82  C   UNL A   1      39.335  33.959  37.852  1.00  0.00     0.022 A 
BRANCH  80  83
ATOM     83  S   UNL A   1      37.294  32.440  38.859  1.00  0.00     0.127 S 
ATOM     84  O   UNL A   1      37.540  33.443  39.893  1.00  0.00    -0.237 OA
ATOM     85  O   UNL A   1      36.143  32.713  37.998  1.00  0.00    -0.237 OA
ATOM     86  O   UNL A   1      37.415  31.054  39.288  1.00  0.00    -0.744 OA
ENDBRANCH  80  83
ENDBRANCH  52  76
BRANCH  64  87
ATOM     87  C   UNL A   1      44.764  27.264  34.190  1.00  0.00     0.023 A 
ATOM     88  C   UNL A   1      46.034  27.869  34.174  1.00  0.00     0.012 A 
ATOM     89  C   UNL A   1      44.518  26.160  35.026  1.00  0.00     0.148 A 
ATOM     90  C   UNL A   1      47.052  27.379  34.988  1.00  0.00     0.002 A 
ATOM     91  C   UNL A   1      45.526  25.701  35.859  1.00  0.00     0.091 A 
ATOM     92  F   UNL A   1      43.297  25.605  35.007  1.00  0.00    -0.205 F 
ATOM     93  C   UNL A   1      46.795  26.306  35.838  1.00  0.00     0.022 A 
BRANCH  91  94
ATOM     94  S   UNL A   1      45.270  24.378  37.046  1.00  0.00     0.127 S 
ATOM     95  O   UNL A   1      44.154  24.899  37.833  1.00  0.00    -0.237 OA
ATOM     96  O   UNL A   1      44.936  23.249  36.178  1.00  0.00    -0.237 OA
ATOM     97  O   UNL A   1      46.525  24.238  37.774  1.00  0.00    -0.744 OA
ENDBRANCH  91  94
ENDBRANCH  64  87
ENDBRANCH  38  39
ENDBRANCH  31  33
ENDBRANCH  30  31
ENDBRANCH  29  30
ENDBRANCH   1  29
TORSDOF 19
ENDMDL
MODEL 2
REMARK VINA RESULT:     -11.2      1.955      7.737
REMARK SMILES CN(C)C(=O)c1ccc2c(c1)N(CC(=O)OCCOCCOC(=O)c1ccc(-c3c4nc(c(-c5cccc(S(=O)(=O)[O-])c5F)c5ccc([nH]5)c(-c5cccc(S(=O)(=O)[O-])c5F)c5nc(c(-c6cccc(S(=O)(=O)[O-])c6F)c6ccc3[nH]6)C=C5)C=C4)cc1)C(=O)[C@@H]1CCCCN21
REMARK SMILES IDX 20 1 19 2 18 3 17 4 16 5 14 6 15 7 13 8 12 9 6 10 7 11 11 12
REMARK SMILES IDX 8 13 10 14 9 15 95 16 88 17 90 18 94 19 89 20 91 21 93 22
REMARK SMILES IDX 92 23 4 24 1 25 2 26 3 27 5 28 21 29 22 30 23 31 24 32 25 33
REMARK SMILES IDX 26 34 87 35 27 36 86 37 28 38 29 39 30 40 80 41 31 42 85 43
REMARK SMILES IDX 79 44 81 45 32 46 84 47 78 48 77 49 33 51 65 52 45 53 64 54
REMARK SMILES IDX 46 55 49 56 63 57 82 58 47 59 48 60 62 62 83 63 50 64 34 65
REMARK SMILES IDX 35 66 43 67 36 68 38 69 44 70 37 71 39 72 40 73 41 74 42 75
REMARK SMILES IDX 66 76 67 77 75 78 68 79 70 80 76 81 69 82 71 83 72 84 73 85
REMARK SMILES IDX 74 86 51 87 52 88 60 89 53 90 55 91 61 92 54 93 56 94 57 95
REMARK SMILES IDX 58 96 59 97
REMARK H PARENT 81 50 49 61
REMARK Flexibility Score: inf
ROOT
ATOM      1  C   UNL A   1      33.325  32.258  27.617  1.00  0.00     0.202 C 
ENDROOT
BRANCH   1   2
ATOM      2  O   UNL A   1      34.438  31.610  28.208  1.00  0.00    -0.374 OA
BRANCH   2   3
ATOM      3  C   UNL A   1      34.824  30.394  27.556  1.00  0.00     0.202 C 
BRANCH   3   4
ATOM      4  C   UNL A   1      33.682  29.406  27.217  1.00  0.00     0.261 C 
BRANCH   4   5
ATOM      5  O   UNL A   1      33.383  29.369  25.799  1.00  0.00    -0.462 OA
BRANCH   5   6
ATOM      6  C   UNL A   1      33.833  28.284  25.115  1.00  0.00     0.326 C 
ATOM      7  O   UNL A   1      34.231  28.326  23.952  1.00  0.00    -0.250 OA
BRANCH   6   8
ATOM      8  C   UNL A   1      33.832  26.948  25.896  1.00  0.00     0.248 C 
BRANCH   8   9
ATOM      9  N   UNL A   1      33.409  25.650  25.344  1.00  0.00    -0.297 N 
ATOM     10  C   UNL A   1      30.033  26.291  23.714  1.00  0.00     0.042 A 
ATOM     11  C   UNL A   1      29.798  25.031  23.168  1.00  0.00     0.016 A 
ATOM     12  C   UNL A   1      31.145  26.449  24.566  1.00  0.00     0.042 A 
ATOM     13  C   UNL A   1      30.672  23.964  23.425  1.00  0.00     0.029 A 
ATOM     14  C   UNL A   1      32.109  25.400  24.750  1.00  0.00     0.069 A 
ATOM     15  C   UNL A   1      31.846  24.105  24.198  1.00  0.00     0.062 A 
ATOM     16  N   UNL A   1      32.719  23.026  24.377  1.00  0.00    -0.358 N 
ATOM     17  C   UNL A   1      34.350  24.625  25.451  1.00  0.00     0.250 C 
ATOM     18  C   UNL A   1      33.816  23.191  25.344  1.00  0.00     0.172 C 
ATOM     19  C   UNL A   1      32.686  21.814  23.543  1.00  0.00     0.117 C 
ATOM     20  O   UNL A   1      35.519  24.855  25.778  1.00  0.00    -0.272 OA
ATOM     21  C   UNL A   1      34.968  22.218  25.057  1.00  0.00     0.035 C 
ATOM     22  C   UNL A   1      33.279  20.560  24.201  1.00  0.00     0.022 C 
ATOM     23  C   UNL A   1      34.468  20.788  25.120  1.00  0.00     0.004 C 
BRANCH  10  24
ATOM     24  C   UNL A   1      28.947  27.303  23.526  1.00  0.00     0.253 C 
ATOM     25  C   UNL A   1      27.919  29.298  22.552  1.00  0.00     0.146 C 
ATOM     26  N   UNL A   1      29.115  28.545  22.890  1.00  0.00    -0.345 N 
ATOM     27  C   UNL A   1      30.332  29.153  22.383  1.00  0.00     0.146 C 
ATOM     28  O   UNL A   1      27.835  26.915  23.895  1.00  0.00    -0.269 OA
ENDBRANCH  10  24
ENDBRANCH   8   9
ENDBRANCH   6   8
ENDBRANCH   5   6
ENDBRANCH   4   5
ENDBRANCH   3   4
ENDBRANCH   2   3
ENDBRANCH   1   2
BRANCH   1  29
ATOM     29  C   UNL A   1      33.147  33.755  27.791  1.00  0.00     0.261 C 
BRANCH  29  30
ATOM     30  O   UNL A   1      32.672  34.042  29.068  1.00  0.00    -0.460 OA
BRANCH  30  31
ATOM     31  C   UNL A   1      33.223  35.124  29.646  1.00  0.00     0.338 C 
ATOM     32  O   UNL A   1      32.823  36.270  29.694  1.00  0.00    -0.246 OA
BRANCH  31  33
ATOM     33  C   UNL A   1      34.342  34.506  30.337  1.00  0.00     0.060 A 
ATOM     34  C   UNL A   1      35.606  34.590  29.728  1.00  0.00     0.016 A 
ATOM     35  C   UNL A   1      34.078  33.680  31.424  1.00  0.00     0.016 A 
ATOM     36  C   UNL A   1      36.618  33.789  30.188  1.00  0.00     0.010 A 
ATOM     37  C   UNL A   1      35.120  32.931  31.933  1.00  0.00     0.010 A 
ATOM     38  C   UNL A   1      36.382  33.000  31.320  1.00  0.00    -0.014 A 
BRANCH  38  39
ATOM     39  C   UNL A   1      37.545  32.412  31.977  1.00  0.00     0.031 A 
ATOM     40  C   UNL A   1      38.002  32.905  33.301  1.00  0.00     0.074 A 
ATOM     41  C   UNL A   1      38.144  31.415  31.305  1.00  0.00     0.049 A 
ATOM     42  N   UNL A   1      38.998  32.468  34.016  1.00  0.00    -0.248 NA
ATOM     43  C   UNL A   1      37.264  34.029  33.902  1.00  0.00     0.031 C 
ATOM     44  C   UNL A   1      37.729  30.925  29.983  1.00  0.00     0.029 A 
ATOM     45  N   UNL A   1      39.209  30.632  31.630  1.00  0.00    -0.354 N 
ATOM     46  C   UNL A   1      39.032  33.278  35.138  1.00  0.00     0.074 A 
ATOM     47  C   UNL A   1      37.957  34.236  35.015  1.00  0.00     0.031 C 
ATOM     48  C   UNL A   1      38.514  29.903  29.625  1.00  0.00     0.029 A 
ATOM     49  C   UNL A   1      39.510  29.703  30.665  1.00  0.00     0.049 A 
ATOM     50  H   UNL A   1      39.712  30.722  32.471  1.00  0.00     0.167 HD
ATOM     51  C   UNL A   1      39.893  33.199  36.175  1.00  0.00     0.034 A 
ATOM     52  C   UNL A   1      40.497  28.794  30.628  1.00  0.00     0.034 A 
ATOM     53  C   UNL A   1      40.933  32.210  36.260  1.00  0.00     0.049 A 
ATOM     54  C   UNL A   1      41.423  28.728  31.799  1.00  0.00     0.074 A 
ATOM     55  C   UNL A   1      41.834  32.001  37.284  1.00  0.00     0.029 A 
ATOM     56  N   UNL A   1      41.209  31.270  35.276  1.00  0.00    -0.354 N 
ATOM     57  N   UNL A   1      41.392  29.440  32.902  1.00  0.00    -0.248 NA
ATOM     58  C   UNL A   1      42.502  27.741  31.740  1.00  0.00     0.031 C 
ATOM     59  C   UNL A   1      42.668  30.943  36.913  1.00  0.00     0.029 A 
ATOM     60  C   UNL A   1      42.275  30.482  35.664  1.00  0.00     0.049 A 
ATOM     61  H   UNL A   1      40.719  31.178  34.428  1.00  0.00     0.167 HD
ATOM     62  C   UNL A   1      42.442  28.980  33.677  1.00  0.00     0.074 A 
ATOM     63  C   UNL A   1      43.078  27.915  32.923  1.00  0.00     0.031 C 
ATOM     64  C   UNL A   1      42.854  29.409  34.894  1.00  0.00     0.034 A 
BRANCH  51  65
ATOM     65  C   UNL A   1      39.731  34.168  37.308  1.00  0.00     0.023 A 
ATOM     66  C   UNL A   1      40.080  35.518  37.116  1.00  0.00     0.012 A 
ATOM     67  C   UNL A   1      39.147  33.764  38.522  1.00  0.00     0.148 A 
ATOM     68  C   UNL A   1      39.850  36.457  38.120  1.00  0.00     0.002 A 
ATOM     69  C   UNL A   1      38.893  34.710  39.508  1.00  0.00     0.091 A 
ATOM     70  F   UNL A   1      38.843  32.469  38.685  1.00  0.00    -0.205 F 
ATOM     71  C   UNL A   1      39.246  36.056  39.309  1.00  0.00     0.022 A 
BRANCH  69  72
ATOM     72  S   UNL A   1      38.080  34.309  41.058  1.00  0.00     0.127 S 
ATOM     73  O   UNL A   1      36.922  33.543  40.594  1.00  0.00    -0.237 OA
ATOM     74  O   UNL A   1      39.101  33.519  41.743  1.00  0.00    -0.237 OA
ATOM     75  O   UNL A   1      37.761  35.583  41.689  1.00  0.00    -0.744 OA
ENDBRANCH  69  72
ENDBRANCH  51  65
BRANCH  52  76
ATOM     76  C   UNL A   1      40.584  27.874  29.467  1.00  0.00     0.023 A 
ATOM     77  C   UNL A   1      39.679  26.802  29.375  1.00  0.00     0.012 A 
ATOM     78  C   UNL A   1      41.461  28.137  28.397  1.00  0.00     0.148 A 
ATOM     79  C   UNL A   1      39.649  25.999  28.235  1.00  0.00     0.002 A 
ATOM     80  C   UNL A   1      41.400  27.357  27.248  1.00  0.00     0.091 A 
ATOM     81  F   UNL A   1      42.299  29.178  28.505  1.00  0.00    -0.205 F 
ATOM     82  C   UNL A   1      40.501  26.282  27.170  1.00  0.00     0.022 A 
BRANCH  80  83
ATOM     83  S   UNL A   1      42.373  27.715  25.782  1.00  0.00     0.127 S 
ATOM     84  O   UNL A   1      43.735  27.545  26.282  1.00  0.00    -0.237 OA
ATOM     85  O   UNL A   1      41.920  26.672  24.860  1.00  0.00    -0.237 OA
ATOM     86  O   UNL A   1      42.015  29.069  25.387  1.00  0.00    -0.744 OA
ENDBRANCH  80  83
ENDBRANCH  52  76
BRANCH  64  87
ATOM     87  C   UNL A   1      44.049  28.731  35.491  1.00  0.00     0.023 A 
ATOM     88  C   UNL A   1      45.330  29.260  35.248  1.00  0.00     0.012 A 
ATOM     89  C   UNL A   1      43.885  27.667  36.396  1.00  0.00     0.148 A 
ATOM     90  C   UNL A   1      46.440  28.733  35.903  1.00  0.00     0.002 A 
ATOM     91  C   UNL A   1      44.990  27.172  37.072  1.00  0.00     0.091 A 
ATOM     92  F   UNL A   1      42.650  27.185  36.596  1.00  0.00    -0.205 F 
ATOM     93  C   UNL A   1      46.268  27.702  36.823  1.00  0.00     0.022 A 
BRANCH  91  94
ATOM     94  S   UNL A   1      44.861  25.901  38.332  1.00  0.00     0.127 S 
ATOM     95  O   UNL A   1      44.170  26.615  39.404  1.00  0.00    -0.237 OA
ATOM     96  O   UNL A   1      44.059  24.881  37.657  1.00  0.00    -0.237 OA
ATOM     97  O   UNL A   1      46.227  25.497  38.642  1.00  0.00    -0.744 OA
ENDBRANCH  91  94
ENDBRANCH  64  87
ENDBRANCH  38  39
ENDBRANCH  31  33
ENDBRANCH  30  31
ENDBRANCH  29  30
ENDBRANCH   1  29
TORSDOF 19
ENDMDL
MODEL 3
REMARK VINA RESULT:     -11.1      2.521      4.508
REMARK SMILES CN(C)C(=O)c1ccc2c(c1)N(CC(=O)OCCOCCOC(=O)c1ccc(-c3c4nc(c(-c5cccc(S(=O)(=O)[O-])c5F)c5ccc([nH]5)c(-c5cccc(S(=O)(=O)[O-])c5F)c5nc(c(-c6cccc(S(=O)(=O)[O-])c6F)c6ccc3[nH]6)C=C5)C=C4)cc1)C(=O)[C@@H]1CCCCN21
REMARK SMILES IDX 20 1 19 2 18 3 17 4 16 5 14 6 15 7 13 8 12 9 6 10 7 11 11 12
REMARK SMILES IDX 8 13 10 14 9 15 95 16 88 17 90 18 94 19 89 20 91 21 93 22
REMARK SMILES IDX 92 23 4 24 1 25 2 26 3 27 5 28 21 29 22 30 23 31 24 32 25 33
REMARK SMILES IDX 26 34 87 35 27 36 86 37 28 38 29 39 30 40 80 41 31 42 85 43
REMARK SMILES IDX 79 44 81 45 32 46 84 47 78 48 77 49 33 51 65 52 45 53 64 54
REMARK SMILES IDX 46 55 49 56 63 57 82 58 47 59 48 60 62 62 83 63 50 64 34 65
REMARK SMILES IDX 35 66 43 67 36 68 38 69 44 70 37 71 39 72 40 73 41 74 42 75
REMARK SMILES IDX 66 76 67 77 75 78 68 79 70 80 76 81 69 82 71 83 72 84 73 85
REMARK SMILES IDX 74 86 51 87 52 88 60 89 53 90 55 91 61 92 54 93 56 94 57 95
REMARK SMILES IDX 58 96 59 97
REMARK H PARENT 81 50 49 61
REMARK Flexibility Score: inf
ROOT
ATOM      1  C   UNL A   1      33.945  35.025  28.584  1.00  0.00     0.202 C 
ENDROOT
BRANCH   1   2
ATOM      2  O   UNL A   1      34.634  33.842  28.952  1.00  0.00    -0.374 OA
BRANCH   2   3
ATOM      3  C   UNL A   1      34.057  32.640  28.426  1.00  0.00     0.202 C 
BRANCH   3   4
ATOM      4  C   UNL A   1      35.033  31.657  27.738  1.00  0.00     0.261 C 
BRANCH   4   5
ATOM      5  O   UNL A   1      34.810  30.281  28.139  1.00  0.00    -0.462 OA
BRANCH   5   6
ATOM      6  C   UNL A   1      34.325  29.445  27.183  1.00  0.00     0.326 C 
ATOM      7  O   UNL A   1      34.994  29.024  26.241  1.00  0.00    -0.250 OA
BRANCH   6   8
ATOM      8  C   UNL A   1      32.845  29.024  27.345  1.00  0.00     0.248 C 
BRANCH   8   9
ATOM      9  N   UNL A   1      31.932  28.714  26.232  1.00  0.00    -0.297 N 
ATOM     10  C   UNL A   1      31.643  24.922  26.182  1.00  0.00     0.042 A 
ATOM     11  C   UNL A   1      30.703  24.776  25.165  1.00  0.00     0.016 A 
ATOM     12  C   UNL A   1      32.166  26.209  26.424  1.00  0.00     0.042 A 
ATOM     13  C   UNL A   1      30.259  25.888  24.434  1.00  0.00     0.029 A 
ATOM     14  C   UNL A   1      31.643  27.371  25.763  1.00  0.00     0.069 A 
ATOM     15  C   UNL A   1      30.690  27.206  24.706  1.00  0.00     0.062 A 
ATOM     16  N   UNL A   1      30.174  28.291  23.990  1.00  0.00    -0.358 N 
ATOM     17  C   UNL A   1      31.358  29.823  25.609  1.00  0.00     0.250 C 
ATOM     18  C   UNL A   1      30.805  29.604  24.195  1.00  0.00     0.172 C 
ATOM     19  C   UNL A   1      28.950  28.212  23.176  1.00  0.00     0.117 C 
ATOM     20  O   UNL A   1      31.438  30.952  26.103  1.00  0.00    -0.272 OA
ATOM     21  C   UNL A   1      29.854  30.748  23.817  1.00  0.00     0.035 C 
ATOM     22  C   UNL A   1      28.851  29.256  22.056  1.00  0.00     0.022 C 
ATOM     23  C   UNL A   1      29.442  30.623  22.363  1.00  0.00     0.004 C 
BRANCH  10  24
ATOM     24  C   UNL A   1      32.179  23.655  26.770  1.00  0.00     0.253 C 
ATOM     25  C   UNL A   1      33.901  21.982  27.239  1.00  0.00     0.146 C 
ATOM     26  N   UNL A   1      33.394  23.054  26.399  1.00  0.00    -0.345 N 
ATOM     27  C   UNL A   1      34.318  23.438  25.348  1.00  0.00     0.146 C 
ATOM     28  O   UNL A   1      31.502  23.214  27.703  1.00  0.00    -0.269 OA
ENDBRANCH  10  24
ENDBRANCH   8   9
ENDBRANCH   6   8
ENDBRANCH   5   6
ENDBRANCH   4   5
ENDBRANCH   3   4
ENDBRANCH   2   3
ENDBRANCH   1   2
BRANCH   1  29
ATOM     29  C   UNL A   1      32.911  35.616  29.525  1.00  0.00     0.261 C 
BRANCH  29  30
ATOM     30  O   UNL A   1      33.512  36.029  30.710  1.00  0.00    -0.460 OA
BRANCH  30  31
ATOM     31  C   UNL A   1      33.006  35.474  31.825  1.00  0.00     0.338 C 
ATOM     32  O   UNL A   1      31.870  35.485  32.254  1.00  0.00    -0.246 OA
BRANCH  31  33
ATOM     33  C   UNL A   1      34.161  34.722  32.287  1.00  0.00     0.060 A 
ATOM     34  C   UNL A   1      35.430  35.290  32.079  1.00  0.00     0.016 A 
ATOM     35  C   UNL A   1      33.977  33.405  32.691  1.00  0.00     0.016 A 
ATOM     36  C   UNL A   1      36.541  34.504  32.231  1.00  0.00     0.010 A 
ATOM     37  C   UNL A   1      35.103  32.637  32.918  1.00  0.00     0.010 A 
ATOM     38  C   UNL A   1      36.373  33.195  32.698  1.00  0.00    -0.014 A 
BRANCH  38  39
ATOM     39  C   UNL A   1      37.568  32.492  33.156  1.00  0.00     0.031 A 
ATOM     40  C   UNL A   1      38.168  31.401  32.347  1.00  0.00     0.074 A 
ATOM     41  C   UNL A   1      38.064  32.908  34.333  1.00  0.00     0.049 A 
ATOM     42  N   UNL A   1      39.235  30.706  32.610  1.00  0.00    -0.248 NA
ATOM     43  C   UNL A   1      37.490  31.032  31.092  1.00  0.00     0.031 C 
ATOM     44  C   UNL A   1      37.477  33.967  35.166  1.00  0.00     0.029 A 
ATOM     45  N   UNL A   1      39.166  32.511  35.028  1.00  0.00    -0.354 N 
ATOM     46  C   UNL A   1      39.348  29.794  31.575  1.00  0.00     0.074 A 
ATOM     47  C   UNL A   1      38.242  30.021  30.674  1.00  0.00     0.031 C 
ATOM     48  C   UNL A   1      38.244  34.155  36.246  1.00  0.00     0.029 A 
ATOM     49  C   UNL A   1      39.340  33.201  36.202  1.00  0.00     0.049 A 
ATOM     50  H   UNL A   1      39.775  31.802  34.721  1.00  0.00     0.167 HD
ATOM     51  C   UNL A   1      40.313  28.864  31.409  1.00  0.00     0.034 A 
ATOM     52  C   UNL A   1      40.285  33.063  37.145  1.00  0.00     0.034 A 
ATOM     53  C   UNL A   1      41.407  28.694  32.325  1.00  0.00     0.049 A 
ATOM     54  C   UNL A   1      41.343  32.031  36.921  1.00  0.00     0.074 A 
ATOM     55  C   UNL A   1      42.471  27.818  32.236  1.00  0.00     0.029 A 
ATOM     56  N   UNL A   1      41.571  29.415  33.501  1.00  0.00    -0.354 N 
ATOM     57  N   UNL A   1      41.495  31.233  35.890  1.00  0.00    -0.248 NA
ATOM     58  C   UNL A   1      42.360  31.883  37.963  1.00  0.00     0.031 C 
ATOM     59  C   UNL A   1      43.271  27.998  33.368  1.00  0.00     0.029 A 
ATOM     60  C   UNL A   1      42.714  28.998  34.154  1.00  0.00     0.049 A 
ATOM     61  H   UNL A   1      40.962  30.119  33.822  1.00  0.00     0.167 HD
ATOM     62  C   UNL A   1      42.633  30.491  36.153  1.00  0.00     0.074 A 
ATOM     63  C   UNL A   1      43.142  30.950  37.433  1.00  0.00     0.031 C 
ATOM     64  C   UNL A   1      43.200  29.508  35.412  1.00  0.00     0.034 A 
BRANCH  51  65
ATOM     65  C   UNL A   1      40.256  27.992  30.191  1.00  0.00     0.023 A 
ATOM     66  C   UNL A   1      39.297  26.963  30.123  1.00  0.00     0.012 A 
ATOM     67  C   UNL A   1      41.082  28.250  29.081  1.00  0.00     0.148 A 
ATOM     68  C   UNL A   1      39.160  26.201  28.964  1.00  0.00     0.002 A 
ATOM     69  C   UNL A   1      40.920  27.506  27.919  1.00  0.00     0.091 A 
ATOM     70  F   UNL A   1      42.000  29.222  29.181  1.00  0.00    -0.205 F 
ATOM     71  C   UNL A   1      39.962  26.480  27.860  1.00  0.00     0.022 A 
BRANCH  69  72
ATOM     72  S   UNL A   1      41.869  27.812  26.425  1.00  0.00     0.127 S 
ATOM     73  O   UNL A   1      41.489  29.190  26.112  1.00  0.00    -0.237 OA
ATOM     74  O   UNL A   1      43.243  27.649  26.898  1.00  0.00    -0.237 OA
ATOM     75  O   UNL A   1      41.430  26.818  25.456  1.00  0.00    -0.744 OA
ENDBRANCH  69  72
ENDBRANCH  51  65
BRANCH  52  76
ATOM     76  C   UNL A   1      40.266  33.969  38.320  1.00  0.00     0.023 A 
ATOM     77  C   UNL A   1      40.925  35.208  38.239  1.00  0.00     0.012 A 
ATOM     78  C   UNL A   1      39.488  33.668  39.455  1.00  0.00     0.148 A 
ATOM     79  C   UNL A   1      40.816  36.135  39.276  1.00  0.00     0.002 A 
ATOM     80  C   UNL A   1      39.352  34.611  40.467  1.00  0.00     0.091 A 
ATOM     81  F   UNL A   1      38.857  32.486  39.496  1.00  0.00    -0.205 F 
ATOM     82  C   UNL A   1      40.023  35.842  40.383  1.00  0.00     0.022 A 
BRANCH  80  83
ATOM     83  S   UNL A   1      38.262  34.371  41.875  1.00  0.00     0.127 S 
ATOM     84  O   UNL A   1      38.870  33.212  42.524  1.00  0.00    -0.237 OA
ATOM     85  O   UNL A   1      38.422  35.635  42.595  1.00  0.00    -0.237 OA
ATOM     86  O   UNL A   1      36.935  34.154  41.318  1.00  0.00    -0.744 OA
ENDBRANCH  80  83
ENDBRANCH  52  76
BRANCH  64  87
ATOM     87  C   UNL A   1      44.433  28.859  35.962  1.00  0.00     0.023 A 
ATOM     88  C   UNL A   1      45.692  29.404  35.651  1.00  0.00     0.012 A 
ATOM     89  C   UNL A   1      44.329  27.807  36.890  1.00  0.00     0.148 A 
ATOM     90  C   UNL A   1      46.840  28.906  36.262  1.00  0.00     0.002 A 
ATOM     91  C   UNL A   1      45.472  27.342  37.521  1.00  0.00     0.091 A 
ATOM     92  F   UNL A   1      43.112  27.309  37.155  1.00  0.00    -0.205 F 
ATOM     93  C   UNL A   1      46.728  27.887  37.205  1.00  0.00     0.022 A 
BRANCH  91  94
ATOM     94  S   UNL A   1      45.424  26.089  38.806  1.00  0.00     0.127 S 
ATOM     95  O   UNL A   1      45.109  24.886  38.036  1.00  0.00    -0.237 OA
ATOM     96  O   UNL A   1      46.787  26.140  39.334  1.00  0.00    -0.237 OA
ATOM     97  O   UNL A   1      44.390  26.509  39.743  1.00  0.00    -0.744 OA
ENDBRANCH  91  94
ENDBRANCH  64  87
ENDBRANCH  38  39
ENDBRANCH  31  33
ENDBRANCH  30  31
ENDBRANCH  29  30
ENDBRANCH   1  29
TORSDOF 19
ENDMDL
