MODEL 1
REMARK VINA RESULT:     -10.6      0.000      0.000
REMARK SMILES Cc1nc2scc(-c3cccs3)c2c(=O)n1CC(=O)OCCOCCOC(=O)c1ccc(-c2c3nc(c(-c4cccc(S(=O)(=O)[O-])c4F)c4ccc([nH]4)c(-c4cccc(S(=O)(=O)[O-])c4F)c4nc(c(-c5cccc(S(=O)(=O)[O-])c5F)c5ccc2[nH]5)C=C4)C=C3)cc1
REMARK SMILES IDX 24 1 23 2 22 3 21 4 20 5 18 6 19 7 17 8 16 9 1 10 2 11 3 12
REMARK SMILES IDX 4 13 14 14 5 15 13 16 15 17 6 18 7 19 8 20 9 21 12 22 10 23
REMARK SMILES IDX 11 24 25 25 26 26 27 27 28 28 29 29 30 30 91 31 31 32 90 33
REMARK SMILES IDX 32 34 33 35 34 36 84 37 35 38 89 39 83 40 85 41 36 42 88 43
REMARK SMILES IDX 82 44 81 45 37 47 69 48 49 49 68 50 50 51 53 52 67 53 86 54
REMARK SMILES IDX 51 55 52 56 66 58 87 59 54 60 38 61 39 62 47 63 40 64 42 65
REMARK SMILES IDX 48 66 41 67 43 68 44 69 45 70 46 71 70 72 71 73 79 74 72 75
REMARK SMILES IDX 74 76 80 77 73 78 75 79 76 80 77 81 78 82 55 83 56 84 64 85
REMARK SMILES IDX 57 86 59 87 65 88 58 89 60 90 61 91 62 92 63 93
REMARK H PARENT 85 46 53 57
REMARK Flexibility Score: inf
ROOT
ATOM      1  C   UNL A   1      33.341  30.583  26.873  1.00  0.00     0.202 C 
ENDROOT
BRANCH   1   2
ATOM      2  O   UNL A   1      32.227  30.638  25.987  1.00  0.00    -0.374 OA
BRANCH   2   3
ATOM      3  C   UNL A   1      31.805  29.443  25.340  1.00  0.00     0.202 C 
BRANCH   3   4
ATOM      4  C   UNL A   1      32.231  29.222  23.883  1.00  0.00     0.261 C 
BRANCH   4   5
ATOM      5  O   UNL A   1      33.342  28.315  23.717  1.00  0.00    -0.462 OA
BRANCH   5   6
ATOM      6  C   UNL A   1      33.410  27.705  22.503  1.00  0.00     0.326 C 
ATOM      7  O   UNL A   1      34.178  28.037  21.602  1.00  0.00    -0.250 OA
BRANCH   6   8
ATOM      8  C   UNL A   1      32.525  26.469  22.353  1.00  0.00     0.249 C 
BRANCH   8   9
ATOM      9  N   UNL A   1      32.262  25.623  23.521  1.00  0.00    -0.285 N 
ATOM     10  C   UNL A   1      29.911  26.500  23.690  1.00  0.00     0.088 C 
ATOM     11  C   UNL A   1      31.029  25.595  24.161  1.00  0.00     0.110 A 
ATOM     12  N   UNL A   1      30.749  24.838  25.174  1.00  0.00    -0.224 NA
ATOM     13  C   UNL A   1      31.748  24.041  25.614  1.00  0.00     0.131 A 
ATOM     14  C   UNL A   1      33.286  24.729  23.890  1.00  0.00     0.263 A 
ATOM     15  S   UNL A   1      31.537  23.044  26.979  1.00  0.00    -0.123 S 
ATOM     16  C   UNL A   1      33.008  23.933  25.072  1.00  0.00     0.085 A 
ATOM     17  O   UNL A   1      34.321  24.606  23.238  1.00  0.00    -0.268 OA
ATOM     18  C   UNL A   1      33.167  22.533  26.930  1.00  0.00     0.077 A 
ATOM     19  C   UNL A   1      33.838  23.061  25.846  1.00  0.00     0.017 A 
BRANCH  19  20
ATOM     20  C   UNL A   1      35.279  22.752  25.620  1.00  0.00     0.036 A 
ATOM     21  C   UNL A   1      36.302  23.626  25.916  1.00  0.00     0.020 A 
ATOM     22  S   UNL A   1      35.849  21.266  25.013  1.00  0.00    -0.144 S 
ATOM     23  C   UNL A   1      37.576  23.087  25.572  1.00  0.00     0.012 A 
ATOM     24  C   UNL A   1      37.478  21.793  25.106  1.00  0.00     0.065 A 
ENDBRANCH  19  20
ENDBRANCH   8   9
ENDBRANCH   6   8
ENDBRANCH   5   6
ENDBRANCH   4   5
ENDBRANCH   3   4
ENDBRANCH   2   3
ENDBRANCH   1   2
BRANCH   1  25
ATOM     25  C   UNL A   1      33.378  31.559  28.040  1.00  0.00     0.261 C 
BRANCH  25  26
ATOM     26  O   UNL A   1      33.184  32.913  27.641  1.00  0.00    -0.460 OA
BRANCH  26  27
ATOM     27  C   UNL A   1      33.253  33.801  28.665  1.00  0.00     0.338 C 
ATOM     28  O   UNL A   1      32.406  34.611  28.984  1.00  0.00    -0.246 OA
BRANCH  27  29
ATOM     29  C   UNL A   1      34.594  33.760  29.262  1.00  0.00     0.060 A 
ATOM     30  C   UNL A   1      35.614  34.306  28.483  1.00  0.00     0.016 A 
ATOM     31  C   UNL A   1      34.865  32.945  30.368  1.00  0.00     0.016 A 
ATOM     32  C   UNL A   1      36.886  33.813  28.646  1.00  0.00     0.010 A 
ATOM     33  C   UNL A   1      36.140  32.451  30.529  1.00  0.00     0.010 A 
ATOM     34  C   UNL A   1      37.105  32.810  29.597  1.00  0.00    -0.014 A 
BRANCH  34  35
ATOM     35  C   UNL A   1      38.425  32.226  29.656  1.00  0.00     0.031 A 
ATOM     36  C   UNL A   1      38.425  30.823  29.198  1.00  0.00     0.074 A 
ATOM     37  C   UNL A   1      39.517  32.895  30.069  1.00  0.00     0.049 A 
ATOM     38  N   UNL A   1      38.476  29.769  29.942  1.00  0.00    -0.248 NA
ATOM     39  C   UNL A   1      38.095  30.561  27.790  1.00  0.00     0.031 C 
ATOM     40  C   UNL A   1      39.689  34.328  30.316  1.00  0.00     0.029 A 
ATOM     41  N   UNL A   1      40.768  32.403  30.265  1.00  0.00    -0.354 N 
ATOM     42  C   UNL A   1      38.426  28.701  29.056  1.00  0.00     0.074 A 
ATOM     43  C   UNL A   1      37.969  29.234  27.800  1.00  0.00     0.031 C 
ATOM     44  C   UNL A   1      41.015  34.612  30.381  1.00  0.00     0.029 A 
ATOM     45  C   UNL A   1      41.766  33.369  30.338  1.00  0.00     0.049 A 
ATOM     46  H   UNL A   1      40.953  31.440  30.349  1.00  0.00     0.167 HD
ATOM     47  C   UNL A   1      39.025  27.518  29.355  1.00  0.00     0.034 A 
ATOM     48  C   UNL A   1      43.100  33.124  30.301  1.00  0.00     0.034 A 
ATOM     49  C   UNL A   1      39.327  27.420  30.761  1.00  0.00     0.049 A 
ATOM     50  C   UNL A   1      43.288  31.707  30.694  1.00  0.00     0.074 A 
ATOM     51  C   UNL A   1      38.584  27.411  31.924  1.00  0.00     0.029 A 
ATOM     52  N   UNL A   1      40.614  27.717  31.132  1.00  0.00    -0.354 N 
ATOM     53  N   UNL A   1      43.051  31.258  31.891  1.00  0.00    -0.248 NA
ATOM     54  C   UNL A   1      43.334  30.706  29.641  1.00  0.00     0.031 C 
ATOM     55  C   UNL A   1      39.365  28.144  32.866  1.00  0.00     0.029 A 
ATOM     56  C   UNL A   1      40.563  28.507  32.250  1.00  0.00     0.049 A 
ATOM     57  H   UNL A   1      41.433  27.414  30.675  1.00  0.00     0.167 HD
ATOM     58  C   UNL A   1      42.462  30.019  31.681  1.00  0.00     0.074 A 
ATOM     59  C   UNL A   1      42.766  29.686  30.290  1.00  0.00     0.031 C 
ATOM     60  C   UNL A   1      41.545  29.522  32.561  1.00  0.00     0.034 A 
BRANCH  47  61
ATOM     61  C   UNL A   1      39.684  26.625  28.334  1.00  0.00     0.023 A 
ATOM     62  C   UNL A   1      39.370  25.250  28.376  1.00  0.00     0.012 A 
ATOM     63  C   UNL A   1      40.773  27.008  27.516  1.00  0.00     0.148 A 
ATOM     64  C   UNL A   1      40.124  24.305  27.672  1.00  0.00     0.002 A 
ATOM     65  C   UNL A   1      41.461  26.078  26.748  1.00  0.00     0.091 A 
ATOM     66  F   UNL A   1      41.254  28.252  27.574  1.00  0.00    -0.205 F 
ATOM     67  C   UNL A   1      41.163  24.719  26.848  1.00  0.00     0.022 A 
BRANCH  65  68
ATOM     68  S   UNL A   1      42.769  26.575  25.619  1.00  0.00     0.127 S 
ATOM     69  O   UNL A   1      43.810  27.005  26.548  1.00  0.00    -0.237 OA
ATOM     70  O   UNL A   1      43.044  25.322  24.915  1.00  0.00    -0.237 OA
ATOM     71  O   UNL A   1      42.188  27.613  24.779  1.00  0.00    -0.744 OA
ENDBRANCH  65  68
ENDBRANCH  47  61
BRANCH  48  72
ATOM     72  C   UNL A   1      44.217  33.867  29.668  1.00  0.00     0.023 A 
ATOM     73  C   UNL A   1      45.298  34.284  30.476  1.00  0.00     0.012 A 
ATOM     74  C   UNL A   1      44.405  33.823  28.272  1.00  0.00     0.148 A 
ATOM     75  C   UNL A   1      46.548  34.573  29.919  1.00  0.00     0.002 A 
ATOM     76  C   UNL A   1      45.655  34.105  27.723  1.00  0.00     0.091 A 
ATOM     77  F   UNL A   1      43.394  33.405  27.499  1.00  0.00    -0.205 F 
ATOM     78  C   UNL A   1      46.732  34.464  28.545  1.00  0.00     0.022 A 
BRANCH  76  79
ATOM     79  S   UNL A   1      45.998  33.924  25.967  1.00  0.00     0.127 S 
ATOM     80  O   UNL A   1      47.452  34.079  25.925  1.00  0.00    -0.237 OA
ATOM     81  O   UNL A   1      45.519  32.570  25.707  1.00  0.00    -0.237 OA
ATOM     82  O   UNL A   1      45.260  34.996  25.310  1.00  0.00    -0.744 OA
ENDBRANCH  76  79
ENDBRANCH  48  72
BRANCH  60  83
ATOM     83  C   UNL A   1      41.387  30.235  33.884  1.00  0.00     0.023 A 
ATOM     84  C   UNL A   1      42.245  30.008  34.983  1.00  0.00     0.012 A 
ATOM     85  C   UNL A   1      40.439  31.266  33.969  1.00  0.00     0.148 A 
ATOM     86  C   UNL A   1      42.138  30.777  36.147  1.00  0.00     0.002 A 
ATOM     87  C   UNL A   1      40.370  32.061  35.106  1.00  0.00     0.091 A 
ATOM     88  F   UNL A   1      39.628  31.468  32.919  1.00  0.00    -0.205 F 
ATOM     89  C   UNL A   1      41.209  31.813  36.203  1.00  0.00     0.022 A 
BRANCH  87  90
ATOM     90  S   UNL A   1      39.286  33.489  35.178  1.00  0.00     0.127 S 
ATOM     91  O   UNL A   1      39.770  34.180  36.371  1.00  0.00    -0.237 OA
ATOM     92  O   UNL A   1      39.577  34.169  33.915  1.00  0.00    -0.237 OA
ATOM     93  O   UNL A   1      37.931  32.955  35.265  1.00  0.00    -0.744 OA
ENDBRANCH  87  90
ENDBRANCH  60  83
ENDBRANCH  34  35
ENDBRANCH  27  29
ENDBRANCH  26  27
ENDBRANCH  25  26
ENDBRANCH   1  25
TORSDOF 19
ENDMDL
MODEL 2
REMARK VINA RESULT:     -10.6      3.090      6.949
REMARK SMILES Cc1nc2scc(-c3cccs3)c2c(=O)n1CC(=O)OCCOCCOC(=O)c1ccc(-c2c3nc(c(-c4cccc(S(=O)(=O)[O-])c4F)c4ccc([nH]4)c(-c4cccc(S(=O)(=O)[O-])c4F)c4nc(c(-c5cccc(S(=O)(=O)[O-])c5F)c5ccc2[nH]5)C=C4)C=C3)cc1
REMARK SMILES IDX 24 1 23 2 22 3 21 4 20 5 18 6 19 7 17 8 16 9 1 10 2 11 3 12
REMARK SMILES IDX 4 13 14 14 5 15 13 16 15 17 6 18 7 19 8 20 9 21 12 22 10 23
REMARK SMILES IDX 11 24 25 25 26 26 27 27 28 28 29 29 30 30 91 31 31 32 90 33
REMARK SMILES IDX 32 34 33 35 34 36 84 37 35 38 89 39 83 40 85 41 36 42 88 43
REMARK SMILES IDX 82 44 81 45 37 47 69 48 49 49 68 50 50 51 53 52 67 53 86 54
REMARK SMILES IDX 51 55 52 56 66 58 87 59 54 60 38 61 39 62 47 63 40 64 42 65
REMARK SMILES IDX 48 66 41 67 43 68 44 69 45 70 46 71 70 72 71 73 79 74 72 75
REMARK SMILES IDX 74 76 80 77 73 78 75 79 76 80 77 81 78 82 55 83 56 84 64 85
REMARK SMILES IDX 57 86 59 87 65 88 58 89 60 90 61 91 62 92 63 93
REMARK H PARENT 85 46 53 57
REMARK Flexibility Score: inf
ROOT
ATOM      1  C   UNL A   1      32.356  30.838  26.807  1.00  0.00     0.202 C 
ENDROOT
BRANCH   1   2
ATOM      2  O   UNL A   1      31.762  29.951  25.864  1.00  0.00    -0.374 OA
BRANCH   2   3
ATOM      3  C   UNL A   1      32.552  28.901  25.317  1.00  0.00     0.202 C 
BRANCH   3   4
ATOM      4  C   UNL A   1      33.180  29.117  23.934  1.00  0.00     0.261 C 
BRANCH   4   5
ATOM      5  O   UNL A   1      32.393  28.607  22.835  1.00  0.00    -0.462 OA
BRANCH   5   6
ATOM      6  C   UNL A   1      32.971  27.594  22.135  1.00  0.00     0.326 C 
ATOM      7  O   UNL A   1      34.082  27.659  21.612  1.00  0.00    -0.250 OA
BRANCH   6   8
ATOM      8  C   UNL A   1      32.182  26.286  22.126  1.00  0.00     0.249 C 
BRANCH   8   9
ATOM      9  N   UNL A   1      32.015  25.535  23.373  1.00  0.00    -0.285 N 
ATOM     10  C   UNL A   1      29.675  26.415  23.647  1.00  0.00     0.088 C 
ATOM     11  C   UNL A   1      30.833  25.554  24.104  1.00  0.00     0.110 A 
ATOM     12  N   UNL A   1      30.636  24.879  25.192  1.00  0.00    -0.224 NA
ATOM     13  C   UNL A   1      31.671  24.123  25.617  1.00  0.00     0.131 A 
ATOM     14  C   UNL A   1      33.071  24.677  23.734  1.00  0.00     0.263 A 
ATOM     15  S   UNL A   1      31.571  23.237  27.069  1.00  0.00    -0.123 S 
ATOM     16  C   UNL A   1      32.888  23.976  24.993  1.00  0.00     0.085 A 
ATOM     17  O   UNL A   1      34.056  24.506  23.018  1.00  0.00    -0.268 OA
ATOM     18  C   UNL A   1      33.199  22.729  26.939  1.00  0.00     0.077 A 
ATOM     19  C   UNL A   1      33.782  23.171  25.770  1.00  0.00     0.017 A 
BRANCH  19  20
ATOM     20  C   UNL A   1      35.205  22.850  25.462  1.00  0.00     0.036 A 
ATOM     21  C   UNL A   1      36.249  23.721  25.685  1.00  0.00     0.020 A 
ATOM     22  S   UNL A   1      35.729  21.353  24.840  1.00  0.00    -0.144 S 
ATOM     23  C   UNL A   1      37.498  23.169  25.272  1.00  0.00     0.012 A 
ATOM     24  C   UNL A   1      37.363  21.871  24.829  1.00  0.00     0.065 A 
ENDBRANCH  19  20
ENDBRANCH   8   9
ENDBRANCH   6   8
ENDBRANCH   5   6
ENDBRANCH   4   5
ENDBRANCH   3   4
ENDBRANCH   2   3
ENDBRANCH   1   2
BRANCH   1  25
ATOM     25  C   UNL A   1      33.816  30.618  27.175  1.00  0.00     0.261 C 
BRANCH  25  26
ATOM     26  O   UNL A   1      34.217  31.353  28.330  1.00  0.00    -0.460 OA
BRANCH  26  27
ATOM     27  C   UNL A   1      35.417  31.971  28.196  1.00  0.00     0.338 C 
ATOM     28  O   UNL A   1      35.671  32.918  27.479  1.00  0.00    -0.246 OA
BRANCH  27  29
ATOM     29  C   UNL A   1      36.441  31.224  28.937  1.00  0.00     0.060 A 
ATOM     30  C   UNL A   1      37.615  31.926  29.212  1.00  0.00     0.016 A 
ATOM     31  C   UNL A   1      36.368  29.830  29.059  1.00  0.00     0.016 A 
ATOM     32  C   UNL A   1      38.781  31.210  29.339  1.00  0.00     0.010 A 
ATOM     33  C   UNL A   1      37.538  29.116  29.186  1.00  0.00     0.010 A 
ATOM     34  C   UNL A   1      38.736  29.817  29.213  1.00  0.00    -0.014 A 
BRANCH  34  35
ATOM     35  C   UNL A   1      39.993  29.107  29.228  1.00  0.00     0.031 A 
ATOM     36  C   UNL A   1      40.499  28.917  30.602  1.00  0.00     0.074 A 
ATOM     37  C   UNL A   1      40.613  28.665  28.118  1.00  0.00     0.049 A 
ATOM     38  N   UNL A   1      41.446  29.582  31.174  1.00  0.00    -0.248 NA
ATOM     39  C   UNL A   1      39.716  28.066  31.509  1.00  0.00     0.031 C 
ATOM     40  C   UNL A   1      40.109  28.581  26.746  1.00  0.00     0.029 A 
ATOM     41  N   UNL A   1      41.841  28.093  28.024  1.00  0.00    -0.354 N 
ATOM     42  C   UNL A   1      41.534  29.053  32.455  1.00  0.00     0.074 A 
ATOM     43  C   UNL A   1      40.323  28.307  32.672  1.00  0.00     0.031 C 
ATOM     44  C   UNL A   1      40.922  27.770  26.023  1.00  0.00     0.029 A 
ATOM     45  C   UNL A   1      42.074  27.413  26.833  1.00  0.00     0.049 A 
ATOM     46  H   UNL A   1      42.512  28.154  28.741  1.00  0.00     0.167 HD
ATOM     47  C   UNL A   1      42.715  29.048  33.128  1.00  0.00     0.034 A 
ATOM     48  C   UNL A   1      43.118  26.579  26.596  1.00  0.00     0.034 A 
ATOM     49  C   UNL A   1      43.664  29.957  32.536  1.00  0.00     0.049 A 
ATOM     50  C   UNL A   1      44.178  26.931  27.571  1.00  0.00     0.074 A 
ATOM     51  C   UNL A   1      43.716  31.320  32.327  1.00  0.00     0.029 A 
ATOM     52  N   UNL A   1      44.593  29.405  31.690  1.00  0.00    -0.354 N 
ATOM     53  N   UNL A   1      44.831  28.055  27.546  1.00  0.00    -0.248 NA
ATOM     54  C   UNL A   1      44.217  26.205  28.830  1.00  0.00     0.031 C 
ATOM     55  C   UNL A   1      44.342  31.474  31.054  1.00  0.00     0.029 A 
ATOM     56  C   UNL A   1      44.692  30.208  30.585  1.00  0.00     0.049 A 
ATOM     57  H   UNL A   1      45.101  28.576  31.850  1.00  0.00     0.167 HD
ATOM     58  C   UNL A   1      44.959  28.405  28.882  1.00  0.00     0.074 A 
ATOM     59  C   UNL A   1      44.666  27.180  29.625  1.00  0.00     0.031 C 
ATOM     60  C   UNL A   1      45.005  29.716  29.261  1.00  0.00     0.034 A 
BRANCH  47  61
ATOM     61  C   UNL A   1      43.142  27.952  34.073  1.00  0.00     0.023 A 
ATOM     62  C   UNL A   1      43.447  28.322  35.400  1.00  0.00     0.012 A 
ATOM     63  C   UNL A   1      43.506  26.645  33.673  1.00  0.00     0.148 A 
ATOM     64  C   UNL A   1      44.112  27.449  36.268  1.00  0.00     0.002 A 
ATOM     65  C   UNL A   1      44.084  25.752  34.565  1.00  0.00     0.091 A 
ATOM     66  F   UNL A   1      43.432  26.289  32.387  1.00  0.00    -0.205 F 
ATOM     67  C   UNL A   1      44.420  26.159  35.855  1.00  0.00     0.022 A 
BRANCH  65  68
ATOM     68  S   UNL A   1      44.442  24.053  34.095  1.00  0.00     0.127 S 
ATOM     69  O   UNL A   1      44.561  24.170  32.645  1.00  0.00    -0.237 OA
ATOM     70  O   UNL A   1      45.699  23.809  34.804  1.00  0.00    -0.237 OA
ATOM     71  O   UNL A   1      43.319  23.266  34.588  1.00  0.00    -0.744 OA
ENDBRANCH  65  68
ENDBRANCH  47  61
BRANCH  48  72
ATOM     72  C   UNL A   1      43.205  25.306  25.840  1.00  0.00     0.023 A 
ATOM     73  C   UNL A   1      44.325  25.087  25.008  1.00  0.00     0.012 A 
ATOM     74  C   UNL A   1      42.428  24.193  26.221  1.00  0.00     0.148 A 
ATOM     75  C   UNL A   1      44.705  23.795  24.631  1.00  0.00     0.002 A 
ATOM     76  C   UNL A   1      42.816  22.907  25.849  1.00  0.00     0.091 A 
ATOM     77  F   UNL A   1      41.379  24.386  27.031  1.00  0.00    -0.205 F 
ATOM     78  C   UNL A   1      43.963  22.704  25.068  1.00  0.00     0.022 A 
BRANCH  76  79
ATOM     79  S   UNL A   1      41.954  21.438  26.424  1.00  0.00     0.127 S 
ATOM     80  O   UNL A   1      42.656  20.373  25.706  1.00  0.00    -0.237 OA
ATOM     81  O   UNL A   1      42.213  21.482  27.860  1.00  0.00    -0.237 OA
ATOM     82  O   UNL A   1      40.564  21.616  26.024  1.00  0.00    -0.744 OA
ENDBRANCH  76  79
ENDBRANCH  48  72
BRANCH  60  83
ATOM     83  C   UNL A   1      45.170  30.753  28.174  1.00  0.00     0.023 A 
ATOM     84  C   UNL A   1      44.075  31.345  27.509  1.00  0.00     0.012 A 
ATOM     85  C   UNL A   1      46.460  31.245  27.923  1.00  0.00     0.148 A 
ATOM     86  C   UNL A   1      44.268  32.387  26.595  1.00  0.00     0.002 A 
ATOM     87  C   UNL A   1      46.643  32.314  27.055  1.00  0.00     0.091 A 
ATOM     88  F   UNL A   1      47.492  30.671  28.559  1.00  0.00    -0.205 F 
ATOM     89  C   UNL A   1      45.552  32.881  26.378  1.00  0.00     0.022 A 
BRANCH  87  90
ATOM     90  S   UNL A   1      48.255  33.073  26.842  1.00  0.00     0.127 S 
ATOM     91  O   UNL A   1      47.998  34.044  25.781  1.00  0.00    -0.237 OA
ATOM     92  O   UNL A   1      48.504  33.658  28.161  1.00  0.00    -0.237 OA
ATOM     93  O   UNL A   1      49.164  31.987  26.496  1.00  0.00    -0.744 OA
ENDBRANCH  87  90
ENDBRANCH  60  83
ENDBRANCH  34  35
ENDBRANCH  27  29
ENDBRANCH  26  27
ENDBRANCH  25  26
ENDBRANCH   1  25
TORSDOF 19
ENDMDL
MODEL 3
REMARK VINA RESULT:     -10.3      3.388      7.320
REMARK SMILES Cc1nc2scc(-c3cccs3)c2c(=O)n1CC(=O)OCCOCCOC(=O)c1ccc(-c2c3nc(c(-c4cccc(S(=O)(=O)[O-])c4F)c4ccc([nH]4)c(-c4cccc(S(=O)(=O)[O-])c4F)c4nc(c(-c5cccc(S(=O)(=O)[O-])c5F)c5ccc2[nH]5)C=C4)C=C3)cc1
REMARK SMILES IDX 24 1 23 2 22 3 21 4 20 5 18 6 19 7 17 8 16 9 1 10 2 11 3 12
REMARK SMILES IDX 4 13 14 14 5 15 13 16 15 17 6 18 7 19 8 20 9 21 12 22 10 23
REMARK SMILES IDX 11 24 25 25 26 26 27 27 28 28 29 29 30 30 91 31 31 32 90 33
REMARK SMILES IDX 32 34 33 35 34 36 84 37 35 38 89 39 83 40 85 41 36 42 88 43
REMARK SMILES IDX 82 44 81 45 37 47 69 48 49 49 68 50 50 51 53 52 67 53 86 54
REMARK SMILES IDX 51 55 52 56 66 58 87 59 54 60 38 61 39 62 47 63 40 64 42 65
REMARK SMILES IDX 48 66 41 67 43 68 44 69 45 70 46 71 70 72 71 73 79 74 72 75
REMARK SMILES IDX 74 76 80 77 73 78 75 79 76 80 77 81 78 82 55 83 56 84 64 85
REMARK SMILES IDX 57 86 59 87 65 88 58 89 60 90 61 91 62 92 63 93
REMARK H PARENT 85 46 53 57
REMARK Flexibility Score: inf
ROOT
ATOM      1  C   UNL A   1      33.816  33.798  27.984  1.00  0.00     0.202 C 
ENDROOT
BRANCH   1   2
ATOM      2  O   UNL A   1      32.498  33.425  27.596  1.00  0.00    -0.374 OA
BRANCH   2   3
ATOM      3  C   UNL A   1      32.276  32.109  27.099  1.00  0.00     0.202 C 
BRANCH   3   4
ATOM      4  C   UNL A   1      33.315  31.030  27.425  1.00  0.00     0.261 C 
BRANCH   4   5
ATOM      5  O   UNL A   1      32.758  29.721  27.675  1.00  0.00    -0.462 OA
BRANCH   5   6
ATOM      6  C   UNL A   1      33.404  28.694  27.060  1.00  0.00     0.326 C 
ATOM      7  O   UNL A   1      34.617  28.656  26.862  1.00  0.00    -0.250 OA
BRANCH   6   8
ATOM      8  C   UNL A   1      32.523  27.496  26.712  1.00  0.00     0.249 C 
BRANCH   8   9
ATOM      9  N   UNL A   1      32.501  26.989  25.336  1.00  0.00    -0.285 N 
ATOM     10  C   UNL A   1      31.141  28.964  24.578  1.00  0.00     0.088 C 
ATOM     11  C   UNL A   1      31.878  27.672  24.299  1.00  0.00     0.110 A 
ATOM     12  N   UNL A   1      31.865  27.273  23.066  1.00  0.00    -0.224 NA
ATOM     13  C   UNL A   1      32.504  26.111  22.812  1.00  0.00     0.131 A 
ATOM     14  C   UNL A   1      33.262  25.832  25.083  1.00  0.00     0.263 A 
ATOM     15  S   UNL A   1      32.508  25.438  21.246  1.00  0.00    -0.123 S 
ATOM     16  C   UNL A   1      33.189  25.337  23.720  1.00  0.00     0.085 A 
ATOM     17  O   UNL A   1      33.966  25.304  25.942  1.00  0.00    -0.268 OA
ATOM     18  C   UNL A   1      33.335  24.042  21.786  1.00  0.00     0.077 A 
ATOM     19  C   UNL A   1      33.665  24.126  23.123  1.00  0.00     0.017 A 
BRANCH  19  20
ATOM     20  C   UNL A   1      34.383  23.008  23.800  1.00  0.00     0.036 A 
ATOM     21  C   UNL A   1      33.792  21.804  24.116  1.00  0.00     0.020 A 
ATOM     22  S   UNL A   1      36.031  23.056  24.226  1.00  0.00    -0.144 S 
ATOM     23  C   UNL A   1      34.698  20.929  24.785  1.00  0.00     0.012 A 
ATOM     24  C   UNL A   1      35.963  21.471  24.875  1.00  0.00     0.065 A 
ENDBRANCH  19  20
ENDBRANCH   8   9
ENDBRANCH   6   8
ENDBRANCH   5   6
ENDBRANCH   4   5
ENDBRANCH   3   4
ENDBRANCH   2   3
ENDBRANCH   1   2
BRANCH   1  25
ATOM     25  C   UNL A   1      34.097  33.998  29.466  1.00  0.00     0.261 C 
BRANCH  25  26
ATOM     26  O   UNL A   1      35.436  33.670  29.830  1.00  0.00    -0.460 OA
BRANCH  26  27
ATOM     27  C   UNL A   1      35.568  32.433  30.374  1.00  0.00     0.338 C 
ATOM     28  O   UNL A   1      35.007  32.011  31.365  1.00  0.00    -0.246 OA
BRANCH  27  29
ATOM     29  C   UNL A   1      36.631  31.699  29.675  1.00  0.00     0.060 A 
ATOM     30  C   UNL A   1      36.403  30.334  29.501  1.00  0.00     0.016 A 
ATOM     31  C   UNL A   1      37.901  32.265  29.500  1.00  0.00     0.016 A 
ATOM     32  C   UNL A   1      37.494  29.502  29.426  1.00  0.00     0.010 A 
ATOM     33  C   UNL A   1      38.991  31.429  29.425  1.00  0.00     0.010 A 
ATOM     34  C   UNL A   1      38.776  30.059  29.500  1.00  0.00    -0.014 A 
BRANCH  34  35
ATOM     35  C   UNL A   1      39.895  29.148  29.542  1.00  0.00     0.031 A 
ATOM     36  C   UNL A   1      40.312  28.857  30.928  1.00  0.00     0.074 A 
ATOM     37  C   UNL A   1      40.471  28.623  28.445  1.00  0.00     0.049 A 
ATOM     38  N   UNL A   1      41.337  29.347  31.543  1.00  0.00    -0.248 NA
ATOM     39  C   UNL A   1      39.368  28.138  31.793  1.00  0.00     0.031 C 
ATOM     40  C   UNL A   1      40.009  28.643  27.056  1.00  0.00     0.029 A 
ATOM     41  N   UNL A   1      41.589  27.855  28.380  1.00  0.00    -0.354 N 
ATOM     42  C   UNL A   1      41.289  28.794  32.816  1.00  0.00     0.074 A 
ATOM     43  C   UNL A   1      39.964  28.258  32.979  1.00  0.00     0.031 C 
ATOM     44  C   UNL A   1      40.701  27.717  26.344  1.00  0.00     0.029 A 
ATOM     45  C   UNL A   1      41.747  27.162  27.185  1.00  0.00     0.049 A 
ATOM     46  H   UNL A   1      42.235  27.793  29.120  1.00  0.00     0.167 HD
ATOM     47  C   UNL A   1      42.428  28.582  33.527  1.00  0.00     0.034 A 
ATOM     48  C   UNL A   1      42.645  26.168  26.966  1.00  0.00     0.034 A 
ATOM     49  C   UNL A   1      43.536  29.327  32.984  1.00  0.00     0.049 A 
ATOM     50  C   UNL A   1      43.714  26.324  27.982  1.00  0.00     0.074 A 
ATOM     51  C   UNL A   1      43.823  30.665  32.803  1.00  0.00     0.029 A 
ATOM     52  N   UNL A   1      44.389  28.638  32.158  1.00  0.00    -0.354 N 
ATOM     53  N   UNL A   1      44.546  27.323  27.999  1.00  0.00    -0.248 NA
ATOM     54  C   UNL A   1      43.586  25.585  29.228  1.00  0.00     0.031 C 
ATOM     55  C   UNL A   1      44.511  30.729  31.555  1.00  0.00     0.029 A 
ATOM     56  C   UNL A   1      44.661  29.428  31.073  1.00  0.00     0.049 A 
ATOM     57  H   UNL A   1      44.746  27.734  32.319  1.00  0.00     0.167 HD
ATOM     58  C   UNL A   1      44.683  27.629  29.346  1.00  0.00     0.074 A 
ATOM     59  C   UNL A   1      44.163  26.461  30.055  1.00  0.00     0.031 C 
ATOM     60  C   UNL A   1      44.934  28.909  29.751  1.00  0.00     0.034 A 
BRANCH  47  61
ATOM     61  C   UNL A   1      42.633  27.417  34.464  1.00  0.00     0.023 A 
ATOM     62  C   UNL A   1      42.430  27.649  35.841  1.00  0.00     0.012 A 
ATOM     63  C   UNL A   1      43.254  26.198  34.105  1.00  0.00     0.148 A 
ATOM     64  C   UNL A   1      42.857  26.733  36.808  1.00  0.00     0.002 A 
ATOM     65  C   UNL A   1      43.594  25.252  35.063  1.00  0.00     0.091 A 
ATOM     66  F   UNL A   1      43.657  25.992  32.848  1.00  0.00    -0.205 F 
ATOM     67  C   UNL A   1      43.428  25.528  36.419  1.00  0.00     0.022 A 
BRANCH  65  68
ATOM     68  S   UNL A   1      44.277  23.654  34.603  1.00  0.00     0.127 S 
ATOM     69  O   UNL A   1      43.258  23.153  33.686  1.00  0.00    -0.237 OA
ATOM     70  O   UNL A   1      45.541  24.041  33.975  1.00  0.00    -0.237 OA
ATOM     71  O   UNL A   1      44.435  22.921  35.853  1.00  0.00    -0.744 OA
ENDBRANCH  65  68
ENDBRANCH  47  61
BRANCH  48  72
ATOM     72  C   UNL A   1      42.545  24.908  26.189  1.00  0.00     0.023 A 
ATOM     73  C   UNL A   1      43.645  24.512  25.396  1.00  0.00     0.012 A 
ATOM     74  C   UNL A   1      41.576  23.939  26.518  1.00  0.00     0.148 A 
ATOM     75  C   UNL A   1      43.815  23.179  25.008  1.00  0.00     0.002 A 
ATOM     76  C   UNL A   1      41.755  22.611  26.136  1.00  0.00     0.091 A 
ATOM     77  F   UNL A   1      40.543  24.299  27.292  1.00  0.00    -0.205 F 
ATOM     78  C   UNL A   1      42.880  22.225  25.395  1.00  0.00     0.022 A 
BRANCH  76  79
ATOM     79  S   UNL A   1      40.632  21.303  26.649  1.00  0.00     0.127 S 
ATOM     80  O   UNL A   1      41.253  20.119  26.054  1.00  0.00    -0.237 OA
ATOM     81  O   UNL A   1      40.730  21.379  28.104  1.00  0.00    -0.237 OA
ATOM     82  O   UNL A   1      39.336  21.651  26.081  1.00  0.00    -0.744 OA
ENDBRANCH  76  79
ENDBRANCH  48  72
BRANCH  60  83
ATOM     83  C   UNL A   1      45.308  29.917  28.690  1.00  0.00     0.023 A 
ATOM     84  C   UNL A   1      44.349  30.669  27.977  1.00  0.00     0.012 A 
ATOM     85  C   UNL A   1      46.668  30.216  28.515  1.00  0.00     0.148 A 
ATOM     86  C   UNL A   1      44.742  31.678  27.091  1.00  0.00     0.002 A 
ATOM     87  C   UNL A   1      47.053  31.252  27.673  1.00  0.00     0.091 A 
ATOM     88  F   UNL A   1      47.569  29.491  29.195  1.00  0.00    -0.205 F 
ATOM     89  C   UNL A   1      46.095  31.979  26.949  1.00  0.00     0.022 A 
BRANCH  87  90
ATOM     90  S   UNL A   1      48.768  31.767  27.557  1.00  0.00     0.127 S 
ATOM     91  O   UNL A   1      49.209  31.679  28.946  1.00  0.00    -0.237 OA
ATOM     92  O   UNL A   1      49.341  30.756  26.667  1.00  0.00    -0.237 OA
ATOM     93  O   UNL A   1      48.741  33.110  26.988  1.00  0.00    -0.744 OA
ENDBRANCH  87  90
ENDBRANCH  60  83
ENDBRANCH  34  35
ENDBRANCH  27  29
ENDBRANCH  26  27
ENDBRANCH  25  26
ENDBRANCH   1  25
TORSDOF 19
ENDMDL
