MODEL 1
REMARK VINA RESULT:     -10.8      0.000      0.000
REMARK SMILES C[C@@H](NC(=O)C(C)(C)C)C(=O)N[C@H](C)C(=O)OCCOCCOC(=O)c1ccc(-c2c3nc(c(-c4cccc(S(=O)(=O)[O-])c4F)c4ccc([nH]4)c(-c4cccc(S(=O)(=O)[O-])c4F)c4nc(c(-c5cccc(S(=O)(=O)[O-])c5F)c5ccc2[nH]5)C=C4)C=C3)cc1
REMARK SMILES IDX 19 1 18 2 17 3 15 4 16 5 13 6 14 7 12 8 10 9 11 10 2 12 1 13
REMARK SMILES IDX 3 14 4 15 5 17 6 18 7 19 8 20 9 21 20 22 21 23 22 24 23 25
REMARK SMILES IDX 24 26 25 27 26 28 27 29 88 30 28 31 87 32 29 33 30 34 31 35
REMARK SMILES IDX 81 36 32 37 86 38 80 39 82 40 33 41 85 42 79 43 78 44 34 46
REMARK SMILES IDX 66 47 46 48 65 49 47 50 50 51 64 52 83 53 48 54 49 55 63 57
REMARK SMILES IDX 84 58 51 59 35 60 36 61 44 62 37 63 39 64 45 65 38 66 40 67
REMARK SMILES IDX 41 68 42 69 43 70 67 71 68 72 76 73 69 74 71 75 77 76 70 77
REMARK SMILES IDX 72 78 73 79 74 80 75 81 52 82 53 83 61 84 54 85 56 86 62 87
REMARK SMILES IDX 55 88 57 89 58 90 59 91 60 92
REMARK H PARENT 12 11 3 16 82 45 50 56
REMARK Flexibility Score: inf
ROOT
ATOM      1  C   UNL A   1      32.968  27.200  25.187  1.00  0.00     0.202 C 
ENDROOT
BRANCH   1   2
ATOM      2  C   UNL A   1      32.373  26.763  23.841  1.00  0.00     0.261 C 
BRANCH   2   3
ATOM      3  O   UNL A   1      32.303  25.367  23.571  1.00  0.00    -0.462 OA
BRANCH   3   4
ATOM      4  C   UNL A   1      33.413  24.872  22.972  1.00  0.00     0.328 C 
ATOM      5  O   UNL A   1      33.938  25.346  21.970  1.00  0.00    -0.250 OA
BRANCH   4   6
ATOM      6  C   UNL A   1      33.861  23.560  23.581  1.00  0.00     0.189 C 
ATOM      7  C   UNL A   1      35.330  23.555  24.021  1.00  0.00     0.043 C 
BRANCH   6   8
ATOM      8  N   UNL A   1      32.983  23.184  24.688  1.00  0.00    -0.341 N 
ATOM      9  C   UNL A   1      32.665  22.021  25.305  1.00  0.00     0.242 C 
ATOM     10  O   UNL A   1      31.922  22.159  26.287  1.00  0.00    -0.273 OA
ATOM     11  H   UNL A   1      32.512  23.957  25.076  1.00  0.00     0.164 HD
BRANCH   9  12
ATOM     12  C   UNL A   1      32.962  20.581  24.803  1.00  0.00     0.168 C 
ATOM     13  C   UNL A   1      32.645  20.440  23.307  1.00  0.00     0.041 C 
BRANCH  12  14
ATOM     14  N   UNL A   1      34.227  19.919  25.126  1.00  0.00    -0.344 N 
ATOM     15  C   UNL A   1      34.721  18.720  24.701  1.00  0.00     0.226 C 
ATOM     16  H   UNL A   1      34.810  20.415  25.744  1.00  0.00     0.164 HD
ATOM     17  O   UNL A   1      35.943  18.650  24.534  1.00  0.00    -0.275 OA
BRANCH  15  18
ATOM     18  C   UNL A   1      33.828  17.461  24.622  1.00  0.00     0.041 C 
ATOM     19  C   UNL A   1      34.736  16.246  24.888  1.00  0.00     0.021 C 
ATOM     20  C   UNL A   1      32.602  17.481  25.542  1.00  0.00     0.021 C 
ATOM     21  C   UNL A   1      33.289  17.307  23.184  1.00  0.00     0.021 C 
ENDBRANCH  15  18
ENDBRANCH  12  14
ENDBRANCH   9  12
ENDBRANCH   6   8
ENDBRANCH   4   6
ENDBRANCH   3   4
ENDBRANCH   2   3
ENDBRANCH   1   2
BRANCH   1  22
ATOM     22  O   UNL A   1      33.055  28.574  25.521  1.00  0.00    -0.374 OA
BRANCH  22  23
ATOM     23  C   UNL A   1      32.016  29.477  25.161  1.00  0.00     0.202 C 
BRANCH  23  24
ATOM     24  C   UNL A   1      31.690  30.704  26.025  1.00  0.00     0.261 C 
BRANCH  24  25
ATOM     25  O   UNL A   1      32.424  30.782  27.259  1.00  0.00    -0.460 OA
BRANCH  25  26
ATOM     26  C   UNL A   1      33.198  31.883  27.400  1.00  0.00     0.338 C 
ATOM     27  O   UNL A   1      32.814  33.052  27.398  1.00  0.00    -0.246 OA
BRANCH  26  28
ATOM     28  C   UNL A   1      34.573  31.517  27.779  1.00  0.00     0.060 A 
ATOM     29  C   UNL A   1      34.854  30.158  27.993  1.00  0.00     0.016 A 
ATOM     30  C   UNL A   1      35.545  32.487  28.022  1.00  0.00     0.016 A 
ATOM     31  C   UNL A   1      36.096  29.767  28.488  1.00  0.00     0.010 A 
ATOM     32  C   UNL A   1      36.780  32.096  28.552  1.00  0.00     0.010 A 
ATOM     33  C   UNL A   1      37.043  30.739  28.826  1.00  0.00    -0.014 A 
BRANCH  33  34
ATOM     34  C   UNL A   1      38.192  30.357  29.683  1.00  0.00     0.031 A 
ATOM     35  C   UNL A   1      39.206  29.396  29.122  1.00  0.00     0.074 A 
ATOM     36  C   UNL A   1      38.349  30.860  30.919  1.00  0.00     0.049 A 
ATOM     37  N   UNL A   1      40.288  28.914  29.674  1.00  0.00    -0.248 NA
ATOM     38  C   UNL A   1      38.965  28.916  27.750  1.00  0.00     0.031 C 
ATOM     39  C   UNL A   1      37.457  31.821  31.561  1.00  0.00     0.029 A 
ATOM     40  N   UNL A   1      39.318  30.613  31.860  1.00  0.00    -0.354 N 
ATOM     41  C   UNL A   1      40.837  28.047  28.736  1.00  0.00     0.074 A 
ATOM     42  C   UNL A   1      39.966  28.067  27.581  1.00  0.00     0.031 C 
ATOM     43  C   UNL A   1      37.909  32.068  32.804  1.00  0.00     0.029 A 
ATOM     44  C   UNL A   1      39.105  31.266  33.052  1.00  0.00     0.049 A 
ATOM     45  H   UNL A   1      40.090  30.026  31.697  1.00  0.00     0.167 HD
ATOM     46  C   UNL A   1      41.966  27.306  28.821  1.00  0.00     0.034 A 
ATOM     47  C   UNL A   1      39.790  31.204  34.211  1.00  0.00     0.034 A 
ATOM     48  C   UNL A   1      42.835  27.293  29.966  1.00  0.00     0.049 A 
ATOM     49  C   UNL A   1      41.018  30.330  34.299  1.00  0.00     0.074 A 
ATOM     50  C   UNL A   1      44.030  26.617  30.131  1.00  0.00     0.029 A 
ATOM     51  N   UNL A   1      42.590  27.968  31.152  1.00  0.00    -0.354 N 
ATOM     52  N   UNL A   1      41.590  29.608  33.365  1.00  0.00    -0.248 NA
ATOM     53  C   UNL A   1      41.709  30.286  35.597  1.00  0.00     0.031 C 
ATOM     54  C   UNL A   1      44.485  26.847  31.434  1.00  0.00     0.029 A 
ATOM     55  C   UNL A   1      43.597  27.704  32.065  1.00  0.00     0.049 A 
ATOM     56  H   UNL A   1      41.813  28.550  31.320  1.00  0.00     0.167 HD
ATOM     57  C   UNL A   1      42.730  29.061  33.948  1.00  0.00     0.074 A 
ATOM     58  C   UNL A   1      42.772  29.546  35.312  1.00  0.00     0.031 C 
ATOM     59  C   UNL A   1      43.655  28.230  33.405  1.00  0.00     0.034 A 
BRANCH  46  60
ATOM     60  C   UNL A   1      42.318  26.438  27.641  1.00  0.00     0.023 A 
ATOM     61  C   UNL A   1      43.081  26.964  26.579  1.00  0.00     0.012 A 
ATOM     62  C   UNL A   1      41.905  25.091  27.595  1.00  0.00     0.148 A 
ATOM     63  C   UNL A   1      43.390  26.177  25.470  1.00  0.00     0.002 A 
ATOM     64  C   UNL A   1      42.259  24.300  26.509  1.00  0.00     0.091 A 
ATOM     65  F   UNL A   1      41.158  24.617  28.601  1.00  0.00    -0.205 F 
ATOM     66  C   UNL A   1      42.988  24.844  25.440  1.00  0.00     0.022 A 
BRANCH  64  67
ATOM     67  S   UNL A   1      41.854  22.553  26.419  1.00  0.00     0.127 S 
ATOM     68  O   UNL A   1      40.394  22.592  26.352  1.00  0.00    -0.237 OA
ATOM     69  O   UNL A   1      42.510  22.149  25.176  1.00  0.00    -0.237 OA
ATOM     70  O   UNL A   1      42.410  21.949  27.622  1.00  0.00    -0.744 OA
ENDBRANCH  64  67
ENDBRANCH  46  60
BRANCH  47  71
ATOM     71  C   UNL A   1      39.363  32.026  35.378  1.00  0.00     0.023 A 
ATOM     72  C   UNL A   1      39.718  33.389  35.430  1.00  0.00     0.012 A 
ATOM     73  C   UNL A   1      38.607  31.472  36.429  1.00  0.00     0.148 A 
ATOM     74  C   UNL A   1      39.351  34.178  36.521  1.00  0.00     0.002 A 
ATOM     75  C   UNL A   1      38.202  32.277  37.488  1.00  0.00     0.091 A 
ATOM     76  F   UNL A   1      38.294  30.170  36.367  1.00  0.00    -0.205 F 
ATOM     77  C   UNL A   1      38.586  33.625  37.545  1.00  0.00     0.022 A 
BRANCH  75  78
ATOM     78  S   UNL A   1      37.124  31.685  38.797  1.00  0.00     0.127 S 
ATOM     79  O   UNL A   1      37.937  31.925  39.986  1.00  0.00    -0.237 OA
ATOM     80  O   UNL A   1      35.967  32.569  38.651  1.00  0.00    -0.237 OA
ATOM     81  O   UNL A   1      36.860  30.286  38.489  1.00  0.00    -0.744 OA
ENDBRANCH  75  78
ENDBRANCH  47  71
BRANCH  59  82
ATOM     82  C   UNL A   1      44.825  27.821  34.263  1.00  0.00     0.023 A 
ATOM     83  C   UNL A   1      45.975  28.631  34.328  1.00  0.00     0.012 A 
ATOM     84  C   UNL A   1      44.749  26.667  35.071  1.00  0.00     0.148 A 
ATOM     85  C   UNL A   1      47.043  28.283  35.155  1.00  0.00     0.002 A 
ATOM     86  C   UNL A   1      45.794  26.355  35.932  1.00  0.00     0.091 A 
ATOM     87  F   UNL A   1      43.653  25.898  34.985  1.00  0.00    -0.205 F 
ATOM     88  C   UNL A   1      46.949  27.153  35.965  1.00  0.00     0.022 A 
BRANCH  86  89
ATOM     89  S   UNL A   1      45.717  24.980  37.086  1.00  0.00     0.127 S 
ATOM     90  O   UNL A   1      47.134  24.707  37.319  1.00  0.00    -0.237 OA
ATOM     91  O   UNL A   1      45.013  25.571  38.225  1.00  0.00    -0.237 OA
ATOM     92  O   UNL A   1      44.982  23.923  36.404  1.00  0.00    -0.744 OA
ENDBRANCH  86  89
ENDBRANCH  59  82
ENDBRANCH  33  34
ENDBRANCH  26  28
ENDBRANCH  25  26
ENDBRANCH  24  25
ENDBRANCH  23  24
ENDBRANCH  22  23
ENDBRANCH   1  22
TORSDOF 21
ENDMDL
MODEL 2
REMARK VINA RESULT:     -10.8      2.343      8.173
REMARK SMILES C[C@@H](NC(=O)C(C)(C)C)C(=O)N[C@H](C)C(=O)OCCOCCOC(=O)c1ccc(-c2c3nc(c(-c4cccc(S(=O)(=O)[O-])c4F)c4ccc([nH]4)c(-c4cccc(S(=O)(=O)[O-])c4F)c4nc(c(-c5cccc(S(=O)(=O)[O-])c5F)c5ccc2[nH]5)C=C4)C=C3)cc1
REMARK SMILES IDX 19 1 18 2 17 3 15 4 16 5 13 6 14 7 12 8 10 9 11 10 2 12 1 13
REMARK SMILES IDX 3 14 4 15 5 17 6 18 7 19 8 20 9 21 20 22 21 23 22 24 23 25
REMARK SMILES IDX 24 26 25 27 26 28 27 29 88 30 28 31 87 32 29 33 30 34 31 35
REMARK SMILES IDX 81 36 32 37 86 38 80 39 82 40 33 41 85 42 79 43 78 44 34 46
REMARK SMILES IDX 66 47 46 48 65 49 47 50 50 51 64 52 83 53 48 54 49 55 63 57
REMARK SMILES IDX 84 58 51 59 35 60 36 61 44 62 37 63 39 64 45 65 38 66 40 67
REMARK SMILES IDX 41 68 42 69 43 70 67 71 68 72 76 73 69 74 71 75 77 76 70 77
REMARK SMILES IDX 72 78 73 79 74 80 75 81 52 82 53 83 61 84 54 85 56 86 62 87
REMARK SMILES IDX 55 88 57 89 58 90 59 91 60 92
REMARK H PARENT 12 11 3 16 82 45 50 56
REMARK Flexibility Score: inf
ROOT
ATOM      1  C   UNL A   1      32.502  29.529  25.490  1.00  0.00     0.202 C 
ENDROOT
BRANCH   1   2
ATOM      2  C   UNL A   1      31.160  28.978  24.990  1.00  0.00     0.261 C 
BRANCH   2   3
ATOM      3  O   UNL A   1      30.697  29.420  23.717  1.00  0.00    -0.462 OA
BRANCH   3   4
ATOM      4  C   UNL A   1      30.361  28.410  22.880  1.00  0.00     0.328 C 
ATOM      5  O   UNL A   1      29.535  28.495  21.977  1.00  0.00    -0.250 OA
BRANCH   4   6
ATOM      6  C   UNL A   1      31.003  27.096  23.273  1.00  0.00     0.189 C 
ATOM      7  C   UNL A   1      29.992  25.993  23.607  1.00  0.00     0.043 C 
BRANCH   6   8
ATOM      8  N   UNL A   1      31.935  26.653  22.237  1.00  0.00    -0.341 N 
ATOM      9  C   UNL A   1      32.989  25.804  22.198  1.00  0.00     0.242 C 
ATOM     10  O   UNL A   1      33.465  25.643  21.064  1.00  0.00    -0.273 OA
ATOM     11  H   UNL A   1      31.755  27.071  21.363  1.00  0.00     0.164 HD
BRANCH   9  12
ATOM     12  C   UNL A   1      33.750  25.197  23.408  1.00  0.00     0.168 C 
ATOM     13  C   UNL A   1      33.937  26.238  24.522  1.00  0.00     0.041 C 
BRANCH  12  14
ATOM     14  N   UNL A   1      33.358  23.905  23.972  1.00  0.00    -0.344 N 
ATOM     15  C   UNL A   1      33.999  23.115  24.882  1.00  0.00     0.226 C 
ATOM     16  H   UNL A   1      32.500  23.551  23.645  1.00  0.00     0.164 HD
ATOM     17  O   UNL A   1      33.287  22.485  25.671  1.00  0.00    -0.275 OA
BRANCH  15  18
ATOM     18  C   UNL A   1      35.522  22.867  24.804  1.00  0.00     0.041 C 
ATOM     19  C   UNL A   1      35.903  22.857  23.313  1.00  0.00     0.021 C 
ATOM     20  C   UNL A   1      36.378  23.847  25.615  1.00  0.00     0.021 C 
ATOM     21  C   UNL A   1      35.838  21.458  25.353  1.00  0.00     0.021 C 
ENDBRANCH  15  18
ENDBRANCH  12  14
ENDBRANCH   9  12
ENDBRANCH   6   8
ENDBRANCH   4   6
ENDBRANCH   3   4
ENDBRANCH   2   3
ENDBRANCH   1   2
BRANCH   1  22
ATOM     22  O   UNL A   1      32.542  30.670  26.327  1.00  0.00    -0.374 OA
BRANCH  22  23
ATOM     23  C   UNL A   1      31.426  31.548  26.414  1.00  0.00     0.202 C 
BRANCH  23  24
ATOM     24  C   UNL A   1      31.579  32.990  26.920  1.00  0.00     0.261 C 
BRANCH  24  25
ATOM     25  O   UNL A   1      32.922  33.502  26.871  1.00  0.00    -0.460 OA
BRANCH  25  26
ATOM     26  C   UNL A   1      33.475  33.784  28.074  1.00  0.00     0.338 C 
ATOM     27  O   UNL A   1      32.971  34.456  28.972  1.00  0.00    -0.246 OA
BRANCH  26  28
ATOM     28  C   UNL A   1      34.703  32.998  28.286  1.00  0.00     0.060 A 
ATOM     29  C   UNL A   1      34.564  31.656  28.673  1.00  0.00     0.016 A 
ATOM     30  C   UNL A   1      35.965  33.586  28.211  1.00  0.00     0.016 A 
ATOM     31  C   UNL A   1      35.684  30.906  29.023  1.00  0.00     0.010 A 
ATOM     32  C   UNL A   1      37.087  32.841  28.596  1.00  0.00     0.010 A 
ATOM     33  C   UNL A   1      36.944  31.514  29.044  1.00  0.00    -0.014 A 
BRANCH  33  34
ATOM     34  C   UNL A   1      38.055  30.840  29.759  1.00  0.00     0.031 A 
ATOM     35  C   UNL A   1      38.300  31.207  31.198  1.00  0.00     0.074 A 
ATOM     36  C   UNL A   1      38.819  29.910  29.160  1.00  0.00     0.049 A 
ATOM     37  N   UNL A   1      39.205  30.760  32.028  1.00  0.00    -0.248 NA
ATOM     38  C   UNL A   1      37.398  32.217  31.779  1.00  0.00     0.031 C 
ATOM     39  C   UNL A   1      38.663  29.445  27.784  1.00  0.00     0.029 A 
ATOM     40  N   UNL A   1      39.894  29.203  29.638  1.00  0.00    -0.354 N 
ATOM     41  C   UNL A   1      39.008  31.457  33.214  1.00  0.00     0.074 A 
ATOM     42  C   UNL A   1      37.899  32.360  32.995  1.00  0.00     0.031 C 
ATOM     43  C   UNL A   1      39.624  28.540  27.521  1.00  0.00     0.029 A 
ATOM     44  C   UNL A   1      40.475  28.384  28.699  1.00  0.00     0.049 A 
ATOM     45  H   UNL A   1      40.217  29.275  30.564  1.00  0.00     0.167 HD
ATOM     46  C   UNL A   1      39.680  31.353  34.384  1.00  0.00     0.034 A 
ATOM     47  C   UNL A   1      41.578  27.613  28.781  1.00  0.00     0.034 A 
ATOM     48  C   UNL A   1      40.777  30.450  34.603  1.00  0.00     0.049 A 
ATOM     49  C   UNL A   1      42.343  27.552  30.081  1.00  0.00     0.074 A 
ATOM     50  C   UNL A   1      41.491  30.231  35.767  1.00  0.00     0.029 A 
ATOM     51  N   UNL A   1      41.335  29.634  33.631  1.00  0.00    -0.354 N 
ATOM     52  N   UNL A   1      42.075  28.127  31.228  1.00  0.00    -0.248 NA
ATOM     53  C   UNL A   1      43.551  26.712  30.102  1.00  0.00     0.031 C 
ATOM     54  C   UNL A   1      42.511  29.316  35.486  1.00  0.00     0.029 A 
ATOM     55  C   UNL A   1      42.403  28.929  34.160  1.00  0.00     0.049 A 
ATOM     56  H   UNL A   1      41.018  29.566  32.701  1.00  0.00     0.167 HD
ATOM     57  C   UNL A   1      43.050  27.684  32.118  1.00  0.00     0.074 A 
ATOM     58  C   UNL A   1      43.908  26.783  31.376  1.00  0.00     0.031 C 
ATOM     59  C   UNL A   1      43.222  27.998  33.426  1.00  0.00     0.034 A 
BRANCH  46  60
ATOM     60  C   UNL A   1      39.251  32.252  35.514  1.00  0.00     0.023 A 
ATOM     61  C   UNL A   1      38.331  31.788  36.476  1.00  0.00     0.012 A 
ATOM     62  C   UNL A   1      39.777  33.554  35.632  1.00  0.00     0.148 A 
ATOM     63  C   UNL A   1      37.907  32.620  37.512  1.00  0.00     0.002 A 
ATOM     64  C   UNL A   1      39.387  34.359  36.694  1.00  0.00     0.091 A 
ATOM     65  F   UNL A   1      40.629  33.987  34.693  1.00  0.00    -0.205 F 
ATOM     66  C   UNL A   1      38.442  33.901  37.627  1.00  0.00     0.022 A 
BRANCH  64  67
ATOM     67  S   UNL A   1      40.080  35.993  36.969  1.00  0.00     0.127 S 
ATOM     68  O   UNL A   1      39.749  36.668  35.715  1.00  0.00    -0.237 OA
ATOM     69  O   UNL A   1      39.322  36.458  38.131  1.00  0.00    -0.237 OA
ATOM     70  O   UNL A   1      41.501  35.790  37.215  1.00  0.00    -0.744 OA
ENDBRANCH  64  67
ENDBRANCH  46  60
BRANCH  47  71
ATOM     71  C   UNL A   1      42.009  26.795  27.612  1.00  0.00     0.023 A 
ATOM     72  C   UNL A   1      42.703  27.415  26.554  1.00  0.00     0.012 A 
ATOM     73  C   UNL A   1      41.741  25.414  27.542  1.00  0.00     0.148 A 
ATOM     74  C   UNL A   1      43.099  26.681  25.436  1.00  0.00     0.002 A 
ATOM     75  C   UNL A   1      42.183  24.679  26.448  1.00  0.00     0.091 A 
ATOM     76  F   UNL A   1      41.065  24.849  28.552  1.00  0.00    -0.205 F 
ATOM     77  C   UNL A   1      42.847  25.312  25.387  1.00  0.00     0.022 A 
BRANCH  75  78
ATOM     78  S   UNL A   1      42.004  22.895  26.345  1.00  0.00     0.127 S 
ATOM     79  O   UNL A   1      42.563  22.614  25.025  1.00  0.00    -0.237 OA
ATOM     80  O   UNL A   1      42.825  22.449  27.472  1.00  0.00    -0.237 OA
ATOM     81  O   UNL A   1      40.579  22.631  26.492  1.00  0.00    -0.744 OA
ENDBRANCH  75  78
ENDBRANCH  47  71
BRANCH  59  82
ATOM     82  C   UNL A   1      44.354  27.332  34.168  1.00  0.00     0.023 A 
ATOM     83  C   UNL A   1      44.148  26.099  34.815  1.00  0.00     0.012 A 
ATOM     84  C   UNL A   1      45.647  27.895  34.152  1.00  0.00     0.148 A 
ATOM     85  C   UNL A   1      45.201  25.453  35.465  1.00  0.00     0.002 A 
ATOM     86  C   UNL A   1      46.702  27.221  34.755  1.00  0.00     0.091 A 
ATOM     87  F   UNL A   1      45.822  29.077  33.544  1.00  0.00    -0.205 F 
ATOM     88  C   UNL A   1      46.479  26.007  35.424  1.00  0.00     0.022 A 
BRANCH  86  89
ATOM     89  S   UNL A   1      48.398  27.805  34.664  1.00  0.00     0.127 S 
ATOM     90  O   UNL A   1      48.334  29.031  35.459  1.00  0.00    -0.237 OA
ATOM     91  O   UNL A   1      49.138  26.709  35.290  1.00  0.00    -0.237 OA
ATOM     92  O   UNL A   1      48.683  27.995  33.248  1.00  0.00    -0.744 OA
ENDBRANCH  86  89
ENDBRANCH  59  82
ENDBRANCH  33  34
ENDBRANCH  26  28
ENDBRANCH  25  26
ENDBRANCH  24  25
ENDBRANCH  23  24
ENDBRANCH  22  23
ENDBRANCH   1  22
TORSDOF 21
ENDMDL
MODEL 3
REMARK VINA RESULT:     -10.4      1.907      7.925
REMARK SMILES C[C@@H](NC(=O)C(C)(C)C)C(=O)N[C@H](C)C(=O)OCCOCCOC(=O)c1ccc(-c2c3nc(c(-c4cccc(S(=O)(=O)[O-])c4F)c4ccc([nH]4)c(-c4cccc(S(=O)(=O)[O-])c4F)c4nc(c(-c5cccc(S(=O)(=O)[O-])c5F)c5ccc2[nH]5)C=C4)C=C3)cc1
REMARK SMILES IDX 19 1 18 2 17 3 15 4 16 5 13 6 14 7 12 8 10 9 11 10 2 12 1 13
REMARK SMILES IDX 3 14 4 15 5 17 6 18 7 19 8 20 9 21 20 22 21 23 22 24 23 25
REMARK SMILES IDX 24 26 25 27 26 28 27 29 88 30 28 31 87 32 29 33 30 34 31 35
REMARK SMILES IDX 81 36 32 37 86 38 80 39 82 40 33 41 85 42 79 43 78 44 34 46
REMARK SMILES IDX 66 47 46 48 65 49 47 50 50 51 64 52 83 53 48 54 49 55 63 57
REMARK SMILES IDX 84 58 51 59 35 60 36 61 44 62 37 63 39 64 45 65 38 66 40 67
REMARK SMILES IDX 41 68 42 69 43 70 67 71 68 72 76 73 69 74 71 75 77 76 70 77
REMARK SMILES IDX 72 78 73 79 74 80 75 81 52 82 53 83 61 84 54 85 56 86 62 87
REMARK SMILES IDX 55 88 57 89 58 90 59 91 60 92
REMARK H PARENT 12 11 3 16 82 45 50 56
REMARK Flexibility Score: inf
ROOT
ATOM      1  C   UNL A   1      32.589  29.493  25.561  1.00  0.00     0.202 C 
ENDROOT
BRANCH   1   2
ATOM      2  C   UNL A   1      31.520  29.175  24.506  1.00  0.00     0.261 C 
BRANCH   2   3
ATOM      3  O   UNL A   1      31.965  28.819  23.201  1.00  0.00    -0.462 OA
BRANCH   3   4
ATOM      4  C   UNL A   1      31.425  27.667  22.737  1.00  0.00     0.328 C 
ATOM      5  O   UNL A   1      30.427  27.597  22.027  1.00  0.00    -0.250 OA
BRANCH   4   6
ATOM      6  C   UNL A   1      32.095  26.440  23.318  1.00  0.00     0.189 C 
ATOM      7  C   UNL A   1      33.626  26.526  23.337  1.00  0.00     0.043 C 
BRANCH   6   8
ATOM      8  N   UNL A   1      31.572  26.156  24.654  1.00  0.00    -0.341 N 
ATOM      9  C   UNL A   1      31.955  25.366  25.684  1.00  0.00     0.242 C 
ATOM     10  O   UNL A   1      31.257  25.489  26.701  1.00  0.00    -0.273 OA
ATOM     11  H   UNL A   1      30.748  26.659  24.850  1.00  0.00     0.164 HD
BRANCH   9  12
ATOM     12  C   UNL A   1      33.009  24.224  25.649  1.00  0.00     0.168 C 
ATOM     13  C   UNL A   1      34.425  24.772  25.882  1.00  0.00     0.041 C 
BRANCH  12  14
ATOM     14  N   UNL A   1      32.804  22.989  26.406  1.00  0.00    -0.344 N 
ATOM     15  C   UNL A   1      33.415  21.775  26.283  1.00  0.00     0.226 C 
ATOM     16  H   UNL A   1      32.121  23.042  27.113  1.00  0.00     0.164 HD
ATOM     17  O   UNL A   1      33.600  21.137  27.325  1.00  0.00    -0.275 OA
BRANCH  15  18
ATOM     18  C   UNL A   1      33.681  21.142  24.898  1.00  0.00     0.041 C 
ATOM     19  C   UNL A   1      33.703  22.290  23.873  1.00  0.00     0.021 C 
ATOM     20  C   UNL A   1      34.939  20.269  24.819  1.00  0.00     0.021 C 
ATOM     21  C   UNL A   1      32.495  20.228  24.519  1.00  0.00     0.021 C 
ENDBRANCH  15  18
ENDBRANCH  12  14
ENDBRANCH   9  12
ENDBRANCH   6   8
ENDBRANCH   4   6
ENDBRANCH   3   4
ENDBRANCH   2   3
ENDBRANCH   1   2
BRANCH   1  22
ATOM     22  O   UNL A   1      32.340  30.459  26.566  1.00  0.00    -0.374 OA
BRANCH  22  23
ATOM     23  C   UNL A   1      31.425  31.525  26.340  1.00  0.00     0.202 C 
BRANCH  23  24
ATOM     24  C   UNL A   1      31.541  32.853  27.101  1.00  0.00     0.261 C 
BRANCH  24  25
ATOM     25  O   UNL A   1      32.811  33.514  26.964  1.00  0.00    -0.460 OA
BRANCH  25  26
ATOM     26  C   UNL A   1      33.420  33.838  28.129  1.00  0.00     0.338 C 
ATOM     27  O   UNL A   1      32.966  34.560  29.015  1.00  0.00    -0.246 OA
BRANCH  26  28
ATOM     28  C   UNL A   1      34.641  33.040  28.326  1.00  0.00     0.060 A 
ATOM     29  C   UNL A   1      34.493  31.705  28.737  1.00  0.00     0.016 A 
ATOM     30  C   UNL A   1      35.909  33.608  28.211  1.00  0.00     0.016 A 
ATOM     31  C   UNL A   1      35.611  30.946  29.074  1.00  0.00     0.010 A 
ATOM     32  C   UNL A   1      37.030  32.854  28.582  1.00  0.00     0.010 A 
ATOM     33  C   UNL A   1      36.879  31.536  29.055  1.00  0.00    -0.014 A 
BRANCH  33  34
ATOM     34  C   UNL A   1      37.998  30.859  29.755  1.00  0.00     0.031 A 
ATOM     35  C   UNL A   1      38.251  31.211  31.197  1.00  0.00     0.074 A 
ATOM     36  C   UNL A   1      38.761  29.939  29.140  1.00  0.00     0.049 A 
ATOM     37  N   UNL A   1      39.163  30.758  32.015  1.00  0.00    -0.248 NA
ATOM     38  C   UNL A   1      37.348  32.210  31.795  1.00  0.00     0.031 C 
ATOM     39  C   UNL A   1      38.598  29.489  27.760  1.00  0.00     0.029 A 
ATOM     40  N   UNL A   1      39.843  29.231  29.603  1.00  0.00    -0.354 N 
ATOM     41  C   UNL A   1      38.970  31.440  33.211  1.00  0.00     0.074 A 
ATOM     42  C   UNL A   1      37.857  32.341  33.010  1.00  0.00     0.031 C 
ATOM     43  C   UNL A   1      39.561  28.592  27.481  1.00  0.00     0.029 A 
ATOM     44  C   UNL A   1      40.421  28.425  28.651  1.00  0.00     0.049 A 
ATOM     45  H   UNL A   1      40.171  29.294  30.528  1.00  0.00     0.167 HD
ATOM     46  C   UNL A   1      39.651  31.325  34.375  1.00  0.00     0.034 A 
ATOM     47  C   UNL A   1      41.527  27.658  28.717  1.00  0.00     0.034 A 
ATOM     48  C   UNL A   1      40.753  30.424  34.577  1.00  0.00     0.049 A 
ATOM     49  C   UNL A   1      42.301  27.585  30.011  1.00  0.00     0.074 A 
ATOM     50  C   UNL A   1      41.475  30.194  35.733  1.00  0.00     0.029 A 
ATOM     51  N   UNL A   1      41.308  29.622  33.591  1.00  0.00    -0.354 N 
ATOM     52  N   UNL A   1      42.038  28.146  31.167  1.00  0.00    -0.248 NA
ATOM     53  C   UNL A   1      43.512  26.750  30.014  1.00  0.00     0.031 C 
ATOM     54  C   UNL A   1      42.497  29.287  35.435  1.00  0.00     0.029 A 
ATOM     55  C   UNL A   1      42.382  28.915  34.105  1.00  0.00     0.049 A 
ATOM     56  H   UNL A   1      40.985  29.563  32.663  1.00  0.00     0.167 HD
ATOM     57  C   UNL A   1      43.020  27.697  32.045  1.00  0.00     0.074 A 
ATOM     58  C   UNL A   1      43.877  26.808  31.287  1.00  0.00     0.031 C 
ATOM     59  C   UNL A   1      43.200  27.996  33.355  1.00  0.00     0.034 A 
BRANCH  46  60
ATOM     60  C   UNL A   1      39.226  32.209  35.518  1.00  0.00     0.023 A 
ATOM     61  C   UNL A   1      38.288  31.743  36.462  1.00  0.00     0.012 A 
ATOM     62  C   UNL A   1      39.772  33.499  35.667  1.00  0.00     0.148 A 
ATOM     63  C   UNL A   1      37.867  32.561  37.509  1.00  0.00     0.002 A 
ATOM     64  C   UNL A   1      39.385  34.290  36.741  1.00  0.00     0.091 A 
ATOM     65  F   UNL A   1      40.642  33.935  34.746  1.00  0.00    -0.205 F 
ATOM     66  C   UNL A   1      38.423  33.830  37.655  1.00  0.00     0.022 A 
BRANCH  64  67
ATOM     67  S   UNL A   1      40.104  35.906  37.055  1.00  0.00     0.127 S 
ATOM     68  O   UNL A   1      39.753  36.627  35.832  1.00  0.00    -0.237 OA
ATOM     69  O   UNL A   1      39.376  36.340  38.248  1.00  0.00    -0.237 OA
ATOM     70  O   UNL A   1      41.527  35.679  37.262  1.00  0.00    -0.744 OA
ENDBRANCH  64  67
ENDBRANCH  46  60
BRANCH  47  71
ATOM     71  C   UNL A   1      41.953  26.855  27.535  1.00  0.00     0.023 A 
ATOM     72  C   UNL A   1      42.572  27.503  26.448  1.00  0.00     0.012 A 
ATOM     73  C   UNL A   1      41.756  25.462  27.483  1.00  0.00     0.148 A 
ATOM     74  C   UNL A   1      42.961  26.783  25.318  1.00  0.00     0.002 A 
ATOM     75  C   UNL A   1      42.192  24.743  26.376  1.00  0.00     0.091 A 
ATOM     76  F   UNL A   1      41.151  24.869  28.522  1.00  0.00    -0.205 F 
ATOM     77  C   UNL A   1      42.780  25.402  25.286  1.00  0.00     0.022 A 
BRANCH  75  78
ATOM     78  S   UNL A   1      42.103  22.951  26.289  1.00  0.00     0.127 S 
ATOM     79  O   UNL A   1      40.662  22.720  26.352  1.00  0.00    -0.237 OA
ATOM     80  O   UNL A   1      42.715  22.687  24.987  1.00  0.00    -0.237 OA
ATOM     81  O   UNL A   1      42.867  22.461  27.429  1.00  0.00    -0.744 OA
ENDBRANCH  75  78
ENDBRANCH  47  71
BRANCH  59  82
ATOM     82  C   UNL A   1      44.339  27.326  34.082  1.00  0.00     0.023 A 
ATOM     83  C   UNL A   1      45.626  27.896  34.063  1.00  0.00     0.012 A 
ATOM     84  C   UNL A   1      44.110  26.167  34.853  1.00  0.00     0.148 A 
ATOM     85  C   UNL A   1      46.675  27.307  34.770  1.00  0.00     0.002 A 
ATOM     86  C   UNL A   1      45.146  25.616  35.598  1.00  0.00     0.091 A 
ATOM     87  F   UNL A   1      42.882  25.628  34.848  1.00  0.00    -0.205 F 
ATOM     88  C   UNL A   1      46.433  26.176  35.546  1.00  0.00     0.022 A 
BRANCH  86  89
ATOM     89  S   UNL A   1      44.903  24.224  36.707  1.00  0.00     0.127 S 
ATOM     90  O   UNL A   1      43.985  24.787  37.696  1.00  0.00    -0.237 OA
ATOM     91  O   UNL A   1      44.307  23.223  35.821  1.00  0.00    -0.237 OA
ATOM     92  O   UNL A   1      46.225  23.875  37.210  1.00  0.00    -0.744 OA
ENDBRANCH  86  89
ENDBRANCH  59  82
ENDBRANCH  33  34
ENDBRANCH  26  28
ENDBRANCH  25  26
ENDBRANCH  24  25
ENDBRANCH  23  24
ENDBRANCH  22  23
ENDBRANCH   1  22
TORSDOF 21
ENDMDL
