MODEL 1
REMARK VINA RESULT:     -11.0      0.000      0.000
REMARK SMILES Cc1ccccc1C[C@H](CCSc1ccccc1)C(=O)OCCOCCOC(=O)c1ccc(-c2c3nc(c(-c4cccc(S(=O)(=O)[O-])c4F)c4ccc([nH]4)c(-c4cccc(S(=O)(=O)[O-])c4F)c4nc(c(-c5cccc(S(=O)(=O)[O-])c5F)c5ccc2[nH]5)C=C4)C=C3)cc1
REMARK SMILES IDX 23 1 22 2 21 3 19 4 20 5 9 6 8 7 7 8 1 9 2 10 3 11 4 12 6 13
REMARK SMILES IDX 5 14 10 15 11 16 12 17 13 18 14 19 18 20 15 21 17 22 16 23
REMARK SMILES IDX 24 24 25 25 26 26 27 27 28 28 29 29 30 30 31 31 92 32 32 33
REMARK SMILES IDX 91 34 33 35 34 36 35 37 85 38 36 39 90 40 84 41 86 42 37 43
REMARK SMILES IDX 89 44 83 45 82 46 38 48 70 49 50 50 69 51 51 52 54 53 68 54
REMARK SMILES IDX 87 55 52 56 53 57 67 59 88 60 55 61 39 62 40 63 48 64 41 65
REMARK SMILES IDX 43 66 49 67 42 68 44 69 45 70 46 71 47 72 71 73 72 74 80 75
REMARK SMILES IDX 73 76 75 77 81 78 74 79 76 80 77 81 78 82 79 83 56 84 57 85
REMARK SMILES IDX 65 86 58 87 60 88 66 89 59 90 61 91 62 92 63 93 64 94
REMARK H PARENT 86 47 54 58
REMARK Flexibility Score: inf
ROOT
ATOM      1  C   UNL A   1      35.271  22.825  23.333  1.00  0.00     0.202 C 
ENDROOT
BRANCH   1   2
ATOM      2  C   UNL A   1      34.718  24.221  23.188  1.00  0.00     0.261 C 
BRANCH   2   3
ATOM      3  O   UNL A   1      34.008  24.652  24.370  1.00  0.00    -0.463 OA
BRANCH   3   4
ATOM      4  C   UNL A   1      32.652  24.551  24.266  1.00  0.00     0.309 C 
ATOM      5  O   UNL A   1      32.007  24.620  23.240  1.00  0.00    -0.252 OA
BRANCH   4   6
ATOM      6  C   UNL A   1      31.974  24.272  25.586  1.00  0.00     0.104 C 
BRANCH   6   7
ATOM      7  C   UNL A   1      31.338  25.499  26.235  1.00  0.00     0.051 C 
BRANCH   7   8
ATOM      8  C   UNL A   1      31.947  26.840  25.885  1.00  0.00    -0.044 A 
ATOM      9  C   UNL A   1      30.280  27.469  24.021  1.00  0.00     0.044 C 
ATOM     10  C   UNL A   1      31.220  27.784  25.139  1.00  0.00    -0.048 A 
ATOM     11  C   UNL A   1      31.468  29.130  25.354  1.00  0.00     0.004 A 
ATOM     12  C   UNL A   1      32.591  29.500  26.058  1.00  0.00     0.000 A 
ATOM     13  C   UNL A   1      33.145  27.255  26.490  1.00  0.00     0.004 A 
ATOM     14  C   UNL A   1      33.503  28.583  26.528  1.00  0.00     0.000 A 
ENDBRANCH   7   8
ENDBRANCH   6   7
BRANCH   6  15
ATOM     15  C   UNL A   1      32.859  23.472  26.533  1.00  0.00     0.027 C 
BRANCH  15  16
ATOM     16  C   UNL A   1      32.830  21.958  26.260  1.00  0.00     0.076 C 
BRANCH  16  17
ATOM     17  S   UNL A   1      31.982  21.395  24.713  1.00  0.00    -0.126 SA
BRANCH  17  18
ATOM     18  C   UNL A   1      32.794  19.863  24.228  1.00  0.00     0.007 A 
ATOM     19  C   UNL A   1      34.041  19.534  24.783  1.00  0.00     0.015 A 
ATOM     20  C   UNL A   1      32.165  18.913  23.416  1.00  0.00     0.015 A 
ATOM     21  C   UNL A   1      34.695  18.346  24.446  1.00  0.00     0.001 A 
ATOM     22  C   UNL A   1      32.802  17.696  23.116  1.00  0.00     0.001 A 
ATOM     23  C   UNL A   1      34.079  17.428  23.606  1.00  0.00     0.000 A 
ENDBRANCH  17  18
ENDBRANCH  16  17
ENDBRANCH  15  16
ENDBRANCH   6  15
ENDBRANCH   4   6
ENDBRANCH   3   4
ENDBRANCH   2   3
ENDBRANCH   1   2
BRANCH   1  24
ATOM     24  O   UNL A   1      35.706  22.733  24.677  1.00  0.00    -0.374 OA
BRANCH  24  25
ATOM     25  C   UNL A   1      36.975  22.194  24.937  1.00  0.00     0.202 C 
BRANCH  25  26
ATOM     26  C   UNL A   1      37.877  23.206  25.632  1.00  0.00     0.261 C 
BRANCH  26  27
ATOM     27  O   UNL A   1      38.804  22.494  26.481  1.00  0.00    -0.460 OA
BRANCH  27  28
ATOM     28  C   UNL A   1      40.030  23.074  26.599  1.00  0.00     0.338 C 
ATOM     29  O   UNL A   1      41.081  22.437  26.646  1.00  0.00    -0.246 OA
BRANCH  28  30
ATOM     30  C   UNL A   1      39.904  24.526  26.928  1.00  0.00     0.060 A 
ATOM     31  C   UNL A   1      40.517  25.487  26.106  1.00  0.00     0.016 A 
ATOM     32  C   UNL A   1      39.457  24.901  28.193  1.00  0.00     0.016 A 
ATOM     33  C   UNL A   1      40.845  26.756  26.615  1.00  0.00     0.010 A 
ATOM     34  C   UNL A   1      39.865  26.119  28.715  1.00  0.00     0.010 A 
ATOM     35  C   UNL A   1      40.612  27.039  27.952  1.00  0.00    -0.014 A 
BRANCH  35  36
ATOM     36  C   UNL A   1      41.002  28.257  28.688  1.00  0.00     0.031 A 
ATOM     37  C   UNL A   1      39.959  29.331  28.707  1.00  0.00     0.074 A 
ATOM     38  C   UNL A   1      42.060  28.318  29.540  1.00  0.00     0.049 A 
ATOM     39  N   UNL A   1      39.911  30.332  29.513  1.00  0.00    -0.248 NA
ATOM     40  C   UNL A   1      38.828  29.312  27.784  1.00  0.00     0.031 C 
ATOM     41  C   UNL A   1      42.136  29.186  30.708  1.00  0.00     0.029 A 
ATOM     42  N   UNL A   1      43.265  27.611  29.628  1.00  0.00    -0.354 N 
ATOM     43  C   UNL A   1      38.721  31.000  29.338  1.00  0.00     0.074 A 
ATOM     44  C   UNL A   1      38.070  30.303  28.261  1.00  0.00     0.031 C 
ATOM     45  C   UNL A   1      43.276  29.003  31.387  1.00  0.00     0.029 A 
ATOM     46  C   UNL A   1      44.142  28.302  30.490  1.00  0.00     0.049 A 
ATOM     47  H   UNL A   1      43.466  26.768  29.164  1.00  0.00     0.167 HD
ATOM     48  C   UNL A   1      38.431  32.045  30.165  1.00  0.00     0.034 A 
ATOM     49  C   UNL A   1      45.306  28.846  30.034  1.00  0.00     0.034 A 
ATOM     50  C   UNL A   1      39.660  32.532  30.860  1.00  0.00     0.049 A 
ATOM     51  C   UNL A   1      45.189  30.376  30.039  1.00  0.00     0.074 A 
ATOM     52  C   UNL A   1      39.981  32.900  32.152  1.00  0.00     0.029 A 
ATOM     53  N   UNL A   1      40.876  32.642  30.147  1.00  0.00    -0.354 N 
ATOM     54  N   UNL A   1      44.051  31.039  30.035  1.00  0.00    -0.248 NA
ATOM     55  C   UNL A   1      46.327  31.260  30.265  1.00  0.00     0.031 C 
ATOM     56  C   UNL A   1      41.394  33.092  32.235  1.00  0.00     0.029 A 
ATOM     57  C   UNL A   1      41.950  32.905  30.978  1.00  0.00     0.049 A 
ATOM     58  H   UNL A   1      40.950  32.544  29.169  1.00  0.00     0.167 HD
ATOM     59  C   UNL A   1      44.258  32.361  30.320  1.00  0.00     0.074 A 
ATOM     60  C   UNL A   1      45.711  32.445  30.444  1.00  0.00     0.031 C 
ATOM     61  C   UNL A   1      43.269  33.302  30.483  1.00  0.00     0.034 A 
BRANCH  48  62
ATOM     62  C   UNL A   1      37.007  32.578  30.466  1.00  0.00     0.023 A 
ATOM     63  C   UNL A   1      36.473  32.329  31.754  1.00  0.00     0.012 A 
ATOM     64  C   UNL A   1      36.104  33.231  29.584  1.00  0.00     0.148 A 
ATOM     65  C   UNL A   1      35.153  32.623  32.128  1.00  0.00     0.002 A 
ATOM     66  C   UNL A   1      34.796  33.579  29.971  1.00  0.00     0.091 A 
ATOM     67  F   UNL A   1      36.471  33.533  28.344  1.00  0.00    -0.205 F 
ATOM     68  C   UNL A   1      34.311  33.252  31.235  1.00  0.00     0.022 A 
BRANCH  66  69
ATOM     69  S   UNL A   1      33.651  34.477  28.899  1.00  0.00     0.127 S 
ATOM     70  O   UNL A   1      32.597  34.871  29.836  1.00  0.00    -0.237 OA
ATOM     71  O   UNL A   1      34.479  35.584  28.422  1.00  0.00    -0.237 OA
ATOM     72  O   UNL A   1      33.226  33.541  27.867  1.00  0.00    -0.744 OA
ENDBRANCH  66  69
ENDBRANCH  48  62
BRANCH  49  73
ATOM     73  C   UNL A   1      45.988  27.887  29.100  1.00  0.00     0.023 A 
ATOM     74  C   UNL A   1      46.305  26.616  29.670  1.00  0.00     0.012 A 
ATOM     75  C   UNL A   1      45.718  27.948  27.727  1.00  0.00     0.148 A 
ATOM     76  C   UNL A   1      46.091  25.433  28.955  1.00  0.00     0.002 A 
ATOM     77  C   UNL A   1      45.487  26.762  27.026  1.00  0.00     0.091 A 
ATOM     78  F   UNL A   1      45.598  29.151  27.152  1.00  0.00    -0.205 F 
ATOM     79  C   UNL A   1      45.617  25.508  27.651  1.00  0.00     0.022 A 
BRANCH  77  80
ATOM     80  S   UNL A   1      44.807  26.808  25.363  1.00  0.00     0.127 S 
ATOM     81  O   UNL A   1      46.015  26.839  24.546  1.00  0.00    -0.237 OA
ATOM     82  O   UNL A   1      44.051  25.557  25.288  1.00  0.00    -0.237 OA
ATOM     83  O   UNL A   1      43.979  28.005  25.335  1.00  0.00    -0.744 OA
ENDBRANCH  77  80
ENDBRANCH  49  73
BRANCH  61  84
ATOM     84  C   UNL A   1      43.474  34.798  30.275  1.00  0.00     0.023 A 
ATOM     85  C   UNL A   1      44.252  35.561  31.161  1.00  0.00     0.012 A 
ATOM     86  C   UNL A   1      43.078  35.445  29.068  1.00  0.00     0.148 A 
ATOM     87  C   UNL A   1      44.567  36.897  30.903  1.00  0.00     0.002 A 
ATOM     88  C   UNL A   1      43.473  36.739  28.770  1.00  0.00     0.091 A 
ATOM     89  F   UNL A   1      42.311  34.822  28.169  1.00  0.00    -0.205 F 
ATOM     90  C   UNL A   1      44.197  37.480  29.698  1.00  0.00     0.022 A 
BRANCH  88  91
ATOM     91  S   UNL A   1      43.188  37.457  27.143  1.00  0.00     0.127 S 
ATOM     92  O   UNL A   1      44.339  38.348  27.012  1.00  0.00    -0.237 OA
ATOM     93  O   UNL A   1      43.227  36.273  26.283  1.00  0.00    -0.237 OA
ATOM     94  O   UNL A   1      41.890  38.115  27.201  1.00  0.00    -0.744 OA
ENDBRANCH  88  91
ENDBRANCH  61  84
ENDBRANCH  35  36
ENDBRANCH  28  30
ENDBRANCH  27  28
ENDBRANCH  26  27
ENDBRANCH  25  26
ENDBRANCH  24  25
ENDBRANCH   1  24
TORSDOF 23
ENDMDL
MODEL 2
REMARK VINA RESULT:     -10.6      1.607      2.310
REMARK SMILES Cc1ccccc1C[C@H](CCSc1ccccc1)C(=O)OCCOCCOC(=O)c1ccc(-c2c3nc(c(-c4cccc(S(=O)(=O)[O-])c4F)c4ccc([nH]4)c(-c4cccc(S(=O)(=O)[O-])c4F)c4nc(c(-c5cccc(S(=O)(=O)[O-])c5F)c5ccc2[nH]5)C=C4)C=C3)cc1
REMARK SMILES IDX 23 1 22 2 21 3 19 4 20 5 9 6 8 7 7 8 1 9 2 10 3 11 4 12 6 13
REMARK SMILES IDX 5 14 10 15 11 16 12 17 13 18 14 19 18 20 15 21 17 22 16 23
REMARK SMILES IDX 24 24 25 25 26 26 27 27 28 28 29 29 30 30 31 31 92 32 32 33
REMARK SMILES IDX 91 34 33 35 34 36 35 37 85 38 36 39 90 40 84 41 86 42 37 43
REMARK SMILES IDX 89 44 83 45 82 46 38 48 70 49 50 50 69 51 51 52 54 53 68 54
REMARK SMILES IDX 87 55 52 56 53 57 67 59 88 60 55 61 39 62 40 63 48 64 41 65
REMARK SMILES IDX 43 66 49 67 42 68 44 69 45 70 46 71 47 72 71 73 72 74 80 75
REMARK SMILES IDX 73 76 75 77 81 78 74 79 76 80 77 81 78 82 79 83 56 84 57 85
REMARK SMILES IDX 65 86 58 87 60 88 66 89 59 90 61 91 62 92 63 93 64 94
REMARK H PARENT 86 47 54 58
REMARK Flexibility Score: inf
ROOT
ATOM      1  C   UNL A   1      36.309  22.675  23.541  1.00  0.00     0.202 C 
ENDROOT
BRANCH   1   2
ATOM      2  C   UNL A   1      34.890  23.155  23.370  1.00  0.00     0.261 C 
BRANCH   2   3
ATOM      3  O   UNL A   1      34.730  24.535  23.768  1.00  0.00    -0.463 OA
BRANCH   3   4
ATOM      4  C   UNL A   1      33.763  25.201  23.072  1.00  0.00     0.309 C 
ATOM      5  O   UNL A   1      33.507  25.061  21.895  1.00  0.00    -0.252 OA
BRANCH   4   6
ATOM      6  C   UNL A   1      32.948  26.134  23.935  1.00  0.00     0.104 C 
BRANCH   6   7
ATOM      7  C   UNL A   1      32.645  27.482  23.286  1.00  0.00     0.051 C 
BRANCH   7   8
ATOM      8  C   UNL A   1      31.293  28.090  23.593  1.00  0.00    -0.044 A 
ATOM      9  C   UNL A   1      32.088  29.727  25.421  1.00  0.00     0.044 C 
ATOM     10  C   UNL A   1      31.196  29.302  24.299  1.00  0.00    -0.048 A 
ATOM     11  C   UNL A   1      30.121  30.136  24.038  1.00  0.00     0.004 A 
ATOM     12  C   UNL A   1      29.049  29.644  23.330  1.00  0.00     0.000 A 
ATOM     13  C   UNL A   1      30.133  27.586  22.983  1.00  0.00     0.004 A 
ATOM     14  C   UNL A   1      28.984  28.339  22.899  1.00  0.00     0.000 A 
ENDBRANCH   7   8
ENDBRANCH   6   7
BRANCH   6  15
ATOM     15  C   UNL A   1      33.504  26.249  25.349  1.00  0.00     0.027 C 
BRANCH  15  16
ATOM     16  C   UNL A   1      32.433  26.075  26.440  1.00  0.00     0.076 C 
BRANCH  16  17
ATOM     17  S   UNL A   1      31.135  24.785  26.151  1.00  0.00    -0.126 SA
BRANCH  17  18
ATOM     18  C   UNL A   1      31.988  23.200  26.197  1.00  0.00     0.007 A 
ATOM     19  C   UNL A   1      31.732  22.247  25.198  1.00  0.00     0.015 A 
ATOM     20  C   UNL A   1      33.005  22.929  27.119  1.00  0.00     0.015 A 
ATOM     21  C   UNL A   1      32.386  21.012  25.188  1.00  0.00     0.001 A 
ATOM     22  C   UNL A   1      33.697  21.706  27.079  1.00  0.00     0.001 A 
ATOM     23  C   UNL A   1      33.366  20.737  26.134  1.00  0.00     0.000 A 
ENDBRANCH  17  18
ENDBRANCH  16  17
ENDBRANCH  15  16
ENDBRANCH   6  15
ENDBRANCH   4   6
ENDBRANCH   3   4
ENDBRANCH   2   3
ENDBRANCH   1   2
BRANCH   1  24
ATOM     24  O   UNL A   1      36.295  21.867  24.703  1.00  0.00    -0.374 OA
BRANCH  24  25
ATOM     25  C   UNL A   1      37.124  22.221  25.778  1.00  0.00     0.202 C 
BRANCH  25  26
ATOM     26  C   UNL A   1      38.471  21.513  25.697  1.00  0.00     0.261 C 
BRANCH  26  27
ATOM     27  O   UNL A   1      39.516  22.509  25.656  1.00  0.00    -0.460 OA
BRANCH  27  28
ATOM     28  C   UNL A   1      40.015  22.860  26.873  1.00  0.00     0.338 C 
ATOM     29  O   UNL A   1      40.351  22.044  27.731  1.00  0.00    -0.246 OA
BRANCH  28  30
ATOM     30  C   UNL A   1      39.849  24.324  27.117  1.00  0.00     0.060 A 
ATOM     31  C   UNL A   1      40.332  25.251  26.178  1.00  0.00     0.016 A 
ATOM     32  C   UNL A   1      39.507  24.767  28.394  1.00  0.00     0.016 A 
ATOM     33  C   UNL A   1      40.643  26.566  26.568  1.00  0.00     0.010 A 
ATOM     34  C   UNL A   1      39.902  26.035  28.792  1.00  0.00     0.010 A 
ATOM     35  C   UNL A   1      40.526  26.931  27.901  1.00  0.00    -0.014 A 
BRANCH  35  36
ATOM     36  C   UNL A   1      40.923  28.214  28.513  1.00  0.00     0.031 A 
ATOM     37  C   UNL A   1      39.850  29.258  28.517  1.00  0.00     0.074 A 
ATOM     38  C   UNL A   1      42.029  28.369  29.289  1.00  0.00     0.049 A 
ATOM     39  N   UNL A   1      39.821  30.318  29.244  1.00  0.00    -0.248 NA
ATOM     40  C   UNL A   1      38.666  29.137  27.672  1.00  0.00     0.031 C 
ATOM     41  C   UNL A   1      42.151  29.328  30.379  1.00  0.00     0.029 A 
ATOM     42  N   UNL A   1      43.258  27.703  29.354  1.00  0.00    -0.354 N 
ATOM     43  C   UNL A   1      38.603  30.939  29.095  1.00  0.00     0.074 A 
ATOM     44  C   UNL A   1      37.909  30.142  28.119  1.00  0.00     0.031 C 
ATOM     45  C   UNL A   1      43.336  29.229  30.996  1.00  0.00     0.029 A 
ATOM     46  C   UNL A   1      44.166  28.482  30.101  1.00  0.00     0.049 A 
ATOM     47  H   UNL A   1      43.457  26.830  28.944  1.00  0.00     0.167 HD
ATOM     48  C   UNL A   1      38.333  32.038  29.855  1.00  0.00     0.034 A 
ATOM     49  C   UNL A   1      45.282  29.018  29.532  1.00  0.00     0.034 A 
ATOM     50  C   UNL A   1      39.587  32.610  30.431  1.00  0.00     0.049 A 
ATOM     51  C   UNL A   1      45.119  30.540  29.426  1.00  0.00     0.074 A 
ATOM     52  C   UNL A   1      39.976  33.088  31.666  1.00  0.00     0.029 A 
ATOM     53  N   UNL A   1      40.753  32.695  29.634  1.00  0.00    -0.354 N 
ATOM     54  N   UNL A   1      43.962  31.171  29.443  1.00  0.00    -0.248 NA
ATOM     55  C   UNL A   1      46.240  31.469  29.509  1.00  0.00     0.031 C 
ATOM     56  C   UNL A   1      41.384  33.322  31.643  1.00  0.00     0.029 A 
ATOM     57  C   UNL A   1      41.867  33.051  30.372  1.00  0.00     0.049 A 
ATOM     58  H   UNL A   1      40.769  32.522  28.665  1.00  0.00     0.167 HD
ATOM     59  C   UNL A   1      44.145  32.516  29.611  1.00  0.00     0.074 A 
ATOM     60  C   UNL A   1      45.600  32.647  29.635  1.00  0.00     0.031 C 
ATOM     61  C   UNL A   1      43.140  33.441  29.765  1.00  0.00     0.034 A 
BRANCH  48  62
ATOM     62  C   UNL A   1      36.914  32.556  30.205  1.00  0.00     0.023 A 
ATOM     63  C   UNL A   1      36.389  32.219  31.476  1.00  0.00     0.012 A 
ATOM     64  C   UNL A   1      36.008  33.275  29.380  1.00  0.00     0.148 A 
ATOM     65  C   UNL A   1      35.074  32.494  31.881  1.00  0.00     0.002 A 
ATOM     66  C   UNL A   1      34.706  33.602  29.800  1.00  0.00     0.091 A 
ATOM     67  F   UNL A   1      36.367  33.663  28.160  1.00  0.00    -0.205 F 
ATOM     68  C   UNL A   1      34.229  33.189  31.042  1.00  0.00     0.022 A 
BRANCH  66  69
ATOM     69  S   UNL A   1      33.558  34.580  28.805  1.00  0.00     0.127 S 
ATOM     70  O   UNL A   1      32.588  35.030  29.805  1.00  0.00    -0.237 OA
ATOM     71  O   UNL A   1      34.424  35.638  28.285  1.00  0.00    -0.237 OA
ATOM     72  O   UNL A   1      33.014  33.682  27.794  1.00  0.00    -0.744 OA
ENDBRANCH  66  69
ENDBRANCH  48  62
BRANCH  49  73
ATOM     73  C   UNL A   1      45.934  28.006  28.633  1.00  0.00     0.023 A 
ATOM     74  C   UNL A   1      46.734  27.032  29.305  1.00  0.00     0.012 A 
ATOM     75  C   UNL A   1      45.305  27.635  27.437  1.00  0.00     0.148 A 
ATOM     76  C   UNL A   1      46.680  25.682  28.943  1.00  0.00     0.002 A 
ATOM     77  C   UNL A   1      45.240  26.283  27.094  1.00  0.00     0.091 A 
ATOM     78  F   UNL A   1      44.704  28.584  26.709  1.00  0.00    -0.205 F 
ATOM     79  C   UNL A   1      45.877  25.300  27.875  1.00  0.00     0.022 A 
BRANCH  77  80
ATOM     80  S   UNL A   1      44.160  25.734  25.767  1.00  0.00     0.127 S 
ATOM     81  O   UNL A   1      43.495  26.976  25.389  1.00  0.00    -0.237 OA
ATOM     82  O   UNL A   1      45.105  25.220  24.773  1.00  0.00    -0.237 OA
ATOM     83  O   UNL A   1      43.320  24.711  26.372  1.00  0.00    -0.744 OA
ENDBRANCH  77  80
ENDBRANCH  49  73
BRANCH  61  84
ATOM     84  C   UNL A   1      43.285  34.921  29.429  1.00  0.00     0.023 A 
ATOM     85  C   UNL A   1      42.689  35.475  28.284  1.00  0.00     0.012 A 
ATOM     86  C   UNL A   1      43.837  35.847  30.362  1.00  0.00     0.148 A 
ATOM     87  C   UNL A   1      42.691  36.850  28.044  1.00  0.00     0.002 A 
ATOM     88  C   UNL A   1      43.752  37.217  30.168  1.00  0.00     0.091 A 
ATOM     89  F   UNL A   1      44.454  35.429  31.470  1.00  0.00    -0.205 F 
ATOM     90  C   UNL A   1      43.203  37.723  28.994  1.00  0.00     0.022 A 
BRANCH  88  91
ATOM     91  S   UNL A   1      44.218  38.379  31.461  1.00  0.00     0.127 S 
ATOM     92  O   UNL A   1      45.663  38.480  31.257  1.00  0.00    -0.237 OA
ATOM     93  O   UNL A   1      43.461  39.572  31.078  1.00  0.00    -0.237 OA
ATOM     94  O   UNL A   1      43.804  37.785  32.724  1.00  0.00    -0.744 OA
ENDBRANCH  88  91
ENDBRANCH  61  84
ENDBRANCH  35  36
ENDBRANCH  28  30
ENDBRANCH  27  28
ENDBRANCH  26  27
ENDBRANCH  25  26
ENDBRANCH  24  25
ENDBRANCH   1  24
TORSDOF 23
ENDMDL
MODEL 3
REMARK VINA RESULT:     -10.6      4.487     10.162
REMARK SMILES Cc1ccccc1C[C@H](CCSc1ccccc1)C(=O)OCCOCCOC(=O)c1ccc(-c2c3nc(c(-c4cccc(S(=O)(=O)[O-])c4F)c4ccc([nH]4)c(-c4cccc(S(=O)(=O)[O-])c4F)c4nc(c(-c5cccc(S(=O)(=O)[O-])c5F)c5ccc2[nH]5)C=C4)C=C3)cc1
REMARK SMILES IDX 23 1 22 2 21 3 19 4 20 5 9 6 8 7 7 8 1 9 2 10 3 11 4 12 6 13
REMARK SMILES IDX 5 14 10 15 11 16 12 17 13 18 14 19 18 20 15 21 17 22 16 23
REMARK SMILES IDX 24 24 25 25 26 26 27 27 28 28 29 29 30 30 31 31 92 32 32 33
REMARK SMILES IDX 91 34 33 35 34 36 35 37 85 38 36 39 90 40 84 41 86 42 37 43
REMARK SMILES IDX 89 44 83 45 82 46 38 48 70 49 50 50 69 51 51 52 54 53 68 54
REMARK SMILES IDX 87 55 52 56 53 57 67 59 88 60 55 61 39 62 40 63 48 64 41 65
REMARK SMILES IDX 43 66 49 67 42 68 44 69 45 70 46 71 47 72 71 73 72 74 80 75
REMARK SMILES IDX 73 76 75 77 81 78 74 79 76 80 77 81 78 82 79 83 56 84 57 85
REMARK SMILES IDX 65 86 58 87 60 88 66 89 59 90 61 91 62 92 63 93 64 94
REMARK H PARENT 86 47 54 58
REMARK Flexibility Score: inf
ROOT
ATOM      1  C   UNL A   1      33.084  29.781  26.499  1.00  0.00     0.202 C 
ENDROOT
BRANCH   1   2
ATOM      2  C   UNL A   1      32.680  28.786  25.440  1.00  0.00     0.261 C 
BRANCH   2   3
ATOM      3  O   UNL A   1      33.694  27.780  25.222  1.00  0.00    -0.463 OA
BRANCH   3   4
ATOM      4  C   UNL A   1      33.635  27.197  23.990  1.00  0.00     0.309 C 
ATOM      5  O   UNL A   1      33.932  27.720  22.936  1.00  0.00    -0.252 OA
BRANCH   4   6
ATOM      6  C   UNL A   1      33.207  25.749  24.039  1.00  0.00     0.104 C 
BRANCH   6   7
ATOM      7  C   UNL A   1      33.533  24.957  22.776  1.00  0.00     0.051 C 
BRANCH   7   8
ATOM      8  C   UNL A   1      33.536  23.448  22.907  1.00  0.00    -0.044 A 
ATOM      9  C   UNL A   1      35.862  23.228  24.000  1.00  0.00     0.044 C 
ATOM     10  C   UNL A   1      34.447  22.805  23.762  1.00  0.00    -0.048 A 
ATOM     11  C   UNL A   1      34.072  21.609  24.351  1.00  0.00     0.004 A 
ATOM     12  C   UNL A   1      32.964  20.946  23.873  1.00  0.00     0.000 A 
ATOM     13  C   UNL A   1      32.487  22.688  22.365  1.00  0.00     0.004 A 
ATOM     14  C   UNL A   1      32.231  21.408  22.805  1.00  0.00     0.000 A 
ENDBRANCH   7   8
ENDBRANCH   6   7
BRANCH   6  15
ATOM     15  C   UNL A   1      31.765  25.588  24.504  1.00  0.00     0.027 C 
BRANCH  15  16
ATOM     16  C   UNL A   1      30.735  25.821  23.385  1.00  0.00     0.076 C 
BRANCH  16  17
ATOM     17  S   UNL A   1      29.081  26.490  23.885  1.00  0.00    -0.126 SA
BRANCH  17  18
ATOM     18  C   UNL A   1      28.964  28.130  23.153  1.00  0.00     0.007 A 
ATOM     19  C   UNL A   1      30.086  28.688  22.521  1.00  0.00     0.015 A 
ATOM     20  C   UNL A   1      27.750  28.821  23.068  1.00  0.00     0.015 A 
ATOM     21  C   UNL A   1      30.031  29.952  21.925  1.00  0.00     0.001 A 
ATOM     22  C   UNL A   1      27.684  30.070  22.427  1.00  0.00     0.001 A 
ATOM     23  C   UNL A   1      28.830  30.648  21.884  1.00  0.00     0.000 A 
ENDBRANCH  17  18
ENDBRANCH  16  17
ENDBRANCH  15  16
ENDBRANCH   6  15
ENDBRANCH   4   6
ENDBRANCH   3   4
ENDBRANCH   2   3
ENDBRANCH   1   2
BRANCH   1  24
ATOM     24  O   UNL A   1      31.991  30.672  26.613  1.00  0.00    -0.374 OA
BRANCH  24  25
ATOM     25  C   UNL A   1      32.245  32.006  26.965  1.00  0.00     0.202 C 
BRANCH  25  26
ATOM     26  C   UNL A   1      33.653  32.175  27.523  1.00  0.00     0.261 C 
BRANCH  26  27
ATOM     27  O   UNL A   1      33.561  32.733  28.852  1.00  0.00    -0.460 OA
BRANCH  27  28
ATOM     28  C   UNL A   1      34.187  33.932  29.011  1.00  0.00     0.338 C 
ATOM     29  O   UNL A   1      33.799  34.975  28.487  1.00  0.00    -0.246 OA
BRANCH  28  30
ATOM     30  C   UNL A   1      35.519  33.756  29.664  1.00  0.00     0.060 A 
ATOM     31  C   UNL A   1      36.692  33.815  28.893  1.00  0.00     0.016 A 
ATOM     32  C   UNL A   1      35.580  33.231  30.954  1.00  0.00     0.016 A 
ATOM     33  C   UNL A   1      37.870  33.188  29.336  1.00  0.00     0.010 A 
ATOM     34  C   UNL A   1      36.716  32.537  31.342  1.00  0.00     0.010 A 
ATOM     35  C   UNL A   1      37.855  32.459  30.516  1.00  0.00    -0.014 A 
BRANCH  35  36
ATOM     36  C   UNL A   1      38.947  31.636  31.070  1.00  0.00     0.031 A 
ATOM     37  C   UNL A   1      39.177  30.344  30.350  1.00  0.00     0.074 A 
ATOM     38  C   UNL A   1      39.879  32.106  31.941  1.00  0.00     0.049 A 
ATOM     39  N   UNL A   1      40.230  29.609  30.419  1.00  0.00    -0.248 NA
ATOM     40  C   UNL A   1      38.182  29.795  29.432  1.00  0.00     0.031 C 
ATOM     41  C   UNL A   1      41.251  31.622  32.031  1.00  0.00     0.029 A 
ATOM     42  N   UNL A   1      39.875  33.135  32.889  1.00  0.00    -0.354 N 
ATOM     43  C   UNL A   1      40.142  28.598  29.490  1.00  0.00     0.074 A 
ATOM     44  C   UNL A   1      38.850  28.778  28.882  1.00  0.00     0.031 C 
ATOM     45  C   UNL A   1      41.956  32.299  32.948  1.00  0.00     0.029 A 
ATOM     46  C   UNL A   1      40.982  32.974  33.749  1.00  0.00     0.049 A 
ATOM     47  H   UNL A   1      39.207  33.856  32.947  1.00  0.00     0.167 HD
ATOM     48  C   UNL A   1      41.204  27.758  29.337  1.00  0.00     0.034 A 
ATOM     49  C   UNL A   1      40.820  32.702  35.075  1.00  0.00     0.034 A 
ATOM     50  C   UNL A   1      42.128  27.846  30.507  1.00  0.00     0.049 A 
ATOM     51  C   UNL A   1      41.259  31.258  35.355  1.00  0.00     0.074 A 
ATOM     52  C   UNL A   1      43.496  27.926  30.680  1.00  0.00     0.029 A 
ATOM     53  N   UNL A   1      41.600  27.924  31.817  1.00  0.00    -0.354 N 
ATOM     54  N   UNL A   1      41.336  30.310  34.444  1.00  0.00    -0.248 NA
ATOM     55  C   UNL A   1      41.842  30.835  36.623  1.00  0.00     0.031 C 
ATOM     56  C   UNL A   1      43.768  28.187  32.057  1.00  0.00     0.029 A 
ATOM     57  C   UNL A   1      42.572  28.208  32.759  1.00  0.00     0.049 A 
ATOM     58  H   UNL A   1      40.648  27.790  32.034  1.00  0.00     0.167 HD
ATOM     59  C   UNL A   1      42.012  29.225  34.929  1.00  0.00     0.074 A 
ATOM     60  C   UNL A   1      42.297  29.607  36.310  1.00  0.00     0.031 C 
ATOM     61  C   UNL A   1      42.346  28.106  34.201  1.00  0.00     0.034 A 
BRANCH  48  62
ATOM     62  C   UNL A   1      41.507  26.922  28.066  1.00  0.00     0.023 A 
ATOM     63  C   UNL A   1      41.395  27.571  26.813  1.00  0.00     0.012 A 
ATOM     64  C   UNL A   1      41.815  25.538  27.973  1.00  0.00     0.148 A 
ATOM     65  C   UNL A   1      41.499  26.917  25.577  1.00  0.00     0.002 A 
ATOM     66  C   UNL A   1      41.976  24.886  26.736  1.00  0.00     0.091 A 
ATOM     67  F   UNL A   1      41.957  24.802  29.070  1.00  0.00    -0.205 F 
ATOM     68  C   UNL A   1      41.793  25.570  25.536  1.00  0.00     0.022 A 
BRANCH  66  69
ATOM     69  S   UNL A   1      42.441  23.147  26.585  1.00  0.00     0.127 S 
ATOM     70  O   UNL A   1      43.675  23.089  27.372  1.00  0.00    -0.237 OA
ATOM     71  O   UNL A   1      41.301  22.468  27.199  1.00  0.00    -0.237 OA
ATOM     72  O   UNL A   1      42.617  22.884  25.163  1.00  0.00    -0.744 OA
ENDBRANCH  66  69
ENDBRANCH  48  62
BRANCH  49  73
ATOM     73  C   UNL A   1      39.719  33.552  35.642  1.00  0.00     0.023 A 
ATOM     74  C   UNL A   1      38.473  32.877  35.825  1.00  0.00     0.012 A 
ATOM     75  C   UNL A   1      40.034  34.606  36.508  1.00  0.00     0.148 A 
ATOM     76  C   UNL A   1      37.714  33.069  36.984  1.00  0.00     0.002 A 
ATOM     77  C   UNL A   1      39.282  34.778  37.672  1.00  0.00     0.091 A 
ATOM     78  F   UNL A   1      41.107  35.358  36.236  1.00  0.00    -0.205 F 
ATOM     79  C   UNL A   1      38.157  33.976  37.940  1.00  0.00     0.022 A 
BRANCH  77  80
ATOM     80  S   UNL A   1      39.853  35.886  38.967  1.00  0.00     0.127 S 
ATOM     81  O   UNL A   1      41.281  35.586  39.008  1.00  0.00    -0.237 OA
ATOM     82  O   UNL A   1      39.522  37.208  38.432  1.00  0.00    -0.237 OA
ATOM     83  O   UNL A   1      39.081  35.510  40.143  1.00  0.00    -0.744 OA
ENDBRANCH  77  80
ENDBRANCH  49  73
BRANCH  61  84
ATOM     84  C   UNL A   1      42.603  26.735  34.816  1.00  0.00     0.023 A 
ATOM     85  C   UNL A   1      41.547  25.867  35.138  1.00  0.00     0.012 A 
ATOM     86  C   UNL A   1      43.916  26.184  34.886  1.00  0.00     0.148 A 
ATOM     87  C   UNL A   1      41.774  24.556  35.563  1.00  0.00     0.002 A 
ATOM     88  C   UNL A   1      44.133  24.855  35.215  1.00  0.00     0.091 A 
ATOM     89  F   UNL A   1      44.994  26.929  34.630  1.00  0.00    -0.205 F 
ATOM     90  C   UNL A   1      43.064  24.043  35.581  1.00  0.00     0.022 A 
BRANCH  88  91
ATOM     91  S   UNL A   1      45.760  24.101  35.056  1.00  0.00     0.127 S 
ATOM     92  O   UNL A   1      46.521  24.833  36.067  1.00  0.00    -0.237 OA
ATOM     93  O   UNL A   1      45.477  22.705  35.391  1.00  0.00    -0.237 OA
ATOM     94  O   UNL A   1      46.183  24.314  33.679  1.00  0.00    -0.744 OA
ENDBRANCH  88  91
ENDBRANCH  61  84
ENDBRANCH  35  36
ENDBRANCH  28  30
ENDBRANCH  27  28
ENDBRANCH  26  27
ENDBRANCH  25  26
ENDBRANCH  24  25
ENDBRANCH   1  24
TORSDOF 23
ENDMDL
