MODEL 1
REMARK VINA RESULT:      -8.9      0.000      0.000
REMARK SMILES N#C[C@@H]1CN(C(=O)NCCCC(=O)OCCOCCOC(=O)c2ccc(-c3c4nc(c(-c5cccc(S(=O)(=O)[O-])c5F)c5ccc([nH]5)c(-c5cccc(S(=O)(=O)[O-])c5F)c5nc(c(-c6cccc(S(=O)(=O)[O-])c6F)c6ccc3[nH]6)C=C5)C=C4)cc2)CCO1
REMARK SMILES IDX 16 1 15 2 14 3 12 4 13 5 11 6 10 7 9 8 8 9 6 10 7 11 5 13
REMARK SMILES IDX 3 14 4 15 88 16 87 17 86 18 2 19 1 20 17 21 18 22 19 23
REMARK SMILES IDX 20 24 21 25 22 26 23 27 24 28 85 29 25 30 84 31 26 32 27 33
REMARK SMILES IDX 28 34 78 35 29 36 83 37 77 38 79 39 30 40 82 41 76 42 75 43
REMARK SMILES IDX 31 45 63 46 43 47 62 48 44 49 47 50 61 51 80 52 45 53 46 54
REMARK SMILES IDX 60 56 81 57 48 58 32 59 33 60 41 61 34 62 36 63 42 64 35 65
REMARK SMILES IDX 37 66 38 67 39 68 40 69 64 70 65 71 73 72 66 73 68 74 74 75
REMARK SMILES IDX 67 76 69 77 70 78 71 79 72 80 49 81 50 82 58 83 51 84 53 85
REMARK SMILES IDX 59 86 52 87 54 88 55 89 56 90 57 91
REMARK H PARENT 8 12 79 44 47 55
REMARK Flexibility Score: inf
ROOT
ATOM      1  C   UNL A   1      34.082  34.164  28.580  1.00  0.00     0.202 C 
ENDROOT
BRANCH   1   2
ATOM      2  C   UNL A   1      33.711  32.780  28.034  1.00  0.00     0.261 C 
BRANCH   2   3
ATOM      3  O   UNL A   1      34.401  31.756  28.779  1.00  0.00    -0.463 OA
BRANCH   3   4
ATOM      4  C   UNL A   1      35.516  31.201  28.249  1.00  0.00     0.305 C 
ATOM      5  O   UNL A   1      36.437  31.818  27.735  1.00  0.00    -0.252 OA
BRANCH   4   6
ATOM      6  C   UNL A   1      35.486  29.689  28.378  1.00  0.00     0.124 C 
BRANCH   6   7
ATOM      7  C   UNL A   1      34.955  28.947  27.142  1.00  0.00     0.033 C 
BRANCH   7   8
ATOM      8  C   UNL A   1      33.625  29.494  26.613  1.00  0.00     0.118 C 
BRANCH   8   9
ATOM      9  N   UNL A   1      33.660  29.576  25.168  1.00  0.00    -0.338 N 
ATOM     10  C   UNL A   1      33.300  28.846  24.106  1.00  0.00     0.317 C 
ATOM     11  O   UNL A   1      33.666  29.308  23.022  1.00  0.00    -0.249 OA
ATOM     12  H   UNL A   1      34.073  30.422  24.882  1.00  0.00     0.165 HD
BRANCH  10  13
ATOM     13  N   UNL A   1      32.580  27.697  24.179  1.00  0.00    -0.319 N 
ATOM     14  C   UNL A   1      30.243  27.128  23.644  1.00  0.00     0.240 C 
ATOM     15  C   UNL A   1      31.259  27.442  24.747  1.00  0.00     0.169 C 
ATOM     16  O   UNL A   1      30.705  25.932  22.948  1.00  0.00    -0.360 OA
ATOM     17  C   UNL A   1      32.012  26.123  22.357  1.00  0.00     0.183 C 
ATOM     18  C   UNL A   1      33.061  26.541  23.403  1.00  0.00     0.150 C 
BRANCH  14  19
ATOM     19  C   UNL A   1      30.004  28.254  22.652  1.00  0.00     0.096 C 
ATOM     20  N   UNL A   1      29.805  29.189  21.829  1.00  0.00    -0.195 NA
ENDBRANCH  14  19
ENDBRANCH  10  13
ENDBRANCH   8   9
ENDBRANCH   7   8
ENDBRANCH   6   7
ENDBRANCH   4   6
ENDBRANCH   3   4
ENDBRANCH   2   3
ENDBRANCH   1   2
BRANCH   1  21
ATOM     21  O   UNL A   1      32.964  35.046  28.742  1.00  0.00    -0.374 OA
BRANCH  21  22
ATOM     22  C   UNL A   1      33.253  36.281  29.391  1.00  0.00     0.202 C 
BRANCH  22  23
ATOM     23  C   UNL A   1      32.521  36.503  30.718  1.00  0.00     0.261 C 
BRANCH  23  24
ATOM     24  O   UNL A   1      32.746  35.421  31.640  1.00  0.00    -0.460 OA
BRANCH  24  25
ATOM     25  C   UNL A   1      33.529  35.742  32.700  1.00  0.00     0.338 C 
ATOM     26  O   UNL A   1      33.284  36.558  33.579  1.00  0.00    -0.246 OA
BRANCH  25  27
ATOM     27  C   UNL A   1      34.708  34.860  32.738  1.00  0.00     0.060 A 
ATOM     28  C   UNL A   1      34.555  33.563  33.240  1.00  0.00     0.016 A 
ATOM     29  C   UNL A   1      35.961  35.319  32.340  1.00  0.00     0.016 A 
ATOM     30  C   UNL A   1      35.662  32.718  33.354  1.00  0.00     0.010 A 
ATOM     31  C   UNL A   1      37.064  34.470  32.465  1.00  0.00     0.010 A 
ATOM     32  C   UNL A   1      36.935  33.167  32.979  1.00  0.00    -0.014 A 
BRANCH  32  33
ATOM     33  C   UNL A   1      38.150  32.339  33.228  1.00  0.00     0.031 A 
ATOM     34  C   UNL A   1      38.948  32.574  34.485  1.00  0.00     0.074 A 
ATOM     35  C   UNL A   1      38.569  31.412  32.343  1.00  0.00     0.049 A 
ATOM     36  N   UNL A   1      40.054  32.003  34.890  1.00  0.00    -0.248 NA
ATOM     37  C   UNL A   1      38.445  33.612  35.403  1.00  0.00     0.031 C 
ATOM     38  C   UNL A   1      37.937  31.117  31.057  1.00  0.00     0.029 A 
ATOM     39  N   UNL A   1      39.646  30.557  32.385  1.00  0.00    -0.354 N 
ATOM     40  C   UNL A   1      40.401  32.644  36.072  1.00  0.00     0.074 A 
ATOM     41  C   UNL A   1      39.410  33.670  36.306  1.00  0.00     0.031 C 
ATOM     42  C   UNL A   1      38.634  30.149  30.435  1.00  0.00     0.029 A 
ATOM     43  C   UNL A   1      39.776  29.769  31.264  1.00  0.00     0.049 A 
ATOM     44  H   UNL A   1      40.268  30.513  33.148  1.00  0.00     0.167 HD
ATOM     45  C   UNL A   1      41.429  32.386  36.914  1.00  0.00     0.034 A 
ATOM     46  C   UNL A   1      40.713  28.853  30.939  1.00  0.00     0.034 A 
ATOM     47  C   UNL A   1      42.380  31.327  36.726  1.00  0.00     0.049 A 
ATOM     48  C   UNL A   1      41.826  28.552  31.913  1.00  0.00     0.074 A 
ATOM     49  C   UNL A   1      43.404  30.931  37.568  1.00  0.00     0.029 A 
ATOM     50  N   UNL A   1      42.425  30.494  35.619  1.00  0.00    -0.354 N 
ATOM     51  N   UNL A   1      42.048  29.064  33.101  1.00  0.00    -0.248 NA
ATOM     52  C   UNL A   1      42.798  27.521  31.518  1.00  0.00     0.031 C 
ATOM     53  C   UNL A   1      44.078  29.865  36.964  1.00  0.00     0.029 A 
ATOM     54  C   UNL A   1      43.461  29.586  35.754  1.00  0.00     0.049 A 
ATOM     55  H   UNL A   1      41.812  30.541  34.851  1.00  0.00     0.167 HD
ATOM     56  C   UNL A   1      43.158  28.394  33.606  1.00  0.00     0.074 A 
ATOM     57  C   UNL A   1      43.552  27.424  32.605  1.00  0.00     0.031 C 
ATOM     58  C   UNL A   1      43.803  28.578  34.784  1.00  0.00     0.034 A 
BRANCH  45  59
ATOM     59  C   UNL A   1      41.539  33.235  38.152  1.00  0.00     0.023 A 
ATOM     60  C   UNL A   1      40.941  32.795  39.351  1.00  0.00     0.012 A 
ATOM     61  C   UNL A   1      42.254  34.448  38.140  1.00  0.00     0.148 A 
ATOM     62  C   UNL A   1      41.015  33.569  40.508  1.00  0.00     0.002 A 
ATOM     63  C   UNL A   1      42.363  35.191  39.311  1.00  0.00     0.091 A 
ATOM     64  F   UNL A   1      42.797  34.863  36.986  1.00  0.00    -0.205 F 
ATOM     65  C   UNL A   1      41.733  34.760  40.490  1.00  0.00     0.022 A 
BRANCH  63  66
ATOM     66  S   UNL A   1      43.330  36.701  39.408  1.00  0.00     0.127 S 
ATOM     67  O   UNL A   1      43.163  37.069  40.814  1.00  0.00    -0.237 OA
ATOM     68  O   UNL A   1      44.672  36.233  39.057  1.00  0.00    -0.237 OA
ATOM     69  O   UNL A   1      42.738  37.619  38.445  1.00  0.00    -0.744 OA
ENDBRANCH  63  66
ENDBRANCH  45  59
BRANCH  46  70
ATOM     70  C   UNL A   1      40.608  28.090  29.660  1.00  0.00     0.023 A 
ATOM     71  C   UNL A   1      39.620  27.094  29.533  1.00  0.00     0.012 A 
ATOM     72  C   UNL A   1      41.474  28.339  28.577  1.00  0.00     0.148 A 
ATOM     73  C   UNL A   1      39.516  26.336  28.365  1.00  0.00     0.002 A 
ATOM     74  C   UNL A   1      41.332  27.615  27.398  1.00  0.00     0.091 A 
ATOM     75  F   UNL A   1      42.419  29.278  28.722  1.00  0.00    -0.205 F 
ATOM     76  C   UNL A   1      40.364  26.602  27.295  1.00  0.00     0.022 A 
BRANCH  74  77
ATOM     77  S   UNL A   1      42.304  27.956  25.925  1.00  0.00     0.127 S 
ATOM     78  O   UNL A   1      41.918  29.332  25.624  1.00  0.00    -0.237 OA
ATOM     79  O   UNL A   1      43.671  27.797  26.424  1.00  0.00    -0.237 OA
ATOM     80  O   UNL A   1      41.899  26.959  24.945  1.00  0.00    -0.744 OA
ENDBRANCH  74  77
ENDBRANCH  46  70
BRANCH  58  81
ATOM     81  C   UNL A   1      44.983  27.691  35.093  1.00  0.00     0.023 A 
ATOM     82  C   UNL A   1      46.288  28.139  34.808  1.00  0.00     0.012 A 
ATOM     83  C   UNL A   1      44.804  26.460  35.754  1.00  0.00     0.148 A 
ATOM     84  C   UNL A   1      47.394  27.363  35.151  1.00  0.00     0.002 A 
ATOM     85  C   UNL A   1      45.913  25.714  36.136  1.00  0.00     0.091 A 
ATOM     86  F   UNL A   1      43.554  26.043  36.003  1.00  0.00    -0.205 F 
ATOM     87  C   UNL A   1      47.208  26.159  35.826  1.00  0.00     0.022 A 
BRANCH  85  88
ATOM     88  S   UNL A   1      45.771  24.201  37.096  1.00  0.00     0.127 S 
ATOM     89  O   UNL A   1      45.029  24.661  38.269  1.00  0.00    -0.237 OA
ATOM     90  O   UNL A   1      45.013  23.330  36.198  1.00  0.00    -0.237 OA
ATOM     91  O   UNL A   1      47.136  23.760  37.352  1.00  0.00    -0.744 OA
ENDBRANCH  85  88
ENDBRANCH  58  81
ENDBRANCH  32  33
ENDBRANCH  25  27
ENDBRANCH  24  25
ENDBRANCH  23  24
ENDBRANCH  22  23
ENDBRANCH  21  22
ENDBRANCH   1  21
TORSDOF 22
ENDMDL
MODEL 2
REMARK VINA RESULT:      -8.8      1.536      2.298
REMARK SMILES N#C[C@@H]1CN(C(=O)NCCCC(=O)OCCOCCOC(=O)c2ccc(-c3c4nc(c(-c5cccc(S(=O)(=O)[O-])c5F)c5ccc([nH]5)c(-c5cccc(S(=O)(=O)[O-])c5F)c5nc(c(-c6cccc(S(=O)(=O)[O-])c6F)c6ccc3[nH]6)C=C5)C=C4)cc2)CCO1
REMARK SMILES IDX 16 1 15 2 14 3 12 4 13 5 11 6 10 7 9 8 8 9 6 10 7 11 5 13
REMARK SMILES IDX 3 14 4 15 88 16 87 17 86 18 2 19 1 20 17 21 18 22 19 23
REMARK SMILES IDX 20 24 21 25 22 26 23 27 24 28 85 29 25 30 84 31 26 32 27 33
REMARK SMILES IDX 28 34 78 35 29 36 83 37 77 38 79 39 30 40 82 41 76 42 75 43
REMARK SMILES IDX 31 45 63 46 43 47 62 48 44 49 47 50 61 51 80 52 45 53 46 54
REMARK SMILES IDX 60 56 81 57 48 58 32 59 33 60 41 61 34 62 36 63 42 64 35 65
REMARK SMILES IDX 37 66 38 67 39 68 40 69 64 70 65 71 73 72 66 73 68 74 74 75
REMARK SMILES IDX 67 76 69 77 70 78 71 79 72 80 49 81 50 82 58 83 51 84 53 85
REMARK SMILES IDX 59 86 52 87 54 88 55 89 56 90 57 91
REMARK H PARENT 8 12 79 44 47 55
REMARK Flexibility Score: inf
ROOT
ATOM      1  C   UNL A   1      35.364  33.377  28.056  1.00  0.00     0.202 C 
ENDROOT
BRANCH   1   2
ATOM      2  C   UNL A   1      34.800  32.149  28.781  1.00  0.00     0.261 C 
BRANCH   2   3
ATOM      3  O   UNL A   1      33.651  31.643  28.074  1.00  0.00    -0.463 OA
BRANCH   3   4
ATOM      4  C   UNL A   1      33.763  30.476  27.396  1.00  0.00     0.305 C 
ATOM      5  O   UNL A   1      34.789  29.822  27.277  1.00  0.00    -0.252 OA
BRANCH   4   6
ATOM      6  C   UNL A   1      32.432  30.067  26.793  1.00  0.00     0.124 C 
BRANCH   6   7
ATOM      7  C   UNL A   1      31.897  28.708  27.272  1.00  0.00     0.033 C 
BRANCH   7   8
ATOM      8  C   UNL A   1      32.173  27.555  26.302  1.00  0.00     0.118 C 
BRANCH   8   9
ATOM      9  N   UNL A   1      31.392  26.394  26.674  1.00  0.00    -0.338 N 
ATOM     10  C   UNL A   1      31.106  25.176  26.201  1.00  0.00     0.317 C 
ATOM     11  O   UNL A   1      30.251  24.565  26.849  1.00  0.00    -0.249 OA
ATOM     12  H   UNL A   1      30.934  26.548  27.531  1.00  0.00     0.165 HD
BRANCH  10  13
ATOM     13  N   UNL A   1      31.698  24.622  25.111  1.00  0.00    -0.319 N 
ATOM     14  C   UNL A   1      33.904  23.596  24.722  1.00  0.00     0.240 C 
ATOM     15  C   UNL A   1      33.025  24.838  24.543  1.00  0.00     0.169 C 
ATOM     16  O   UNL A   1      33.256  22.493  24.021  1.00  0.00    -0.360 OA
ATOM     17  C   UNL A   1      31.933  22.225  24.544  1.00  0.00     0.183 C 
ATOM     18  C   UNL A   1      31.028  23.468  24.484  1.00  0.00     0.150 C 
BRANCH  14  19
ATOM     19  C   UNL A   1      34.183  23.211  26.166  1.00  0.00     0.096 C 
ATOM     20  N   UNL A   1      34.415  22.891  27.363  1.00  0.00    -0.195 NA
ENDBRANCH  14  19
ENDBRANCH  10  13
ENDBRANCH   8   9
ENDBRANCH   7   8
ENDBRANCH   6   7
ENDBRANCH   4   6
ENDBRANCH   3   4
ENDBRANCH   2   3
ENDBRANCH   1   2
BRANCH   1  21
ATOM     21  O   UNL A   1      34.365  34.309  27.624  1.00  0.00    -0.374 OA
BRANCH  21  22
ATOM     22  C   UNL A   1      34.356  35.555  28.315  1.00  0.00     0.202 C 
BRANCH  22  23
ATOM     23  C   UNL A   1      33.126  35.800  29.193  1.00  0.00     0.261 C 
BRANCH  23  24
ATOM     24  O   UNL A   1      32.984  34.791  30.209  1.00  0.00    -0.460 OA
BRANCH  24  25
ATOM     25  C   UNL A   1      33.308  35.204  31.458  1.00  0.00     0.338 C 
ATOM     26  O   UNL A   1      32.681  35.984  32.164  1.00  0.00    -0.246 OA
BRANCH  25  27
ATOM     27  C   UNL A   1      34.492  34.472  31.937  1.00  0.00     0.060 A 
ATOM     28  C   UNL A   1      35.754  35.048  31.747  1.00  0.00     0.016 A 
ATOM     29  C   UNL A   1      34.373  33.211  32.515  1.00  0.00     0.016 A 
ATOM     30  C   UNL A   1      36.907  34.356  32.128  1.00  0.00     0.010 A 
ATOM     31  C   UNL A   1      35.532  32.523  32.885  1.00  0.00     0.010 A 
ATOM     32  C   UNL A   1      36.810  33.077  32.691  1.00  0.00    -0.014 A 
BRANCH  32  33
ATOM     33  C   UNL A   1      38.027  32.261  32.969  1.00  0.00     0.031 A 
ATOM     34  C   UNL A   1      38.798  32.513  34.240  1.00  0.00     0.074 A 
ATOM     35  C   UNL A   1      38.471  31.331  32.099  1.00  0.00     0.049 A 
ATOM     36  N   UNL A   1      39.901  31.954  34.670  1.00  0.00    -0.248 NA
ATOM     37  C   UNL A   1      38.269  33.553  35.140  1.00  0.00     0.031 C 
ATOM     38  C   UNL A   1      37.866  31.022  30.804  1.00  0.00     0.029 A 
ATOM     39  N   UNL A   1      39.554  30.486  32.169  1.00  0.00    -0.354 N 
ATOM     40  C   UNL A   1      40.220  32.607  35.854  1.00  0.00     0.074 A 
ATOM     41  C   UNL A   1      39.216  33.625  36.061  1.00  0.00     0.031 C 
ATOM     42  C   UNL A   1      38.583  30.056  30.203  1.00  0.00     0.029 A 
ATOM     43  C   UNL A   1      39.713  29.692  31.056  1.00  0.00     0.049 A 
ATOM     44  H   UNL A   1      40.161  30.454  32.944  1.00  0.00     0.167 HD
ATOM     45  C   UNL A   1      41.233  32.363  36.718  1.00  0.00     0.034 A 
ATOM     46  C   UNL A   1      40.663  28.781  30.756  1.00  0.00     0.034 A 
ATOM     47  C   UNL A   1      42.196  31.311  36.556  1.00  0.00     0.049 A 
ATOM     48  C   UNL A   1      41.759  28.497  31.755  1.00  0.00     0.074 A 
ATOM     49  C   UNL A   1      43.207  30.930  37.421  1.00  0.00     0.029 A 
ATOM     50  N   UNL A   1      42.270  30.470  35.456  1.00  0.00    -0.354 N 
ATOM     51  N   UNL A   1      41.954  29.019  32.942  1.00  0.00    -0.248 NA
ATOM     52  C   UNL A   1      42.748  27.471  31.386  1.00  0.00     0.031 C 
ATOM     53  C   UNL A   1      43.901  29.865  36.838  1.00  0.00     0.029 A 
ATOM     54  C   UNL A   1      43.311  29.572  35.619  1.00  0.00     0.049 A 
ATOM     55  H   UNL A   1      41.672  30.507  34.676  1.00  0.00     0.167 HD
ATOM     56  C   UNL A   1      43.059  28.362  33.474  1.00  0.00     0.074 A 
ATOM     57  C   UNL A   1      43.481  27.388  32.488  1.00  0.00     0.031 C 
ATOM     58  C   UNL A   1      43.680  28.560  34.662  1.00  0.00     0.034 A 
BRANCH  45  59
ATOM     59  C   UNL A   1      41.312  33.222  37.951  1.00  0.00     0.023 A 
ATOM     60  C   UNL A   1      40.608  32.837  39.111  1.00  0.00     0.012 A 
ATOM     61  C   UNL A   1      42.099  34.389  37.976  1.00  0.00     0.148 A 
ATOM     62  C   UNL A   1      40.652  33.621  40.263  1.00  0.00     0.002 A 
ATOM     63  C   UNL A   1      42.175  35.142  39.143  1.00  0.00     0.091 A 
ATOM     64  F   UNL A   1      42.742  34.754  36.856  1.00  0.00    -0.205 F 
ATOM     65  C   UNL A   1      41.442  34.766  40.281  1.00  0.00     0.022 A 
BRANCH  63  66
ATOM     66  S   UNL A   1      43.223  36.592  39.290  1.00  0.00     0.127 S 
ATOM     67  O   UNL A   1      44.544  36.033  39.003  1.00  0.00    -0.237 OA
ATOM     68  O   UNL A   1      42.692  37.465  38.242  1.00  0.00    -0.237 OA
ATOM     69  O   UNL A   1      43.032  37.088  40.645  1.00  0.00    -0.744 OA
ENDBRANCH  63  66
ENDBRANCH  45  59
BRANCH  46  70
ATOM     70  C   UNL A   1      40.590  28.008  29.481  1.00  0.00     0.023 A 
ATOM     71  C   UNL A   1      39.631  26.983  29.353  1.00  0.00     0.012 A 
ATOM     72  C   UNL A   1      41.457  28.275  28.404  1.00  0.00     0.148 A 
ATOM     73  C   UNL A   1      39.558  26.216  28.188  1.00  0.00     0.002 A 
ATOM     74  C   UNL A   1      41.344  27.540  27.227  1.00  0.00     0.091 A 
ATOM     75  F   UNL A   1      42.374  29.241  28.550  1.00  0.00    -0.205 F 
ATOM     76  C   UNL A   1      40.406  26.500  27.123  1.00  0.00     0.022 A 
BRANCH  74  77
ATOM     77  S   UNL A   1      42.318  27.900  25.760  1.00  0.00     0.127 S 
ATOM     78  O   UNL A   1      41.757  29.181  25.336  1.00  0.00    -0.237 OA
ATOM     79  O   UNL A   1      43.672  27.974  26.309  1.00  0.00    -0.237 OA
ATOM     80  O   UNL A   1      42.093  26.783  24.854  1.00  0.00    -0.744 OA
ENDBRANCH  74  77
ENDBRANCH  46  70
BRANCH  58  81
ATOM     81  C   UNL A   1      44.861  27.686  35.001  1.00  0.00     0.023 A 
ATOM     82  C   UNL A   1      46.165  28.121  34.692  1.00  0.00     0.012 A 
ATOM     83  C   UNL A   1      44.684  26.482  35.712  1.00  0.00     0.148 A 
ATOM     84  C   UNL A   1      47.272  27.359  35.061  1.00  0.00     0.002 A 
ATOM     85  C   UNL A   1      45.796  25.751  36.118  1.00  0.00     0.091 A 
ATOM     86  F   UNL A   1      43.436  26.076  35.983  1.00  0.00    -0.205 F 
ATOM     87  C   UNL A   1      47.089  26.183  35.784  1.00  0.00     0.022 A 
BRANCH  85  88
ATOM     88  S   UNL A   1      45.658  24.278  37.138  1.00  0.00     0.127 S 
ATOM     89  O   UNL A   1      45.013  23.340  36.221  1.00  0.00    -0.237 OA
ATOM     90  O   UNL A   1      47.057  23.973  37.439  1.00  0.00    -0.237 OA
ATOM     91  O   UNL A   1      44.865  24.667  38.297  1.00  0.00    -0.744 OA
ENDBRANCH  85  88
ENDBRANCH  58  81
ENDBRANCH  32  33
ENDBRANCH  25  27
ENDBRANCH  24  25
ENDBRANCH  23  24
ENDBRANCH  22  23
ENDBRANCH  21  22
ENDBRANCH   1  21
TORSDOF 22
ENDMDL
MODEL 3
REMARK VINA RESULT:      -8.5      2.353      2.798
REMARK SMILES N#C[C@@H]1CN(C(=O)NCCCC(=O)OCCOCCOC(=O)c2ccc(-c3c4nc(c(-c5cccc(S(=O)(=O)[O-])c5F)c5ccc([nH]5)c(-c5cccc(S(=O)(=O)[O-])c5F)c5nc(c(-c6cccc(S(=O)(=O)[O-])c6F)c6ccc3[nH]6)C=C5)C=C4)cc2)CCO1
REMARK SMILES IDX 16 1 15 2 14 3 12 4 13 5 11 6 10 7 9 8 8 9 6 10 7 11 5 13
REMARK SMILES IDX 3 14 4 15 88 16 87 17 86 18 2 19 1 20 17 21 18 22 19 23
REMARK SMILES IDX 20 24 21 25 22 26 23 27 24 28 85 29 25 30 84 31 26 32 27 33
REMARK SMILES IDX 28 34 78 35 29 36 83 37 77 38 79 39 30 40 82 41 76 42 75 43
REMARK SMILES IDX 31 45 63 46 43 47 62 48 44 49 47 50 61 51 80 52 45 53 46 54
REMARK SMILES IDX 60 56 81 57 48 58 32 59 33 60 41 61 34 62 36 63 42 64 35 65
REMARK SMILES IDX 37 66 38 67 39 68 40 69 64 70 65 71 73 72 66 73 68 74 74 75
REMARK SMILES IDX 67 76 69 77 70 78 71 79 72 80 49 81 50 82 58 83 51 84 53 85
REMARK SMILES IDX 59 86 52 87 54 88 55 89 56 90 57 91
REMARK H PARENT 8 12 79 44 47 55
REMARK Flexibility Score: inf
ROOT
ATOM      1  C   UNL A   1      34.021  33.717  28.006  1.00  0.00     0.202 C 
ENDROOT
BRANCH   1   2
ATOM      2  C   UNL A   1      34.427  32.276  28.339  1.00  0.00     0.261 C 
BRANCH   2   3
ATOM      3  O   UNL A   1      33.545  31.349  27.677  1.00  0.00    -0.463 OA
BRANCH   3   4
ATOM      4  C   UNL A   1      34.038  30.159  27.262  1.00  0.00     0.305 C 
ATOM      5  O   UNL A   1      35.148  29.722  27.529  1.00  0.00    -0.252 OA
BRANCH   4   6
ATOM      6  C   UNL A   1      33.025  29.415  26.412  1.00  0.00     0.124 C 
BRANCH   6   7
ATOM      7  C   UNL A   1      31.827  28.846  27.186  1.00  0.00     0.033 C 
BRANCH   7   8
ATOM      8  C   UNL A   1      31.567  27.359  26.923  1.00  0.00     0.118 C 
BRANCH   8   9
ATOM      9  N   UNL A   1      32.713  26.761  26.269  1.00  0.00    -0.338 N 
ATOM     10  C   UNL A   1      33.074  25.588  25.738  1.00  0.00     0.317 C 
ATOM     11  O   UNL A   1      34.257  25.528  25.392  1.00  0.00    -0.249 OA
ATOM     12  H   UNL A   1      33.445  27.415  26.194  1.00  0.00     0.165 HD
BRANCH  10  13
ATOM     13  N   UNL A   1      32.232  24.536  25.566  1.00  0.00    -0.319 N 
ATOM     14  C   UNL A   1      31.798  23.006  23.686  1.00  0.00     0.240 C 
ATOM     15  C   UNL A   1      31.315  24.228  24.473  1.00  0.00     0.169 C 
ATOM     16  O   UNL A   1      31.843  21.876  24.607  1.00  0.00    -0.360 OA
ATOM     17  C   UNL A   1      32.743  22.121  25.715  1.00  0.00     0.183 C 
ATOM     18  C   UNL A   1      32.368  23.396  26.490  1.00  0.00     0.150 C 
BRANCH  14  19
ATOM     19  C   UNL A   1      33.143  23.177  22.997  1.00  0.00     0.096 C 
ATOM     20  N   UNL A   1      34.258  23.319  22.426  1.00  0.00    -0.195 NA
ENDBRANCH  14  19
ENDBRANCH  10  13
ENDBRANCH   8   9
ENDBRANCH   7   8
ENDBRANCH   6   7
ENDBRANCH   4   6
ENDBRANCH   3   4
ENDBRANCH   2   3
ENDBRANCH   1   2
BRANCH   1  21
ATOM     21  O   UNL A   1      33.243  34.355  29.028  1.00  0.00    -0.374 OA
BRANCH  21  22
ATOM     22  C   UNL A   1      33.173  35.775  28.940  1.00  0.00     0.202 C 
BRANCH  22  23
ATOM     23  C   UNL A   1      32.561  36.469  30.161  1.00  0.00     0.261 C 
BRANCH  23  24
ATOM     24  O   UNL A   1      32.310  35.543  31.234  1.00  0.00    -0.460 OA
BRANCH  24  25
ATOM     25  C   UNL A   1      32.966  35.830  32.385  1.00  0.00     0.338 C 
ATOM     26  O   UNL A   1      32.603  36.592  33.272  1.00  0.00    -0.246 OA
BRANCH  25  27
ATOM     27  C   UNL A   1      34.162  34.980  32.506  1.00  0.00     0.060 A 
ATOM     28  C   UNL A   1      34.027  33.718  33.096  1.00  0.00     0.016 A 
ATOM     29  C   UNL A   1      35.413  35.438  32.098  1.00  0.00     0.016 A 
ATOM     30  C   UNL A   1      35.150  32.909  33.290  1.00  0.00     0.010 A 
ATOM     31  C   UNL A   1      36.531  34.624  32.303  1.00  0.00     0.010 A 
ATOM     32  C   UNL A   1      36.420  33.359  32.906  1.00  0.00    -0.014 A 
BRANCH  32  33
ATOM     33  C   UNL A   1      37.647  32.578  33.234  1.00  0.00     0.031 A 
ATOM     34  C   UNL A   1      38.422  32.927  34.479  1.00  0.00     0.074 A 
ATOM     35  C   UNL A   1      38.096  31.593  32.429  1.00  0.00     0.049 A 
ATOM     36  N   UNL A   1      39.534  32.412  34.940  1.00  0.00    -0.248 NA
ATOM     37  C   UNL A   1      37.887  34.023  35.306  1.00  0.00     0.031 C 
ATOM     38  C   UNL A   1      37.489  31.186  31.163  1.00  0.00     0.029 A 
ATOM     39  N   UNL A   1      39.190  30.767  32.552  1.00  0.00    -0.354 N 
ATOM     40  C   UNL A   1      39.852  33.151  36.073  1.00  0.00     0.074 A 
ATOM     41  C   UNL A   1      38.837  34.171  36.213  1.00  0.00     0.031 C 
ATOM     42  C   UNL A   1      38.213  30.188  30.628  1.00  0.00     0.029 A 
ATOM     43  C   UNL A   1      39.351  29.897  31.497  1.00  0.00     0.049 A 
ATOM     44  H   UNL A   1      39.801  30.796  33.323  1.00  0.00     0.167 HD
ATOM     45  C   UNL A   1      40.873  32.980  36.946  1.00  0.00     0.034 A 
ATOM     46  C   UNL A   1      40.310  28.978  31.257  1.00  0.00     0.034 A 
ATOM     47  C   UNL A   1      41.847  31.929  36.853  1.00  0.00     0.049 A 
ATOM     48  C   UNL A   1      41.414  28.777  32.266  1.00  0.00     0.074 A 
ATOM     49  C   UNL A   1      42.866  31.622  37.736  1.00  0.00     0.029 A 
ATOM     50  N   UNL A   1      41.924  31.014  35.815  1.00  0.00    -0.354 N 
ATOM     51  N   UNL A   1      41.610  29.384  33.412  1.00  0.00    -0.248 NA
ATOM     52  C   UNL A   1      42.413  27.738  31.964  1.00  0.00     0.031 C 
ATOM     53  C   UNL A   1      43.569  30.525  37.226  1.00  0.00     0.029 A 
ATOM     54  C   UNL A   1      42.975  30.141  36.034  1.00  0.00     0.049 A 
ATOM     55  H   UNL A   1      41.321  30.988  35.038  1.00  0.00     0.167 HD
ATOM     56  C   UNL A   1      42.725  28.779  33.982  1.00  0.00     0.074 A 
ATOM     57  C   UNL A   1      43.153  27.742  33.065  1.00  0.00     0.031 C 
ATOM     58  C   UNL A   1      43.351  29.067  35.150  1.00  0.00     0.034 A 
BRANCH  45  59
ATOM     59  C   UNL A   1      40.949  33.925  38.114  1.00  0.00     0.023 A 
ATOM     60  C   UNL A   1      41.794  35.052  38.041  1.00  0.00     0.012 A 
ATOM     61  C   UNL A   1      40.170  33.720  39.269  1.00  0.00     0.148 A 
ATOM     62  C   UNL A   1      41.894  35.937  39.113  1.00  0.00     0.002 A 
ATOM     63  C   UNL A   1      40.240  34.632  40.316  1.00  0.00     0.091 A 
ATOM     64  F   UNL A   1      39.390  32.630  39.331  1.00  0.00    -0.205 F 
ATOM     65  C   UNL A   1      41.112  35.731  40.245  1.00  0.00     0.022 A 
BRANCH  63  66
ATOM     66  S   UNL A   1      39.217  34.496  41.785  1.00  0.00     0.127 S 
ATOM     67  O   UNL A   1      39.420  33.097  42.159  1.00  0.00    -0.237 OA
ATOM     68  O   UNL A   1      39.842  35.465  42.687  1.00  0.00    -0.237 OA
ATOM     69  O   UNL A   1      37.866  34.844  41.366  1.00  0.00    -0.744 OA
ENDBRANCH  63  66
ENDBRANCH  45  59
BRANCH  46  70
ATOM     70  C   UNL A   1      40.238  28.116  30.040  1.00  0.00     0.023 A 
ATOM     71  C   UNL A   1      39.319  27.048  30.008  1.00  0.00     0.012 A 
ATOM     72  C   UNL A   1      41.068  28.340  28.924  1.00  0.00     0.148 A 
ATOM     73  C   UNL A   1      39.249  26.199  28.901  1.00  0.00     0.002 A 
ATOM     74  C   UNL A   1      40.958  27.521  27.805  1.00  0.00     0.091 A 
ATOM     75  F   UNL A   1      41.949  29.348  28.980  1.00  0.00    -0.205 F 
ATOM     76  C   UNL A   1      40.061  26.440  27.797  1.00  0.00     0.022 A 
BRANCH  74  77
ATOM     77  S   UNL A   1      41.882  27.815  26.291  1.00  0.00     0.127 S 
ATOM     78  O   UNL A   1      41.455  29.167  25.939  1.00  0.00    -0.237 OA
ATOM     79  O   UNL A   1      43.264  27.710  26.759  1.00  0.00    -0.237 OA
ATOM     80  O   UNL A   1      41.473  26.765  25.370  1.00  0.00    -0.744 OA
ENDBRANCH  74  77
ENDBRANCH  46  70
BRANCH  58  81
ATOM     81  C   UNL A   1      44.543  28.232  35.542  1.00  0.00     0.023 A 
ATOM     82  C   UNL A   1      44.355  27.057  36.297  1.00  0.00     0.012 A 
ATOM     83  C   UNL A   1      45.833  28.558  35.080  1.00  0.00     0.148 A 
ATOM     84  C   UNL A   1      45.437  26.235  36.609  1.00  0.00     0.002 A 
ATOM     85  C   UNL A   1      46.900  27.708  35.355  1.00  0.00     0.091 A 
ATOM     86  F   UNL A   1      45.995  29.688  34.378  1.00  0.00    -0.205 F 
ATOM     87  C   UNL A   1      46.705  26.553  36.127  1.00  0.00     0.022 A 
BRANCH  85  88
ATOM     88  S   UNL A   1      48.547  27.987  34.692  1.00  0.00     0.127 S 
ATOM     89  O   UNL A   1      48.292  27.992  33.253  1.00  0.00    -0.237 OA
ATOM     90  O   UNL A   1      48.894  29.293  35.255  1.00  0.00    -0.237 OA
ATOM     91  O   UNL A   1      49.366  26.885  35.181  1.00  0.00    -0.744 OA
ENDBRANCH  85  88
ENDBRANCH  58  81
ENDBRANCH  32  33
ENDBRANCH  25  27
ENDBRANCH  24  25
ENDBRANCH  23  24
ENDBRANCH  22  23
ENDBRANCH  21  22
ENDBRANCH   1  21
TORSDOF 22
ENDMDL
