MODEL 1
REMARK VINA RESULT:     -11.8      0.000      0.000
REMARK SMILES O=C(OCCOCCOC(=O)c1ccc(-c2c3nc(c(-c4cccc(S(=O)(=O)[O-])c4F)c4ccc([nH]4)c(-c4cccc(S(=O)(=O)[O-])c4F)c4nc(c(-c5cccc(S(=O)(=O)[O-])c5F)c5ccc2[nH]5)C=C4)C=C3)cc1)C1=Cc2c(ccc(Cl)c2Sc2ccccc2)O[C@H]1C(F)(F)F
REMARK SMILES IDX 7 1 6 2 5 3 4 4 3 5 2 6 1 7 75 8 76 9 92 10 77 11 91 12
REMARK SMILES IDX 78 13 83 14 79 15 81 16 80 17 82 18 93 19 94 20 95 21 96 22
REMARK SMILES IDX 84 23 85 24 86 25 90 26 87 27 89 28 88 29 8 30 9 31 10 32
REMARK SMILES IDX 11 33 12 34 13 35 74 36 14 37 73 38 15 39 16 40 17 41 67 42
REMARK SMILES IDX 18 43 72 44 66 45 68 46 19 47 71 48 65 49 64 50 20 52 52 53
REMARK SMILES IDX 32 54 51 55 33 56 36 57 50 58 69 59 34 60 35 61 49 63 70 64
REMARK SMILES IDX 37 65 21 66 22 67 30 68 23 69 25 70 31 71 24 72 26 73 27 74
REMARK SMILES IDX 28 75 29 76 53 77 54 78 62 79 55 80 57 81 63 82 56 83 58 84
REMARK SMILES IDX 59 85 60 86 61 87 38 88 39 89 47 90 40 91 42 92 48 93 41 94
REMARK SMILES IDX 43 95 44 96 45 97 46 98
REMARK H PARENT 68 51 36 62
REMARK Flexibility Score: inf
ROOT
ATOM      1  C   UNL A   1      36.658  20.787  25.004  1.00  0.00     0.202 C 
ENDROOT
BRANCH   1   2
ATOM      2  O   UNL A   1      36.640  22.034  24.271  1.00  0.00    -0.374 OA
BRANCH   2   3
ATOM      3  C   UNL A   1      35.364  22.641  24.382  1.00  0.00     0.202 C 
BRANCH   3   4
ATOM      4  C   UNL A   1      34.717  23.076  23.046  1.00  0.00     0.261 C 
BRANCH   4   5
ATOM      5  O   UNL A   1      33.903  24.270  23.127  1.00  0.00    -0.460 OA
BRANCH   5   6
ATOM      6  C   UNL A   1      32.591  24.113  23.490  1.00  0.00     0.338 C 
ATOM      7  O   UNL A   1      31.752  23.558  22.817  1.00  0.00    -0.246 OA
BRANCH   6   8
ATOM      8  C   UNL A   1      32.207  24.905  24.673  1.00  0.00     0.087 C 
ATOM      9  C   UNL A   1      31.371  25.927  24.508  1.00  0.00     0.028 C 
ATOM     10  C   UNL A   1      32.376  24.339  26.054  1.00  0.00     0.316 C 
ATOM     11  C   UNL A   1      31.651  27.047  25.368  1.00  0.00     0.033 A 
ATOM     12  O   UNL A   1      31.848  25.277  27.080  1.00  0.00    -0.475 OA
ATOM     13  C   UNL A   1      31.749  26.618  26.724  1.00  0.00     0.129 A 
ATOM     14  C   UNL A   1      31.622  28.397  24.938  1.00  0.00     0.042 A 
ATOM     15  C   UNL A   1      31.614  27.551  27.729  1.00  0.00     0.049 A 
ATOM     16  C   UNL A   1      31.621  29.308  26.017  1.00  0.00     0.055 A 
ATOM     17  C   UNL A   1      31.547  28.895  27.370  1.00  0.00     0.025 A 
ATOM     18  Cl  UNL A   1      31.730  31.016  25.756  1.00  0.00    -0.083 Cl
BRANCH  10  19
ATOM     19  C   UNL A   1      31.678  22.949  26.172  1.00  0.00     0.430 C 
ATOM     20  F   UNL A   1      30.441  22.923  25.619  1.00  0.00    -0.167 F 
ATOM     21  F   UNL A   1      32.391  21.977  25.555  1.00  0.00    -0.167 F 
ATOM     22  F   UNL A   1      31.512  22.573  27.462  1.00  0.00    -0.167 F 
ENDBRANCH  10  19
BRANCH  14  23
ATOM     23  S   UNL A   1      31.294  29.141  23.304  1.00  0.00    -0.088 SA
BRANCH  23  24
ATOM     24  C   UNL A   1      29.841  30.083  22.907  1.00  0.00     0.012 A 
ATOM     25  C   UNL A   1      29.034  30.789  23.800  1.00  0.00     0.015 A 
ATOM     26  C   UNL A   1      29.394  30.035  21.563  1.00  0.00     0.015 A 
ATOM     27  C   UNL A   1      27.969  31.592  23.327  1.00  0.00     0.001 A 
ATOM     28  C   UNL A   1      28.378  30.873  21.077  1.00  0.00     0.001 A 
ATOM     29  C   UNL A   1      27.686  31.685  21.962  1.00  0.00     0.000 A 
ENDBRANCH  23  24
ENDBRANCH  14  23
ENDBRANCH   6   8
ENDBRANCH   5   6
ENDBRANCH   4   5
ENDBRANCH   3   4
ENDBRANCH   2   3
ENDBRANCH   1   2
BRANCH   1  30
ATOM     30  C   UNL A   1      37.975  19.985  24.888  1.00  0.00     0.261 C 
BRANCH  30  31
ATOM     31  O   UNL A   1      38.721  19.698  26.106  1.00  0.00    -0.460 OA
BRANCH  31  32
ATOM     32  C   UNL A   1      40.030  20.073  26.126  1.00  0.00     0.338 C 
ATOM     33  O   UNL A   1      40.945  19.383  25.701  1.00  0.00    -0.246 OA
BRANCH  32  34
ATOM     34  C   UNL A   1      40.268  21.417  26.768  1.00  0.00     0.060 A 
ATOM     35  C   UNL A   1      39.733  22.559  26.149  1.00  0.00     0.016 A 
ATOM     36  C   UNL A   1      41.122  21.604  27.864  1.00  0.00     0.016 A 
ATOM     37  C   UNL A   1      40.076  23.858  26.580  1.00  0.00     0.010 A 
ATOM     38  C   UNL A   1      41.463  22.909  28.297  1.00  0.00     0.010 A 
ATOM     39  C   UNL A   1      40.975  24.055  27.636  1.00  0.00    -0.014 A 
BRANCH  39  40
ATOM     40  C   UNL A   1      41.515  25.427  27.929  1.00  0.00     0.031 A 
ATOM     41  C   UNL A   1      42.934  25.763  27.539  1.00  0.00     0.074 A 
ATOM     42  C   UNL A   1      40.780  26.395  28.517  1.00  0.00     0.049 A 
ATOM     43  N   UNL A   1      43.570  26.904  27.628  1.00  0.00    -0.248 NA
ATOM     44  C   UNL A   1      43.730  24.679  26.948  1.00  0.00     0.031 C 
ATOM     45  C   UNL A   1      39.388  26.259  28.913  1.00  0.00     0.029 A 
ATOM     46  N   UNL A   1      41.104  27.674  28.917  1.00  0.00    -0.354 N 
ATOM     47  C   UNL A   1      44.835  26.681  27.099  1.00  0.00     0.074 A 
ATOM     48  C   UNL A   1      44.888  25.283  26.721  1.00  0.00     0.031 C 
ATOM     49  C   UNL A   1      39.001  27.351  29.593  1.00  0.00     0.029 A 
ATOM     50  C   UNL A   1      40.109  28.299  29.638  1.00  0.00     0.049 A 
ATOM     51  H   UNL A   1      41.966  28.101  28.708  1.00  0.00     0.167 HD
ATOM     52  C   UNL A   1      45.851  27.557  26.912  1.00  0.00     0.034 A 
ATOM     53  C   UNL A   1      40.079  29.497  30.261  1.00  0.00     0.034 A 
ATOM     54  C   UNL A   1      45.814  28.944  27.293  1.00  0.00     0.049 A 
ATOM     55  C   UNL A   1      41.242  30.442  30.100  1.00  0.00     0.074 A 
ATOM     56  C   UNL A   1      46.776  29.919  27.085  1.00  0.00     0.029 A 
ATOM     57  N   UNL A   1      44.779  29.547  27.989  1.00  0.00    -0.354 N 
ATOM     58  N   UNL A   1      42.355  30.263  29.434  1.00  0.00    -0.248 NA
ATOM     59  C   UNL A   1      41.120  31.774  30.714  1.00  0.00     0.031 C 
ATOM     60  C   UNL A   1      46.340  31.100  27.696  1.00  0.00     0.029 A 
ATOM     61  C   UNL A   1      45.091  30.872  28.249  1.00  0.00     0.049 A 
ATOM     62  H   UNL A   1      43.946  29.100  28.260  1.00  0.00     0.167 HD
ATOM     63  C   UNL A   1      43.044  31.469  29.507  1.00  0.00     0.074 A 
ATOM     64  C   UNL A   1      42.221  32.376  30.279  1.00  0.00     0.031 C 
ATOM     65  C   UNL A   1      44.251  31.789  28.979  1.00  0.00     0.034 A 
BRANCH  52  66
ATOM     66  C   UNL A   1      47.096  27.036  26.242  1.00  0.00     0.023 A 
ATOM     67  C   UNL A   1      47.241  27.164  24.845  1.00  0.00     0.012 A 
ATOM     68  C   UNL A   1      48.131  26.446  26.993  1.00  0.00     0.148 A 
ATOM     69  C   UNL A   1      48.377  26.674  24.201  1.00  0.00     0.002 A 
ATOM     70  C   UNL A   1      49.277  25.997  26.349  1.00  0.00     0.091 A 
ATOM     71  F   UNL A   1      47.967  26.317  28.317  1.00  0.00    -0.205 F 
ATOM     72  C   UNL A   1      49.396  26.096  24.953  1.00  0.00     0.022 A 
BRANCH  70  73
ATOM     73  S   UNL A   1      50.673  25.298  27.238  1.00  0.00     0.127 S 
ATOM     74  O   UNL A   1      51.111  26.438  28.042  1.00  0.00    -0.237 OA
ATOM     75  O   UNL A   1      50.044  24.219  28.002  1.00  0.00    -0.237 OA
ATOM     76  O   UNL A   1      51.612  24.850  26.220  1.00  0.00    -0.744 OA
ENDBRANCH  70  73
ENDBRANCH  52  66
BRANCH  53  77
ATOM     77  C   UNL A   1      38.872  29.899  31.046  1.00  0.00     0.023 A 
ATOM     78  C   UNL A   1      38.736  29.495  32.388  1.00  0.00     0.012 A 
ATOM     79  C   UNL A   1      37.868  30.701  30.467  1.00  0.00     0.148 A 
ATOM     80  C   UNL A   1      37.613  29.861  33.132  1.00  0.00     0.002 A 
ATOM     81  C   UNL A   1      36.774  31.102  31.228  1.00  0.00     0.091 A 
ATOM     82  F   UNL A   1      38.006  31.061  29.183  1.00  0.00    -0.205 F 
ATOM     83  C   UNL A   1      36.638  30.672  32.556  1.00  0.00     0.022 A 
BRANCH  81  84
ATOM     84  S   UNL A   1      35.520  32.232  30.609  1.00  0.00     0.127 S 
ATOM     85  O   UNL A   1      36.264  33.487  30.525  1.00  0.00    -0.237 OA
ATOM     86  O   UNL A   1      35.184  31.628  29.320  1.00  0.00    -0.237 OA
ATOM     87  O   UNL A   1      34.443  32.203  31.588  1.00  0.00    -0.744 OA
ENDBRANCH  81  84
ENDBRANCH  53  77
BRANCH  65  88
ATOM     88  C   UNL A   1      44.764  33.193  29.177  1.00  0.00     0.023 A 
ATOM     89  C   UNL A   1      45.474  33.523  30.347  1.00  0.00     0.012 A 
ATOM     90  C   UNL A   1      44.631  34.154  28.153  1.00  0.00     0.148 A 
ATOM     91  C   UNL A   1      46.030  34.794  30.504  1.00  0.00     0.002 A 
ATOM     92  C   UNL A   1      45.229  35.401  28.296  1.00  0.00     0.091 A 
ATOM     93  F   UNL A   1      43.934  33.826  27.056  1.00  0.00    -0.205 F 
ATOM     94  C   UNL A   1      45.919  35.727  29.475  1.00  0.00     0.022 A 
BRANCH  92  95
ATOM     95  S   UNL A   1      45.226  36.629  26.984  1.00  0.00     0.127 S 
ATOM     96  O   UNL A   1      45.852  35.893  25.886  1.00  0.00    -0.237 OA
ATOM     97  O   UNL A   1      43.797  36.889  26.808  1.00  0.00    -0.237 OA
ATOM     98  O   UNL A   1      45.990  37.762  27.489  1.00  0.00    -0.744 OA
ENDBRANCH  92  95
ENDBRANCH  65  88
ENDBRANCH  39  40
ENDBRANCH  32  34
ENDBRANCH  31  32
ENDBRANCH  30  31
ENDBRANCH   1  30
TORSDOF 20
ENDMDL
MODEL 2
REMARK VINA RESULT:     -11.7      1.515      7.357
REMARK SMILES O=C(OCCOCCOC(=O)c1ccc(-c2c3nc(c(-c4cccc(S(=O)(=O)[O-])c4F)c4ccc([nH]4)c(-c4cccc(S(=O)(=O)[O-])c4F)c4nc(c(-c5cccc(S(=O)(=O)[O-])c5F)c5ccc2[nH]5)C=C4)C=C3)cc1)C1=Cc2c(ccc(Cl)c2Sc2ccccc2)O[C@H]1C(F)(F)F
REMARK SMILES IDX 7 1 6 2 5 3 4 4 3 5 2 6 1 7 75 8 76 9 92 10 77 11 91 12
REMARK SMILES IDX 78 13 83 14 79 15 81 16 80 17 82 18 93 19 94 20 95 21 96 22
REMARK SMILES IDX 84 23 85 24 86 25 90 26 87 27 89 28 88 29 8 30 9 31 10 32
REMARK SMILES IDX 11 33 12 34 13 35 74 36 14 37 73 38 15 39 16 40 17 41 67 42
REMARK SMILES IDX 18 43 72 44 66 45 68 46 19 47 71 48 65 49 64 50 20 52 52 53
REMARK SMILES IDX 32 54 51 55 33 56 36 57 50 58 69 59 34 60 35 61 49 63 70 64
REMARK SMILES IDX 37 65 21 66 22 67 30 68 23 69 25 70 31 71 24 72 26 73 27 74
REMARK SMILES IDX 28 75 29 76 53 77 54 78 62 79 55 80 57 81 63 82 56 83 58 84
REMARK SMILES IDX 59 85 60 86 61 87 38 88 39 89 47 90 40 91 42 92 48 93 41 94
REMARK SMILES IDX 43 95 44 96 45 97 46 98
REMARK H PARENT 68 51 36 62
REMARK Flexibility Score: inf
ROOT
ATOM      1  C   UNL A   1      36.724  20.751  25.084  1.00  0.00     0.202 C 
ENDROOT
BRANCH   1   2
ATOM      2  O   UNL A   1      36.675  21.920  24.232  1.00  0.00    -0.374 OA
BRANCH   2   3
ATOM      3  C   UNL A   1      35.517  22.682  24.525  1.00  0.00     0.202 C 
BRANCH   3   4
ATOM      4  C   UNL A   1      34.508  22.830  23.361  1.00  0.00     0.261 C 
BRANCH   4   5
ATOM      5  O   UNL A   1      33.923  24.148  23.231  1.00  0.00    -0.460 OA
BRANCH   5   6
ATOM      6  C   UNL A   1      32.568  24.254  23.408  1.00  0.00     0.338 C 
ATOM      7  O   UNL A   1      31.739  23.956  22.579  1.00  0.00    -0.246 OA
BRANCH   6   8
ATOM      8  C   UNL A   1      32.190  25.008  24.617  1.00  0.00     0.087 C 
ATOM      9  C   UNL A   1      31.368  26.047  24.486  1.00  0.00     0.028 C 
ATOM     10  C   UNL A   1      32.345  24.391  25.978  1.00  0.00     0.316 C 
ATOM     11  C   UNL A   1      31.659  27.132  25.386  1.00  0.00     0.033 A 
ATOM     12  O   UNL A   1      31.824  25.299  27.035  1.00  0.00    -0.475 OA
ATOM     13  C   UNL A   1      31.745  26.654  26.727  1.00  0.00     0.129 A 
ATOM     14  C   UNL A   1      31.650  28.496  25.005  1.00  0.00     0.042 A 
ATOM     15  C   UNL A   1      31.618  27.551  27.764  1.00  0.00     0.049 A 
ATOM     16  C   UNL A   1      31.656  29.369  26.115  1.00  0.00     0.055 A 
ATOM     17  C   UNL A   1      31.571  28.909  27.453  1.00  0.00     0.025 A 
ATOM     18  Cl  UNL A   1      31.789  31.083  25.917  1.00  0.00    -0.083 Cl
BRANCH  10  19
ATOM     19  C   UNL A   1      31.628  23.008  26.043  1.00  0.00     0.430 C 
ATOM     20  F   UNL A   1      31.173  22.697  27.282  1.00  0.00    -0.167 F 
ATOM     21  F   UNL A   1      30.553  22.962  25.222  1.00  0.00    -0.167 F 
ATOM     22  F   UNL A   1      32.452  21.992  25.690  1.00  0.00    -0.167 F 
ENDBRANCH  10  19
BRANCH  14  23
ATOM     23  S   UNL A   1      31.339  29.303  23.397  1.00  0.00    -0.088 SA
BRANCH  23  24
ATOM     24  C   UNL A   1      29.840  30.159  22.981  1.00  0.00     0.012 A 
ATOM     25  C   UNL A   1      29.160  31.086  23.773  1.00  0.00     0.015 A 
ATOM     26  C   UNL A   1      29.212  29.796  21.764  1.00  0.00     0.015 A 
ATOM     27  C   UNL A   1      28.036  31.778  23.265  1.00  0.00     0.001 A 
ATOM     28  C   UNL A   1      28.134  30.519  21.228  1.00  0.00     0.001 A 
ATOM     29  C   UNL A   1      27.565  31.542  21.970  1.00  0.00     0.000 A 
ENDBRANCH  23  24
ENDBRANCH  14  23
ENDBRANCH   6   8
ENDBRANCH   5   6
ENDBRANCH   4   5
ENDBRANCH   3   4
ENDBRANCH   2   3
ENDBRANCH   1   2
BRANCH   1  30
ATOM     30  C   UNL A   1      38.037  19.939  24.996  1.00  0.00     0.261 C 
BRANCH  30  31
ATOM     31  O   UNL A   1      38.773  19.678  26.227  1.00  0.00    -0.460 OA
BRANCH  31  32
ATOM     32  C   UNL A   1      40.096  20.000  26.229  1.00  0.00     0.338 C 
ATOM     33  O   UNL A   1      40.984  19.238  25.873  1.00  0.00    -0.246 OA
BRANCH  32  34
ATOM     34  C   UNL A   1      40.386  21.382  26.759  1.00  0.00     0.060 A 
ATOM     35  C   UNL A   1      39.957  22.489  26.009  1.00  0.00     0.016 A 
ATOM     36  C   UNL A   1      41.194  21.621  27.879  1.00  0.00     0.016 A 
ATOM     37  C   UNL A   1      40.360  23.801  26.338  1.00  0.00     0.010 A 
ATOM     38  C   UNL A   1      41.595  22.939  28.210  1.00  0.00     0.010 A 
ATOM     39  C   UNL A   1      41.215  24.043  27.421  1.00  0.00    -0.014 A 
BRANCH  39  40
ATOM     40  C   UNL A   1      41.825  25.403  27.618  1.00  0.00     0.031 A 
ATOM     41  C   UNL A   1      41.007  26.495  28.263  1.00  0.00     0.074 A 
ATOM     42  C   UNL A   1      43.091  25.699  27.256  1.00  0.00     0.049 A 
ATOM     43  N   UNL A   1      41.361  27.711  28.597  1.00  0.00    -0.248 NA
ATOM     44  C   UNL A   1      39.615  26.165  28.601  1.00  0.00     0.031 C 
ATOM     45  C   UNL A   1      44.030  24.759  26.668  1.00  0.00     0.029 A 
ATOM     46  N   UNL A   1      43.802  26.880  27.298  1.00  0.00    -0.354 N 
ATOM     47  C   UNL A   1      40.246  28.288  29.190  1.00  0.00     0.074 A 
ATOM     48  C   UNL A   1      39.189  27.299  29.139  1.00  0.00     0.031 C 
ATOM     49  C   UNL A   1      45.149  25.405  26.300  1.00  0.00     0.029 A 
ATOM     50  C   UNL A   1      45.031  26.810  26.676  1.00  0.00     0.049 A 
ATOM     51  H   UNL A   1      43.464  27.698  27.730  1.00  0.00     0.167 HD
ATOM     52  C   UNL A   1      40.113  29.513  29.753  1.00  0.00     0.034 A 
ATOM     53  C   UNL A   1      45.964  27.757  26.438  1.00  0.00     0.034 A 
ATOM     54  C   UNL A   1      41.153  30.507  29.800  1.00  0.00     0.049 A 
ATOM     55  C   UNL A   1      45.779  29.136  27.017  1.00  0.00     0.074 A 
ATOM     56  C   UNL A   1      41.125  31.752  30.406  1.00  0.00     0.029 A 
ATOM     57  N   UNL A   1      42.391  30.388  29.190  1.00  0.00    -0.354 N 
ATOM     58  N   UNL A   1      44.784  29.597  27.733  1.00  0.00    -0.248 NA
ATOM     59  C   UNL A   1      46.869  30.105  26.815  1.00  0.00     0.031 C 
ATOM     60  C   UNL A   1      42.332  32.402  30.124  1.00  0.00     0.029 A 
ATOM     61  C   UNL A   1      43.125  31.548  29.376  1.00  0.00     0.049 A 
ATOM     62  H   UNL A   1      42.703  29.595  28.697  1.00  0.00     0.167 HD
ATOM     63  C   UNL A   1      45.145  30.886  28.108  1.00  0.00     0.074 A 
ATOM     64  C   UNL A   1      46.455  31.135  27.543  1.00  0.00     0.031 C 
ATOM     65  C   UNL A   1      44.448  31.780  28.853  1.00  0.00     0.034 A 
BRANCH  52  66
ATOM     66  C   UNL A   1      38.787  29.840  30.388  1.00  0.00     0.023 A 
ATOM     67  C   UNL A   1      38.488  29.342  31.674  1.00  0.00     0.012 A 
ATOM     68  C   UNL A   1      37.850  30.658  29.730  1.00  0.00     0.148 A 
ATOM     69  C   UNL A   1      37.260  29.616  32.274  1.00  0.00     0.002 A 
ATOM     70  C   UNL A   1      36.645  30.962  30.351  1.00  0.00     0.091 A 
ATOM     71  F   UNL A   1      38.144  31.108  28.502  1.00  0.00    -0.205 F 
ATOM     72  C   UNL A   1      36.342  30.430  31.616  1.00  0.00     0.022 A 
BRANCH  70  73
ATOM     73  S   UNL A   1      35.425  32.055  29.613  1.00  0.00     0.127 S 
ATOM     74  O   UNL A   1      34.844  31.195  28.584  1.00  0.00    -0.237 OA
ATOM     75  O   UNL A   1      34.539  32.336  30.744  1.00  0.00    -0.237 OA
ATOM     76  O   UNL A   1      36.166  33.208  29.124  1.00  0.00    -0.744 OA
ENDBRANCH  70  73
ENDBRANCH  52  66
BRANCH  53  77
ATOM     77  C   UNL A   1      47.194  27.413  25.664  1.00  0.00     0.023 A 
ATOM     78  C   UNL A   1      48.269  26.759  26.297  1.00  0.00     0.012 A 
ATOM     79  C   UNL A   1      47.292  27.717  24.290  1.00  0.00     0.148 A 
ATOM     80  C   UNL A   1      49.425  26.434  25.586  1.00  0.00     0.002 A 
ATOM     81  C   UNL A   1      48.427  27.349  23.575  1.00  0.00     0.091 A 
ATOM     82  F   UNL A   1      46.267  28.355  23.708  1.00  0.00    -0.205 F 
ATOM     83  C   UNL A   1      49.501  26.720  24.225  1.00  0.00     0.022 A 
BRANCH  81  84
ATOM     84  S   UNL A   1      48.576  27.577  21.799  1.00  0.00     0.127 S 
ATOM     85  O   UNL A   1      48.856  26.216  21.345  1.00  0.00    -0.237 OA
ATOM     86  O   UNL A   1      47.248  28.082  21.450  1.00  0.00    -0.237 OA
ATOM     87  O   UNL A   1      49.654  28.537  21.611  1.00  0.00    -0.744 OA
ENDBRANCH  81  84
ENDBRANCH  53  77
BRANCH  65  88
ATOM     88  C   UNL A   1      45.088  33.113  29.146  1.00  0.00     0.023 A 
ATOM     89  C   UNL A   1      45.991  33.238  30.219  1.00  0.00     0.012 A 
ATOM     90  C   UNL A   1      44.873  34.213  28.291  1.00  0.00     0.148 A 
ATOM     91  C   UNL A   1      46.656  34.443  30.449  1.00  0.00     0.002 A 
ATOM     92  C   UNL A   1      45.576  35.394  28.496  1.00  0.00     0.091 A 
ATOM     93  F   UNL A   1      43.994  34.079  27.287  1.00  0.00    -0.205 F 
ATOM     94  C   UNL A   1      46.460  35.515  29.581  1.00  0.00     0.022 A 
BRANCH  92  95
ATOM     95  S   UNL A   1      45.465  36.793  27.372  1.00  0.00     0.127 S 
ATOM     96  O   UNL A   1      45.924  37.893  28.219  1.00  0.00    -0.237 OA
ATOM     97  O   UNL A   1      46.396  36.409  26.310  1.00  0.00    -0.237 OA
ATOM     98  O   UNL A   1      44.070  36.867  26.957  1.00  0.00    -0.744 OA
ENDBRANCH  92  95
ENDBRANCH  65  88
ENDBRANCH  39  40
ENDBRANCH  32  34
ENDBRANCH  31  32
ENDBRANCH  30  31
ENDBRANCH   1  30
TORSDOF 20
ENDMDL
MODEL 3
REMARK VINA RESULT:     -11.5      1.901      2.273
REMARK SMILES O=C(OCCOCCOC(=O)c1ccc(-c2c3nc(c(-c4cccc(S(=O)(=O)[O-])c4F)c4ccc([nH]4)c(-c4cccc(S(=O)(=O)[O-])c4F)c4nc(c(-c5cccc(S(=O)(=O)[O-])c5F)c5ccc2[nH]5)C=C4)C=C3)cc1)C1=Cc2c(ccc(Cl)c2Sc2ccccc2)O[C@H]1C(F)(F)F
REMARK SMILES IDX 7 1 6 2 5 3 4 4 3 5 2 6 1 7 75 8 76 9 92 10 77 11 91 12
REMARK SMILES IDX 78 13 83 14 79 15 81 16 80 17 82 18 93 19 94 20 95 21 96 22
REMARK SMILES IDX 84 23 85 24 86 25 90 26 87 27 89 28 88 29 8 30 9 31 10 32
REMARK SMILES IDX 11 33 12 34 13 35 74 36 14 37 73 38 15 39 16 40 17 41 67 42
REMARK SMILES IDX 18 43 72 44 66 45 68 46 19 47 71 48 65 49 64 50 20 52 52 53
REMARK SMILES IDX 32 54 51 55 33 56 36 57 50 58 69 59 34 60 35 61 49 63 70 64
REMARK SMILES IDX 37 65 21 66 22 67 30 68 23 69 25 70 31 71 24 72 26 73 27 74
REMARK SMILES IDX 28 75 29 76 53 77 54 78 62 79 55 80 57 81 63 82 56 83 58 84
REMARK SMILES IDX 59 85 60 86 61 87 38 88 39 89 47 90 40 91 42 92 48 93 41 94
REMARK SMILES IDX 43 95 44 96 45 97 46 98
REMARK H PARENT 68 51 36 62
REMARK Flexibility Score: inf
ROOT
ATOM      1  C   UNL A   1      36.308  19.268  24.898  1.00  0.00     0.202 C 
ENDROOT
BRANCH   1   2
ATOM      2  O   UNL A   1      35.064  19.980  24.704  1.00  0.00    -0.374 OA
BRANCH   2   3
ATOM      3  C   UNL A   1      33.979  19.070  24.717  1.00  0.00     0.202 C 
BRANCH   3   4
ATOM      4  C   UNL A   1      32.572  19.712  24.676  1.00  0.00     0.261 C 
BRANCH   4   5
ATOM      5  O   UNL A   1      32.556  21.113  24.313  1.00  0.00    -0.460 OA
BRANCH   5   6
ATOM      6  C   UNL A   1      31.841  21.962  25.116  1.00  0.00     0.338 C 
ATOM      7  O   UNL A   1      30.672  21.825  25.396  1.00  0.00    -0.246 OA
BRANCH   6   8
ATOM      8  C   UNL A   1      32.547  23.220  25.420  1.00  0.00     0.087 C 
ATOM      9  C   UNL A   1      31.863  24.360  25.374  1.00  0.00     0.028 C 
ATOM     10  C   UNL A   1      33.845  23.199  26.178  1.00  0.00     0.316 C 
ATOM     11  C   UNL A   1      32.629  25.476  24.886  1.00  0.00     0.033 A 
ATOM     12  O   UNL A   1      34.328  24.582  26.440  1.00  0.00    -0.475 OA
ATOM     13  C   UNL A   1      33.854  25.590  25.607  1.00  0.00     0.129 A 
ATOM     14  C   UNL A   1      32.130  26.433  23.968  1.00  0.00     0.042 A 
ATOM     15  C   UNL A   1      34.534  26.787  25.581  1.00  0.00     0.049 A 
ATOM     16  C   UNL A   1      32.946  27.583  23.887  1.00  0.00     0.055 A 
ATOM     17  C   UNL A   1      34.074  27.783  24.721  1.00  0.00     0.025 A 
ATOM     18  Cl  UNL A   1      32.631  28.836  22.736  1.00  0.00    -0.083 Cl
BRANCH  10  19
ATOM     19  C   UNL A   1      33.692  22.411  27.514  1.00  0.00     0.430 C 
ATOM     20  F   UNL A   1      32.431  22.435  28.010  1.00  0.00    -0.167 F 
ATOM     21  F   UNL A   1      34.015  21.104  27.365  1.00  0.00    -0.167 F 
ATOM     22  F   UNL A   1      34.481  22.913  28.494  1.00  0.00    -0.167 F 
ENDBRANCH  10  19
BRANCH  14  23
ATOM     23  S   UNL A   1      30.519  26.575  23.121  1.00  0.00    -0.088 SA
BRANCH  23  24
ATOM     24  C   UNL A   1      29.451  27.990  23.232  1.00  0.00     0.012 A 
ATOM     25  C   UNL A   1      29.841  29.322  23.380  1.00  0.00     0.015 A 
ATOM     26  C   UNL A   1      28.057  27.738  23.277  1.00  0.00     0.015 A 
ATOM     27  C   UNL A   1      28.883  30.361  23.339  1.00  0.00     0.001 A 
ATOM     28  C   UNL A   1      27.104  28.764  23.177  1.00  0.00     0.001 A 
ATOM     29  C   UNL A   1      27.523  30.084  23.172  1.00  0.00     0.000 A 
ENDBRANCH  23  24
ENDBRANCH  14  23
ENDBRANCH   6   8
ENDBRANCH   5   6
ENDBRANCH   4   5
ENDBRANCH   3   4
ENDBRANCH   2   3
ENDBRANCH   1   2
BRANCH   1  30
ATOM     30  C   UNL A   1      37.583  20.104  24.638  1.00  0.00     0.261 C 
BRANCH  30  31
ATOM     31  O   UNL A   1      37.923  21.161  25.583  1.00  0.00    -0.460 OA
BRANCH  31  32
ATOM     32  C   UNL A   1      39.190  21.153  26.080  1.00  0.00     0.338 C 
ATOM     33  O   UNL A   1      39.953  20.202  25.990  1.00  0.00    -0.246 OA
BRANCH  32  34
ATOM     34  C   UNL A   1      39.567  22.421  26.805  1.00  0.00     0.060 A 
ATOM     35  C   UNL A   1      38.878  23.603  26.487  1.00  0.00     0.016 A 
ATOM     36  C   UNL A   1      40.669  22.514  27.666  1.00  0.00     0.016 A 
ATOM     37  C   UNL A   1      39.304  24.856  26.977  1.00  0.00     0.010 A 
ATOM     38  C   UNL A   1      41.093  23.773  28.159  1.00  0.00     0.010 A 
ATOM     39  C   UNL A   1      40.439  24.966  27.790  1.00  0.00    -0.014 A 
BRANCH  39  40
ATOM     40  C   UNL A   1      41.019  26.317  28.107  1.00  0.00     0.031 A 
ATOM     41  C   UNL A   1      42.478  26.581  27.825  1.00  0.00     0.074 A 
ATOM     42  C   UNL A   1      40.288  27.326  28.625  1.00  0.00     0.049 A 
ATOM     43  N   UNL A   1      43.159  27.692  27.950  1.00  0.00    -0.248 NA
ATOM     44  C   UNL A   1      43.265  25.451  27.310  1.00  0.00     0.031 C 
ATOM     45  C   UNL A   1      38.865  27.260  28.913  1.00  0.00     0.029 A 
ATOM     46  N   UNL A   1      40.640  28.595  29.033  1.00  0.00    -0.354 N 
ATOM     47  C   UNL A   1      44.449  27.403  27.522  1.00  0.00     0.074 A 
ATOM     48  C   UNL A   1      44.464  25.998  27.167  1.00  0.00     0.031 C 
ATOM     49  C   UNL A   1      38.478  28.380  29.547  1.00  0.00     0.029 A 
ATOM     50  C   UNL A   1      39.623  29.277  29.668  1.00  0.00     0.049 A 
ATOM     51  H   UNL A   1      41.535  28.979  28.887  1.00  0.00     0.167 HD
ATOM     52  C   UNL A   1      45.517  28.228  27.405  1.00  0.00     0.034 A 
ATOM     53  C   UNL A   1      39.601  30.484  30.272  1.00  0.00     0.034 A 
ATOM     54  C   UNL A   1      45.516  29.621  27.765  1.00  0.00     0.049 A 
ATOM     55  C   UNL A   1      40.817  31.372  30.190  1.00  0.00     0.074 A 
ATOM     56  C   UNL A   1      46.536  30.547  27.621  1.00  0.00     0.029 A 
ATOM     57  N   UNL A   1      44.460  30.282  28.372  1.00  0.00    -0.354 N 
ATOM     58  N   UNL A   1      41.969  31.131  29.615  1.00  0.00    -0.248 NA
ATOM     59  C   UNL A   1      40.711  32.717  30.777  1.00  0.00     0.031 C 
ATOM     60  C   UNL A   1      46.110  31.756  28.181  1.00  0.00     0.029 A 
ATOM     61  C   UNL A   1      44.813  31.595  28.639  1.00  0.00     0.049 A 
ATOM     62  H   UNL A   1      43.588  29.878  28.582  1.00  0.00     0.167 HD
ATOM     63  C   UNL A   1      42.706  32.305  29.726  1.00  0.00     0.074 A 
ATOM     64  C   UNL A   1      41.869  33.261  30.421  1.00  0.00     0.031 C 
ATOM     65  C   UNL A   1      43.964  32.561  29.290  1.00  0.00     0.034 A 
BRANCH  52  66
ATOM     66  C   UNL A   1      46.784  27.639  26.840  1.00  0.00     0.023 A 
ATOM     67  C   UNL A   1      47.712  27.024  27.705  1.00  0.00     0.012 A 
ATOM     68  C   UNL A   1      47.043  27.669  25.457  1.00  0.00     0.148 A 
ATOM     69  C   UNL A   1      48.899  26.488  27.207  1.00  0.00     0.002 A 
ATOM     70  C   UNL A   1      48.209  27.096  24.963  1.00  0.00     0.091 A 
ATOM     71  F   UNL A   1      46.157  28.272  24.653  1.00  0.00    -0.205 F 
ATOM     72  C   UNL A   1      49.144  26.518  25.837  1.00  0.00     0.022 A 
BRANCH  70  73
ATOM     73  S   UNL A   1      48.583  27.027  23.207  1.00  0.00     0.127 S 
ATOM     74  O   UNL A   1      48.203  25.654  22.880  1.00  0.00    -0.237 OA
ATOM     75  O   UNL A   1      47.693  28.052  22.662  1.00  0.00    -0.237 OA
ATOM     76  O   UNL A   1      50.001  27.331  23.089  1.00  0.00    -0.744 OA
ENDBRANCH  70  73
ENDBRANCH  52  66
BRANCH  53  77
ATOM     77  C   UNL A   1      38.359  30.954  30.956  1.00  0.00     0.023 A 
ATOM     78  C   UNL A   1      38.196  30.754  32.340  1.00  0.00     0.012 A 
ATOM     79  C   UNL A   1      37.345  31.618  30.236  1.00  0.00     0.148 A 
ATOM     80  C   UNL A   1      37.039  31.186  32.991  1.00  0.00     0.002 A 
ATOM     81  C   UNL A   1      36.215  32.087  30.898  1.00  0.00     0.091 A 
ATOM     82  F   UNL A   1      37.509  31.783  28.915  1.00  0.00    -0.205 F 
ATOM     83  C   UNL A   1      36.054  31.860  32.274  1.00  0.00     0.022 A 
BRANCH  81  84
ATOM     84  S   UNL A   1      34.942  33.059  30.083  1.00  0.00     0.127 S 
ATOM     85  O   UNL A   1      34.400  32.097  29.124  1.00  0.00    -0.237 OA
ATOM     86  O   UNL A   1      34.053  33.384  31.198  1.00  0.00    -0.237 OA
ATOM     87  O   UNL A   1      35.628  34.205  29.503  1.00  0.00    -0.744 OA
ENDBRANCH  81  84
ENDBRANCH  53  77
BRANCH  65  88
ATOM     88  C   UNL A   1      44.526  33.943  29.510  1.00  0.00     0.023 A 
ATOM     89  C   UNL A   1      45.339  34.200  30.630  1.00  0.00     0.012 A 
ATOM     90  C   UNL A   1      44.332  34.955  28.548  1.00  0.00     0.148 A 
ATOM     91  C   UNL A   1      45.937  35.450  30.800  1.00  0.00     0.002 A 
ATOM     92  C   UNL A   1      44.970  36.181  28.699  1.00  0.00     0.091 A 
ATOM     93  F   UNL A   1      43.537  34.696  27.499  1.00  0.00    -0.205 F 
ATOM     94  C   UNL A   1      45.763  36.435  29.829  1.00  0.00     0.022 A 
BRANCH  92  95
ATOM     95  S   UNL A   1      44.887  37.473  27.451  1.00  0.00     0.127 S 
ATOM     96  O   UNL A   1      45.915  37.039  26.506  1.00  0.00    -0.237 OA
ATOM     97  O   UNL A   1      43.514  37.342  26.963  1.00  0.00    -0.237 OA
ATOM     98  O   UNL A   1      45.167  38.723  28.145  1.00  0.00    -0.744 OA
ENDBRANCH  92  95
ENDBRANCH  65  88
ENDBRANCH  39  40
ENDBRANCH  32  34
ENDBRANCH  31  32
ENDBRANCH  30  31
ENDBRANCH   1  30
TORSDOF 20
ENDMDL
