MODEL 1
REMARK VINA RESULT:     -10.3      0.000      0.000
REMARK SMILES CC[NH2+][C@]1(C(=O)OCCOCCOC(=O)c2ccc(-c3c4nc(c(-c5cccc(S(=O)(=O)[O-])c5F)c5ccc([nH]5)c(-c5cccc(S(=O)(=O)[O-])c5F)c5nc(c(-c6cccc(S(=O)(=O)[O-])c6F)c6ccc3[nH]6)C=C5)C=C4)cc2)CC[C@@H](Sc2ccc(OC)cc2)C1
REMARK SMILES IDX 10 1 9 2 8 3 7 4 5 5 6 6 4 7 79 8 91 9 80 10 81 11 3 12 2 15
REMARK SMILES IDX 1 16 82 17 83 18 84 19 90 20 85 21 89 22 86 23 87 24 88 25
REMARK SMILES IDX 11 26 12 27 13 28 14 29 15 30 16 31 17 32 78 33 18 34 77 35
REMARK SMILES IDX 19 36 20 37 21 38 71 39 22 40 76 41 70 42 72 43 23 44 75 45
REMARK SMILES IDX 69 46 68 47 24 49 56 50 36 51 55 52 37 53 40 54 54 55 73 56
REMARK SMILES IDX 38 57 39 58 53 60 74 61 41 62 25 63 26 64 34 65 27 66 29 67
REMARK SMILES IDX 35 68 28 69 30 70 31 71 32 72 33 73 57 74 58 75 66 76 59 77
REMARK SMILES IDX 61 78 67 79 60 80 62 81 63 82 64 83 65 84 42 85 43 86 51 87
REMARK SMILES IDX 44 88 46 89 52 90 45 91 47 92 48 93 49 94 50 95
REMARK H PARENT 3 13 3 14 72 48 40 59
REMARK Flexibility Score: inf
ROOT
ATOM      1  O   UNL A   1      36.095  20.587  24.737  1.00  0.00    -0.374 OA
ENDROOT
BRANCH   1   2
ATOM      2  C   UNL A   1      34.806  20.597  25.362  1.00  0.00     0.202 C 
BRANCH   2   3
ATOM      3  C   UNL A   1      34.643  21.524  26.572  1.00  0.00     0.261 C 
BRANCH   3   4
ATOM      4  O   UNL A   1      33.475  22.355  26.432  1.00  0.00    -0.459 OA
BRANCH   4   5
ATOM      5  C   UNL A   1      33.537  23.321  25.480  1.00  0.00     0.368 C 
ATOM      6  O   UNL A   1      34.494  24.082  25.355  1.00  0.00    -0.245 OA
BRANCH   5   7
ATOM      7  C   UNL A   1      32.365  23.273  24.451  1.00  0.00     0.195 C 
ATOM      8  C   UNL A   1      31.247  24.184  25.016  1.00  0.00     0.082 C 
ATOM      9  C   UNL A   1      32.773  24.045  23.181  1.00  0.00     0.096 C 
ATOM     10  C   UNL A   1      30.538  24.815  23.820  1.00  0.00     0.022 C 
ATOM     11  C   UNL A   1      31.514  24.714  22.648  1.00  0.00     0.059 C 
BRANCH   7  12
ATOM     12  N   UNL A   1      31.816  21.919  24.188  1.00  0.00    -0.332 N 
ATOM     13  H   UNL A   1      32.141  21.303  24.933  1.00  0.00     0.347 HD
ATOM     14  H   UNL A   1      30.805  22.042  24.149  1.00  0.00     0.347 HD
BRANCH  12  15
ATOM     15  C   UNL A   1      32.181  21.299  22.910  1.00  0.00     0.257 C 
ATOM     16  C   UNL A   1      32.179  19.780  23.035  1.00  0.00     0.071 C 
ENDBRANCH  12  15
ENDBRANCH   7  12
BRANCH  11  17
ATOM     17  S   UNL A   1      31.788  26.275  21.703  1.00  0.00    -0.122 SA
BRANCH  17  18
ATOM     18  C   UNL A   1      31.911  27.534  22.966  1.00  0.00     0.008 A 
ATOM     19  C   UNL A   1      30.769  28.211  23.397  1.00  0.00     0.019 A 
ATOM     20  C   UNL A   1      33.154  27.935  23.468  1.00  0.00     0.019 A 
ATOM     21  C   UNL A   1      30.869  29.219  24.365  1.00  0.00     0.047 A 
ATOM     22  C   UNL A   1      33.250  28.907  24.470  1.00  0.00     0.047 A 
ATOM     23  C   UNL A   1      32.103  29.550  24.930  1.00  0.00     0.118 A 
BRANCH  23  24
ATOM     24  O   UNL A   1      32.066  30.526  25.888  1.00  0.00    -0.497 OA
ATOM     25  C   UNL A   1      32.560  30.164  27.173  1.00  0.00     0.278 C 
ENDBRANCH  23  24
ENDBRANCH  17  18
ENDBRANCH  11  17
ENDBRANCH   5   7
ENDBRANCH   4   5
ENDBRANCH   3   4
ENDBRANCH   2   3
ENDBRANCH   1   2
BRANCH   1  26
ATOM     26  C   UNL A   1      36.882  19.416  24.943  1.00  0.00     0.202 C 
BRANCH  26  27
ATOM     27  C   UNL A   1      38.401  19.588  24.916  1.00  0.00     0.261 C 
BRANCH  27  28
ATOM     28  O   UNL A   1      38.792  20.816  25.550  1.00  0.00    -0.460 OA
BRANCH  28  29
ATOM     29  C   UNL A   1      39.882  20.706  26.343  1.00  0.00     0.338 C 
ATOM     30  O   UNL A   1      40.615  19.732  26.452  1.00  0.00    -0.246 OA
BRANCH  29  31
ATOM     31  C   UNL A   1      40.205  22.014  26.939  1.00  0.00     0.060 A 
ATOM     32  C   UNL A   1      39.548  23.132  26.408  1.00  0.00     0.016 A 
ATOM     33  C   UNL A   1      41.153  22.161  27.955  1.00  0.00     0.016 A 
ATOM     34  C   UNL A   1      39.888  24.409  26.838  1.00  0.00     0.010 A 
ATOM     35  C   UNL A   1      41.497  23.447  28.382  1.00  0.00     0.010 A 
ATOM     36  C   UNL A   1      40.899  24.576  27.792  1.00  0.00    -0.014 A 
BRANCH  36  37
ATOM     37  C   UNL A   1      41.435  25.933  28.045  1.00  0.00     0.031 A 
ATOM     38  C   UNL A   1      42.827  26.264  27.582  1.00  0.00     0.074 A 
ATOM     39  C   UNL A   1      40.681  26.867  28.653  1.00  0.00     0.049 A 
ATOM     40  N   UNL A   1      43.498  27.380  27.703  1.00  0.00    -0.248 NA
ATOM     41  C   UNL A   1      43.565  25.193  26.891  1.00  0.00     0.031 C 
ATOM     42  C   UNL A   1      39.316  26.666  29.135  1.00  0.00     0.029 A 
ATOM     43  N   UNL A   1      40.971  28.166  28.985  1.00  0.00    -0.354 N 
ATOM     44  C   UNL A   1      44.742  27.137  27.137  1.00  0.00     0.074 A 
ATOM     45  C   UNL A   1      44.741  25.765  26.682  1.00  0.00     0.031 C 
ATOM     46  C   UNL A   1      38.893  27.796  29.728  1.00  0.00     0.029 A 
ATOM     47  C   UNL A   1      39.967  28.788  29.690  1.00  0.00     0.049 A 
ATOM     48  H   UNL A   1      41.814  28.610  28.743  1.00  0.00     0.167 HD
ATOM     49  C   UNL A   1      45.789  27.986  26.996  1.00  0.00     0.034 A 
ATOM     50  C   UNL A   1      39.931  30.008  30.260  1.00  0.00     0.034 A 
ATOM     51  C   UNL A   1      45.778  29.356  27.432  1.00  0.00     0.049 A 
ATOM     52  C   UNL A   1      41.117  30.924  30.110  1.00  0.00     0.074 A 
ATOM     53  C   UNL A   1      46.767  30.311  27.289  1.00  0.00     0.029 A 
ATOM     54  N   UNL A   1      44.731  29.961  28.110  1.00  0.00    -0.354 N 
ATOM     55  N   UNL A   1      42.245  30.720  29.472  1.00  0.00    -0.248 NA
ATOM     56  C   UNL A   1      41.013  32.254  30.729  1.00  0.00     0.031 C 
ATOM     57  C   UNL A   1      46.334  31.484  27.913  1.00  0.00     0.029 A 
ATOM     58  C   UNL A   1      45.057  31.273  28.409  1.00  0.00     0.049 A 
ATOM     59  H   UNL A   1      43.881  29.523  28.345  1.00  0.00     0.167 HD
ATOM     60  C   UNL A   1      42.967  31.904  29.580  1.00  0.00     0.074 A 
ATOM     61  C   UNL A   1      42.140  32.828  30.329  1.00  0.00     0.031 C 
ATOM     62  C   UNL A   1      44.205  32.198  29.112  1.00  0.00     0.034 A 
BRANCH  49  63
ATOM     63  C   UNL A   1      47.033  27.460  26.330  1.00  0.00     0.023 A 
ATOM     64  C   UNL A   1      47.290  27.768  24.978  1.00  0.00     0.012 A 
ATOM     65  C   UNL A   1      47.976  26.710  27.059  1.00  0.00     0.148 A 
ATOM     66  C   UNL A   1      48.451  27.310  24.355  1.00  0.00     0.002 A 
ATOM     67  C   UNL A   1      49.152  26.297  26.445  1.00  0.00     0.091 A 
ATOM     68  F   UNL A   1      47.702  26.408  28.336  1.00  0.00    -0.205 F 
ATOM     69  C   UNL A   1      49.385  26.586  25.090  1.00  0.00     0.022 A 
BRANCH  67  70
ATOM     70  S   UNL A   1      50.452  25.429  27.327  1.00  0.00     0.127 S 
ATOM     71  O   UNL A   1      51.472  25.292  26.287  1.00  0.00    -0.237 OA
ATOM     72  O   UNL A   1      50.789  26.378  28.389  1.00  0.00    -0.237 OA
ATOM     73  O   UNL A   1      49.863  24.181  27.789  1.00  0.00    -0.744 OA
ENDBRANCH  67  70
ENDBRANCH  49  63
BRANCH  50  74
ATOM     74  C   UNL A   1      38.719  30.443  31.009  1.00  0.00     0.023 A 
ATOM     75  C   UNL A   1      38.604  30.153  32.382  1.00  0.00     0.012 A 
ATOM     76  C   UNL A   1      37.686  31.155  30.368  1.00  0.00     0.148 A 
ATOM     77  C   UNL A   1      37.469  30.536  33.096  1.00  0.00     0.002 A 
ATOM     78  C   UNL A   1      36.585  31.584  31.097  1.00  0.00     0.091 A 
ATOM     79  F   UNL A   1      37.809  31.408  29.057  1.00  0.00    -0.205 F 
ATOM     80  C   UNL A   1      36.465  31.260  32.457  1.00  0.00     0.022 A 
BRANCH  78  81
ATOM     81  S   UNL A   1      35.308  32.629  30.389  1.00  0.00     0.127 S 
ATOM     82  O   UNL A   1      34.403  32.805  31.522  1.00  0.00    -0.237 OA
ATOM     83  O   UNL A   1      36.069  33.822  30.015  1.00  0.00    -0.237 OA
ATOM     84  O   UNL A   1      34.768  31.883  29.261  1.00  0.00    -0.744 OA
ENDBRANCH  78  81
ENDBRANCH  50  74
BRANCH  62  85
ATOM     85  C   UNL A   1      44.735  33.588  29.351  1.00  0.00     0.023 A 
ATOM     86  C   UNL A   1      45.414  33.888  30.549  1.00  0.00     0.012 A 
ATOM     87  C   UNL A   1      44.624  34.577  28.353  1.00  0.00     0.148 A 
ATOM     88  C   UNL A   1      45.943  35.161  30.764  1.00  0.00     0.002 A 
ATOM     89  C   UNL A   1      45.199  35.826  28.552  1.00  0.00     0.091 A 
ATOM     90  F   UNL A   1      43.961  34.278  27.227  1.00  0.00    -0.205 F 
ATOM     91  C   UNL A   1      45.847  36.124  29.762  1.00  0.00     0.022 A 
BRANCH  89  92
ATOM     92  S   UNL A   1      45.212  37.096  27.281  1.00  0.00     0.127 S 
ATOM     93  O   UNL A   1      45.843  38.213  27.983  1.00  0.00    -0.237 OA
ATOM     94  O   UNL A   1      46.039  36.483  26.240  1.00  0.00    -0.237 OA
ATOM     95  O   UNL A   1      43.820  37.303  26.905  1.00  0.00    -0.744 OA
ENDBRANCH  89  92
ENDBRANCH  62  85
ENDBRANCH  36  37
ENDBRANCH  29  31
ENDBRANCH  28  29
ENDBRANCH  27  28
ENDBRANCH  26  27
ENDBRANCH   1  26
TORSDOF 22
ENDMDL
MODEL 2
REMARK VINA RESULT:     -10.2      4.602      7.910
REMARK SMILES CC[NH2+][C@]1(C(=O)OCCOCCOC(=O)c2ccc(-c3c4nc(c(-c5cccc(S(=O)(=O)[O-])c5F)c5ccc([nH]5)c(-c5cccc(S(=O)(=O)[O-])c5F)c5nc(c(-c6cccc(S(=O)(=O)[O-])c6F)c6ccc3[nH]6)C=C5)C=C4)cc2)CC[C@@H](Sc2ccc(OC)cc2)C1
REMARK SMILES IDX 10 1 9 2 8 3 7 4 5 5 6 6 4 7 79 8 91 9 80 10 81 11 3 12 2 15
REMARK SMILES IDX 1 16 82 17 83 18 84 19 90 20 85 21 89 22 86 23 87 24 88 25
REMARK SMILES IDX 11 26 12 27 13 28 14 29 15 30 16 31 17 32 78 33 18 34 77 35
REMARK SMILES IDX 19 36 20 37 21 38 71 39 22 40 76 41 70 42 72 43 23 44 75 45
REMARK SMILES IDX 69 46 68 47 24 49 56 50 36 51 55 52 37 53 40 54 54 55 73 56
REMARK SMILES IDX 38 57 39 58 53 60 74 61 41 62 25 63 26 64 34 65 27 66 29 67
REMARK SMILES IDX 35 68 28 69 30 70 31 71 32 72 33 73 57 74 58 75 66 76 59 77
REMARK SMILES IDX 61 78 67 79 60 80 62 81 63 82 64 83 65 84 42 85 43 86 51 87
REMARK SMILES IDX 44 88 46 89 52 90 45 91 47 92 48 93 49 94 50 95
REMARK H PARENT 3 13 3 14 72 48 40 59
REMARK Flexibility Score: inf
ROOT
ATOM      1  O   UNL A   1      31.173  29.389  23.517  1.00  0.00    -0.374 OA
ENDROOT
BRANCH   1   2
ATOM      2  C   UNL A   1      32.386  29.110  22.809  1.00  0.00     0.202 C 
BRANCH   2   3
ATOM      3  C   UNL A   1      33.072  27.777  23.131  1.00  0.00     0.261 C 
BRANCH   3   4
ATOM      4  O   UNL A   1      32.276  26.664  22.680  1.00  0.00    -0.459 OA
BRANCH   4   5
ATOM      5  C   UNL A   1      32.958  25.615  22.152  1.00  0.00     0.368 C 
ATOM      6  O   UNL A   1      33.450  25.630  21.025  1.00  0.00    -0.245 OA
BRANCH   5   7
ATOM      7  C   UNL A   1      33.210  24.451  23.159  1.00  0.00     0.195 C 
ATOM      8  C   UNL A   1      31.890  24.256  23.945  1.00  0.00     0.082 C 
ATOM      9  C   UNL A   1      33.301  23.121  22.385  1.00  0.00     0.096 C 
ATOM     10  C   UNL A   1      31.778  22.769  24.270  1.00  0.00     0.022 C 
ATOM     11  C   UNL A   1      32.690  22.049  23.277  1.00  0.00     0.059 C 
BRANCH   7  12
ATOM     12  N   UNL A   1      34.326  24.676  24.113  1.00  0.00    -0.332 N 
ATOM     13  H   UNL A   1      34.704  25.607  23.932  1.00  0.00     0.347 HD
ATOM     14  H   UNL A   1      33.917  24.555  25.038  1.00  0.00     0.347 HD
BRANCH  12  15
ATOM     15  C   UNL A   1      35.442  23.727  24.055  1.00  0.00     0.257 C 
ATOM     16  C   UNL A   1      35.617  23.028  25.397  1.00  0.00     0.071 C 
ENDBRANCH  12  15
ENDBRANCH   7  12
BRANCH  11  17
ATOM     17  S   UNL A   1      31.931  20.621  22.388  1.00  0.00    -0.122 SA
BRANCH  17  18
ATOM     18  C   UNL A   1      32.570  19.187  23.242  1.00  0.00     0.008 A 
ATOM     19  C   UNL A   1      32.864  18.021  22.533  1.00  0.00     0.019 A 
ATOM     20  C   UNL A   1      32.689  19.168  24.635  1.00  0.00     0.019 A 
ATOM     21  C   UNL A   1      33.336  16.886  23.205  1.00  0.00     0.047 A 
ATOM     22  C   UNL A   1      33.207  18.052  25.303  1.00  0.00     0.047 A 
ATOM     23  C   UNL A   1      33.541  16.906  24.588  1.00  0.00     0.118 A 
BRANCH  23  24
ATOM     24  O   UNL A   1      34.036  15.748  25.123  1.00  0.00    -0.497 OA
ATOM     25  C   UNL A   1      35.442  15.710  25.347  1.00  0.00     0.278 C 
ENDBRANCH  23  24
ENDBRANCH  17  18
ENDBRANCH  11  17
ENDBRANCH   5   7
ENDBRANCH   4   5
ENDBRANCH   3   4
ENDBRANCH   2   3
ENDBRANCH   1   2
BRANCH   1  26
ATOM     26  C   UNL A   1      31.214  29.202  24.929  1.00  0.00     0.202 C 
BRANCH  26  27
ATOM     27  C   UNL A   1      31.612  30.411  25.777  1.00  0.00     0.261 C 
BRANCH  27  28
ATOM     28  O   UNL A   1      32.993  30.336  26.165  1.00  0.00    -0.460 OA
BRANCH  28  29
ATOM     29  C   UNL A   1      33.365  31.271  27.069  1.00  0.00     0.338 C 
ATOM     30  O   UNL A   1      32.659  32.145  27.553  1.00  0.00    -0.246 OA
BRANCH  29  31
ATOM     31  C   UNL A   1      34.722  30.981  27.563  1.00  0.00     0.060 A 
ATOM     32  C   UNL A   1      35.027  29.640  27.832  1.00  0.00     0.016 A 
ATOM     33  C   UNL A   1      35.662  31.987  27.802  1.00  0.00     0.016 A 
ATOM     34  C   UNL A   1      36.244  29.305  28.411  1.00  0.00     0.010 A 
ATOM     35  C   UNL A   1      36.885  31.647  28.389  1.00  0.00     0.010 A 
ATOM     36  C   UNL A   1      37.160  30.312  28.738  1.00  0.00    -0.014 A 
BRANCH  36  37
ATOM     37  C   UNL A   1      38.327  29.978  29.588  1.00  0.00     0.031 A 
ATOM     38  C   UNL A   1      39.357  29.016  29.062  1.00  0.00     0.074 A 
ATOM     39  C   UNL A   1      38.481  30.546  30.797  1.00  0.00     0.049 A 
ATOM     40  N   UNL A   1      40.448  28.577  29.633  1.00  0.00    -0.248 NA
ATOM     41  C   UNL A   1      39.127  28.474  27.712  1.00  0.00     0.031 C 
ATOM     42  C   UNL A   1      37.556  31.499  31.406  1.00  0.00     0.029 A 
ATOM     43  N   UNL A   1      39.467  30.383  31.737  1.00  0.00    -0.354 N 
ATOM     44  C   UNL A   1      41.015  27.685  28.732  1.00  0.00     0.074 A 
ATOM     45  C   UNL A   1      40.143  27.636  27.579  1.00  0.00     0.031 C 
ATOM     46  C   UNL A   1      38.003  31.817  32.633  1.00  0.00     0.029 A 
ATOM     47  C   UNL A   1      39.231  31.070  32.903  1.00  0.00     0.049 A 
ATOM     48  H   UNL A   1      40.266  29.827  31.591  1.00  0.00     0.167 HD
ATOM     49  C   UNL A   1      42.166  26.982  28.847  1.00  0.00     0.034 A 
ATOM     50  C   UNL A   1      39.914  31.076  34.065  1.00  0.00     0.034 A 
ATOM     51  C   UNL A   1      43.041  27.051  29.986  1.00  0.00     0.049 A 
ATOM     52  C   UNL A   1      41.179  30.265  34.176  1.00  0.00     0.074 A 
ATOM     53  C   UNL A   1      44.255  26.418  30.177  1.00  0.00     0.029 A 
ATOM     54  N   UNL A   1      42.787  27.785  31.135  1.00  0.00    -0.354 N 
ATOM     55  N   UNL A   1      41.763  29.515  33.273  1.00  0.00    -0.248 NA
ATOM     56  C   UNL A   1      41.899  30.328  35.457  1.00  0.00     0.031 C 
ATOM     57  C   UNL A   1      44.718  26.739  31.457  1.00  0.00     0.029 A 
ATOM     58  C   UNL A   1      43.813  27.607  32.046  1.00  0.00     0.049 A 
ATOM     59  H   UNL A   1      41.994  28.350  31.281  1.00  0.00     0.167 HD
ATOM     60  C   UNL A   1      42.935  29.048  33.861  1.00  0.00     0.074 A 
ATOM     61  C   UNL A   1      42.986  29.616  35.192  1.00  0.00     0.031 C 
ATOM     62  C   UNL A   1      43.877  28.218  33.350  1.00  0.00     0.034 A 
BRANCH  49  63
ATOM     63  C   UNL A   1      42.556  26.083  27.703  1.00  0.00     0.023 A 
ATOM     64  C   UNL A   1      43.451  26.547  26.718  1.00  0.00     0.012 A 
ATOM     65  C   UNL A   1      42.081  24.759  27.637  1.00  0.00     0.148 A 
ATOM     66  C   UNL A   1      43.842  25.718  25.667  1.00  0.00     0.002 A 
ATOM     67  C   UNL A   1      42.512  23.923  26.613  1.00  0.00     0.091 A 
ATOM     68  F   UNL A   1      41.214  24.343  28.570  1.00  0.00    -0.205 F 
ATOM     69  C   UNL A   1      43.382  24.404  25.622  1.00  0.00     0.022 A 
BRANCH  67  70
ATOM     70  S   UNL A   1      42.040  22.194  26.511  1.00  0.00     0.127 S 
ATOM     71  O   UNL A   1      40.588  22.294  26.363  1.00  0.00    -0.237 OA
ATOM     72  O   UNL A   1      42.746  21.754  25.307  1.00  0.00    -0.237 OA
ATOM     73  O   UNL A   1      42.499  21.576  27.747  1.00  0.00    -0.744 OA
ENDBRANCH  67  70
ENDBRANCH  49  63
BRANCH  50  74
ATOM     74  C   UNL A   1      39.427  31.893  35.210  1.00  0.00     0.023 A 
ATOM     75  C   UNL A   1      38.553  31.322  36.156  1.00  0.00     0.012 A 
ATOM     76  C   UNL A   1      39.836  33.231  35.374  1.00  0.00     0.148 A 
ATOM     77  C   UNL A   1      38.072  32.077  37.225  1.00  0.00     0.002 A 
ATOM     78  C   UNL A   1      39.399  33.960  36.472  1.00  0.00     0.091 A 
ATOM     79  F   UNL A   1      40.656  33.760  34.454  1.00  0.00    -0.205 F 
ATOM     80  C   UNL A   1      38.503  33.391  37.390  1.00  0.00     0.022 A 
BRANCH  78  81
ATOM     81  S   UNL A   1      40.001  35.613  36.833  1.00  0.00     0.127 S 
ATOM     82  O   UNL A   1      41.444  35.400  36.892  1.00  0.00    -0.237 OA
ATOM     83  O   UNL A   1      39.534  36.364  35.667  1.00  0.00    -0.237 OA
ATOM     84  O   UNL A   1      39.368  35.998  38.088  1.00  0.00    -0.744 OA
ENDBRANCH  78  81
ENDBRANCH  50  74
BRANCH  62  85
ATOM     85  C   UNL A   1      45.073  27.900  34.209  1.00  0.00     0.023 A 
ATOM     86  C   UNL A   1      45.062  26.767  35.045  1.00  0.00     0.012 A 
ATOM     87  C   UNL A   1      46.240  28.688  34.129  1.00  0.00     0.148 A 
ATOM     88  C   UNL A   1      46.178  26.442  35.815  1.00  0.00     0.002 A 
ATOM     89  C   UNL A   1      47.367  28.328  34.858  1.00  0.00     0.091 A 
ATOM     90  F   UNL A   1      46.227  29.772  33.340  1.00  0.00    -0.205 F 
ATOM     91  C   UNL A   1      47.333  27.214  35.712  1.00  0.00     0.022 A 
BRANCH  89  92
ATOM     92  S   UNL A   1      48.929  29.204  34.714  1.00  0.00     0.127 S 
ATOM     93  O   UNL A   1      49.160  29.163  33.271  1.00  0.00    -0.237 OA
ATOM     94  O   UNL A   1      48.591  30.527  35.240  1.00  0.00    -0.237 OA
ATOM     95  O   UNL A   1      49.885  28.458  35.521  1.00  0.00    -0.744 OA
ENDBRANCH  89  92
ENDBRANCH  62  85
ENDBRANCH  36  37
ENDBRANCH  29  31
ENDBRANCH  28  29
ENDBRANCH  27  28
ENDBRANCH  26  27
ENDBRANCH   1  26
TORSDOF 22
ENDMDL
MODEL 3
REMARK VINA RESULT:     -10.0      1.810      7.729
REMARK SMILES CC[NH2+][C@]1(C(=O)OCCOCCOC(=O)c2ccc(-c3c4nc(c(-c5cccc(S(=O)(=O)[O-])c5F)c5ccc([nH]5)c(-c5cccc(S(=O)(=O)[O-])c5F)c5nc(c(-c6cccc(S(=O)(=O)[O-])c6F)c6ccc3[nH]6)C=C5)C=C4)cc2)CC[C@@H](Sc2ccc(OC)cc2)C1
REMARK SMILES IDX 10 1 9 2 8 3 7 4 5 5 6 6 4 7 79 8 91 9 80 10 81 11 3 12 2 15
REMARK SMILES IDX 1 16 82 17 83 18 84 19 90 20 85 21 89 22 86 23 87 24 88 25
REMARK SMILES IDX 11 26 12 27 13 28 14 29 15 30 16 31 17 32 78 33 18 34 77 35
REMARK SMILES IDX 19 36 20 37 21 38 71 39 22 40 76 41 70 42 72 43 23 44 75 45
REMARK SMILES IDX 69 46 68 47 24 49 56 50 36 51 55 52 37 53 40 54 54 55 73 56
REMARK SMILES IDX 38 57 39 58 53 60 74 61 41 62 25 63 26 64 34 65 27 66 29 67
REMARK SMILES IDX 35 68 28 69 30 70 31 71 32 72 33 73 57 74 58 75 66 76 59 77
REMARK SMILES IDX 61 78 67 79 60 80 62 81 63 82 64 83 65 84 42 85 43 86 51 87
REMARK SMILES IDX 44 88 46 89 52 90 45 91 47 92 48 93 49 94 50 95
REMARK H PARENT 3 13 3 14 72 48 40 59
REMARK Flexibility Score: inf
ROOT
ATOM      1  O   UNL A   1      37.816  21.306  24.938  1.00  0.00    -0.374 OA
ENDROOT
BRANCH   1   2
ATOM      2  C   UNL A   1      36.573  21.820  25.430  1.00  0.00     0.202 C 
BRANCH   2   3
ATOM      3  C   UNL A   1      36.004  23.042  24.700  1.00  0.00     0.261 C 
BRANCH   3   4
ATOM      4  O   UNL A   1      35.475  24.003  25.633  1.00  0.00    -0.459 OA
BRANCH   4   5
ATOM      5  C   UNL A   1      34.275  23.699  26.191  1.00  0.00     0.368 C 
ATOM      6  O   UNL A   1      34.161  23.116  27.267  1.00  0.00    -0.245 OA
BRANCH   5   7
ATOM      7  C   UNL A   1      33.052  24.302  25.432  1.00  0.00     0.195 C 
ATOM      8  C   UNL A   1      31.980  24.616  26.504  1.00  0.00     0.082 C 
ATOM      9  C   UNL A   1      33.410  25.718  24.937  1.00  0.00     0.096 C 
ATOM     10  C   UNL A   1      31.224  25.854  26.031  1.00  0.00     0.022 C 
ATOM     11  C   UNL A   1      32.137  26.548  25.022  1.00  0.00     0.059 C 
BRANCH   7  12
ATOM     12  N   UNL A   1      32.467  23.424  24.387  1.00  0.00    -0.332 N 
ATOM     13  H   UNL A   1      31.622  23.879  24.039  1.00  0.00     0.347 HD
ATOM     14  H   UNL A   1      33.203  23.307  23.692  1.00  0.00     0.347 HD
BRANCH  12  15
ATOM     15  C   UNL A   1      32.102  22.066  24.799  1.00  0.00     0.257 C 
ATOM     16  C   UNL A   1      32.654  21.043  23.813  1.00  0.00     0.071 C 
ENDBRANCH  12  15
ENDBRANCH   7  12
BRANCH  11  17
ATOM     17  S   UNL A   1      32.391  28.357  25.290  1.00  0.00    -0.122 SA
BRANCH  17  18
ATOM     18  C   UNL A   1      31.083  29.126  24.348  1.00  0.00     0.008 A 
ATOM     19  C   UNL A   1      30.621  30.397  24.693  1.00  0.00     0.019 A 
ATOM     20  C   UNL A   1      30.430  28.435  23.320  1.00  0.00     0.019 A 
ATOM     21  C   UNL A   1      29.574  30.988  23.973  1.00  0.00     0.047 A 
ATOM     22  C   UNL A   1      29.418  29.043  22.569  1.00  0.00     0.047 A 
ATOM     23  C   UNL A   1      28.990  30.329  22.888  1.00  0.00     0.118 A 
BRANCH  23  24
ATOM     24  O   UNL A   1      28.001  31.022  22.246  1.00  0.00    -0.497 OA
ATOM     25  C   UNL A   1      27.981  30.919  20.826  1.00  0.00     0.278 C 
ENDBRANCH  23  24
ENDBRANCH  17  18
ENDBRANCH  11  17
ENDBRANCH   5   7
ENDBRANCH   4   5
ENDBRANCH   3   4
ENDBRANCH   2   3
ENDBRANCH   1   2
BRANCH   1  26
ATOM     26  C   UNL A   1      37.907  19.888  24.827  1.00  0.00     0.202 C 
BRANCH  26  27
ATOM     27  C   UNL A   1      39.128  19.220  25.462  1.00  0.00     0.261 C 
BRANCH  27  28
ATOM     28  O   UNL A   1      39.561  19.940  26.627  1.00  0.00    -0.460 OA
BRANCH  28  29
ATOM     29  C   UNL A   1      40.891  20.183  26.664  1.00  0.00     0.338 C 
ATOM     30  O   UNL A   1      41.781  19.466  26.226  1.00  0.00    -0.246 OA
BRANCH  29  31
ATOM     31  C   UNL A   1      41.139  21.554  27.142  1.00  0.00     0.060 A 
ATOM     32  C   UNL A   1      40.688  22.601  26.327  1.00  0.00     0.016 A 
ATOM     33  C   UNL A   1      41.829  21.821  28.327  1.00  0.00     0.016 A 
ATOM     34  C   UNL A   1      40.990  23.917  26.653  1.00  0.00     0.010 A 
ATOM     35  C   UNL A   1      42.136  23.146  28.650  1.00  0.00     0.010 A 
ATOM     36  C   UNL A   1      41.758  24.194  27.791  1.00  0.00    -0.014 A 
BRANCH  36  37
ATOM     37  C   UNL A   1      42.295  25.561  27.984  1.00  0.00     0.031 A 
ATOM     38  C   UNL A   1      41.412  26.608  28.606  1.00  0.00     0.074 A 
ATOM     39  C   UNL A   1      43.560  25.857  27.637  1.00  0.00     0.049 A 
ATOM     40  N   UNL A   1      41.670  27.864  28.861  1.00  0.00    -0.248 NA
ATOM     41  C   UNL A   1      40.055  26.184  28.991  1.00  0.00     0.031 C 
ATOM     42  C   UNL A   1      44.511  24.923  27.037  1.00  0.00     0.029 A 
ATOM     43  N   UNL A   1      44.252  27.038  27.722  1.00  0.00    -0.354 N 
ATOM     44  C   UNL A   1      40.503  28.388  29.402  1.00  0.00     0.074 A 
ATOM     45  C   UNL A   1      39.530  27.318  29.429  1.00  0.00     0.031 C 
ATOM     46  C   UNL A   1      45.659  25.576  26.782  1.00  0.00     0.029 A 
ATOM     47  C   UNL A   1      45.512  26.976  27.176  1.00  0.00     0.049 A 
ATOM     48  H   UNL A   1      43.884  27.852  28.135  1.00  0.00     0.167 HD
ATOM     49  C   UNL A   1      40.267  29.644  29.850  1.00  0.00     0.034 A 
ATOM     50  C   UNL A   1      46.431  27.944  26.993  1.00  0.00     0.034 A 
ATOM     51  C   UNL A   1      41.244  30.698  29.841  1.00  0.00     0.049 A 
ATOM     52  C   UNL A   1      46.134  29.339  27.478  1.00  0.00     0.074 A 
ATOM     53  C   UNL A   1      41.119  31.989  30.319  1.00  0.00     0.029 A 
ATOM     54  N   UNL A   1      42.520  30.588  29.312  1.00  0.00    -0.354 N 
ATOM     55  N   UNL A   1      45.068  29.792  28.092  1.00  0.00    -0.248 NA
ATOM     56  C   UNL A   1      47.183  30.351  27.276  1.00  0.00     0.031 C 
ATOM     57  C   UNL A   1      42.308  32.673  30.046  1.00  0.00     0.029 A 
ATOM     58  C   UNL A   1      43.188  31.794  29.436  1.00  0.00     0.049 A 
ATOM     59  H   UNL A   1      42.897  29.773  28.908  1.00  0.00     0.167 HD
ATOM     60  C   UNL A   1      45.330  31.127  28.383  1.00  0.00     0.074 A 
ATOM     61  C   UNL A   1      46.665  31.404  27.894  1.00  0.00     0.031 C 
ATOM     62  C   UNL A   1      44.536  32.043  28.990  1.00  0.00     0.034 A 
BRANCH  49  63
ATOM     63  C   UNL A   1      38.898  29.945  30.403  1.00  0.00     0.023 A 
ATOM     64  C   UNL A   1      38.591  29.615  31.739  1.00  0.00     0.012 A 
ATOM     65  C   UNL A   1      37.936  30.607  29.616  1.00  0.00     0.148 A 
ATOM     66  C   UNL A   1      37.338  29.912  32.273  1.00  0.00     0.002 A 
ATOM     67  C   UNL A   1      36.705  30.941  30.169  1.00  0.00     0.091 A 
ATOM     68  F   UNL A   1      38.238  30.891  28.342  1.00  0.00    -0.205 F 
ATOM     69  C   UNL A   1      36.401  30.584  31.493  1.00  0.00     0.022 A 
BRANCH  67  70
ATOM     70  S   UNL A   1      35.462  31.875  29.272  1.00  0.00     0.127 S 
ATOM     71  O   UNL A   1      34.855  30.835  28.443  1.00  0.00    -0.237 OA
ATOM     72  O   UNL A   1      34.608  32.367  30.355  1.00  0.00    -0.237 OA
ATOM     73  O   UNL A   1      36.181  32.911  28.546  1.00  0.00    -0.744 OA
ENDBRANCH  67  70
ENDBRANCH  49  63
BRANCH  50  74
ATOM     74  C   UNL A   1      47.729  27.623  26.336  1.00  0.00     0.023 A 
ATOM     75  C   UNL A   1      48.844  27.276  27.122  1.00  0.00     0.012 A 
ATOM     76  C   UNL A   1      47.858  27.648  24.934  1.00  0.00     0.148 A 
ATOM     77  C   UNL A   1      50.072  26.989  26.526  1.00  0.00     0.002 A 
ATOM     78  C   UNL A   1      49.068  27.306  24.343  1.00  0.00     0.091 A 
ATOM     79  F   UNL A   1      46.788  27.996  24.204  1.00  0.00    -0.205 F 
ATOM     80  C   UNL A   1      50.181  26.994  25.137  1.00  0.00     0.022 A 
BRANCH  78  81
ATOM     81  S   UNL A   1      49.265  27.161  22.564  1.00  0.00     0.127 S 
ATOM     82  O   UNL A   1      48.402  26.023  22.259  1.00  0.00    -0.237 OA
ATOM     83  O   UNL A   1      48.767  28.456  22.100  1.00  0.00    -0.237 OA
ATOM     84  O   UNL A   1      50.689  26.950  22.341  1.00  0.00    -0.744 OA
ENDBRANCH  78  81
ENDBRANCH  50  74
BRANCH  62  85
ATOM     85  C   UNL A   1      45.096  33.425  29.205  1.00  0.00     0.023 A 
ATOM     86  C   UNL A   1      45.792  33.728  30.392  1.00  0.00     0.012 A 
ATOM     87  C   UNL A   1      44.996  34.403  28.195  1.00  0.00     0.148 A 
ATOM     88  C   UNL A   1      46.348  34.992  30.586  1.00  0.00     0.002 A 
ATOM     89  C   UNL A   1      45.598  35.643  28.372  1.00  0.00     0.091 A 
ATOM     90  F   UNL A   1      44.317  34.102  27.079  1.00  0.00    -0.205 F 
ATOM     91  C   UNL A   1      46.262  35.944  29.571  1.00  0.00     0.022 A 
BRANCH  89  92
ATOM     92  S   UNL A   1      45.625  36.895  27.083  1.00  0.00     0.127 S 
ATOM     93  O   UNL A   1      46.491  37.913  27.676  1.00  0.00    -0.237 OA
ATOM     94  O   UNL A   1      46.218  36.169  25.959  1.00  0.00    -0.237 OA
ATOM     95  O   UNL A   1      44.239  37.295  26.882  1.00  0.00    -0.744 OA
ENDBRANCH  89  92
ENDBRANCH  62  85
ENDBRANCH  36  37
ENDBRANCH  29  31
ENDBRANCH  28  29
ENDBRANCH  27  28
ENDBRANCH  26  27
ENDBRANCH   1  26
TORSDOF 22
ENDMDL
