MODEL 1
REMARK VINA RESULT:     -11.9      0.000      0.000
REMARK SMILES Cc1cc2c(c(C)c1Br)C=C(C(=O)OCCOCCOC(=O)c1ccc(-c3c4nc(c(-c5cccc(S(=O)(=O)[O-])c5F)c5ccc([nH]5)c(-c5cccc(S(=O)(=O)[O-])c5F)c5nc(c(-c6cccc(S(=O)(=O)[O-])c6F)c6ccc3[nH]6)C=C5)C=C4)cc1)[C@@H](C(F)(F)F)O2
REMARK SMILES IDX 18 1 17 2 16 3 15 4 14 5 12 6 13 7 11 8 1 9 2 10 3 11 8 12
REMARK SMILES IDX 4 13 6 14 9 15 5 16 91 17 7 18 10 19 86 20 87 21 88 22 89 23
REMARK SMILES IDX 90 24 19 25 20 26 21 27 22 28 23 29 24 30 85 31 25 32 84 33
REMARK SMILES IDX 26 34 27 35 28 36 78 37 29 38 83 39 77 40 79 41 30 42 82 43
REMARK SMILES IDX 76 44 75 45 31 47 63 48 43 49 62 50 44 51 47 52 61 53 80 54
REMARK SMILES IDX 45 55 46 56 60 58 81 59 48 60 32 61 33 62 41 63 34 64 36 65
REMARK SMILES IDX 42 66 35 67 37 68 38 69 39 70 40 71 64 72 65 73 73 74 66 75
REMARK SMILES IDX 68 76 74 77 67 78 69 79 70 80 71 81 72 82 49 83 50 84 58 85
REMARK SMILES IDX 51 86 53 87 59 88 52 89 54 90 55 91 56 92 57 93
REMARK H PARENT 79 46 47 57
REMARK Flexibility Score: inf
ROOT
ATOM      1  C   UNL A   1      31.282  31.945  26.407  1.00  0.00     0.202 C 
ENDROOT
BRANCH   1   2
ATOM      2  O   UNL A   1      31.917  30.666  26.453  1.00  0.00    -0.374 OA
BRANCH   2   3
ATOM      3  C   UNL A   1      31.745  29.797  25.334  1.00  0.00     0.202 C 
BRANCH   3   4
ATOM      4  C   UNL A   1      31.717  28.292  25.620  1.00  0.00     0.261 C 
BRANCH   4   5
ATOM      5  O   UNL A   1      33.021  27.703  25.505  1.00  0.00    -0.460 OA
BRANCH   5   6
ATOM      6  C   UNL A   1      33.235  27.035  24.348  1.00  0.00     0.338 C 
ATOM      7  O   UNL A   1      33.531  27.517  23.264  1.00  0.00    -0.246 OA
BRANCH   6   8
ATOM      8  C   UNL A   1      33.210  25.581  24.597  1.00  0.00     0.087 C 
ATOM      9  C   UNL A   1      34.477  19.247  24.626  1.00  0.00     0.046 C 
ATOM     10  C   UNL A   1      34.536  20.745  24.761  1.00  0.00    -0.033 A 
ATOM     11  C   UNL A   1      33.322  21.446  24.779  1.00  0.00     0.051 A 
ATOM     12  C   UNL A   1      35.741  21.465  24.902  1.00  0.00     0.024 A 
ATOM     13  C   UNL A   1      33.298  22.837  24.831  1.00  0.00     0.128 A 
ATOM     14  C   UNL A   1      35.736  22.879  24.966  1.00  0.00    -0.026 A 
ATOM     15  Br  UNL A   1      37.384  20.487  24.999  1.00  0.00    -0.050 Br
ATOM     16  C   UNL A   1      34.493  23.560  24.879  1.00  0.00     0.021 A 
ATOM     17  O   UNL A   1      32.053  23.399  24.838  1.00  0.00    -0.475 OA
ATOM     18  C   UNL A   1      37.004  23.691  25.117  1.00  0.00     0.046 C 
ATOM     19  C   UNL A   1      34.408  25.012  24.770  1.00  0.00     0.027 C 
ATOM     20  C   UNL A   1      31.913  24.828  24.612  1.00  0.00     0.316 C 
BRANCH  20  21
ATOM     21  C   UNL A   1      31.089  25.038  23.334  1.00  0.00     0.430 C 
ATOM     22  F   UNL A   1      30.236  24.008  23.129  1.00  0.00    -0.167 F 
ATOM     23  F   UNL A   1      30.344  26.165  23.398  1.00  0.00    -0.167 F 
ATOM     24  F   UNL A   1      31.881  25.136  22.241  1.00  0.00    -0.167 F 
ENDBRANCH  20  21
ENDBRANCH   6   8
ENDBRANCH   5   6
ENDBRANCH   4   5
ENDBRANCH   3   4
ENDBRANCH   2   3
ENDBRANCH   1   2
BRANCH   1  25
ATOM     25  C   UNL A   1      32.007  33.123  27.072  1.00  0.00     0.261 C 
BRANCH  25  26
ATOM     26  O   UNL A   1      33.080  32.693  27.929  1.00  0.00    -0.460 OA
BRANCH  26  27
ATOM     27  C   UNL A   1      34.131  33.544  27.995  1.00  0.00     0.338 C 
ATOM     28  O   UNL A   1      34.094  34.767  27.955  1.00  0.00    -0.246 OA
BRANCH  27  29
ATOM     29  C   UNL A   1      35.361  32.803  28.320  1.00  0.00     0.060 A 
ATOM     30  C   UNL A   1      35.235  31.447  28.650  1.00  0.00     0.016 A 
ATOM     31  C   UNL A   1      36.602  33.439  28.383  1.00  0.00     0.016 A 
ATOM     32  C   UNL A   1      36.345  30.731  29.088  1.00  0.00     0.010 A 
ATOM     33  C   UNL A   1      37.713  32.721  28.835  1.00  0.00     0.010 A 
ATOM     34  C   UNL A   1      37.582  31.374  29.222  1.00  0.00    -0.014 A 
BRANCH  34  35
ATOM     35  C   UNL A   1      38.698  30.672  29.901  1.00  0.00     0.031 A 
ATOM     36  C   UNL A   1      39.042  31.047  31.315  1.00  0.00     0.074 A 
ATOM     37  C   UNL A   1      39.374  29.695  29.272  1.00  0.00     0.049 A 
ATOM     38  N   UNL A   1      39.967  30.556  32.097  1.00  0.00    -0.248 NA
ATOM     39  C   UNL A   1      38.237  32.115  31.932  1.00  0.00     0.031 C 
ATOM     40  C   UNL A   1      39.118  29.235  27.909  1.00  0.00     0.029 A 
ATOM     41  N   UNL A   1      40.424  28.920  29.698  1.00  0.00    -0.354 N 
ATOM     42  C   UNL A   1      39.865  31.258  33.292  1.00  0.00     0.074 A 
ATOM     43  C   UNL A   1      38.805  32.227  33.126  1.00  0.00     0.031 C 
ATOM     44  C   UNL A   1      39.997  28.265  27.605  1.00  0.00     0.029 A 
ATOM     45  C   UNL A   1      40.891  28.051  28.743  1.00  0.00     0.049 A 
ATOM     46  H   UNL A   1      40.807  28.982  30.604  1.00  0.00     0.167 HD
ATOM     47  C   UNL A   1      40.574  31.093  34.433  1.00  0.00     0.034 A 
ATOM     48  C   UNL A   1      41.926  27.188  28.777  1.00  0.00     0.034 A 
ATOM     49  C   UNL A   1      41.614  30.116  34.601  1.00  0.00     0.049 A 
ATOM     50  C   UNL A   1      42.734  27.060  30.044  1.00  0.00     0.074 A 
ATOM     51  C   UNL A   1      42.367  29.851  35.730  1.00  0.00     0.029 A 
ATOM     52  N   UNL A   1      42.056  29.250  33.612  1.00  0.00    -0.354 N 
ATOM     53  N   UNL A   1      42.555  27.653  31.200  1.00  0.00    -0.248 NA
ATOM     54  C   UNL A   1      43.869  26.124  30.022  1.00  0.00     0.031 C 
ATOM     55  C   UNL A   1      43.282  28.842  35.417  1.00  0.00     0.029 A 
ATOM     56  C   UNL A   1      43.082  28.460  34.101  1.00  0.00     0.049 A 
ATOM     57  H   UNL A   1      41.693  29.204  32.698  1.00  0.00     0.167 HD
ATOM     58  C   UNL A   1      43.533  27.145  32.048  1.00  0.00     0.074 A 
ATOM     59  C   UNL A   1      44.290  26.177  31.280  1.00  0.00     0.031 C 
ATOM     60  C   UNL A   1      43.794  27.464  33.341  1.00  0.00     0.034 A 
BRANCH  47  61
ATOM     61  C   UNL A   1      40.220  31.958  35.614  1.00  0.00     0.023 A 
ATOM     62  C   UNL A   1      40.963  33.130  35.859  1.00  0.00     0.012 A 
ATOM     63  C   UNL A   1      39.106  31.662  36.424  1.00  0.00     0.148 A 
ATOM     64  C   UNL A   1      40.616  33.985  36.904  1.00  0.00     0.002 A 
ATOM     65  C   UNL A   1      38.741  32.541  37.437  1.00  0.00     0.091 A 
ATOM     66  F   UNL A   1      38.426  30.532  36.187  1.00  0.00    -0.205 F 
ATOM     67  C   UNL A   1      39.500  33.697  37.685  1.00  0.00     0.022 A 
BRANCH  65  68
ATOM     68  S   UNL A   1      37.274  32.303  38.448  1.00  0.00     0.127 S 
ATOM     69  O   UNL A   1      36.278  33.075  37.707  1.00  0.00    -0.237 OA
ATOM     70  O   UNL A   1      37.091  30.852  38.385  1.00  0.00    -0.237 OA
ATOM     71  O   UNL A   1      37.607  32.819  39.768  1.00  0.00    -0.744 OA
ENDBRANCH  65  68
ENDBRANCH  47  61
BRANCH  48  72
ATOM     72  C   UNL A   1      42.222  26.338  27.589  1.00  0.00     0.023 A 
ATOM     73  C   UNL A   1      42.982  26.872  26.530  1.00  0.00     0.012 A 
ATOM     74  C   UNL A   1      41.797  24.997  27.521  1.00  0.00     0.148 A 
ATOM     75  C   UNL A   1      43.299  26.091  25.417  1.00  0.00     0.002 A 
ATOM     76  C   UNL A   1      42.164  24.207  26.437  1.00  0.00     0.091 A 
ATOM     77  F   UNL A   1      41.059  24.513  28.530  1.00  0.00    -0.205 F 
ATOM     78  C   UNL A   1      42.902  24.757  25.377  1.00  0.00     0.022 A 
BRANCH  76  79
ATOM     79  S   UNL A   1      41.815  22.447  26.361  1.00  0.00     0.127 S 
ATOM     80  O   UNL A   1      42.383  21.974  27.622  1.00  0.00    -0.237 OA
ATOM     81  O   UNL A   1      40.354  22.434  26.299  1.00  0.00    -0.237 OA
ATOM     82  O   UNL A   1      42.473  21.966  25.154  1.00  0.00    -0.744 OA
ENDBRANCH  76  79
ENDBRANCH  48  72
BRANCH  60  83
ATOM     83  C   UNL A   1      44.938  26.765  34.031  1.00  0.00     0.023 A 
ATOM     84  C   UNL A   1      46.233  27.311  33.949  1.00  0.00     0.012 A 
ATOM     85  C   UNL A   1      44.707  25.652  34.865  1.00  0.00     0.148 A 
ATOM     86  C   UNL A   1      47.285  26.750  34.672  1.00  0.00     0.002 A 
ATOM     87  C   UNL A   1      45.750  25.129  35.621  1.00  0.00     0.091 A 
ATOM     88  F   UNL A   1      43.468  25.139  34.919  1.00  0.00    -0.205 F 
ATOM     89  C   UNL A   1      47.041  25.671  35.519  1.00  0.00     0.022 A 
BRANCH  87  90
ATOM     90  S   UNL A   1      45.511  23.811  36.819  1.00  0.00     0.127 S 
ATOM     91  O   UNL A   1      45.005  22.730  35.975  1.00  0.00    -0.237 OA
ATOM     92  O   UNL A   1      46.869  23.604  37.326  1.00  0.00    -0.237 OA
ATOM     93  O   UNL A   1      44.568  24.325  37.803  1.00  0.00    -0.744 OA
ENDBRANCH  87  90
ENDBRANCH  60  83
ENDBRANCH  34  35
ENDBRANCH  27  29
ENDBRANCH  26  27
ENDBRANCH  25  26
ENDBRANCH   1  25
TORSDOF 18
ENDMDL
MODEL 2
REMARK VINA RESULT:     -11.7      5.808     10.436
REMARK SMILES Cc1cc2c(c(C)c1Br)C=C(C(=O)OCCOCCOC(=O)c1ccc(-c3c4nc(c(-c5cccc(S(=O)(=O)[O-])c5F)c5ccc([nH]5)c(-c5cccc(S(=O)(=O)[O-])c5F)c5nc(c(-c6cccc(S(=O)(=O)[O-])c6F)c6ccc3[nH]6)C=C5)C=C4)cc1)[C@@H](C(F)(F)F)O2
REMARK SMILES IDX 18 1 17 2 16 3 15 4 14 5 12 6 13 7 11 8 1 9 2 10 3 11 8 12
REMARK SMILES IDX 4 13 6 14 9 15 5 16 91 17 7 18 10 19 86 20 87 21 88 22 89 23
REMARK SMILES IDX 90 24 19 25 20 26 21 27 22 28 23 29 24 30 85 31 25 32 84 33
REMARK SMILES IDX 26 34 27 35 28 36 78 37 29 38 83 39 77 40 79 41 30 42 82 43
REMARK SMILES IDX 76 44 75 45 31 47 63 48 43 49 62 50 44 51 47 52 61 53 80 54
REMARK SMILES IDX 45 55 46 56 60 58 81 59 48 60 32 61 33 62 41 63 34 64 36 65
REMARK SMILES IDX 42 66 35 67 37 68 38 69 39 70 40 71 64 72 65 73 73 74 66 75
REMARK SMILES IDX 68 76 74 77 67 78 69 79 70 80 71 81 72 82 49 83 50 84 58 85
REMARK SMILES IDX 51 86 53 87 59 88 52 89 54 90 55 91 56 92 57 93
REMARK H PARENT 79 46 47 57
REMARK Flexibility Score: inf
ROOT
ATOM      1  C   UNL A   1      41.835  19.196  26.311  1.00  0.00     0.202 C 
ENDROOT
BRANCH   1   2
ATOM      2  O   UNL A   1      42.586  18.823  25.154  1.00  0.00    -0.374 OA
BRANCH   2   3
ATOM      3  C   UNL A   1      43.974  18.542  25.324  1.00  0.00     0.202 C 
BRANCH   3   4
ATOM      4  C   UNL A   1      44.874  19.710  25.742  1.00  0.00     0.261 C 
BRANCH   4   5
ATOM      5  O   UNL A   1      44.725  20.838  24.867  1.00  0.00    -0.460 OA
BRANCH   5   6
ATOM      6  C   UNL A   1      44.064  21.886  25.411  1.00  0.00     0.338 C 
ATOM      7  O   UNL A   1      42.876  22.150  25.288  1.00  0.00    -0.246 OA
BRANCH   6   8
ATOM      8  C   UNL A   1      44.956  22.621  26.326  1.00  0.00     0.087 C 
ATOM      9  C   UNL A   1      47.378  26.624  30.781  1.00  0.00     0.046 C 
ATOM     10  C   UNL A   1      46.608  25.565  30.038  1.00  0.00    -0.033 A 
ATOM     11  C   UNL A   1      47.129  25.116  28.816  1.00  0.00     0.051 A 
ATOM     12  C   UNL A   1      45.417  24.986  30.526  1.00  0.00     0.024 A 
ATOM     13  C   UNL A   1      46.438  24.190  28.040  1.00  0.00     0.128 A 
ATOM     14  C   UNL A   1      44.706  24.036  29.755  1.00  0.00    -0.026 A 
ATOM     15  Br  UNL A   1      44.782  25.520  32.251  1.00  0.00    -0.050 Br
ATOM     16  C   UNL A   1      45.212  23.680  28.477  1.00  0.00     0.021 A 
ATOM     17  O   UNL A   1      47.050  23.838  26.870  1.00  0.00    -0.475 OA
ATOM     18  C   UNL A   1      43.427  23.390  30.239  1.00  0.00     0.046 C 
ATOM     19  C   UNL A   1      44.462  22.839  27.551  1.00  0.00     0.027 C 
ATOM     20  C   UNL A   1      46.301  23.101  25.865  1.00  0.00     0.316 C 
BRANCH  20  21
ATOM     21  C   UNL A   1      46.221  23.960  24.595  1.00  0.00     0.430 C 
ATOM     22  F   UNL A   1      46.664  23.275  23.515  1.00  0.00    -0.167 F 
ATOM     23  F   UNL A   1      44.953  24.344  24.330  1.00  0.00    -0.167 F 
ATOM     24  F   UNL A   1      46.973  25.081  24.703  1.00  0.00    -0.167 F 
ENDBRANCH  20  21
ENDBRANCH   6   8
ENDBRANCH   5   6
ENDBRANCH   4   5
ENDBRANCH   3   4
ENDBRANCH   2   3
ENDBRANCH   1   2
BRANCH   1  25
ATOM     25  C   UNL A   1      40.396  19.685  26.098  1.00  0.00     0.261 C 
BRANCH  25  26
ATOM     26  O   UNL A   1      40.061  20.792  26.954  1.00  0.00    -0.460 OA
BRANCH  26  27
ATOM     27  C   UNL A   1      39.365  21.786  26.352  1.00  0.00     0.338 C 
ATOM     28  O   UNL A   1      38.412  21.665  25.594  1.00  0.00    -0.246 OA
BRANCH  27  29
ATOM     29  C   UNL A   1      39.789  23.092  26.884  1.00  0.00     0.060 A 
ATOM     30  C   UNL A   1      39.380  24.239  26.192  1.00  0.00     0.016 A 
ATOM     31  C   UNL A   1      40.639  23.190  27.987  1.00  0.00     0.016 A 
ATOM     32  C   UNL A   1      39.855  25.490  26.576  1.00  0.00     0.010 A 
ATOM     33  C   UNL A   1      41.124  24.446  28.363  1.00  0.00     0.010 A 
ATOM     34  C   UNL A   1      40.762  25.596  27.639  1.00  0.00    -0.014 A 
BRANCH  34  35
ATOM     35  C   UNL A   1      41.436  26.892  27.893  1.00  0.00     0.031 A 
ATOM     36  C   UNL A   1      40.686  27.973  28.620  1.00  0.00     0.074 A 
ATOM     37  C   UNL A   1      42.708  27.089  27.505  1.00  0.00     0.049 A 
ATOM     38  N   UNL A   1      41.086  29.171  28.957  1.00  0.00    -0.248 NA
ATOM     39  C   UNL A   1      39.304  27.664  29.025  1.00  0.00     0.031 C 
ATOM     40  C   UNL A   1      43.538  26.109  26.809  1.00  0.00     0.029 A 
ATOM     41  N   UNL A   1      43.520  28.189  27.634  1.00  0.00    -0.354 N 
ATOM     42  C   UNL A   1      40.007  29.764  29.601  1.00  0.00     0.074 A 
ATOM     43  C   UNL A   1      38.925  28.804  29.588  1.00  0.00     0.031 C 
ATOM     44  C   UNL A   1      44.741  26.655  26.560  1.00  0.00     0.029 A 
ATOM     45  C   UNL A   1      44.757  28.030  27.059  1.00  0.00     0.049 A 
ATOM     46  H   UNL A   1      43.242  29.013  28.096  1.00  0.00     0.167 HD
ATOM     47  C   UNL A   1      39.931  30.987  30.173  1.00  0.00     0.034 A 
ATOM     48  C   UNL A   1      45.783  28.897  26.940  1.00  0.00     0.034 A 
ATOM     49  C   UNL A   1      41.014  31.932  30.201  1.00  0.00     0.049 A 
ATOM     50  C   UNL A   1      45.655  30.274  27.542  1.00  0.00     0.074 A 
ATOM     51  C   UNL A   1      41.044  33.185  30.786  1.00  0.00     0.029 A 
ATOM     52  N   UNL A   1      42.254  31.734  29.612  1.00  0.00    -0.354 N 
ATOM     53  N   UNL A   1      44.668  30.780  28.242  1.00  0.00    -0.248 NA
ATOM     54  C   UNL A   1      46.791  31.191  27.362  1.00  0.00     0.031 C 
ATOM     55  C   UNL A   1      42.294  33.756  30.530  1.00  0.00     0.029 A 
ATOM     56  C   UNL A   1      43.052  32.848  29.807  1.00  0.00     0.049 A 
ATOM     57  H   UNL A   1      42.526  30.922  29.128  1.00  0.00     0.167 HD
ATOM     58  C   UNL A   1      45.073  32.058  28.609  1.00  0.00     0.074 A 
ATOM     59  C   UNL A   1      46.406  32.244  28.072  1.00  0.00     0.031 C 
ATOM     60  C   UNL A   1      44.396  33.002  29.311  1.00  0.00     0.034 A 
BRANCH  47  61
ATOM     61  C   UNL A   1      38.647  31.365  30.863  1.00  0.00     0.023 A 
ATOM     62  C   UNL A   1      38.472  31.038  32.223  1.00  0.00     0.012 A 
ATOM     63  C   UNL A   1      37.657  32.115  30.199  1.00  0.00     0.148 A 
ATOM     64  C   UNL A   1      37.323  31.433  32.907  1.00  0.00     0.002 A 
ATOM     65  C   UNL A   1      36.534  32.542  30.898  1.00  0.00     0.091 A 
ATOM     66  F   UNL A   1      37.834  32.397  28.900  1.00  0.00    -0.205 F 
ATOM     67  C   UNL A   1      36.361  32.194  32.248  1.00  0.00     0.022 A 
BRANCH  65  68
ATOM     68  S   UNL A   1      35.275  33.593  30.164  1.00  0.00     0.127 S 
ATOM     69  O   UNL A   1      34.218  32.626  29.872  1.00  0.00    -0.237 OA
ATOM     70  O   UNL A   1      34.972  34.517  31.259  1.00  0.00    -0.237 OA
ATOM     71  O   UNL A   1      35.894  34.210  29.000  1.00  0.00    -0.744 OA
ENDBRANCH  65  68
ENDBRANCH  47  61
BRANCH  48  72
ATOM     72  C   UNL A   1      47.042  28.467  26.267  1.00  0.00     0.023 A 
ATOM     73  C   UNL A   1      48.147  28.084  27.052  1.00  0.00     0.012 A 
ATOM     74  C   UNL A   1      47.136  28.391  24.864  1.00  0.00     0.148 A 
ATOM     75  C   UNL A   1      49.329  27.648  26.451  1.00  0.00     0.002 A 
ATOM     76  C   UNL A   1      48.296  27.902  24.273  1.00  0.00     0.091 A 
ATOM     77  F   UNL A   1      46.080  28.778  24.136  1.00  0.00    -0.205 F 
ATOM     78  C   UNL A   1      49.399  27.546  25.063  1.00  0.00     0.022 A 
BRANCH  76  79
ATOM     79  S   UNL A   1      48.430  27.608  22.506  1.00  0.00     0.127 S 
ATOM     80  O   UNL A   1      49.636  28.361  22.168  1.00  0.00    -0.237 OA
ATOM     81  O   UNL A   1      48.577  26.154  22.455  1.00  0.00    -0.237 OA
ATOM     82  O   UNL A   1      47.191  28.109  21.927  1.00  0.00    -0.744 OA
ENDBRANCH  76  79
ENDBRANCH  48  72
BRANCH  60  83
ATOM     83  C   UNL A   1      45.070  34.327  29.559  1.00  0.00     0.023 A 
ATOM     84  C   UNL A   1      45.966  34.457  30.637  1.00  0.00     0.012 A 
ATOM     85  C   UNL A   1      44.918  35.395  28.651  1.00  0.00     0.148 A 
ATOM     86  C   UNL A   1      46.689  35.635  30.819  1.00  0.00     0.002 A 
ATOM     87  C   UNL A   1      45.679  36.548  28.810  1.00  0.00     0.091 A 
ATOM     88  F   UNL A   1      44.050  35.256  27.638  1.00  0.00    -0.205 F 
ATOM     89  C   UNL A   1      46.558  36.673  29.898  1.00  0.00     0.022 A 
BRANCH  87  90
ATOM     90  S   UNL A   1      45.660  37.894  27.619  1.00  0.00     0.127 S 
ATOM     91  O   UNL A   1      46.370  37.299  26.488  1.00  0.00    -0.237 OA
ATOM     92  O   UNL A   1      44.227  38.094  27.402  1.00  0.00    -0.237 OA
ATOM     93  O   UNL A   1      46.339  39.011  28.261  1.00  0.00    -0.744 OA
ENDBRANCH  87  90
ENDBRANCH  60  83
ENDBRANCH  34  35
ENDBRANCH  27  29
ENDBRANCH  26  27
ENDBRANCH  25  26
ENDBRANCH   1  25
TORSDOF 18
ENDMDL
MODEL 3
REMARK VINA RESULT:     -11.7      5.130     10.584
REMARK SMILES Cc1cc2c(c(C)c1Br)C=C(C(=O)OCCOCCOC(=O)c1ccc(-c3c4nc(c(-c5cccc(S(=O)(=O)[O-])c5F)c5ccc([nH]5)c(-c5cccc(S(=O)(=O)[O-])c5F)c5nc(c(-c6cccc(S(=O)(=O)[O-])c6F)c6ccc3[nH]6)C=C5)C=C4)cc1)[C@@H](C(F)(F)F)O2
REMARK SMILES IDX 18 1 17 2 16 3 15 4 14 5 12 6 13 7 11 8 1 9 2 10 3 11 8 12
REMARK SMILES IDX 4 13 6 14 9 15 5 16 91 17 7 18 10 19 86 20 87 21 88 22 89 23
REMARK SMILES IDX 90 24 19 25 20 26 21 27 22 28 23 29 24 30 85 31 25 32 84 33
REMARK SMILES IDX 26 34 27 35 28 36 78 37 29 38 83 39 77 40 79 41 30 42 82 43
REMARK SMILES IDX 76 44 75 45 31 47 63 48 43 49 62 50 44 51 47 52 61 53 80 54
REMARK SMILES IDX 45 55 46 56 60 58 81 59 48 60 32 61 33 62 41 63 34 64 36 65
REMARK SMILES IDX 42 66 35 67 37 68 38 69 39 70 40 71 64 72 65 73 73 74 66 75
REMARK SMILES IDX 68 76 74 77 67 78 69 79 70 80 71 81 72 82 49 83 50 84 58 85
REMARK SMILES IDX 51 86 53 87 59 88 52 89 54 90 55 91 56 92 57 93
REMARK H PARENT 79 46 47 57
REMARK Flexibility Score: inf
ROOT
ATOM      1  C   UNL A   1      36.888  19.448  24.861  1.00  0.00     0.202 C 
ENDROOT
BRANCH   1   2
ATOM      2  O   UNL A   1      36.088  20.630  24.934  1.00  0.00    -0.374 OA
BRANCH   2   3
ATOM      3  C   UNL A   1      34.674  20.471  25.031  1.00  0.00     0.202 C 
BRANCH   3   4
ATOM      4  C   UNL A   1      33.971  21.189  26.188  1.00  0.00     0.261 C 
BRANCH   4   5
ATOM      5  O   UNL A   1      34.112  22.615  26.095  1.00  0.00    -0.460 OA
BRANCH   5   6
ATOM      6  C   UNL A   1      33.094  23.316  26.644  1.00  0.00     0.338 C 
ATOM      7  O   UNL A   1      32.612  23.163  27.758  1.00  0.00    -0.246 OA
BRANCH   6   8
ATOM      8  C   UNL A   1      32.716  24.431  25.756  1.00  0.00     0.087 C 
ATOM      9  C   UNL A   1      30.261  29.878  23.299  1.00  0.00     0.046 C 
ATOM     10  C   UNL A   1      31.008  28.851  24.108  1.00  0.00    -0.033 A 
ATOM     11  C   UNL A   1      31.185  27.580  23.546  1.00  0.00     0.051 A 
ATOM     12  C   UNL A   1      31.561  29.117  25.379  1.00  0.00     0.024 A 
ATOM     13  C   UNL A   1      31.804  26.558  24.261  1.00  0.00     0.128 A 
ATOM     14  C   UNL A   1      32.202  28.095  26.118  1.00  0.00    -0.026 A 
ATOM     15  Br  UNL A   1      31.419  30.892  26.084  1.00  0.00    -0.050 Br
ATOM     16  C   UNL A   1      32.272  26.793  25.557  1.00  0.00     0.021 A 
ATOM     17  O   UNL A   1      31.910  25.366  23.603  1.00  0.00    -0.475 OA
ATOM     18  C   UNL A   1      32.809  28.336  27.483  1.00  0.00     0.046 C 
ATOM     19  C   UNL A   1      32.765  25.646  26.313  1.00  0.00     0.027 C 
ATOM     20  C   UNL A   1      32.281  24.172  24.344  1.00  0.00     0.316 C 
BRANCH  20  21
ATOM     21  C   UNL A   1      31.124  23.167  24.253  1.00  0.00     0.430 C 
ATOM     22  F   UNL A   1      30.369  23.191  25.375  1.00  0.00    -0.167 F 
ATOM     23  F   UNL A   1      30.304  23.441  23.215  1.00  0.00    -0.167 F 
ATOM     24  F   UNL A   1      31.575  21.901  24.092  1.00  0.00    -0.167 F 
ENDBRANCH  20  21
ENDBRANCH   6   8
ENDBRANCH   5   6
ENDBRANCH   4   5
ENDBRANCH   3   4
ENDBRANCH   2   3
ENDBRANCH   1   2
BRANCH   1  25
ATOM     25  C   UNL A   1      38.408  19.608  24.997  1.00  0.00     0.261 C 
BRANCH  25  26
ATOM     26  O   UNL A   1      38.772  20.815  25.690  1.00  0.00    -0.460 OA
BRANCH  26  27
ATOM     27  C   UNL A   1      39.957  20.760  26.344  1.00  0.00     0.338 C 
ATOM     28  O   UNL A   1      40.759  19.835  26.341  1.00  0.00    -0.246 OA
BRANCH  27  29
ATOM     29  C   UNL A   1      40.268  22.072  26.936  1.00  0.00     0.060 A 
ATOM     30  C   UNL A   1      39.605  23.192  26.418  1.00  0.00     0.016 A 
ATOM     31  C   UNL A   1      41.247  22.215  27.921  1.00  0.00     0.016 A 
ATOM     32  C   UNL A   1      39.952  24.468  26.852  1.00  0.00     0.010 A 
ATOM     33  C   UNL A   1      41.602  23.498  28.346  1.00  0.00     0.010 A 
ATOM     34  C   UNL A   1      40.981  24.631  27.789  1.00  0.00    -0.014 A 
BRANCH  34  35
ATOM     35  C   UNL A   1      41.498  25.991  28.073  1.00  0.00     0.031 A 
ATOM     36  C   UNL A   1      42.891  26.348  27.636  1.00  0.00     0.074 A 
ATOM     37  C   UNL A   1      40.723  26.903  28.687  1.00  0.00     0.049 A 
ATOM     38  N   UNL A   1      43.534  27.478  27.771  1.00  0.00    -0.248 NA
ATOM     39  C   UNL A   1      43.662  25.295  26.953  1.00  0.00     0.031 C 
ATOM     40  C   UNL A   1      39.353  26.675  29.140  1.00  0.00     0.029 A 
ATOM     41  N   UNL A   1      40.986  28.201  29.045  1.00  0.00    -0.354 N 
ATOM     42  C   UNL A   1      44.786  27.272  27.203  1.00  0.00     0.074 A 
ATOM     43  C   UNL A   1      44.822  25.902  26.742  1.00  0.00     0.031 C 
ATOM     44  C   UNL A   1      38.897  27.795  29.729  1.00  0.00     0.029 A 
ATOM     45  C   UNL A   1      39.951  28.809  29.713  1.00  0.00     0.049 A 
ATOM     46  H   UNL A   1      41.837  28.655  28.842  1.00  0.00     0.167 HD
ATOM     47  C   UNL A   1      45.803  28.152  27.057  1.00  0.00     0.034 A 
ATOM     48  C   UNL A   1      39.866  30.039  30.259  1.00  0.00     0.034 A 
ATOM     49  C   UNL A   1      45.756  29.518  27.499  1.00  0.00     0.049 A 
ATOM     50  C   UNL A   1      41.034  30.984  30.127  1.00  0.00     0.074 A 
ATOM     51  C   UNL A   1      46.725  30.496  27.365  1.00  0.00     0.029 A 
ATOM     52  N   UNL A   1      44.689  30.099  28.167  1.00  0.00    -0.354 N 
ATOM     53  N   UNL A   1      42.168  30.810  29.492  1.00  0.00    -0.248 NA
ATOM     54  C   UNL A   1      40.901  32.304  30.762  1.00  0.00     0.031 C 
ATOM     55  C   UNL A   1      46.255  31.663  27.975  1.00  0.00     0.029 A 
ATOM     56  C   UNL A   1      44.982  31.419  28.466  1.00  0.00     0.049 A 
ATOM     57  H   UNL A   1      43.849  29.641  28.394  1.00  0.00     0.167 HD
ATOM     58  C   UNL A   1      42.870  32.003  29.626  1.00  0.00     0.074 A 
ATOM     59  C   UNL A   1      42.024  32.902  30.385  1.00  0.00     0.031 C 
ATOM     60  C   UNL A   1      44.111  32.320  29.178  1.00  0.00     0.034 A 
BRANCH  47  61
ATOM     61  C   UNL A   1      47.045  27.682  26.345  1.00  0.00     0.023 A 
ATOM     62  C   UNL A   1      47.993  26.912  27.048  1.00  0.00     0.012 A 
ATOM     63  C   UNL A   1      47.231  27.923  24.970  1.00  0.00     0.148 A 
ATOM     64  C   UNL A   1      49.119  26.406  26.400  1.00  0.00     0.002 A 
ATOM     65  C   UNL A   1      48.333  27.380  24.321  1.00  0.00     0.091 A 
ATOM     66  F   UNL A   1      46.328  28.675  24.326  1.00  0.00    -0.205 F 
ATOM     67  C   UNL A   1      49.282  26.630  25.035  1.00  0.00     0.022 A 
BRANCH  65  68
ATOM     68  S   UNL A   1      48.595  27.542  22.550  1.00  0.00     0.127 S 
ATOM     69  O   UNL A   1      49.883  28.232  22.506  1.00  0.00    -0.237 OA
ATOM     70  O   UNL A   1      48.636  26.144  22.118  1.00  0.00    -0.237 OA
ATOM     71  O   UNL A   1      47.463  28.304  22.044  1.00  0.00    -0.744 OA
ENDBRANCH  65  68
ENDBRANCH  47  61
BRANCH  48  72
ATOM     72  C   UNL A   1      38.606  30.465  30.933  1.00  0.00     0.023 A 
ATOM     73  C   UNL A   1      38.442  30.218  32.309  1.00  0.00     0.012 A 
ATOM     74  C   UNL A   1      37.595  31.150  30.233  1.00  0.00     0.148 A 
ATOM     75  C   UNL A   1      37.286  30.631  32.974  1.00  0.00     0.002 A 
ATOM     76  C   UNL A   1      36.471  31.609  30.911  1.00  0.00     0.091 A 
ATOM     77  F   UNL A   1      37.762  31.359  28.919  1.00  0.00    -0.205 F 
ATOM     78  C   UNL A   1      36.307  31.336  32.278  1.00  0.00     0.022 A 
BRANCH  76  79
ATOM     79  S   UNL A   1      35.225  32.641  30.131  1.00  0.00     0.127 S 
ATOM     80  O   UNL A   1      34.356  32.967  31.260  1.00  0.00    -0.237 OA
ATOM     81  O   UNL A   1      36.029  33.755  29.630  1.00  0.00    -0.237 OA
ATOM     82  O   UNL A   1      34.624  31.817  29.092  1.00  0.00    -0.744 OA
ENDBRANCH  76  79
ENDBRANCH  48  72
BRANCH  60  83
ATOM     83  C   UNL A   1      44.648  33.696  29.478  1.00  0.00     0.023 A 
ATOM     84  C   UNL A   1      45.291  33.935  30.708  1.00  0.00     0.012 A 
ATOM     85  C   UNL A   1      44.635  34.707  28.496  1.00  0.00     0.148 A 
ATOM     86  C   UNL A   1      45.898  35.164  30.963  1.00  0.00     0.002 A 
ATOM     87  C   UNL A   1      45.284  35.912  28.738  1.00  0.00     0.091 A 
ATOM     88  F   UNL A   1      44.006  34.464  27.336  1.00  0.00    -0.205 F 
ATOM     89  C   UNL A   1      45.908  36.145  29.975  1.00  0.00     0.022 A 
BRANCH  87  90
ATOM     90  S   UNL A   1      45.445  37.194  27.490  1.00  0.00     0.127 S 
ATOM     91  O   UNL A   1      44.056  37.621  27.322  1.00  0.00    -0.237 OA
ATOM     92  O   UNL A   1      46.306  38.171  28.158  1.00  0.00    -0.237 OA
ATOM     93  O   UNL A   1      46.043  36.553  26.326  1.00  0.00    -0.744 OA
ENDBRANCH  87  90
ENDBRANCH  60  83
ENDBRANCH  34  35
ENDBRANCH  27  29
ENDBRANCH  26  27
ENDBRANCH  25  26
ENDBRANCH   1  25
TORSDOF 18
ENDMDL
