MODEL 1
REMARK VINA RESULT:     -11.6      0.000      0.000
REMARK SMILES CCc1ccnc(C(=O)c2[nH]c3ccc(OC(F)(F)F)cc3c2CC(=O)OCCOCCOC(=O)c2ccc(-c3c4nc(c(-c5cccc(S(=O)(=O)[O-])c5F)c5ccc([nH]5)c(-c5cccc(S(=O)(=O)[O-])c5F)c5nc(c(-c6cccc(S(=O)(=O)[O-])c6F)c6ccc3[nH]6)C=C5)C=C4)cc2)c1
REMARK SMILES IDX 29 1 28 2 27 3 25 4 26 5 24 6 23 7 10 8 11 9 12 10 22 12
REMARK SMILES IDX 13 13 21 14 14 15 15 16 8 17 9 18 7 19 3 20 4 21 99 22 5 23
REMARK SMILES IDX 6 24 2 25 1 26 16 27 17 28 18 29 19 30 20 31 30 32 31 33
REMARK SMILES IDX 32 34 33 35 34 36 35 37 36 38 37 39 98 40 38 41 97 42 39 43
REMARK SMILES IDX 40 44 41 45 91 46 42 47 96 48 90 49 92 50 43 51 95 52 89 53
REMARK SMILES IDX 88 54 44 56 76 57 56 58 75 59 57 60 60 61 74 62 93 63 58 64
REMARK SMILES IDX 59 65 73 67 94 68 61 69 45 70 46 71 54 72 47 73 49 74 55 75
REMARK SMILES IDX 48 76 50 77 51 78 52 79 53 80 77 81 78 82 86 83 79 84 81 85
REMARK SMILES IDX 87 86 80 87 82 88 83 89 84 90 85 91 62 92 63 93 71 94 64 95
REMARK SMILES IDX 66 96 72 97 65 98 67 99 68 100 69 101 70 102
REMARK H PARENT 11 11 92 55 60 66
REMARK Flexibility Score: inf
ROOT
ATOM      1  C   UNL A   1      35.175  24.111  25.052  1.00  0.00     0.202 C 
ENDROOT
BRANCH   1   2
ATOM      2  C   UNL A   1      34.527  25.202  24.190  1.00  0.00     0.261 C 
BRANCH   2   3
ATOM      3  O   UNL A   1      34.173  24.729  22.871  1.00  0.00    -0.463 OA
BRANCH   3   4
ATOM      4  C   UNL A   1      33.385  25.563  22.141  1.00  0.00     0.310 C 
ATOM      5  O   UNL A   1      33.812  26.498  21.465  1.00  0.00    -0.252 OA
BRANCH   4   6
ATOM      6  C   UNL A   1      31.897  25.327  22.277  1.00  0.00     0.161 C 
BRANCH   6   7
ATOM      7  C   UNL A   1      31.288  25.291  23.655  1.00  0.00     0.000 A 
ATOM      8  C   UNL A   1      30.995  26.378  24.484  1.00  0.00     0.093 A 
ATOM      9  N   UNL A   1      30.417  25.853  25.624  1.00  0.00    -0.352 N 
ATOM     10  C   UNL A   1      30.641  24.499  25.695  1.00  0.00     0.046 A 
ATOM     11  H   UNL A   1      29.916  26.376  26.291  1.00  0.00     0.167 HD
ATOM     12  C   UNL A   1      31.149  24.111  24.459  1.00  0.00     0.008 A 
ATOM     13  C   UNL A   1      30.441  23.594  26.744  1.00  0.00     0.030 A 
ATOM     14  C   UNL A   1      31.478  22.755  24.268  1.00  0.00     0.057 A 
ATOM     15  C   UNL A   1      30.826  22.260  26.542  1.00  0.00     0.049 A 
ATOM     16  C   UNL A   1      31.357  21.840  25.324  1.00  0.00     0.130 A 
BRANCH   8  17
ATOM     17  C   UNL A   1      31.241  27.791  24.214  1.00  0.00     0.227 C 
ATOM     18  O   UNL A   1      31.098  28.271  23.091  1.00  0.00    -0.285 OA
BRANCH  17  19
ATOM     19  C   UNL A   1      31.786  28.696  25.276  1.00  0.00     0.113 A 
ATOM     20  C   UNL A   1      33.524  29.280  26.832  1.00  0.00    -0.044 A 
ATOM     21  C   UNL A   1      32.979  30.566  26.877  1.00  0.00     0.024 A 
ATOM     22  C   UNL A   1      32.895  28.322  26.029  1.00  0.00     0.036 A 
ATOM     23  C   UNL A   1      31.852  30.844  26.119  1.00  0.00     0.112 A 
ATOM     24  N   UNL A   1      31.245  29.942  25.324  1.00  0.00    -0.253 NA
BRANCH  20  25
ATOM     25  C   UNL A   1      34.766  28.951  27.623  1.00  0.00     0.032 C 
ATOM     26  C   UNL A   1      35.920  29.916  27.376  1.00  0.00     0.009 C 
ENDBRANCH  20  25
ENDBRANCH  17  19
ENDBRANCH   8  17
BRANCH  16  27
ATOM     27  O   UNL A   1      31.802  20.585  25.021  1.00  0.00    -0.406 OA
BRANCH  27  28
ATOM     28  C   UNL A   1      33.075  20.199  25.509  1.00  0.00     0.573 C 
ATOM     29  F   UNL A   1      33.966  20.068  24.498  1.00  0.00    -0.132 F 
ATOM     30  F   UNL A   1      33.547  21.089  26.405  1.00  0.00    -0.132 F 
ATOM     31  F   UNL A   1      32.964  18.996  26.115  1.00  0.00    -0.132 F 
ENDBRANCH  27  28
ENDBRANCH  16  27
ENDBRANCH   6   7
ENDBRANCH   4   6
ENDBRANCH   3   4
ENDBRANCH   2   3
ENDBRANCH   1   2
BRANCH   1  32
ATOM     32  O   UNL A   1      35.243  22.797  24.489  1.00  0.00    -0.374 OA
BRANCH  32  33
ATOM     33  C   UNL A   1      36.547  22.317  24.166  1.00  0.00     0.202 C 
BRANCH  33  34
ATOM     34  C   UNL A   1      37.319  21.637  25.304  1.00  0.00     0.261 C 
BRANCH  34  35
ATOM     35  O   UNL A   1      38.742  21.739  25.141  1.00  0.00    -0.460 OA
BRANCH  35  36
ATOM     36  C   UNL A   1      39.447  21.490  26.267  1.00  0.00     0.338 C 
ATOM     37  O   UNL A   1      39.866  20.403  26.654  1.00  0.00    -0.246 OA
BRANCH  36  38
ATOM     38  C   UNL A   1      39.813  22.748  26.933  1.00  0.00     0.060 A 
ATOM     39  C   UNL A   1      39.181  23.914  26.483  1.00  0.00     0.016 A 
ATOM     40  C   UNL A   1      40.795  22.806  27.925  1.00  0.00     0.016 A 
ATOM     41  C   UNL A   1      39.576  25.152  26.974  1.00  0.00     0.010 A 
ATOM     42  C   UNL A   1      41.194  24.054  28.414  1.00  0.00     0.010 A 
ATOM     43  C   UNL A   1      40.618  25.231  27.908  1.00  0.00    -0.014 A 
BRANCH  43  44
ATOM     44  C   UNL A   1      41.187  26.559  28.233  1.00  0.00     0.031 A 
ATOM     45  C   UNL A   1      42.596  26.870  27.811  1.00  0.00     0.074 A 
ATOM     46  C   UNL A   1      40.446  27.478  28.874  1.00  0.00     0.049 A 
ATOM     47  N   UNL A   1      43.275  27.977  27.951  1.00  0.00    -0.248 NA
ATOM     48  C   UNL A   1      43.340  25.788  27.145  1.00  0.00     0.031 C 
ATOM     49  C   UNL A   1      39.077  27.275  29.343  1.00  0.00     0.029 A 
ATOM     50  N   UNL A   1      40.751  28.758  29.258  1.00  0.00    -0.354 N 
ATOM     51  C   UNL A   1      44.533  27.718  27.420  1.00  0.00     0.074 A 
ATOM     52  C   UNL A   1      44.527  26.345  26.967  1.00  0.00     0.031 C 
ATOM     53  C   UNL A   1      38.667  28.385  29.981  1.00  0.00     0.029 A 
ATOM     54  C   UNL A   1      39.750  29.367  29.974  1.00  0.00     0.049 A 
ATOM     55  H   UNL A   1      41.605  29.199  29.042  1.00  0.00     0.167 HD
ATOM     56  C   UNL A   1      45.592  28.555  27.308  1.00  0.00     0.034 A 
ATOM     57  C   UNL A   1      39.717  30.577  30.569  1.00  0.00     0.034 A 
ATOM     58  C   UNL A   1      45.579  29.926  27.743  1.00  0.00     0.049 A 
ATOM     59  C   UNL A   1      40.900  31.495  30.421  1.00  0.00     0.074 A 
ATOM     60  C   UNL A   1      46.570  30.882  27.609  1.00  0.00     0.029 A 
ATOM     61  N   UNL A   1      44.527  30.530  28.416  1.00  0.00    -0.354 N 
ATOM     62  N   UNL A   1      42.029  31.288  29.784  1.00  0.00    -0.248 NA
ATOM     63  C   UNL A   1      40.792  32.826  31.034  1.00  0.00     0.031 C 
ATOM     64  C   UNL A   1      46.129  32.055  28.233  1.00  0.00     0.029 A 
ATOM     65  C   UNL A   1      44.851  31.839  28.725  1.00  0.00     0.049 A 
ATOM     66  H   UNL A   1      43.675  30.091  28.641  1.00  0.00     0.167 HD
ATOM     67  C   UNL A   1      42.756  32.469  29.898  1.00  0.00     0.074 A 
ATOM     68  C   UNL A   1      41.926  33.394  30.646  1.00  0.00     0.031 C 
ATOM     69  C   UNL A   1      43.998  32.758  29.437  1.00  0.00     0.034 A 
BRANCH  56  70
ATOM     70  C   UNL A   1      46.846  28.009  26.676  1.00  0.00     0.023 A 
ATOM     71  C   UNL A   1      47.855  27.449  27.486  1.00  0.00     0.012 A 
ATOM     72  C   UNL A   1      47.014  28.025  25.278  1.00  0.00     0.148 A 
ATOM     73  C   UNL A   1      49.028  26.951  26.920  1.00  0.00     0.002 A 
ATOM     74  C   UNL A   1      48.167  27.487  24.717  1.00  0.00     0.091 A 
ATOM     75  F   UNL A   1      46.058  28.585  24.523  1.00  0.00    -0.205 F 
ATOM     76  C   UNL A   1      49.179  26.962  25.536  1.00  0.00     0.022 A 
BRANCH  74  77
ATOM     77  S   UNL A   1      48.420  27.392  22.941  1.00  0.00     0.127 S 
ATOM     78  O   UNL A   1      47.320  28.213  22.440  1.00  0.00    -0.237 OA
ATOM     79  O   UNL A   1      49.747  27.990  22.784  1.00  0.00    -0.237 OA
ATOM     80  O   UNL A   1      48.352  25.976  22.604  1.00  0.00    -0.744 OA
ENDBRANCH  74  77
ENDBRANCH  56  70
BRANCH  57  81
ATOM     81  C   UNL A   1      38.501  30.986  31.324  1.00  0.00     0.023 A 
ATOM     82  C   UNL A   1      38.450  30.814  32.720  1.00  0.00     0.012 A 
ATOM     83  C   UNL A   1      37.419  31.606  30.667  1.00  0.00     0.148 A 
ATOM     84  C   UNL A   1      37.336  31.238  33.446  1.00  0.00     0.002 A 
ATOM     85  C   UNL A   1      36.339  32.076  31.402  1.00  0.00     0.091 A 
ATOM     86  F   UNL A   1      37.483  31.746  29.335  1.00  0.00    -0.205 F 
ATOM     87  C   UNL A   1      36.289  31.881  32.791  1.00  0.00     0.022 A 
BRANCH  85  88
ATOM     88  S   UNL A   1      35.012  33.035  30.663  1.00  0.00     0.127 S 
ATOM     89  O   UNL A   1      34.172  33.326  31.822  1.00  0.00    -0.237 OA
ATOM     90  O   UNL A   1      35.737  34.185  30.123  1.00  0.00    -0.237 OA
ATOM     91  O   UNL A   1      34.416  32.171  29.652  1.00  0.00    -0.744 OA
ENDBRANCH  85  88
ENDBRANCH  57  81
BRANCH  69  92
ATOM     92  C   UNL A   1      44.540  34.137  29.707  1.00  0.00     0.023 A 
ATOM     93  C   UNL A   1      45.301  34.375  30.869  1.00  0.00     0.012 A 
ATOM     94  C   UNL A   1      44.364  35.176  28.771  1.00  0.00     0.148 A 
ATOM     95  C   UNL A   1      45.855  35.632  31.109  1.00  0.00     0.002 A 
ATOM     96  C   UNL A   1      44.959  36.411  28.993  1.00  0.00     0.091 A 
ATOM     97  F   UNL A   1      43.620  34.935  27.681  1.00  0.00    -0.205 F 
ATOM     98  C   UNL A   1      45.694  36.646  30.166  1.00  0.00     0.022 A 
BRANCH  96  99
ATOM     99  S   UNL A   1      44.889  37.741  27.787  1.00  0.00     0.127 S 
ATOM    100  O   UNL A   1      45.622  37.163  26.662  1.00  0.00    -0.237 OA
ATOM    101  O   UNL A   1      43.450  37.887  27.567  1.00  0.00    -0.237 OA
ATOM    102  O   UNL A   1      45.521  38.890  28.421  1.00  0.00    -0.744 OA
ENDBRANCH  96  99
ENDBRANCH  69  92
ENDBRANCH  43  44
ENDBRANCH  36  38
ENDBRANCH  35  36
ENDBRANCH  34  35
ENDBRANCH  33  34
ENDBRANCH  32  33
ENDBRANCH   1  32
TORSDOF 23
ENDMDL
MODEL 2
REMARK VINA RESULT:     -11.3      1.822      2.564
REMARK SMILES CCc1ccnc(C(=O)c2[nH]c3ccc(OC(F)(F)F)cc3c2CC(=O)OCCOCCOC(=O)c2ccc(-c3c4nc(c(-c5cccc(S(=O)(=O)[O-])c5F)c5ccc([nH]5)c(-c5cccc(S(=O)(=O)[O-])c5F)c5nc(c(-c6cccc(S(=O)(=O)[O-])c6F)c6ccc3[nH]6)C=C5)C=C4)cc2)c1
REMARK SMILES IDX 29 1 28 2 27 3 25 4 26 5 24 6 23 7 10 8 11 9 12 10 22 12
REMARK SMILES IDX 13 13 21 14 14 15 15 16 8 17 9 18 7 19 3 20 4 21 99 22 5 23
REMARK SMILES IDX 6 24 2 25 1 26 16 27 17 28 18 29 19 30 20 31 30 32 31 33
REMARK SMILES IDX 32 34 33 35 34 36 35 37 36 38 37 39 98 40 38 41 97 42 39 43
REMARK SMILES IDX 40 44 41 45 91 46 42 47 96 48 90 49 92 50 43 51 95 52 89 53
REMARK SMILES IDX 88 54 44 56 76 57 56 58 75 59 57 60 60 61 74 62 93 63 58 64
REMARK SMILES IDX 59 65 73 67 94 68 61 69 45 70 46 71 54 72 47 73 49 74 55 75
REMARK SMILES IDX 48 76 50 77 51 78 52 79 53 80 77 81 78 82 86 83 79 84 81 85
REMARK SMILES IDX 87 86 80 87 82 88 83 89 84 90 85 91 62 92 63 93 71 94 64 95
REMARK SMILES IDX 66 96 72 97 65 98 67 99 68 100 69 101 70 102
REMARK H PARENT 11 11 92 55 60 66
REMARK Flexibility Score: inf
ROOT
ATOM      1  C   UNL A   1      35.184  21.902  26.820  1.00  0.00     0.202 C 
ENDROOT
BRANCH   1   2
ATOM      2  C   UNL A   1      33.960  22.191  27.699  1.00  0.00     0.261 C 
BRANCH   2   3
ATOM      3  O   UNL A   1      33.238  23.368  27.274  1.00  0.00    -0.463 OA
BRANCH   3   4
ATOM      4  C   UNL A   1      31.883  23.256  27.270  1.00  0.00     0.310 C 
ATOM      5  O   UNL A   1      31.252  22.497  28.005  1.00  0.00    -0.252 OA
BRANCH   4   6
ATOM      6  C   UNL A   1      31.172  24.079  26.219  1.00  0.00     0.161 C 
BRANCH   6   7
ATOM      7  C   UNL A   1      31.411  23.766  24.765  1.00  0.00     0.000 A 
ATOM      8  C   UNL A   1      31.104  24.567  23.660  1.00  0.00     0.093 A 
ATOM      9  N   UNL A   1      31.541  23.878  22.545  1.00  0.00    -0.352 N 
ATOM     10  C   UNL A   1      31.791  22.565  22.862  1.00  0.00     0.046 A 
ATOM     11  H   UNL A   1      31.657  24.272  21.651  1.00  0.00     0.167 HD
ATOM     12  C   UNL A   1      31.757  22.473  24.250  1.00  0.00     0.008 A 
ATOM     13  C   UNL A   1      32.039  21.458  22.041  1.00  0.00     0.030 A 
ATOM     14  C   UNL A   1      31.974  21.212  24.842  1.00  0.00     0.057 A 
ATOM     15  C   UNL A   1      32.200  20.207  22.655  1.00  0.00     0.049 A 
ATOM     16  C   UNL A   1      32.152  20.074  24.042  1.00  0.00     0.130 A 
BRANCH   8  17
ATOM     17  C   UNL A   1      30.455  25.874  23.666  1.00  0.00     0.227 C 
ATOM     18  O   UNL A   1      29.251  26.001  23.450  1.00  0.00    -0.285 OA
BRANCH  17  19
ATOM     19  C   UNL A   1      31.252  27.132  23.828  1.00  0.00     0.113 A 
ATOM     20  C   UNL A   1      32.137  28.878  25.224  1.00  0.00    -0.044 A 
ATOM     21  C   UNL A   1      33.054  29.156  24.206  1.00  0.00     0.024 A 
ATOM     22  C   UNL A   1      31.203  27.857  25.014  1.00  0.00     0.036 A 
ATOM     23  C   UNL A   1      33.011  28.404  23.042  1.00  0.00     0.112 A 
ATOM     24  N   UNL A   1      32.133  27.404  22.830  1.00  0.00    -0.253 NA
BRANCH  20  25
ATOM     25  C   UNL A   1      32.175  29.659  26.515  1.00  0.00     0.032 C 
ATOM     26  C   UNL A   1      31.564  31.052  26.404  1.00  0.00     0.009 C 
ENDBRANCH  20  25
ENDBRANCH  17  19
ENDBRANCH   8  17
BRANCH  16  27
ATOM     27  O   UNL A   1      32.254  18.912  24.751  1.00  0.00    -0.406 OA
BRANCH  27  28
ATOM     28  C   UNL A   1      33.324  18.038  24.438  1.00  0.00     0.573 C 
ATOM     29  F   UNL A   1      33.101  17.393  23.269  1.00  0.00    -0.132 F 
ATOM     30  F   UNL A   1      34.494  18.703  24.363  1.00  0.00    -0.132 F 
ATOM     31  F   UNL A   1      33.422  17.102  25.408  1.00  0.00    -0.132 F 
ENDBRANCH  27  28
ENDBRANCH  16  27
ENDBRANCH   6   7
ENDBRANCH   4   6
ENDBRANCH   3   4
ENDBRANCH   2   3
ENDBRANCH   1   2
BRANCH   1  32
ATOM     32  O   UNL A   1      35.120  22.337  25.459  1.00  0.00    -0.374 OA
BRANCH  32  33
ATOM     33  C   UNL A   1      35.974  21.658  24.540  1.00  0.00     0.202 C 
BRANCH  33  34
ATOM     34  C   UNL A   1      37.097  20.813  25.156  1.00  0.00     0.261 C 
BRANCH  34  35
ATOM     35  O   UNL A   1      38.390  21.412  24.988  1.00  0.00    -0.460 OA
BRANCH  35  36
ATOM     36  C   UNL A   1      39.258  21.145  25.990  1.00  0.00     0.338 C 
ATOM     37  O   UNL A   1      39.762  20.060  26.266  1.00  0.00    -0.246 OA
BRANCH  36  38
ATOM     38  C   UNL A   1      39.678  22.389  26.651  1.00  0.00     0.060 A 
ATOM     39  C   UNL A   1      39.067  23.575  26.223  1.00  0.00     0.016 A 
ATOM     40  C   UNL A   1      40.688  22.415  27.616  1.00  0.00     0.016 A 
ATOM     41  C   UNL A   1      39.509  24.799  26.709  1.00  0.00     0.010 A 
ATOM     42  C   UNL A   1      41.135  23.648  28.099  1.00  0.00     0.010 A 
ATOM     43  C   UNL A   1      40.579  24.844  27.614  1.00  0.00    -0.014 A 
BRANCH  43  44
ATOM     44  C   UNL A   1      41.193  26.154  27.928  1.00  0.00     0.031 A 
ATOM     45  C   UNL A   1      42.592  26.434  27.454  1.00  0.00     0.074 A 
ATOM     46  C   UNL A   1      40.502  27.084  28.608  1.00  0.00     0.049 A 
ATOM     47  N   UNL A   1      43.304  27.523  27.577  1.00  0.00    -0.248 NA
ATOM     48  C   UNL A   1      43.281  25.341  26.748  1.00  0.00     0.031 C 
ATOM     49  C   UNL A   1      39.148  26.911  29.128  1.00  0.00     0.029 A 
ATOM     50  N   UNL A   1      40.854  28.353  28.991  1.00  0.00    -0.354 N 
ATOM     51  C   UNL A   1      44.533  27.238  26.995  1.00  0.00     0.074 A 
ATOM     52  C   UNL A   1      44.475  25.870  26.529  1.00  0.00     0.031 C 
ATOM     53  C   UNL A   1      38.792  28.024  29.792  1.00  0.00     0.029 A 
ATOM     54  C   UNL A   1      39.897  28.979  29.752  1.00  0.00     0.049 A 
ATOM     55  H   UNL A   1      41.710  28.774  28.745  1.00  0.00     0.167 HD
ATOM     56  C   UNL A   1      45.608  28.049  26.848  1.00  0.00     0.034 A 
ATOM     57  C   UNL A   1      39.919  30.182  30.359  1.00  0.00     0.034 A 
ATOM     58  C   UNL A   1      45.647  29.415  27.297  1.00  0.00     0.049 A 
ATOM     59  C   UNL A   1      41.118  31.073  30.172  1.00  0.00     0.074 A 
ATOM     60  C   UNL A   1      46.655  30.347  27.132  1.00  0.00     0.029 A 
ATOM     61  N   UNL A   1      44.638  30.038  28.016  1.00  0.00    -0.354 N 
ATOM     62  N   UNL A   1      42.216  30.844  29.490  1.00  0.00    -0.248 NA
ATOM     63  C   UNL A   1      41.068  32.400  30.802  1.00  0.00     0.031 C 
ATOM     64  C   UNL A   1      46.269  31.524  27.784  1.00  0.00     0.029 A 
ATOM     65  C   UNL A   1      45.006  31.335  28.324  1.00  0.00     0.049 A 
ATOM     66  H   UNL A   1      43.784  29.618  28.271  1.00  0.00     0.167 HD
ATOM     67  C   UNL A   1      42.976  32.005  29.586  1.00  0.00     0.074 A 
ATOM     68  C   UNL A   1      42.200  32.943  30.374  1.00  0.00     0.031 C 
ATOM     69  C   UNL A   1      44.206  32.268  29.078  1.00  0.00     0.034 A 
BRANCH  56  70
ATOM     70  C   UNL A   1      46.822  27.478  26.162  1.00  0.00     0.023 A 
ATOM     71  C   UNL A   1      47.664  26.585  26.854  1.00  0.00     0.012 A 
ATOM     72  C   UNL A   1      47.113  27.805  24.824  1.00  0.00     0.148 A 
ATOM     73  C   UNL A   1      48.800  26.057  26.239  1.00  0.00     0.002 A 
ATOM     74  C   UNL A   1      48.222  27.242  24.203  1.00  0.00     0.091 A 
ATOM     75  F   UNL A   1      46.317  28.678  24.189  1.00  0.00    -0.205 F 
ATOM     76  C   UNL A   1      49.073  26.379  24.912  1.00  0.00     0.022 A 
BRANCH  74  77
ATOM     77  S   UNL A   1      48.615  27.541  22.476  1.00  0.00     0.127 S 
ATOM     78  O   UNL A   1      49.854  28.308  22.582  1.00  0.00    -0.237 OA
ATOM     79  O   UNL A   1      48.782  26.183  21.956  1.00  0.00    -0.237 OA
ATOM     80  O   UNL A   1      47.474  28.261  21.926  1.00  0.00    -0.744 OA
ENDBRANCH  74  77
ENDBRANCH  56  70
BRANCH  57  81
ATOM     81  C   UNL A   1      38.744  30.614  31.165  1.00  0.00     0.023 A 
ATOM     82  C   UNL A   1      38.769  30.484  32.566  1.00  0.00     0.012 A 
ATOM     83  C   UNL A   1      37.628  31.214  30.548  1.00  0.00     0.148 A 
ATOM     84  C   UNL A   1      37.695  30.930  33.338  1.00  0.00     0.002 A 
ATOM     85  C   UNL A   1      36.588  31.706  31.327  1.00  0.00     0.091 A 
ATOM     86  F   UNL A   1      37.619  31.313  29.212  1.00  0.00    -0.205 F 
ATOM     87  C   UNL A   1      36.612  31.552  32.721  1.00  0.00     0.022 A 
BRANCH  85  88
ATOM     88  S   UNL A   1      35.221  32.642  30.631  1.00  0.00     0.127 S 
ATOM     89  O   UNL A   1      34.774  31.763  29.554  1.00  0.00    -0.237 OA
ATOM     90  O   UNL A   1      34.309  32.734  31.771  1.00  0.00    -0.237 OA
ATOM     91  O   UNL A   1      35.788  33.916  30.211  1.00  0.00    -0.744 OA
ENDBRANCH  85  88
ENDBRANCH  57  81
BRANCH  69  92
ATOM     92  C   UNL A   1      44.793  33.630  29.340  1.00  0.00     0.023 A 
ATOM     93  C   UNL A   1      44.541  34.686  28.441  1.00  0.00     0.012 A 
ATOM     94  C   UNL A   1      45.525  33.885  30.517  1.00  0.00     0.148 A 
ATOM     95  C   UNL A   1      45.033  35.966  28.694  1.00  0.00     0.002 A 
ATOM     96  C   UNL A   1      45.969  35.173  30.787  1.00  0.00     0.091 A 
ATOM     97  F   UNL A   1      45.770  32.863  31.351  1.00  0.00    -0.205 F 
ATOM     98  C   UNL A   1      45.736  36.211  29.872  1.00  0.00     0.022 A 
BRANCH  96  99
ATOM     99  S   UNL A   1      46.794  35.601  32.324  1.00  0.00     0.127 S 
ATOM    100  O   UNL A   1      45.799  35.203  33.318  1.00  0.00    -0.237 OA
ATOM    101  O   UNL A   1      47.988  34.755  32.284  1.00  0.00    -0.237 OA
ATOM    102  O   UNL A   1      47.066  37.030  32.248  1.00  0.00    -0.744 OA
ENDBRANCH  96  99
ENDBRANCH  69  92
ENDBRANCH  43  44
ENDBRANCH  36  38
ENDBRANCH  35  36
ENDBRANCH  34  35
ENDBRANCH  33  34
ENDBRANCH  32  33
ENDBRANCH   1  32
TORSDOF 23
ENDMDL
MODEL 3
REMARK VINA RESULT:     -11.2      1.818      2.506
REMARK SMILES CCc1ccnc(C(=O)c2[nH]c3ccc(OC(F)(F)F)cc3c2CC(=O)OCCOCCOC(=O)c2ccc(-c3c4nc(c(-c5cccc(S(=O)(=O)[O-])c5F)c5ccc([nH]5)c(-c5cccc(S(=O)(=O)[O-])c5F)c5nc(c(-c6cccc(S(=O)(=O)[O-])c6F)c6ccc3[nH]6)C=C5)C=C4)cc2)c1
REMARK SMILES IDX 29 1 28 2 27 3 25 4 26 5 24 6 23 7 10 8 11 9 12 10 22 12
REMARK SMILES IDX 13 13 21 14 14 15 15 16 8 17 9 18 7 19 3 20 4 21 99 22 5 23
REMARK SMILES IDX 6 24 2 25 1 26 16 27 17 28 18 29 19 30 20 31 30 32 31 33
REMARK SMILES IDX 32 34 33 35 34 36 35 37 36 38 37 39 98 40 38 41 97 42 39 43
REMARK SMILES IDX 40 44 41 45 91 46 42 47 96 48 90 49 92 50 43 51 95 52 89 53
REMARK SMILES IDX 88 54 44 56 76 57 56 58 75 59 57 60 60 61 74 62 93 63 58 64
REMARK SMILES IDX 59 65 73 67 94 68 61 69 45 70 46 71 54 72 47 73 49 74 55 75
REMARK SMILES IDX 48 76 50 77 51 78 52 79 53 80 77 81 78 82 86 83 79 84 81 85
REMARK SMILES IDX 87 86 80 87 82 88 83 89 84 90 85 91 62 92 63 93 71 94 64 95
REMARK SMILES IDX 66 96 72 97 65 98 67 99 68 100 69 101 70 102
REMARK H PARENT 11 11 92 55 60 66
REMARK Flexibility Score: inf
ROOT
ATOM      1  C   UNL A   1      35.144  21.739  26.894  1.00  0.00     0.202 C 
ENDROOT
BRANCH   1   2
ATOM      2  C   UNL A   1      33.915  22.190  27.693  1.00  0.00     0.261 C 
BRANCH   2   3
ATOM      3  O   UNL A   1      33.435  23.490  27.285  1.00  0.00    -0.463 OA
BRANCH   3   4
ATOM      4  C   UNL A   1      32.090  23.592  27.114  1.00  0.00     0.310 C 
ATOM      5  O   UNL A   1      31.263  22.949  27.760  1.00  0.00    -0.252 OA
BRANCH   4   6
ATOM      6  C   UNL A   1      31.650  24.504  25.990  1.00  0.00     0.161 C 
BRANCH   6   7
ATOM      7  C   UNL A   1      31.747  24.009  24.570  1.00  0.00     0.000 A 
ATOM      8  C   UNL A   1      31.386  24.692  23.405  1.00  0.00     0.093 A 
ATOM      9  N   UNL A   1      31.690  23.852  22.351  1.00  0.00    -0.352 N 
ATOM     10  C   UNL A   1      31.902  22.573  22.804  1.00  0.00     0.046 A 
ATOM     11  H   UNL A   1      31.748  24.131  21.409  1.00  0.00     0.167 HD
ATOM     12  C   UNL A   1      31.983  22.646  24.191  1.00  0.00     0.008 A 
ATOM     13  C   UNL A   1      32.023  21.365  22.106  1.00  0.00     0.030 A 
ATOM     14  C   UNL A   1      32.188  21.453  24.913  1.00  0.00     0.057 A 
ATOM     15  C   UNL A   1      32.174  20.187  22.854  1.00  0.00     0.049 A 
ATOM     16  C   UNL A   1      32.240  20.221  24.246  1.00  0.00     0.130 A 
BRANCH   8  17
ATOM     17  C   UNL A   1      30.805  26.027  23.303  1.00  0.00     0.227 C 
ATOM     18  O   UNL A   1      29.621  26.199  23.017  1.00  0.00    -0.285 OA
BRANCH  17  19
ATOM     19  C   UNL A   1      31.657  27.252  23.435  1.00  0.00     0.113 A 
ATOM     20  C   UNL A   1      32.571  29.025  24.778  1.00  0.00    -0.044 A 
ATOM     21  C   UNL A   1      33.540  29.206  23.786  1.00  0.00     0.024 A 
ATOM     22  C   UNL A   1      31.597  28.040  24.581  1.00  0.00     0.036 A 
ATOM     23  C   UNL A   1      33.506  28.397  22.661  1.00  0.00     0.112 A 
ATOM     24  N   UNL A   1      32.589  27.429  22.463  1.00  0.00    -0.253 NA
BRANCH  20  25
ATOM     25  C   UNL A   1      32.596  29.869  26.029  1.00  0.00     0.032 C 
ATOM     26  C   UNL A   1      32.526  29.056  27.316  1.00  0.00     0.009 C 
ENDBRANCH  20  25
ENDBRANCH  17  19
ENDBRANCH   8  17
BRANCH  16  27
ATOM     27  O   UNL A   1      32.345  19.146  25.081  1.00  0.00    -0.406 OA
BRANCH  27  28
ATOM     28  C   UNL A   1      33.032  18.002  24.604  1.00  0.00     0.573 C 
ATOM     29  F   UNL A   1      32.365  17.427  23.576  1.00  0.00    -0.132 F 
ATOM     30  F   UNL A   1      34.282  18.311  24.206  1.00  0.00    -0.132 F 
ATOM     31  F   UNL A   1      33.110  17.092  25.600  1.00  0.00    -0.132 F 
ENDBRANCH  27  28
ENDBRANCH  16  27
ENDBRANCH   6   7
ENDBRANCH   4   6
ENDBRANCH   3   4
ENDBRANCH   2   3
ENDBRANCH   1   2
BRANCH   1  32
ATOM     32  O   UNL A   1      35.245  22.204  25.544  1.00  0.00    -0.374 OA
BRANCH  32  33
ATOM     33  C   UNL A   1      35.908  21.336  24.627  1.00  0.00     0.202 C 
BRANCH  33  34
ATOM     34  C   UNL A   1      37.124  20.575  25.172  1.00  0.00     0.261 C 
BRANCH  34  35
ATOM     35  O   UNL A   1      38.349  21.302  24.999  1.00  0.00    -0.460 OA
BRANCH  35  36
ATOM     36  C   UNL A   1      39.291  21.028  25.930  1.00  0.00     0.338 C 
ATOM     37  O   UNL A   1      39.846  19.951  26.130  1.00  0.00    -0.246 OA
BRANCH  36  38
ATOM     38  C   UNL A   1      39.716  22.261  26.608  1.00  0.00     0.060 A 
ATOM     39  C   UNL A   1      39.060  23.444  26.247  1.00  0.00     0.016 A 
ATOM     40  C   UNL A   1      40.772  22.281  27.523  1.00  0.00     0.016 A 
ATOM     41  C   UNL A   1      39.500  24.663  26.748  1.00  0.00     0.010 A 
ATOM     42  C   UNL A   1      41.216  23.509  28.022  1.00  0.00     0.010 A 
ATOM     43  C   UNL A   1      40.611  24.706  27.601  1.00  0.00    -0.014 A 
BRANCH  43  44
ATOM     44  C   UNL A   1      41.212  26.019  27.926  1.00  0.00     0.031 A 
ATOM     45  C   UNL A   1      42.616  26.310  27.471  1.00  0.00     0.074 A 
ATOM     46  C   UNL A   1      40.506  26.944  28.597  1.00  0.00     0.049 A 
ATOM     47  N   UNL A   1      43.319  27.402  27.606  1.00  0.00    -0.248 NA
ATOM     48  C   UNL A   1      43.322  25.222  26.774  1.00  0.00     0.031 C 
ATOM     49  C   UNL A   1      39.146  26.760  29.100  1.00  0.00     0.029 A 
ATOM     50  N   UNL A   1      40.845  28.214  28.987  1.00  0.00    -0.354 N 
ATOM     51  C   UNL A   1      44.557  27.127  27.040  1.00  0.00     0.074 A 
ATOM     52  C   UNL A   1      44.515  25.759  26.572  1.00  0.00     0.031 C 
ATOM     53  C   UNL A   1      38.774  27.870  29.760  1.00  0.00     0.029 A 
ATOM     54  C   UNL A   1      39.873  28.833  29.736  1.00  0.00     0.049 A 
ATOM     55  H   UNL A   1      41.700  28.641  28.754  1.00  0.00     0.167 HD
ATOM     56  C   UNL A   1      45.629  27.945  26.909  1.00  0.00     0.034 A 
ATOM     57  C   UNL A   1      39.878  30.035  30.346  1.00  0.00     0.034 A 
ATOM     58  C   UNL A   1      45.652  29.310  27.360  1.00  0.00     0.049 A 
ATOM     59  C   UNL A   1      41.074  30.933  30.176  1.00  0.00     0.074 A 
ATOM     60  C   UNL A   1      46.657  30.250  27.211  1.00  0.00     0.029 A 
ATOM     61  N   UNL A   1      44.630  29.926  28.067  1.00  0.00    -0.354 N 
ATOM     62  N   UNL A   1      42.183  30.713  29.509  1.00  0.00    -0.248 NA
ATOM     63  C   UNL A   1      41.006  32.259  30.807  1.00  0.00     0.031 C 
ATOM     64  C   UNL A   1      46.254  31.423  27.859  1.00  0.00     0.029 A 
ATOM     65  C   UNL A   1      44.985  31.225  28.382  1.00  0.00     0.049 A 
ATOM     66  H   UNL A   1      43.775  29.500  28.309  1.00  0.00     0.167 HD
ATOM     67  C   UNL A   1      42.933  31.879  29.617  1.00  0.00     0.074 A 
ATOM     68  C   UNL A   1      42.141  32.810  30.396  1.00  0.00     0.031 C 
ATOM     69  C   UNL A   1      44.168  32.151  29.126  1.00  0.00     0.034 A 
BRANCH  56  70
ATOM     70  C   UNL A   1      46.856  27.384  26.239  1.00  0.00     0.023 A 
ATOM     71  C   UNL A   1      47.050  27.573  24.856  1.00  0.00     0.012 A 
ATOM     72  C   UNL A   1      47.830  26.692  26.985  1.00  0.00     0.148 A 
ATOM     73  C   UNL A   1      48.174  27.048  24.217  1.00  0.00     0.002 A 
ATOM     74  C   UNL A   1      48.969  26.209  26.350  1.00  0.00     0.091 A 
ATOM     75  F   UNL A   1      47.617  26.497  28.294  1.00  0.00    -0.205 F 
ATOM     76  C   UNL A   1      49.136  26.375  24.966  1.00  0.00     0.022 A 
BRANCH  74  77
ATOM     77  S   UNL A   1      50.297  25.392  27.242  1.00  0.00     0.127 S 
ATOM     78  O   UNL A   1      50.727  26.445  28.161  1.00  0.00    -0.237 OA
ATOM     79  O   UNL A   1      49.600  24.275  27.881  1.00  0.00    -0.237 OA
ATOM     80  O   UNL A   1      51.272  24.999  26.234  1.00  0.00    -0.744 OA
ENDBRANCH  74  77
ENDBRANCH  56  70
BRANCH  57  81
ATOM     81  C   UNL A   1      38.690  30.458  31.136  1.00  0.00     0.023 A 
ATOM     82  C   UNL A   1      38.648  30.218  32.522  1.00  0.00     0.012 A 
ATOM     83  C   UNL A   1      37.629  31.156  30.526  1.00  0.00     0.148 A 
ATOM     84  C   UNL A   1      37.562  30.652  33.284  1.00  0.00     0.002 A 
ATOM     85  C   UNL A   1      36.579  31.634  31.299  1.00  0.00     0.091 A 
ATOM     86  F   UNL A   1      37.683  31.359  29.202  1.00  0.00    -0.205 F 
ATOM     87  C   UNL A   1      36.536  31.371  32.676  1.00  0.00     0.022 A 
BRANCH  85  88
ATOM     88  S   UNL A   1      35.286  32.685  30.626  1.00  0.00     0.127 S 
ATOM     89  O   UNL A   1      34.863  31.925  29.453  1.00  0.00    -0.237 OA
ATOM     90  O   UNL A   1      34.320  32.713  31.724  1.00  0.00    -0.237 OA
ATOM     91  O   UNL A   1      35.922  33.967  30.352  1.00  0.00    -0.744 OA
ENDBRANCH  85  88
ENDBRANCH  57  81
BRANCH  69  92
ATOM     92  C   UNL A   1      44.743  33.517  29.398  1.00  0.00     0.023 A 
ATOM     93  C   UNL A   1      45.639  33.699  30.471  1.00  0.00     0.012 A 
ATOM     94  C   UNL A   1      44.459  34.600  28.543  1.00  0.00     0.148 A 
ATOM     95  C   UNL A   1      46.220  34.945  30.705  1.00  0.00     0.002 A 
ATOM     96  C   UNL A   1      45.080  35.825  28.753  1.00  0.00     0.091 A 
ATOM     97  F   UNL A   1      43.590  34.412  27.539  1.00  0.00    -0.205 F 
ATOM     98  C   UNL A   1      45.950  36.003  29.839  1.00  0.00     0.022 A 
BRANCH  96  99
ATOM     99  S   UNL A   1      44.870  37.213  27.632  1.00  0.00     0.127 S 
ATOM    100  O   UNL A   1      43.747  36.766  26.810  1.00  0.00    -0.237 OA
ATOM    101  O   UNL A   1      44.555  38.309  28.549  1.00  0.00    -0.237 OA
ATOM    102  O   UNL A   1      46.139  37.358  26.932  1.00  0.00    -0.744 OA
ENDBRANCH  96  99
ENDBRANCH  69  92
ENDBRANCH  43  44
ENDBRANCH  36  38
ENDBRANCH  35  36
ENDBRANCH  34  35
ENDBRANCH  33  34
ENDBRANCH  32  33
ENDBRANCH   1  32
TORSDOF 23
ENDMDL
