MODEL 1
REMARK VINA RESULT:     -11.7      0.000      0.000
REMARK SMILES O=C(OCCOCCOC(=O)[C@@H]1CC=CC[C@@H]1C(=O)Nc1sc2c(c1C(=O)N1CCCCC1)CCCC2)c1ccc(-c2c3nc(c(-c4cccc(S(=O)(=O)[O-])c4F)c4ccc([nH]4)c(-c4cccc(S(=O)(=O)[O-])c4F)c4nc(c(-c5cccc(S(=O)(=O)[O-])c5F)c5ccc2[nH]5)C=C4)C=C3)cc1
REMARK SMILES IDX 6 1 5 2 4 3 3 4 2 5 1 6 38 7 39 8 100 9 40 10 99 11 41 12
REMARK SMILES IDX 42 13 43 14 93 15 44 16 98 17 92 18 94 19 45 20 97 21 91 22
REMARK SMILES IDX 90 23 46 25 78 26 58 27 77 28 59 29 62 30 76 31 95 32 60 33
REMARK SMILES IDX 61 34 75 36 96 37 63 38 47 39 48 40 56 41 49 42 51 43 57 44
REMARK SMILES IDX 50 45 52 46 53 47 54 48 55 49 79 50 80 51 88 52 81 53 83 54
REMARK SMILES IDX 89 55 82 56 84 57 85 58 86 59 87 60 64 61 65 62 73 63 66 64
REMARK SMILES IDX 68 65 74 66 67 67 69 68 70 69 71 70 72 71 7 72 8 73 9 74
REMARK SMILES IDX 10 75 11 76 12 77 13 78 17 79 14 80 16 81 15 82 18 83 19 84
REMARK SMILES IDX 20 85 21 87 22 88 25 89 23 90 24 91 37 92 34 93 36 94 35 95
REMARK SMILES IDX 26 96 27 97 28 98 29 99 33 100 30 101 32 102 31 103
REMARK H PARENT 94 24 62 35 20 86
REMARK Flexibility Score: inf
ROOT
ATOM      1  O   UNL A   1      31.699  30.204  26.120  1.00  0.00    -0.374 OA
ENDROOT
BRANCH   1   2
ATOM      2  C   UNL A   1      31.536  31.542  26.580  1.00  0.00     0.202 C 
BRANCH   2   3
ATOM      3  C   UNL A   1      32.798  32.152  27.182  1.00  0.00     0.261 C 
BRANCH   3   4
ATOM      4  O   UNL A   1      32.525  33.499  27.600  1.00  0.00    -0.460 OA
BRANCH   4   5
ATOM      5  C   UNL A   1      33.195  34.234  28.519  1.00  0.00     0.338 C 
ATOM      6  O   UNL A   1      32.784  35.361  28.785  1.00  0.00    -0.246 OA
BRANCH   5   7
ATOM      7  C   UNL A   1      34.385  33.721  29.255  1.00  0.00     0.060 A 
ATOM      8  C   UNL A   1      35.696  34.146  29.032  1.00  0.00     0.016 A 
ATOM      9  C   UNL A   1      34.151  32.818  30.302  1.00  0.00     0.016 A 
ATOM     10  C   UNL A   1      36.759  33.635  29.755  1.00  0.00     0.010 A 
ATOM     11  C   UNL A   1      35.210  32.335  31.075  1.00  0.00     0.010 A 
ATOM     12  C   UNL A   1      36.520  32.732  30.784  1.00  0.00    -0.014 A 
BRANCH  12  13
ATOM     13  C   UNL A   1      37.686  32.170  31.480  1.00  0.00     0.031 A 
ATOM     14  C   UNL A   1      38.485  31.114  30.786  1.00  0.00     0.074 A 
ATOM     15  C   UNL A   1      38.067  32.701  32.656  1.00  0.00     0.049 A 
ATOM     16  N   UNL A   1      39.525  30.455  31.213  1.00  0.00    -0.248 NA
ATOM     17  C   UNL A   1      38.065  30.762  29.417  1.00  0.00     0.031 C 
ATOM     18  C   UNL A   1      37.392  33.811  33.334  1.00  0.00     0.029 A 
ATOM     19  N   UNL A   1      39.119  32.400  33.475  1.00  0.00    -0.354 N 
ATOM     20  C   UNL A   1      39.850  29.571  30.193  1.00  0.00     0.074 A 
ATOM     21  C   UNL A   1      38.915  29.792  29.115  1.00  0.00     0.031 C 
ATOM     22  C   UNL A   1      38.055  34.104  34.464  1.00  0.00     0.029 A 
ATOM     23  C   UNL A   1      39.154  33.161  34.620  1.00  0.00     0.049 A 
ATOM     24  H   UNL A   1      39.785  31.706  33.266  1.00  0.00     0.167 HD
ATOM     25  C   UNL A   1      40.843  28.654  30.175  1.00  0.00     0.034 A 
ATOM     26  C   UNL A   1      39.970  33.070  35.687  1.00  0.00     0.034 A 
ATOM     27  C   UNL A   1      41.761  28.475  31.263  1.00  0.00     0.049 A 
ATOM     28  C   UNL A   1      41.034  32.008  35.659  1.00  0.00     0.074 A 
ATOM     29  C   UNL A   1      42.778  27.550  31.395  1.00  0.00     0.029 A 
ATOM     30  N   UNL A   1      41.767  29.251  32.416  1.00  0.00    -0.354 N 
ATOM     31  N   UNL A   1      41.334  31.169  34.694  1.00  0.00    -0.248 NA
ATOM     32  C   UNL A   1      41.875  31.878  36.854  1.00  0.00     0.031 C 
ATOM     33  C   UNL A   1      43.384  27.754  32.640  1.00  0.00     0.029 A 
ATOM     34  C   UNL A   1      42.764  28.825  33.270  1.00  0.00     0.049 A 
ATOM     35  H   UNL A   1      41.149  29.997  32.597  1.00  0.00     0.167 HD
ATOM     36  C   UNL A   1      42.410  30.424  35.155  1.00  0.00     0.074 A 
ATOM     37  C   UNL A   1      42.726  30.932  36.477  1.00  0.00     0.031 C 
ATOM     38  C   UNL A   1      43.067  29.399  34.558  1.00  0.00     0.034 A 
BRANCH  25  39
ATOM     39  C   UNL A   1      40.937  27.771  28.962  1.00  0.00     0.023 A 
ATOM     40  C   UNL A   1      40.124  26.625  28.856  1.00  0.00     0.012 A 
ATOM     41  C   UNL A   1      41.857  28.063  27.936  1.00  0.00     0.148 A 
ATOM     42  C   UNL A   1      40.251  25.763  27.766  1.00  0.00     0.002 A 
ATOM     43  C   UNL A   1      41.952  27.220  26.835  1.00  0.00     0.091 A 
ATOM     44  F   UNL A   1      42.642  29.141  28.071  1.00  0.00    -0.205 F 
ATOM     45  C   UNL A   1      41.159  26.064  26.754  1.00  0.00     0.022 A 
BRANCH  43  46
ATOM     46  S   UNL A   1      43.059  27.546  25.458  1.00  0.00     0.127 S 
ATOM     47  O   UNL A   1      43.297  26.196  24.946  1.00  0.00    -0.237 OA
ATOM     48  O   UNL A   1      42.232  28.387  24.593  1.00  0.00    -0.237 OA
ATOM     49  O   UNL A   1      44.223  28.212  26.024  1.00  0.00    -0.744 OA
ENDBRANCH  43  46
ENDBRANCH  25  39
BRANCH  26  50
ATOM     50  C   UNL A   1      39.803  33.993  36.847  1.00  0.00     0.023 A 
ATOM     51  C   UNL A   1      40.189  35.342  36.728  1.00  0.00     0.012 A 
ATOM     52  C   UNL A   1      39.237  33.551  38.061  1.00  0.00     0.148 A 
ATOM     53  C   UNL A   1      40.038  36.224  37.801  1.00  0.00     0.002 A 
ATOM     54  C   UNL A   1      39.038  34.446  39.105  1.00  0.00     0.091 A 
ATOM     55  F   UNL A   1      38.897  32.258  38.170  1.00  0.00    -0.205 F 
ATOM     56  C   UNL A   1      39.451  35.781  38.984  1.00  0.00     0.022 A 
BRANCH  54  57
ATOM     57  S   UNL A   1      38.177  33.982  40.614  1.00  0.00     0.127 S 
ATOM     58  O   UNL A   1      38.013  35.274  41.275  1.00  0.00    -0.237 OA
ATOM     59  O   UNL A   1      36.941  33.396  40.095  1.00  0.00    -0.237 OA
ATOM     60  O   UNL A   1      39.052  33.031  41.285  1.00  0.00    -0.744 OA
ENDBRANCH  54  57
ENDBRANCH  26  50
BRANCH  38  61
ATOM     61  C   UNL A   1      44.206  28.782  35.320  1.00  0.00     0.023 A 
ATOM     62  C   UNL A   1      45.498  29.329  35.207  1.00  0.00     0.012 A 
ATOM     63  C   UNL A   1      43.970  27.724  36.218  1.00  0.00     0.148 A 
ATOM     64  C   UNL A   1      46.548  28.814  35.963  1.00  0.00     0.002 A 
ATOM     65  C   UNL A   1      45.010  27.251  37.005  1.00  0.00     0.091 A 
ATOM     66  F   UNL A   1      42.734  27.206  36.288  1.00  0.00    -0.205 F 
ATOM     67  C   UNL A   1      46.302  27.787  36.871  1.00  0.00     0.022 A 
BRANCH  65  68
ATOM     68  S   UNL A   1      44.756  26.007  38.274  1.00  0.00     0.127 S 
ATOM     69  O   UNL A   1      43.785  26.665  39.146  1.00  0.00    -0.237 OA
ATOM     70  O   UNL A   1      44.223  24.882  37.505  1.00  0.00    -0.237 OA
ATOM     71  O   UNL A   1      46.067  25.765  38.863  1.00  0.00    -0.744 OA
ENDBRANCH  65  68
ENDBRANCH  38  61
ENDBRANCH  12  13
ENDBRANCH   5   7
ENDBRANCH   4   5
ENDBRANCH   3   4
ENDBRANCH   2   3
ENDBRANCH   1   2
BRANCH   1  72
ATOM     72  C   UNL A   1      32.143  29.233  27.076  1.00  0.00     0.202 C 
BRANCH  72  73
ATOM     73  C   UNL A   1      33.051  28.226  26.363  1.00  0.00     0.261 C 
BRANCH  73  74
ATOM     74  O   UNL A   1      32.593  26.913  26.715  1.00  0.00    -0.463 OA
BRANCH  74  75
ATOM     75  C   UNL A   1      31.504  26.483  26.001  1.00  0.00     0.310 C 
ATOM     76  O   UNL A   1      30.407  26.219  26.476  1.00  0.00    -0.252 OA
BRANCH  75  77
ATOM     77  C   UNL A   1      31.805  26.611  24.517  1.00  0.00     0.116 C 
ATOM     78  C   UNL A   1      30.595  27.131  23.744  1.00  0.00     0.043 C 
ATOM     79  C   UNL A   1      32.430  25.333  23.948  1.00  0.00     0.097 C 
ATOM     80  C   UNL A   1      30.780  27.046  22.259  1.00  0.00    -0.030 C 
ATOM     81  C   UNL A   1      32.664  25.402  22.432  1.00  0.00     0.041 C 
ATOM     82  C   UNL A   1      31.714  26.283  21.676  1.00  0.00    -0.030 C 
BRANCH  79  83
ATOM     83  C   UNL A   1      31.623  24.106  24.357  1.00  0.00     0.229 C 
ATOM     84  O   UNL A   1      30.437  23.991  24.030  1.00  0.00    -0.274 OA
ATOM     85  N   UNL A   1      32.190  23.058  25.025  1.00  0.00    -0.317 N 
ATOM     86  H   UNL A   1      31.573  22.376  25.374  1.00  0.00     0.170 HD
BRANCH  85  87
ATOM     87  C   UNL A   1      33.531  22.851  25.263  1.00  0.00     0.108 A 
ATOM     88  S   UNL A   1      34.422  24.043  26.068  1.00  0.00    -0.122 S 
ATOM     89  C   UNL A   1      34.242  21.682  25.017  1.00  0.00     0.078 A 
ATOM     90  C   UNL A   1      35.863  23.190  25.823  1.00  0.00     0.011 A 
ATOM     91  C   UNL A   1      35.651  21.911  25.326  1.00  0.00    -0.019 A 
ATOM     92  C   UNL A   1      37.190  23.805  26.151  1.00  0.00     0.047 C 
ATOM     93  C   UNL A   1      36.821  21.001  25.081  1.00  0.00     0.037 C 
ATOM     94  C   UNL A   1      38.324  23.008  25.497  1.00  0.00     0.006 C 
ATOM     95  C   UNL A   1      38.127  21.508  25.714  1.00  0.00     0.005 C 
BRANCH  89  96
ATOM     96  C   UNL A   1      33.552  20.549  24.364  1.00  0.00     0.257 C 
ATOM     97  O   UNL A   1      32.724  20.723  23.468  1.00  0.00    -0.269 OA
ATOM     98  N   UNL A   1      33.934  19.262  24.702  1.00  0.00    -0.339 N 
ATOM     99  C   UNL A   1      34.122  18.316  23.609  1.00  0.00     0.120 C 
ATOM    100  C   UNL A   1      33.519  18.705  25.983  1.00  0.00     0.120 C 
ATOM    101  C   UNL A   1      32.939  17.365  23.449  1.00  0.00     0.022 C 
ATOM    102  C   UNL A   1      32.324  17.765  25.838  1.00  0.00     0.022 C 
ATOM    103  C   UNL A   1      32.603  16.701  24.781  1.00  0.00     0.004 C 
ENDBRANCH  89  96
ENDBRANCH  85  87
ENDBRANCH  79  83
ENDBRANCH  75  77
ENDBRANCH  74  75
ENDBRANCH  73  74
ENDBRANCH  72  73
ENDBRANCH   1  72
TORSDOF 20
ENDMDL
MODEL 2
REMARK VINA RESULT:     -11.6      0.590      7.396
REMARK SMILES O=C(OCCOCCOC(=O)[C@@H]1CC=CC[C@@H]1C(=O)Nc1sc2c(c1C(=O)N1CCCCC1)CCCC2)c1ccc(-c2c3nc(c(-c4cccc(S(=O)(=O)[O-])c4F)c4ccc([nH]4)c(-c4cccc(S(=O)(=O)[O-])c4F)c4nc(c(-c5cccc(S(=O)(=O)[O-])c5F)c5ccc2[nH]5)C=C4)C=C3)cc1
REMARK SMILES IDX 6 1 5 2 4 3 3 4 2 5 1 6 38 7 39 8 100 9 40 10 99 11 41 12
REMARK SMILES IDX 42 13 43 14 93 15 44 16 98 17 92 18 94 19 45 20 97 21 91 22
REMARK SMILES IDX 90 23 46 25 78 26 58 27 77 28 59 29 62 30 76 31 95 32 60 33
REMARK SMILES IDX 61 34 75 36 96 37 63 38 47 39 48 40 56 41 49 42 51 43 57 44
REMARK SMILES IDX 50 45 52 46 53 47 54 48 55 49 79 50 80 51 88 52 81 53 83 54
REMARK SMILES IDX 89 55 82 56 84 57 85 58 86 59 87 60 64 61 65 62 73 63 66 64
REMARK SMILES IDX 68 65 74 66 67 67 69 68 70 69 71 70 72 71 7 72 8 73 9 74
REMARK SMILES IDX 10 75 11 76 12 77 13 78 17 79 14 80 16 81 15 82 18 83 19 84
REMARK SMILES IDX 20 85 21 87 22 88 25 89 23 90 24 91 37 92 34 93 36 94 35 95
REMARK SMILES IDX 26 96 27 97 28 98 29 99 33 100 30 101 32 102 31 103
REMARK H PARENT 94 24 62 35 20 86
REMARK Flexibility Score: inf
ROOT
ATOM      1  O   UNL A   1      31.530  30.707  26.509  1.00  0.00    -0.374 OA
ENDROOT
BRANCH   1   2
ATOM      2  C   UNL A   1      31.408  32.111  26.709  1.00  0.00     0.202 C 
BRANCH   2   3
ATOM      3  C   UNL A   1      32.699  32.792  27.153  1.00  0.00     0.261 C 
BRANCH   3   4
ATOM      4  O   UNL A   1      32.383  34.004  27.858  1.00  0.00    -0.460 OA
BRANCH   4   5
ATOM      5  C   UNL A   1      33.145  34.658  28.766  1.00  0.00     0.338 C 
ATOM      6  O   UNL A   1      32.830  35.803  29.084  1.00  0.00    -0.246 OA
BRANCH   5   7
ATOM      7  C   UNL A   1      34.326  34.036  29.430  1.00  0.00     0.060 A 
ATOM      8  C   UNL A   1      35.655  34.325  29.112  1.00  0.00     0.016 A 
ATOM      9  C   UNL A   1      34.075  33.173  30.506  1.00  0.00     0.016 A 
ATOM     10  C   UNL A   1      36.708  33.718  29.772  1.00  0.00     0.010 A 
ATOM     11  C   UNL A   1      35.132  32.595  31.215  1.00  0.00     0.010 A 
ATOM     12  C   UNL A   1      36.452  32.856  30.831  1.00  0.00    -0.014 A 
BRANCH  12  13
ATOM     13  C   UNL A   1      37.601  32.187  31.457  1.00  0.00     0.031 A 
ATOM     14  C   UNL A   1      38.005  32.611  32.833  1.00  0.00     0.074 A 
ATOM     15  C   UNL A   1      38.173  31.143  30.831  1.00  0.00     0.049 A 
ATOM     16  N   UNL A   1      38.997  32.191  33.565  1.00  0.00    -0.248 NA
ATOM     17  C   UNL A   1      37.167  33.638  33.479  1.00  0.00     0.031 C 
ATOM     18  C   UNL A   1      37.753  30.609  29.532  1.00  0.00     0.029 A 
ATOM     19  N   UNL A   1      39.208  30.333  31.205  1.00  0.00    -0.354 N 
ATOM     20  C   UNL A   1      38.941  32.939  34.733  1.00  0.00     0.074 A 
ATOM     21  C   UNL A   1      37.803  33.823  34.626  1.00  0.00     0.031 C 
ATOM     22  C   UNL A   1      38.519  29.552  29.223  1.00  0.00     0.029 A 
ATOM     23  C   UNL A   1      39.523  29.379  30.265  1.00  0.00     0.049 A 
ATOM     24  H   UNL A   1      39.683  30.424  32.063  1.00  0.00     0.167 HD
ATOM     25  C   UNL A   1      39.777  32.887  35.793  1.00  0.00     0.034 A 
ATOM     26  C   UNL A   1      40.537  28.495  30.245  1.00  0.00     0.034 A 
ATOM     27  C   UNL A   1      40.889  31.983  35.867  1.00  0.00     0.049 A 
ATOM     28  C   UNL A   1      41.481  28.494  31.417  1.00  0.00     0.074 A 
ATOM     29  C   UNL A   1      41.844  31.864  36.858  1.00  0.00     0.029 A 
ATOM     30  N   UNL A   1      41.192  31.036  34.896  1.00  0.00    -0.354 N 
ATOM     31  N   UNL A   1      41.427  29.209  32.517  1.00  0.00    -0.248 NA
ATOM     32  C   UNL A   1      42.617  27.568  31.353  1.00  0.00     0.031 C 
ATOM     33  C   UNL A   1      42.737  30.857  36.472  1.00  0.00     0.029 A 
ATOM     34  C   UNL A   1      42.322  30.330  35.257  1.00  0.00     0.049 A 
ATOM     35  H   UNL A   1      40.675  30.890  34.070  1.00  0.00     0.167 HD
ATOM     36  C   UNL A   1      42.509  28.807  33.287  1.00  0.00     0.074 A 
ATOM     37  C   UNL A   1      43.185  27.765  32.536  1.00  0.00     0.031 C 
ATOM     38  C   UNL A   1      42.927  29.267  34.493  1.00  0.00     0.034 A 
BRANCH  25  39
ATOM     39  C   UNL A   1      39.528  33.861  36.912  1.00  0.00     0.023 A 
ATOM     40  C   UNL A   1      39.921  35.207  36.778  1.00  0.00     0.012 A 
ATOM     41  C   UNL A   1      38.926  33.431  38.110  1.00  0.00     0.148 A 
ATOM     42  C   UNL A   1      39.754  36.103  37.836  1.00  0.00     0.002 A 
ATOM     43  C   UNL A   1      38.729  34.337  39.145  1.00  0.00     0.091 A 
ATOM     44  F   UNL A   1      38.587  32.140  38.228  1.00  0.00    -0.205 F 
ATOM     45  C   UNL A   1      39.153  35.670  39.015  1.00  0.00     0.022 A 
BRANCH  43  46
ATOM     46  S   UNL A   1      37.923  33.888  40.687  1.00  0.00     0.127 S 
ATOM     47  O   UNL A   1      36.741  33.174  40.204  1.00  0.00    -0.237 OA
ATOM     48  O   UNL A   1      38.930  33.039  41.323  1.00  0.00    -0.237 OA
ATOM     49  O   UNL A   1      37.654  35.139  41.381  1.00  0.00    -0.744 OA
ENDBRANCH  43  46
ENDBRANCH  25  39
BRANCH  26  50
ATOM     50  C   UNL A   1      40.705  27.563  29.093  1.00  0.00     0.023 A 
ATOM     51  C   UNL A   1      39.963  26.367  29.045  1.00  0.00     0.012 A 
ATOM     52  C   UNL A   1      41.576  27.867  28.026  1.00  0.00     0.148 A 
ATOM     53  C   UNL A   1      40.102  25.483  27.973  1.00  0.00     0.002 A 
ATOM     54  C   UNL A   1      41.669  27.010  26.935  1.00  0.00     0.091 A 
ATOM     55  F   UNL A   1      42.296  28.995  28.094  1.00  0.00    -0.205 F 
ATOM     56  C   UNL A   1      40.944  25.809  26.912  1.00  0.00     0.022 A 
BRANCH  54  57
ATOM     57  S   UNL A   1      42.635  27.418  25.474  1.00  0.00     0.127 S 
ATOM     58  O   UNL A   1      42.463  26.220  24.657  1.00  0.00    -0.237 OA
ATOM     59  O   UNL A   1      41.947  28.608  24.974  1.00  0.00    -0.237 OA
ATOM     60  O   UNL A   1      43.985  27.669  25.959  1.00  0.00    -0.744 OA
ENDBRANCH  54  57
ENDBRANCH  26  50
BRANCH  38  61
ATOM     61  C   UNL A   1      44.152  28.626  35.080  1.00  0.00     0.023 A 
ATOM     62  C   UNL A   1      45.428  29.086  34.704  1.00  0.00     0.012 A 
ATOM     63  C   UNL A   1      44.030  27.637  36.074  1.00  0.00     0.148 A 
ATOM     64  C   UNL A   1      46.570  28.551  35.294  1.00  0.00     0.002 A 
ATOM     65  C   UNL A   1      45.170  27.145  36.693  1.00  0.00     0.091 A 
ATOM     66  F   UNL A   1      42.803  27.200  36.397  1.00  0.00    -0.205 F 
ATOM     67  C   UNL A   1      46.442  27.593  36.297  1.00  0.00     0.022 A 
BRANCH  65  68
ATOM     68  S   UNL A   1      45.088  25.993  38.067  1.00  0.00     0.127 S 
ATOM     69  O   UNL A   1      44.011  26.564  38.872  1.00  0.00    -0.237 OA
ATOM     70  O   UNL A   1      44.751  24.736  37.399  1.00  0.00    -0.237 OA
ATOM     71  O   UNL A   1      46.409  26.011  38.683  1.00  0.00    -0.744 OA
ENDBRANCH  65  68
ENDBRANCH  38  61
ENDBRANCH  12  13
ENDBRANCH   5   7
ENDBRANCH   4   5
ENDBRANCH   3   4
ENDBRANCH   2   3
ENDBRANCH   1   2
BRANCH   1  72
ATOM     72  C   UNL A   1      32.639  30.051  27.137  1.00  0.00     0.202 C 
BRANCH  72  73
ATOM     73  C   UNL A   1      33.110  28.911  26.228  1.00  0.00     0.261 C 
BRANCH  73  74
ATOM     74  O   UNL A   1      32.727  27.679  26.854  1.00  0.00    -0.463 OA
BRANCH  74  75
ATOM     75  C   UNL A   1      31.654  27.057  26.270  1.00  0.00     0.310 C 
ATOM     76  O   UNL A   1      30.642  26.694  26.857  1.00  0.00    -0.252 OA
BRANCH  75  77
ATOM     77  C   UNL A   1      31.817  27.102  24.760  1.00  0.00     0.116 C 
ATOM     78  C   UNL A   1      30.590  27.708  24.082  1.00  0.00     0.043 C 
ATOM     79  C   UNL A   1      32.264  25.751  24.193  1.00  0.00     0.097 C 
ATOM     80  C   UNL A   1      30.620  27.552  22.591  1.00  0.00    -0.030 C 
ATOM     81  C   UNL A   1      32.353  25.743  22.660  1.00  0.00     0.041 C 
ATOM     82  C   UNL A   1      31.418  26.683  21.957  1.00  0.00    -0.030 C 
BRANCH  79  83
ATOM     83  C   UNL A   1      31.392  24.622  24.730  1.00  0.00     0.229 C 
ATOM     84  O   UNL A   1      30.178  24.598  24.504  1.00  0.00    -0.274 OA
ATOM     85  N   UNL A   1      31.921  23.561  25.408  1.00  0.00    -0.317 N 
ATOM     86  H   UNL A   1      31.279  22.954  25.842  1.00  0.00     0.170 HD
BRANCH  85  87
ATOM     87  C   UNL A   1      33.254  23.247  25.552  1.00  0.00     0.108 A 
ATOM     88  S   UNL A   1      34.327  24.428  26.116  1.00  0.00    -0.122 S 
ATOM     89  C   UNL A   1      33.828  21.990  25.395  1.00  0.00     0.078 A 
ATOM     90  C   UNL A   1      35.652  23.408  25.856  1.00  0.00     0.011 A 
ATOM     91  C   UNL A   1      35.275  22.108  25.547  1.00  0.00    -0.019 A 
ATOM     92  C   UNL A   1      37.056  23.918  25.984  1.00  0.00     0.047 C 
ATOM     93  C   UNL A   1      36.327  21.060  25.318  1.00  0.00     0.037 C 
ATOM     94  C   UNL A   1      38.041  22.936  25.340  1.00  0.00     0.006 C 
ATOM     95  C   UNL A   1      37.731  21.501  25.764  1.00  0.00     0.005 C 
BRANCH  89  96
ATOM     96  C   UNL A   1      32.975  20.864  24.957  1.00  0.00     0.257 C 
ATOM     97  O   UNL A   1      31.794  20.773  25.301  1.00  0.00    -0.269 OA
ATOM     98  N   UNL A   1      33.497  19.957  24.051  1.00  0.00    -0.339 N 
ATOM     99  C   UNL A   1      32.643  19.567  22.935  1.00  0.00     0.120 C 
ATOM    100  C   UNL A   1      34.468  18.970  24.505  1.00  0.00     0.120 C 
ATOM    101  C   UNL A   1      31.998  18.199  23.143  1.00  0.00     0.022 C 
ATOM    102  C   UNL A   1      33.831  17.602  24.733  1.00  0.00     0.022 C 
ATOM    103  C   UNL A   1      33.055  17.157  23.496  1.00  0.00     0.004 C 
ENDBRANCH  89  96
ENDBRANCH  85  87
ENDBRANCH  79  83
ENDBRANCH  75  77
ENDBRANCH  74  75
ENDBRANCH  73  74
ENDBRANCH  72  73
ENDBRANCH   1  72
TORSDOF 20
ENDMDL
MODEL 3
REMARK VINA RESULT:     -10.5      1.866      7.468
REMARK SMILES O=C(OCCOCCOC(=O)[C@@H]1CC=CC[C@@H]1C(=O)Nc1sc2c(c1C(=O)N1CCCCC1)CCCC2)c1ccc(-c2c3nc(c(-c4cccc(S(=O)(=O)[O-])c4F)c4ccc([nH]4)c(-c4cccc(S(=O)(=O)[O-])c4F)c4nc(c(-c5cccc(S(=O)(=O)[O-])c5F)c5ccc2[nH]5)C=C4)C=C3)cc1
REMARK SMILES IDX 6 1 5 2 4 3 3 4 2 5 1 6 38 7 39 8 100 9 40 10 99 11 41 12
REMARK SMILES IDX 42 13 43 14 93 15 44 16 98 17 92 18 94 19 45 20 97 21 91 22
REMARK SMILES IDX 90 23 46 25 78 26 58 27 77 28 59 29 62 30 76 31 95 32 60 33
REMARK SMILES IDX 61 34 75 36 96 37 63 38 47 39 48 40 56 41 49 42 51 43 57 44
REMARK SMILES IDX 50 45 52 46 53 47 54 48 55 49 79 50 80 51 88 52 81 53 83 54
REMARK SMILES IDX 89 55 82 56 84 57 85 58 86 59 87 60 64 61 65 62 73 63 66 64
REMARK SMILES IDX 68 65 74 66 67 67 69 68 70 69 71 70 72 71 7 72 8 73 9 74
REMARK SMILES IDX 10 75 11 76 12 77 13 78 17 79 14 80 16 81 15 82 18 83 19 84
REMARK SMILES IDX 20 85 21 87 22 88 25 89 23 90 24 91 37 92 34 93 36 94 35 95
REMARK SMILES IDX 26 96 27 97 28 98 29 99 33 100 30 101 32 102 31 103
REMARK H PARENT 94 24 62 35 20 86
REMARK Flexibility Score: inf
ROOT
ATOM      1  O   UNL A   1      31.804  30.277  27.156  1.00  0.00    -0.374 OA
ENDROOT
BRANCH   1   2
ATOM      2  C   UNL A   1      31.665  31.612  26.679  1.00  0.00     0.202 C 
BRANCH   2   3
ATOM      3  C   UNL A   1      32.876  32.500  26.948  1.00  0.00     0.261 C 
BRANCH   3   4
ATOM      4  O   UNL A   1      32.467  33.649  27.707  1.00  0.00    -0.460 OA
BRANCH   4   5
ATOM      5  C   UNL A   1      33.183  34.330  28.632  1.00  0.00     0.338 C 
ATOM      6  O   UNL A   1      32.785  35.437  28.988  1.00  0.00    -0.246 OA
BRANCH   5   7
ATOM      7  C   UNL A   1      34.411  33.779  29.272  1.00  0.00     0.060 A 
ATOM      8  C   UNL A   1      35.679  34.356  29.176  1.00  0.00     0.016 A 
ATOM      9  C   UNL A   1      34.255  32.656  30.097  1.00  0.00     0.016 A 
ATOM     10  C   UNL A   1      36.780  33.798  29.801  1.00  0.00     0.010 A 
ATOM     11  C   UNL A   1      35.350  32.115  30.775  1.00  0.00     0.010 A 
ATOM     12  C   UNL A   1      36.620  32.679  30.608  1.00  0.00    -0.014 A 
BRANCH  12  13
ATOM     13  C   UNL A   1      37.829  32.087  31.197  1.00  0.00     0.031 A 
ATOM     14  C   UNL A   1      38.093  32.311  32.652  1.00  0.00     0.074 A 
ATOM     15  C   UNL A   1      38.590  31.268  30.448  1.00  0.00     0.049 A 
ATOM     16  N   UNL A   1      39.102  31.918  33.375  1.00  0.00    -0.248 NA
ATOM     17  C   UNL A   1      37.072  33.070  33.398  1.00  0.00     0.031 C 
ATOM     18  C   UNL A   1      38.323  30.920  29.050  1.00  0.00     0.029 A 
ATOM     19  N   UNL A   1      39.721  30.566  30.757  1.00  0.00    -0.354 N 
ATOM     20  C   UNL A   1      38.871  32.427  34.646  1.00  0.00     0.074 A 
ATOM     21  C   UNL A   1      37.614  33.139  34.604  1.00  0.00     0.031 C 
ATOM     22  C   UNL A   1      39.262  30.060  28.624  1.00  0.00     0.029 A 
ATOM     23  C   UNL A   1      40.229  29.854  29.695  1.00  0.00     0.049 A 
ATOM     24  H   UNL A   1      40.133  30.571  31.651  1.00  0.00     0.167 HD
ATOM     25  C   UNL A   1      39.652  32.310  35.742  1.00  0.00     0.034 A 
ATOM     26  C   UNL A   1      41.370  29.147  29.602  1.00  0.00     0.034 A 
ATOM     27  C   UNL A   1      40.889  31.582  35.745  1.00  0.00     0.049 A 
ATOM     28  C   UNL A   1      42.244  29.075  30.825  1.00  0.00     0.074 A 
ATOM     29  C   UNL A   1      41.801  31.430  36.771  1.00  0.00     0.029 A 
ATOM     30  N   UNL A   1      41.386  30.881  34.653  1.00  0.00    -0.354 N 
ATOM     31  N   UNL A   1      42.024  29.565  32.024  1.00  0.00    -0.248 NA
ATOM     32  C   UNL A   1      43.515  28.355  30.691  1.00  0.00     0.031 C 
ATOM     33  C   UNL A   1      42.861  30.652  36.289  1.00  0.00     0.029 A 
ATOM     34  C   UNL A   1      42.595  30.296  34.974  1.00  0.00     0.049 A 
ATOM     35  H   UNL A   1      40.939  30.810  33.778  1.00  0.00     0.167 HD
ATOM     36  C   UNL A   1      43.117  29.197  32.794  1.00  0.00     0.074 A 
ATOM     37  C   UNL A   1      43.986  28.418  31.930  1.00  0.00     0.031 C 
ATOM     38  C   UNL A   1      43.397  29.489  34.089  1.00  0.00     0.034 A 
BRANCH  25  39
ATOM     39  C   UNL A   1      39.197  33.020  36.987  1.00  0.00     0.023 A 
ATOM     40  C   UNL A   1      39.747  34.271  37.330  1.00  0.00     0.012 A 
ATOM     41  C   UNL A   1      38.240  32.429  37.835  1.00  0.00     0.148 A 
ATOM     42  C   UNL A   1      39.380  34.906  38.517  1.00  0.00     0.002 A 
ATOM     43  C   UNL A   1      37.852  33.085  38.997  1.00  0.00     0.091 A 
ATOM     44  F   UNL A   1      37.752  31.225  37.506  1.00  0.00    -0.205 F 
ATOM     45  C   UNL A   1      38.429  34.317  39.346  1.00  0.00     0.022 A 
BRANCH  43  46
ATOM     46  S   UNL A   1      36.601  32.430  40.108  1.00  0.00     0.127 S 
ATOM     47  O   UNL A   1      36.521  33.485  41.118  1.00  0.00    -0.237 OA
ATOM     48  O   UNL A   1      35.433  32.336  39.232  1.00  0.00    -0.237 OA
ATOM     49  O   UNL A   1      37.111  31.152  40.581  1.00  0.00    -0.744 OA
ENDBRANCH  43  46
ENDBRANCH  25  39
BRANCH  26  50
ATOM     50  C   UNL A   1      41.740  28.473  28.325  1.00  0.00     0.023 A 
ATOM     51  C   UNL A   1      42.339  29.216  27.289  1.00  0.00     0.012 A 
ATOM     52  C   UNL A   1      41.532  27.090  28.138  1.00  0.00     0.148 A 
ATOM     53  C   UNL A   1      42.698  28.603  26.086  1.00  0.00     0.002 A 
ATOM     54  C   UNL A   1      41.942  26.475  26.960  1.00  0.00     0.091 A 
ATOM     55  F   UNL A   1      40.939  26.398  29.121  1.00  0.00    -0.205 F 
ATOM     56  C   UNL A   1      42.512  27.232  25.926  1.00  0.00     0.022 A 
BRANCH  54  57
ATOM     57  S   UNL A   1      41.851  24.695  26.727  1.00  0.00     0.127 S 
ATOM     58  O   UNL A   1      40.408  24.470  26.700  1.00  0.00    -0.237 OA
ATOM     59  O   UNL A   1      42.525  24.519  25.440  1.00  0.00    -0.237 OA
ATOM     60  O   UNL A   1      42.564  24.117  27.857  1.00  0.00    -0.744 OA
ENDBRANCH  54  57
ENDBRANCH  26  50
BRANCH  38  61
ATOM     61  C   UNL A   1      44.678  28.942  34.650  1.00  0.00     0.023 A 
ATOM     62  C   UNL A   1      44.692  27.664  35.241  1.00  0.00     0.012 A 
ATOM     63  C   UNL A   1      45.882  29.657  34.503  1.00  0.00     0.148 A 
ATOM     64  C   UNL A   1      45.886  27.114  35.700  1.00  0.00     0.002 A 
ATOM     65  C   UNL A   1      47.074  29.080  34.916  1.00  0.00     0.091 A 
ATOM     66  F   UNL A   1      45.837  30.881  33.957  1.00  0.00    -0.205 F 
ATOM     67  C   UNL A   1      47.077  27.814  35.525  1.00  0.00     0.022 A 
BRANCH  65  68
ATOM     68  S   UNL A   1      48.663  29.865  34.629  1.00  0.00     0.127 S 
ATOM     69  O   UNL A   1      49.441  29.390  35.771  1.00  0.00    -0.237 OA
ATOM     70  O   UNL A   1      49.062  29.298  33.340  1.00  0.00    -0.237 OA
ATOM     71  O   UNL A   1      48.401  31.298  34.600  1.00  0.00    -0.744 OA
ENDBRANCH  65  68
ENDBRANCH  38  61
ENDBRANCH  12  13
ENDBRANCH   5   7
ENDBRANCH   4   5
ENDBRANCH   3   4
ENDBRANCH   2   3
ENDBRANCH   1   2
BRANCH   1  72
ATOM     72  C   UNL A   1      33.127  29.726  27.178  1.00  0.00     0.202 C 
BRANCH  72  73
ATOM     73  C   UNL A   1      33.220  28.637  26.104  1.00  0.00     0.261 C 
BRANCH  73  74
ATOM     74  O   UNL A   1      32.827  27.400  26.714  1.00  0.00    -0.463 OA
BRANCH  74  75
ATOM     75  C   UNL A   1      31.727  26.813  26.144  1.00  0.00     0.310 C 
ATOM     76  O   UNL A   1      30.721  26.462  26.747  1.00  0.00    -0.252 OA
BRANCH  75  77
ATOM     77  C   UNL A   1      31.859  26.881  24.631  1.00  0.00     0.116 C 
ATOM     78  C   UNL A   1      30.626  27.516  23.991  1.00  0.00     0.043 C 
ATOM     79  C   UNL A   1      32.273  25.534  24.031  1.00  0.00     0.097 C 
ATOM     80  C   UNL A   1      30.621  27.385  22.497  1.00  0.00    -0.030 C 
ATOM     81  C   UNL A   1      32.329  25.551  22.497  1.00  0.00     0.041 C 
ATOM     82  C   UNL A   1      31.392  26.516  21.831  1.00  0.00    -0.030 C 
BRANCH  79  83
ATOM     83  C   UNL A   1      31.397  24.408  24.569  1.00  0.00     0.229 C 
ATOM     84  O   UNL A   1      30.186  24.379  24.328  1.00  0.00    -0.274 OA
ATOM     85  N   UNL A   1      31.920  23.355  25.264  1.00  0.00    -0.317 N 
ATOM     86  H   UNL A   1      31.274  22.751  25.695  1.00  0.00     0.170 HD
BRANCH  85  87
ATOM     87  C   UNL A   1      33.252  23.045  25.427  1.00  0.00     0.108 A 
ATOM     88  S   UNL A   1      34.321  24.243  25.960  1.00  0.00    -0.122 S 
ATOM     89  C   UNL A   1      33.826  21.784  25.315  1.00  0.00     0.078 A 
ATOM     90  C   UNL A   1      35.647  23.215  25.743  1.00  0.00     0.011 A 
ATOM     91  C   UNL A   1      35.272  21.906  25.474  1.00  0.00    -0.019 A 
ATOM     92  C   UNL A   1      37.051  23.729  25.864  1.00  0.00     0.047 C 
ATOM     93  C   UNL A   1      36.326  20.851  25.286  1.00  0.00     0.037 C 
ATOM     94  C   UNL A   1      38.040  22.726  25.260  1.00  0.00     0.006 C 
ATOM     95  C   UNL A   1      37.726  21.306  25.727  1.00  0.00     0.005 C 
BRANCH  89  96
ATOM     96  C   UNL A   1      32.976  20.645  24.908  1.00  0.00     0.257 C 
ATOM     97  O   UNL A   1      31.804  20.545  25.279  1.00  0.00    -0.269 OA
ATOM     98  N   UNL A   1      33.486  19.734  23.999  1.00  0.00    -0.339 N 
ATOM     99  C   UNL A   1      32.612  19.324  22.906  1.00  0.00     0.120 C 
ATOM    100  C   UNL A   1      34.479  18.763  24.439  1.00  0.00     0.120 C 
ATOM    101  C   UNL A   1      31.987  17.951  23.142  1.00  0.00     0.022 C 
ATOM    102  C   UNL A   1      33.862  17.389  24.696  1.00  0.00     0.022 C 
ATOM    103  C   UNL A   1      33.063  16.924  23.481  1.00  0.00     0.004 C 
ENDBRANCH  89  96
ENDBRANCH  85  87
ENDBRANCH  79  83
ENDBRANCH  75  77
ENDBRANCH  74  75
ENDBRANCH  73  74
ENDBRANCH  72  73
ENDBRANCH   1  72
TORSDOF 20
ENDMDL
