MODEL 1
REMARK VINA RESULT:     -11.8      0.000      0.000
REMARK SMILES [NH3+]C1(C(=O)N2[C@@H](C(=O)OCCOCCOC(=O)c3ccc(-c4c5nc(c(-c6cccc(S(=O)(=O)[O-])c6F)c6ccc([nH]6)c(-c6cccc(S(=O)(=O)[O-])c6F)c6nc(c(-c7cccc(S(=O)(=O)[O-])c7F)c7ccc4[nH]7)C=C6)C=C5)cc3)CC[C@@H]3CCCC[C@@H]32)CC1
REMARK SMILES IDX 12 1 11 2 10 3 9 4 7 5 8 6 6 7 5 8 88 9 81 10 83 11 87 12
REMARK SMILES IDX 82 13 84 14 86 15 85 16 3 17 4 18 2 19 89 20 90 21 1 22
REMARK SMILES IDX 13 26 14 27 15 28 16 29 17 30 18 31 19 32 80 33 20 34 79 35
REMARK SMILES IDX 21 36 22 37 23 38 73 39 24 40 78 41 72 42 74 43 25 44 77 45
REMARK SMILES IDX 71 46 70 47 26 49 58 50 38 51 57 52 39 53 42 54 56 55 75 56
REMARK SMILES IDX 40 57 41 58 55 60 76 61 43 62 27 63 28 64 36 65 29 66 31 67
REMARK SMILES IDX 37 68 30 69 32 70 33 71 34 72 35 73 59 74 60 75 68 76 61 77
REMARK SMILES IDX 63 78 69 79 62 80 64 81 65 82 66 83 67 84 44 85 45 86 53 87
REMARK SMILES IDX 46 88 48 89 54 90 47 91 49 92 50 93 51 94 52 95
REMARK H PARENT 1 23 1 24 1 25 74 48 42 59
REMARK Flexibility Score: inf
ROOT
ATOM      1  O   UNL A   1      35.701  22.984  22.585  1.00  0.00    -0.374 OA
ENDROOT
BRANCH   1   2
ATOM      2  C   UNL A   1      34.422  22.926  23.221  1.00  0.00     0.202 C 
BRANCH   2   3
ATOM      3  C   UNL A   1      33.216  23.058  22.288  1.00  0.00     0.261 C 
BRANCH   3   4
ATOM      4  O   UNL A   1      32.572  24.331  22.459  1.00  0.00    -0.462 OA
BRANCH   4   5
ATOM      5  C   UNL A   1      31.512  24.341  23.304  1.00  0.00     0.328 C 
ATOM      6  O   UNL A   1      30.558  23.570  23.254  1.00  0.00    -0.250 OA
BRANCH   5   7
ATOM      7  C   UNL A   1      31.626  25.451  24.342  1.00  0.00     0.195 C 
ATOM      8  N   UNL A   1      32.212  25.106  25.647  1.00  0.00    -0.320 N 
ATOM      9  C   UNL A   1      32.537  26.286  26.484  1.00  0.00     0.089 C 
ATOM     10  C   UNL A   1      30.358  26.301  24.487  1.00  0.00     0.037 C 
ATOM     11  C   UNL A   1      31.348  27.280  26.586  1.00  0.00     0.012 C 
ATOM     12  C   UNL A   1      33.857  26.923  26.013  1.00  0.00     0.025 C 
ATOM     13  C   UNL A   1      30.716  27.592  25.220  1.00  0.00     0.008 C 
ATOM     14  C   UNL A   1      31.764  28.556  27.321  1.00  0.00     0.006 C 
ATOM     15  C   UNL A   1      34.146  28.344  26.493  1.00  0.00     0.002 C 
ATOM     16  C   UNL A   1      32.936  29.255  26.648  1.00  0.00     0.000 C 
BRANCH   8  17
ATOM     17  C   UNL A   1      31.637  24.027  26.336  1.00  0.00     0.284 C 
ATOM     18  O   UNL A   1      30.529  24.121  26.861  1.00  0.00    -0.268 OA
BRANCH  17  19
ATOM     19  C   UNL A   1      32.485  22.761  26.542  1.00  0.00     0.174 C 
ATOM     20  C   UNL A   1      33.055  22.519  27.930  1.00  0.00     0.086 C 
ATOM     21  C   UNL A   1      33.980  22.749  26.782  1.00  0.00     0.086 C 
BRANCH  19  22
ATOM     22  N   UNL A   1      31.907  21.563  25.886  1.00  0.00    -0.345 N 
ATOM     23  H   UNL A   1      32.258  20.722  26.345  1.00  0.00     0.345 HD
ATOM     24  H   UNL A   1      32.175  21.550  24.902  1.00  0.00     0.345 HD
ATOM     25  H   UNL A   1      30.890  21.591  25.962  1.00  0.00     0.345 HD
ENDBRANCH  19  22
ENDBRANCH  17  19
ENDBRANCH   8  17
ENDBRANCH   5   7
ENDBRANCH   4   5
ENDBRANCH   3   4
ENDBRANCH   2   3
ENDBRANCH   1   2
BRANCH   1  26
ATOM     26  C   UNL A   1      36.845  22.839  23.426  1.00  0.00     0.202 C 
BRANCH  26  27
ATOM     27  C   UNL A   1      36.920  21.545  24.241  1.00  0.00     0.261 C 
BRANCH  27  28
ATOM     28  O   UNL A   1      37.307  21.813  25.599  1.00  0.00    -0.460 OA
BRANCH  28  29
ATOM     29  C   UNL A   1      38.620  21.623  25.844  1.00  0.00     0.338 C 
ATOM     30  O   UNL A   1      39.346  20.775  25.326  1.00  0.00    -0.246 OA
BRANCH  29  31
ATOM     31  C   UNL A   1      39.160  22.693  26.701  1.00  0.00     0.060 A 
ATOM     32  C   UNL A   1      38.446  23.896  26.725  1.00  0.00     0.016 A 
ATOM     33  C   UNL A   1      40.363  22.567  27.403  1.00  0.00     0.016 A 
ATOM     34  C   UNL A   1      38.982  25.010  27.358  1.00  0.00     0.010 A 
ATOM     35  C   UNL A   1      40.900  23.691  28.044  1.00  0.00     0.010 A 
ATOM     36  C   UNL A   1      40.242  24.930  27.966  1.00  0.00    -0.014 A 
BRANCH  36  37
ATOM     37  C   UNL A   1      40.916  26.197  28.335  1.00  0.00     0.031 A 
ATOM     38  C   UNL A   1      42.302  26.465  27.808  1.00  0.00     0.074 A 
ATOM     39  C   UNL A   1      40.266  27.138  29.043  1.00  0.00     0.049 A 
ATOM     40  N   UNL A   1      43.019  27.555  27.885  1.00  0.00    -0.248 NA
ATOM     41  C   UNL A   1      42.965  25.361  27.094  1.00  0.00     0.031 C 
ATOM     42  C   UNL A   1      38.925  26.992  29.607  1.00  0.00     0.029 A 
ATOM     43  N   UNL A   1      40.648  28.405  29.401  1.00  0.00    -0.354 N 
ATOM     44  C   UNL A   1      44.221  27.265  27.247  1.00  0.00     0.074 A 
ATOM     45  C   UNL A   1      44.146  25.890  26.809  1.00  0.00     0.031 C 
ATOM     46  C   UNL A   1      38.598  28.128  30.247  1.00  0.00     0.029 A 
ATOM     47  C   UNL A   1      39.706  29.075  30.142  1.00  0.00     0.049 A 
ATOM     48  H   UNL A   1      41.517  28.797  29.151  1.00  0.00     0.167 HD
ATOM     49  C   UNL A   1      45.280  28.078  27.023  1.00  0.00     0.034 A 
ATOM     50  C   UNL A   1      39.734  30.314  30.672  1.00  0.00     0.034 A 
ATOM     51  C   UNL A   1      45.344  29.452  27.439  1.00  0.00     0.049 A 
ATOM     52  C   UNL A   1      40.923  31.200  30.402  1.00  0.00     0.074 A 
ATOM     53  C   UNL A   1      46.355  30.371  27.227  1.00  0.00     0.029 A 
ATOM     54  N   UNL A   1      44.354  30.106  28.158  1.00  0.00    -0.354 N 
ATOM     55  N   UNL A   1      41.995  30.950  29.688  1.00  0.00    -0.248 NA
ATOM     56  C   UNL A   1      40.884  32.553  30.972  1.00  0.00     0.031 C 
ATOM     57  C   UNL A   1      45.987  31.576  27.836  1.00  0.00     0.029 A 
ATOM     58  C   UNL A   1      44.734  31.414  28.405  1.00  0.00     0.049 A 
ATOM     59  H   UNL A   1      43.508  29.699  28.451  1.00  0.00     0.167 HD
ATOM     60  C   UNL A   1      42.739  32.126  29.693  1.00  0.00     0.074 A 
ATOM     61  C   UNL A   1      41.981  33.093  30.460  1.00  0.00     0.031 C 
ATOM     62  C   UNL A   1      43.946  32.379  29.126  1.00  0.00     0.034 A 
BRANCH  49  63
ATOM     63  C   UNL A   1      46.450  27.506  26.264  1.00  0.00     0.023 A 
ATOM     64  C   UNL A   1      46.528  27.684  24.868  1.00  0.00     0.012 A 
ATOM     65  C   UNL A   1      47.493  26.839  26.935  1.00  0.00     0.148 A 
ATOM     66  C   UNL A   1      47.611  27.182  24.147  1.00  0.00     0.002 A 
ATOM     67  C   UNL A   1      48.590  26.378  26.216  1.00  0.00     0.091 A 
ATOM     68  F   UNL A   1      47.387  26.655  28.258  1.00  0.00    -0.205 F 
ATOM     69  C   UNL A   1      48.646  26.540  24.821  1.00  0.00     0.022 A 
BRANCH  67  70
ATOM     70  S   UNL A   1      50.007  25.605  27.004  1.00  0.00     0.127 S 
ATOM     71  O   UNL A   1      50.968  25.559  25.902  1.00  0.00    -0.237 OA
ATOM     72  O   UNL A   1      50.334  26.564  28.059  1.00  0.00    -0.237 OA
ATOM     73  O   UNL A   1      49.543  24.311  27.483  1.00  0.00    -0.744 OA
ENDBRANCH  67  70
ENDBRANCH  49  63
BRANCH  50  74
ATOM     74  C   UNL A   1      38.573  30.811  31.460  1.00  0.00     0.023 A 
ATOM     75  C   UNL A   1      38.575  30.686  32.864  1.00  0.00     0.012 A 
ATOM     76  C   UNL A   1      37.475  31.425  30.827  1.00  0.00     0.148 A 
ATOM     77  C   UNL A   1      37.492  31.138  33.618  1.00  0.00     0.002 A 
ATOM     78  C   UNL A   1      36.426  31.922  31.589  1.00  0.00     0.091 A 
ATOM     79  F   UNL A   1      37.484  31.515  29.490  1.00  0.00    -0.205 F 
ATOM     80  C   UNL A   1      36.423  31.765  32.984  1.00  0.00     0.022 A 
BRANCH  78  81
ATOM     81  S   UNL A   1      35.074  32.857  30.865  1.00  0.00     0.127 S 
ATOM     82  O   UNL A   1      34.121  32.910  31.971  1.00  0.00    -0.237 OA
ATOM     83  O   UNL A   1      35.724  34.131  30.550  1.00  0.00    -0.237 OA
ATOM     84  O   UNL A   1      34.652  32.094  29.698  1.00  0.00    -0.744 OA
ENDBRANCH  78  81
ENDBRANCH  50  74
BRANCH  62  85
ATOM     85  C   UNL A   1      44.509  33.768  29.285  1.00  0.00     0.023 A 
ATOM     86  C   UNL A   1      45.393  34.050  30.346  1.00  0.00     0.012 A 
ATOM     87  C   UNL A   1      44.203  34.781  28.355  1.00  0.00     0.148 A 
ATOM     88  C   UNL A   1      45.928  35.328  30.502  1.00  0.00     0.002 A 
ATOM     89  C   UNL A   1      44.779  36.039  28.489  1.00  0.00     0.091 A 
ATOM     90  F   UNL A   1      43.345  34.502  27.362  1.00  0.00    -0.205 F 
ATOM     91  C   UNL A   1      45.630  36.318  29.570  1.00  0.00     0.022 A 
BRANCH  89  92
ATOM     92  S   UNL A   1      44.522  37.338  27.276  1.00  0.00     0.127 S 
ATOM     93  O   UNL A   1      43.209  36.989  26.737  1.00  0.00    -0.237 OA
ATOM     94  O   UNL A   1      44.539  38.548  28.101  1.00  0.00    -0.237 OA
ATOM     95  O   UNL A   1      45.636  37.234  26.343  1.00  0.00    -0.744 OA
ENDBRANCH  89  92
ENDBRANCH  62  85
ENDBRANCH  36  37
ENDBRANCH  29  31
ENDBRANCH  28  29
ENDBRANCH  27  28
ENDBRANCH  26  27
ENDBRANCH   1  26
TORSDOF 20
ENDMDL
MODEL 2
REMARK VINA RESULT:     -11.6      0.731      7.753
REMARK SMILES [NH3+]C1(C(=O)N2[C@@H](C(=O)OCCOCCOC(=O)c3ccc(-c4c5nc(c(-c6cccc(S(=O)(=O)[O-])c6F)c6ccc([nH]6)c(-c6cccc(S(=O)(=O)[O-])c6F)c6nc(c(-c7cccc(S(=O)(=O)[O-])c7F)c7ccc4[nH]7)C=C6)C=C5)cc3)CC[C@@H]3CCCC[C@@H]32)CC1
REMARK SMILES IDX 12 1 11 2 10 3 9 4 7 5 8 6 6 7 5 8 88 9 81 10 83 11 87 12
REMARK SMILES IDX 82 13 84 14 86 15 85 16 3 17 4 18 2 19 89 20 90 21 1 22
REMARK SMILES IDX 13 26 14 27 15 28 16 29 17 30 18 31 19 32 80 33 20 34 79 35
REMARK SMILES IDX 21 36 22 37 23 38 73 39 24 40 78 41 72 42 74 43 25 44 77 45
REMARK SMILES IDX 71 46 70 47 26 49 58 50 38 51 57 52 39 53 42 54 56 55 75 56
REMARK SMILES IDX 40 57 41 58 55 60 76 61 43 62 27 63 28 64 36 65 29 66 31 67
REMARK SMILES IDX 37 68 30 69 32 70 33 71 34 72 35 73 59 74 60 75 68 76 61 77
REMARK SMILES IDX 63 78 69 79 62 80 64 81 65 82 66 83 67 84 44 85 45 86 53 87
REMARK SMILES IDX 46 88 48 89 54 90 47 91 49 92 50 93 51 94 52 95
REMARK H PARENT 1 23 1 24 1 25 74 48 42 59
REMARK Flexibility Score: inf
ROOT
ATOM      1  O   UNL A   1      35.902  22.933  22.709  1.00  0.00    -0.374 OA
ENDROOT
BRANCH   1   2
ATOM      2  C   UNL A   1      34.528  23.034  23.089  1.00  0.00     0.202 C 
BRANCH   2   3
ATOM      3  C   UNL A   1      33.924  24.437  23.013  1.00  0.00     0.261 C 
BRANCH   3   4
ATOM      4  O   UNL A   1      32.576  24.391  22.519  1.00  0.00    -0.462 OA
BRANCH   4   5
ATOM      5  C   UNL A   1      31.609  24.318  23.468  1.00  0.00     0.328 C 
ATOM      6  O   UNL A   1      30.748  23.446  23.537  1.00  0.00    -0.250 OA
BRANCH   5   7
ATOM      7  C   UNL A   1      31.698  25.475  24.456  1.00  0.00     0.195 C 
ATOM      8  N   UNL A   1      32.344  25.216  25.753  1.00  0.00    -0.320 N 
ATOM      9  C   UNL A   1      32.633  26.444  26.530  1.00  0.00     0.089 C 
ATOM     10  C   UNL A   1      30.392  26.264  24.612  1.00  0.00     0.037 C 
ATOM     11  C   UNL A   1      31.397  27.379  26.634  1.00  0.00     0.012 C 
ATOM     12  C   UNL A   1      33.902  27.128  25.989  1.00  0.00     0.025 C 
ATOM     13  C   UNL A   1      30.705  27.601  25.279  1.00  0.00     0.008 C 
ATOM     14  C   UNL A   1      31.769  28.704  27.303  1.00  0.00     0.006 C 
ATOM     15  C   UNL A   1      34.131  28.580  26.401  1.00  0.00     0.002 C 
ATOM     16  C   UNL A   1      32.880  29.434  26.562  1.00  0.00     0.000 C 
BRANCH   8  17
ATOM     17  C   UNL A   1      31.850  24.138  26.504  1.00  0.00     0.284 C 
ATOM     18  O   UNL A   1      30.820  24.240  27.167  1.00  0.00    -0.268 OA
BRANCH  17  19
ATOM     19  C   UNL A   1      32.701  22.860  26.590  1.00  0.00     0.174 C 
ATOM     20  C   UNL A   1      33.413  22.582  27.904  1.00  0.00     0.086 C 
ATOM     21  C   UNL A   1      34.213  22.831  26.670  1.00  0.00     0.086 C 
BRANCH  19  22
ATOM     22  N   UNL A   1      32.046  21.682  25.972  1.00  0.00    -0.345 N 
ATOM     23  H   UNL A   1      31.890  21.861  24.981  1.00  0.00     0.345 HD
ATOM     24  H   UNL A   1      31.151  21.510  26.431  1.00  0.00     0.345 HD
ATOM     25  H   UNL A   1      32.646  20.864  26.079  1.00  0.00     0.345 HD
ENDBRANCH  19  22
ENDBRANCH  17  19
ENDBRANCH   8  17
ENDBRANCH   5   7
ENDBRANCH   4   5
ENDBRANCH   3   4
ENDBRANCH   2   3
ENDBRANCH   1   2
BRANCH   1  26
ATOM     26  C   UNL A   1      36.857  22.840  23.766  1.00  0.00     0.202 C 
BRANCH  26  27
ATOM     27  C   UNL A   1      37.062  21.446  24.365  1.00  0.00     0.261 C 
BRANCH  27  28
ATOM     28  O   UNL A   1      37.359  21.527  25.769  1.00  0.00    -0.460 OA
BRANCH  28  29
ATOM     29  C   UNL A   1      38.667  21.375  26.064  1.00  0.00     0.338 C 
ATOM     30  O   UNL A   1      39.390  20.437  25.726  1.00  0.00    -0.246 OA
BRANCH  29  31
ATOM     31  C   UNL A   1      39.209  22.583  26.711  1.00  0.00     0.060 A 
ATOM     32  C   UNL A   1      38.541  23.785  26.451  1.00  0.00     0.016 A 
ATOM     33  C   UNL A   1      40.373  22.570  27.486  1.00  0.00     0.016 A 
ATOM     34  C   UNL A   1      39.090  24.990  26.869  1.00  0.00     0.010 A 
ATOM     35  C   UNL A   1      40.924  23.786  27.910  1.00  0.00     0.010 A 
ATOM     36  C   UNL A   1      40.317  25.001  27.546  1.00  0.00    -0.014 A 
BRANCH  36  37
ATOM     37  C   UNL A   1      41.023  26.297  27.682  1.00  0.00     0.031 A 
ATOM     38  C   UNL A   1      40.348  27.419  28.427  1.00  0.00     0.074 A 
ATOM     39  C   UNL A   1      42.284  26.440  27.238  1.00  0.00     0.049 A 
ATOM     40  N   UNL A   1      40.828  28.580  28.786  1.00  0.00    -0.248 NA
ATOM     41  C   UNL A   1      38.947  27.201  28.827  1.00  0.00     0.031 C 
ATOM     42  C   UNL A   1      43.039  25.428  26.502  1.00  0.00     0.029 A 
ATOM     43  N   UNL A   1      43.152  27.496  27.349  1.00  0.00    -0.354 N 
ATOM     44  C   UNL A   1      39.789  29.237  29.437  1.00  0.00     0.074 A 
ATOM     45  C   UNL A   1      38.644  28.355  29.403  1.00  0.00     0.031 C 
ATOM     46  C   UNL A   1      44.260  25.916  26.223  1.00  0.00     0.029 A 
ATOM     47  C   UNL A   1      44.369  27.273  26.754  1.00  0.00     0.049 A 
ATOM     48  H   UNL A   1      42.924  28.335  27.812  1.00  0.00     0.167 HD
ATOM     49  C   UNL A   1      39.794  30.453  30.032  1.00  0.00     0.034 A 
ATOM     50  C   UNL A   1      45.449  28.072  26.653  1.00  0.00     0.034 A 
ATOM     51  C   UNL A   1      40.940  31.319  30.085  1.00  0.00     0.049 A 
ATOM     52  C   UNL A   1      45.431  29.418  27.329  1.00  0.00     0.074 A 
ATOM     53  C   UNL A   1      41.060  32.554  30.697  1.00  0.00     0.029 A 
ATOM     54  N   UNL A   1      42.166  31.043  29.499  1.00  0.00    -0.354 N 
ATOM     55  N   UNL A   1      44.482  29.969  28.049  1.00  0.00    -0.248 NA
ATOM     56  C   UNL A   1      46.649  30.233  27.218  1.00  0.00     0.031 C 
ATOM     57  C   UNL A   1      42.353  33.035  30.462  1.00  0.00     0.029 A 
ATOM     58  C   UNL A   1      43.046  32.087  29.727  1.00  0.00     0.049 A 
ATOM     59  H   UNL A   1      42.378  30.226  28.993  1.00  0.00     0.167 HD
ATOM     60  C   UNL A   1      45.002  31.176  28.506  1.00  0.00     0.074 A 
ATOM     61  C   UNL A   1      46.357  31.261  28.002  1.00  0.00     0.031 C 
ATOM     62  C   UNL A   1      44.408  32.134  29.262  1.00  0.00     0.034 A 
BRANCH  49  63
ATOM     63  C   UNL A   1      38.524  30.907  30.702  1.00  0.00     0.023 A 
ATOM     64  C   UNL A   1      38.356  30.703  32.087  1.00  0.00     0.012 A 
ATOM     65  C   UNL A   1      37.520  31.579  29.977  1.00  0.00     0.148 A 
ATOM     66  C   UNL A   1      37.197  31.133  32.734  1.00  0.00     0.002 A 
ATOM     67  C   UNL A   1      36.387  32.042  30.636  1.00  0.00     0.091 A 
ATOM     68  F   UNL A   1      37.686  31.740  28.657  1.00  0.00    -0.205 F 
ATOM     69  C   UNL A   1      36.220  31.811  32.012  1.00  0.00     0.022 A 
BRANCH  67  70
ATOM     70  S   UNL A   1      35.108  32.992  29.807  1.00  0.00     0.127 S 
ATOM     71  O   UNL A   1      35.897  34.017  29.125  1.00  0.00    -0.237 OA
ATOM     72  O   UNL A   1      34.508  31.994  28.921  1.00  0.00    -0.237 OA
ATOM     73  O   UNL A   1      34.226  33.479  30.858  1.00  0.00    -0.744 OA
ENDBRANCH  67  70
ENDBRANCH  49  63
BRANCH  50  74
ATOM     74  C   UNL A   1      46.661  27.594  25.931  1.00  0.00     0.023 A 
ATOM     75  C   UNL A   1      46.808  27.863  24.556  1.00  0.00     0.012 A 
ATOM     76  C   UNL A   1      47.679  26.893  26.607  1.00  0.00     0.148 A 
ATOM     77  C   UNL A   1      47.933  27.416  23.861  1.00  0.00     0.002 A 
ATOM     78  C   UNL A   1      48.821  26.500  25.921  1.00  0.00     0.091 A 
ATOM     79  F   UNL A   1      47.510  26.632  27.910  1.00  0.00    -0.205 F 
ATOM     80  C   UNL A   1      48.943  26.745  24.544  1.00  0.00     0.022 A 
BRANCH  78  81
ATOM     81  S   UNL A   1      50.226  25.747  26.750  1.00  0.00     0.127 S 
ATOM     82  O   UNL A   1      51.207  25.677  25.670  1.00  0.00    -0.237 OA
ATOM     83  O   UNL A   1      50.524  26.733  27.791  1.00  0.00    -0.237 OA
ATOM     84  O   UNL A   1      49.743  24.469  27.253  1.00  0.00    -0.744 OA
ENDBRANCH  78  81
ENDBRANCH  50  74
BRANCH  62  85
ATOM     85  C   UNL A   1      45.231  33.344  29.621  1.00  0.00     0.023 A 
ATOM     86  C   UNL A   1      46.001  33.346  30.801  1.00  0.00     0.012 A 
ATOM     87  C   UNL A   1      45.282  34.461  28.763  1.00  0.00     0.148 A 
ATOM     88  C   UNL A   1      46.772  34.456  31.144  1.00  0.00     0.002 A 
ATOM     89  C   UNL A   1      46.092  35.544  29.087  1.00  0.00     0.091 A 
ATOM     90  F   UNL A   1      44.528  34.453  27.654  1.00  0.00    -0.205 F 
ATOM     91  C   UNL A   1      46.826  35.549  30.283  1.00  0.00     0.022 A 
BRANCH  89  92
ATOM     92  S   UNL A   1      46.290  36.947  27.984  1.00  0.00     0.127 S 
ATOM     93  O   UNL A   1      47.062  37.872  28.812  1.00  0.00    -0.237 OA
ATOM     94  O   UNL A   1      47.034  36.367  26.865  1.00  0.00    -0.237 OA
ATOM     95  O   UNL A   1      44.940  37.379  27.646  1.00  0.00    -0.744 OA
ENDBRANCH  89  92
ENDBRANCH  62  85
ENDBRANCH  36  37
ENDBRANCH  29  31
ENDBRANCH  28  29
ENDBRANCH  27  28
ENDBRANCH  26  27
ENDBRANCH   1  26
TORSDOF 20
ENDMDL
MODEL 3
REMARK VINA RESULT:     -11.4      1.688      2.663
REMARK SMILES [NH3+]C1(C(=O)N2[C@@H](C(=O)OCCOCCOC(=O)c3ccc(-c4c5nc(c(-c6cccc(S(=O)(=O)[O-])c6F)c6ccc([nH]6)c(-c6cccc(S(=O)(=O)[O-])c6F)c6nc(c(-c7cccc(S(=O)(=O)[O-])c7F)c7ccc4[nH]7)C=C6)C=C5)cc3)CC[C@@H]3CCCC[C@@H]32)CC1
REMARK SMILES IDX 12 1 11 2 10 3 9 4 7 5 8 6 6 7 5 8 88 9 81 10 83 11 87 12
REMARK SMILES IDX 82 13 84 14 86 15 85 16 3 17 4 18 2 19 89 20 90 21 1 22
REMARK SMILES IDX 13 26 14 27 15 28 16 29 17 30 18 31 19 32 80 33 20 34 79 35
REMARK SMILES IDX 21 36 22 37 23 38 73 39 24 40 78 41 72 42 74 43 25 44 77 45
REMARK SMILES IDX 71 46 70 47 26 49 58 50 38 51 57 52 39 53 42 54 56 55 75 56
REMARK SMILES IDX 40 57 41 58 55 60 76 61 43 62 27 63 28 64 36 65 29 66 31 67
REMARK SMILES IDX 37 68 30 69 32 70 33 71 34 72 35 73 59 74 60 75 68 76 61 77
REMARK SMILES IDX 63 78 69 79 62 80 64 81 65 82 66 83 67 84 44 85 45 86 53 87
REMARK SMILES IDX 46 88 48 89 54 90 47 91 49 92 50 93 51 94 52 95
REMARK H PARENT 1 23 1 24 1 25 74 48 42 59
REMARK Flexibility Score: inf
ROOT
ATOM      1  O   UNL A   1      35.380  21.495  25.139  1.00  0.00    -0.374 OA
ENDROOT
BRANCH   1   2
ATOM      2  C   UNL A   1      35.212  22.091  26.428  1.00  0.00     0.202 C 
BRANCH   2   3
ATOM      3  C   UNL A   1      33.783  22.086  26.975  1.00  0.00     0.261 C 
BRANCH   3   4
ATOM      4  O   UNL A   1      33.315  23.425  27.201  1.00  0.00    -0.462 OA
BRANCH   4   5
ATOM      5  C   UNL A   1      32.015  23.650  26.885  1.00  0.00     0.328 C 
ATOM      6  O   UNL A   1      31.053  23.355  27.589  1.00  0.00    -0.250 OA
BRANCH   5   7
ATOM      7  C   UNL A   1      31.871  24.312  25.520  1.00  0.00     0.195 C 
ATOM      8  N   UNL A   1      32.013  25.775  25.454  1.00  0.00    -0.320 N 
ATOM      9  C   UNL A   1      32.134  26.299  24.072  1.00  0.00     0.089 C 
ATOM     10  C   UNL A   1      30.670  23.813  24.709  1.00  0.00     0.037 C 
ATOM     11  C   UNL A   1      31.029  25.744  23.133  1.00  0.00     0.012 C 
ATOM     12  C   UNL A   1      33.569  26.096  23.552  1.00  0.00     0.025 C 
ATOM     13  C   UNL A   1      30.861  24.220  23.250  1.00  0.00     0.008 C 
ATOM     14  C   UNL A   1      31.274  26.176  21.686  1.00  0.00     0.006 C 
ATOM     15  C   UNL A   1      33.779  26.216  22.045  1.00  0.00     0.002 C 
ATOM     16  C   UNL A   1      32.633  25.726  21.170  1.00  0.00     0.000 C 
BRANCH   8  17
ATOM     17  C   UNL A   1      31.195  26.531  26.308  1.00  0.00     0.284 C 
ATOM     18  O   UNL A   1      29.995  26.293  26.420  1.00  0.00    -0.268 OA
BRANCH  17  19
ATOM     19  C   UNL A   1      31.807  27.760  27.002  1.00  0.00     0.174 C 
ATOM     20  C   UNL A   1      31.835  29.063  26.219  1.00  0.00     0.086 C 
ATOM     21  C   UNL A   1      33.118  28.410  26.612  1.00  0.00     0.086 C 
BRANCH  19  22
ATOM     22  N   UNL A   1      31.395  27.892  28.420  1.00  0.00    -0.345 N 
ATOM     23  H   UNL A   1      30.840  27.080  28.689  1.00  0.00     0.345 HD
ATOM     24  H   UNL A   1      30.838  28.738  28.536  1.00  0.00     0.345 HD
ATOM     25  H   UNL A   1      32.225  27.947  29.011  1.00  0.00     0.345 HD
ENDBRANCH  19  22
ENDBRANCH  17  19
ENDBRANCH   8  17
ENDBRANCH   5   7
ENDBRANCH   4   5
ENDBRANCH   3   4
ENDBRANCH   2   3
ENDBRANCH   1   2
BRANCH   1  26
ATOM     26  C   UNL A   1      36.143  20.290  25.082  1.00  0.00     0.202 C 
BRANCH  26  27
ATOM     27  C   UNL A   1      37.562  20.419  24.522  1.00  0.00     0.261 C 
BRANCH  27  28
ATOM     28  O   UNL A   1      38.236  21.557  25.083  1.00  0.00    -0.460 OA
BRANCH  28  29
ATOM     29  C   UNL A   1      39.234  21.240  25.935  1.00  0.00     0.338 C 
ATOM     30  O   UNL A   1      39.863  20.182  25.965  1.00  0.00    -0.246 OA
BRANCH  29  31
ATOM     31  C   UNL A   1      39.630  22.406  26.745  1.00  0.00     0.060 A 
ATOM     32  C   UNL A   1      38.995  23.617  26.450  1.00  0.00     0.016 A 
ATOM     33  C   UNL A   1      40.641  22.350  27.710  1.00  0.00     0.016 A 
ATOM     34  C   UNL A   1      39.439  24.795  27.036  1.00  0.00     0.010 A 
ATOM     35  C   UNL A   1      41.084  23.538  28.303  1.00  0.00     0.010 A 
ATOM     36  C   UNL A   1      40.528  24.770  27.918  1.00  0.00    -0.014 A 
BRANCH  36  37
ATOM     37  C   UNL A   1      41.173  26.060  28.261  1.00  0.00     0.031 A 
ATOM     38  C   UNL A   1      42.554  26.346  27.733  1.00  0.00     0.074 A 
ATOM     39  C   UNL A   1      40.499  27.002  28.945  1.00  0.00     0.049 A 
ATOM     40  N   UNL A   1      43.248  27.453  27.789  1.00  0.00    -0.248 NA
ATOM     41  C   UNL A   1      43.244  25.241  27.046  1.00  0.00     0.031 C 
ATOM     42  C   UNL A   1      39.160  26.839  29.508  1.00  0.00     0.029 A 
ATOM     43  N   UNL A   1      40.852  28.285  29.276  1.00  0.00    -0.354 N 
ATOM     44  C   UNL A   1      44.457  27.176  27.162  1.00  0.00     0.074 A 
ATOM     45  C   UNL A   1      44.415  25.789  26.754  1.00  0.00     0.031 C 
ATOM     46  C   UNL A   1      38.805  27.981  30.120  1.00  0.00     0.029 A 
ATOM     47  C   UNL A   1      39.892  28.950  29.998  1.00  0.00     0.049 A 
ATOM     48  H   UNL A   1      41.713  28.690  29.020  1.00  0.00     0.167 HD
ATOM     49  C   UNL A   1      45.500  28.006  26.923  1.00  0.00     0.034 A 
ATOM     50  C   UNL A   1      39.891  30.201  30.500  1.00  0.00     0.034 A 
ATOM     51  C   UNL A   1      45.532  29.391  27.308  1.00  0.00     0.049 A 
ATOM     52  C   UNL A   1      41.061  31.106  30.215  1.00  0.00     0.074 A 
ATOM     53  C   UNL A   1      46.524  30.327  27.080  1.00  0.00     0.029 A 
ATOM     54  N   UNL A   1      44.525  30.038  28.009  1.00  0.00    -0.354 N 
ATOM     55  N   UNL A   1      42.141  30.865  29.511  1.00  0.00    -0.248 NA
ATOM     56  C   UNL A   1      40.990  32.471  30.755  1.00  0.00     0.031 C 
ATOM     57  C   UNL A   1      46.127  31.536  27.661  1.00  0.00     0.029 A 
ATOM     58  C   UNL A   1      44.875  31.359  28.229  1.00  0.00     0.049 A 
ATOM     59  H   UNL A   1      43.687  29.620  28.308  1.00  0.00     0.167 HD
ATOM     60  C   UNL A   1      42.860  32.056  29.492  1.00  0.00     0.074 A 
ATOM     61  C   UNL A   1      42.078  33.024  30.235  1.00  0.00     0.031 C 
ATOM     62  C   UNL A   1      44.063  32.323  28.925  1.00  0.00     0.034 A 
BRANCH  49  63
ATOM     63  C   UNL A   1      46.685  27.443  26.182  1.00  0.00     0.023 A 
ATOM     64  C   UNL A   1      46.771  27.602  24.784  1.00  0.00     0.012 A 
ATOM     65  C   UNL A   1      47.734  26.804  26.870  1.00  0.00     0.148 A 
ATOM     66  C   UNL A   1      47.868  27.108  24.078  1.00  0.00     0.002 A 
ATOM     67  C   UNL A   1      48.845  26.352  26.166  1.00  0.00     0.091 A 
ATOM     68  F   UNL A   1      47.622  26.639  28.196  1.00  0.00    -0.205 F 
ATOM     69  C   UNL A   1      48.908  26.494  24.770  1.00  0.00     0.022 A 
BRANCH  67  70
ATOM     70  S   UNL A   1      50.268  25.615  26.976  1.00  0.00     0.127 S 
ATOM     71  O   UNL A   1      50.615  26.644  27.956  1.00  0.00    -0.237 OA
ATOM     72  O   UNL A   1      49.700  24.395  27.550  1.00  0.00    -0.237 OA
ATOM     73  O   UNL A   1      51.254  25.391  25.929  1.00  0.00    -0.744 OA
ENDBRANCH  67  70
ENDBRANCH  49  63
BRANCH  50  74
ATOM     74  C   UNL A   1      38.716  30.690  31.273  1.00  0.00     0.023 A 
ATOM     75  C   UNL A   1      38.702  30.569  32.677  1.00  0.00     0.012 A 
ATOM     76  C   UNL A   1      37.620  31.292  30.625  1.00  0.00     0.148 A 
ATOM     77  C   UNL A   1      37.606  31.013  33.417  1.00  0.00     0.002 A 
ATOM     78  C   UNL A   1      36.557  31.782  31.372  1.00  0.00     0.091 A 
ATOM     79  F   UNL A   1      37.645  31.379  29.288  1.00  0.00    -0.205 F 
ATOM     80  C   UNL A   1      36.539  31.629  32.767  1.00  0.00     0.022 A 
BRANCH  78  81
ATOM     81  S   UNL A   1      35.206  32.703  30.629  1.00  0.00     0.127 S 
ATOM     82  O   UNL A   1      34.231  32.731  31.716  1.00  0.00    -0.237 OA
ATOM     83  O   UNL A   1      35.843  33.989  30.338  1.00  0.00    -0.237 OA
ATOM     84  O   UNL A   1      34.820  31.944  29.448  1.00  0.00    -0.744 OA
ENDBRANCH  78  81
ENDBRANCH  50  74
BRANCH  62  85
ATOM     85  C   UNL A   1      44.596  33.727  29.055  1.00  0.00     0.023 A 
ATOM     86  C   UNL A   1      44.290  34.688  28.071  1.00  0.00     0.012 A 
ATOM     87  C   UNL A   1      45.358  34.108  30.177  1.00  0.00     0.148 A 
ATOM     88  C   UNL A   1      44.770  35.993  28.180  1.00  0.00     0.002 A 
ATOM     89  C   UNL A   1      45.791  35.422  30.304  1.00  0.00     0.091 A 
ATOM     90  F   UNL A   1      45.657  33.177  31.095  1.00  0.00    -0.205 F 
ATOM     91  C   UNL A   1      45.511  36.362  29.300  1.00  0.00     0.022 A 
BRANCH  89  92
ATOM     92  S   UNL A   1      46.666  36.000  31.762  1.00  0.00     0.127 S 
ATOM     93  O   UNL A   1      45.675  35.779  32.814  1.00  0.00    -0.237 OA
ATOM     94  O   UNL A   1      47.821  35.102  31.814  1.00  0.00    -0.237 OA
ATOM     95  O   UNL A   1      47.003  37.393  31.495  1.00  0.00    -0.744 OA
ENDBRANCH  89  92
ENDBRANCH  62  85
ENDBRANCH  36  37
ENDBRANCH  29  31
ENDBRANCH  28  29
ENDBRANCH  27  28
ENDBRANCH  26  27
ENDBRANCH   1  26
TORSDOF 20
ENDMDL
