MODEL 1
REMARK VINA RESULT:     -11.8      0.000      0.000
REMARK SMILES C[C@H](NC(=O)c1cccc(NC(=O)c2ccccc2C(=O)OCCOCCOC(=O)c2ccc(-c3c4nc(c(-c5cccc(S(=O)(=O)[O-])c5F)c5ccc([nH]5)c(-c5cccc(S(=O)(=O)[O-])c5F)c5nc(c(-c6cccc(S(=O)(=O)[O-])c6F)c6ccc3[nH]6)C=C5)C=C4)cc2)c1)c1ccccc1
REMARK SMILES IDX 24 1 23 2 22 3 20 4 21 5 19 6 14 7 15 8 16 9 18 10 17 11
REMARK SMILES IDX 12 12 11 13 13 15 10 16 6 17 7 18 94 19 8 20 9 21 4 22 3 23
REMARK SMILES IDX 5 25 2 26 1 27 95 28 96 29 100 30 97 31 99 32 98 33 25 34
REMARK SMILES IDX 26 35 27 36 28 37 29 38 30 39 31 40 32 41 93 42 33 43 92 44
REMARK SMILES IDX 34 45 35 46 36 47 86 48 37 49 91 50 85 51 87 52 38 53 90 54
REMARK SMILES IDX 84 55 83 56 39 58 71 59 51 60 70 61 52 62 55 63 69 64 88 65
REMARK SMILES IDX 53 66 54 67 68 69 89 70 56 71 40 72 41 73 49 74 42 75 44 76
REMARK SMILES IDX 50 77 43 78 45 79 46 80 47 81 48 82 72 83 73 84 81 85 74 86
REMARK SMILES IDX 76 87 82 88 75 89 77 90 78 91 79 92 80 93 57 94 58 95 66 96
REMARK SMILES IDX 59 97 61 98 67 99 60 100 62 101 63 102 64 103 65 104
REMARK H PARENT 11 14 3 24 87 57 55 68
REMARK Flexibility Score: inf
ROOT
ATOM      1  C   UNL A   1      31.438  25.435  26.561  1.00  0.00     0.202 C 
ENDROOT
BRANCH   1   2
ATOM      2  C   UNL A   1      32.042  24.055  26.839  1.00  0.00     0.261 C 
BRANCH   2   3
ATOM      3  O   UNL A   1      32.618  23.325  25.768  1.00  0.00    -0.460 OA
BRANCH   3   4
ATOM      4  C   UNL A   1      31.717  22.637  25.044  1.00  0.00     0.339 C 
ATOM      5  O   UNL A   1      30.671  23.059  24.561  1.00  0.00    -0.246 OA
BRANCH   4   6
ATOM      6  C   UNL A   1      32.201  21.272  24.820  1.00  0.00     0.072 A 
ATOM      7  C   UNL A   1      32.404  20.708  23.552  1.00  0.00     0.054 A 
ATOM      8  C   UNL A   1      32.816  19.363  23.483  1.00  0.00     0.015 A 
ATOM      9  C   UNL A   1      33.074  18.625  24.644  1.00  0.00     0.001 A 
ATOM     10  C   UNL A   1      32.490  20.534  25.984  1.00  0.00     0.016 A 
ATOM     11  C   UNL A   1      32.924  19.214  25.894  1.00  0.00     0.001 A 
BRANCH   7  12
ATOM     12  C   UNL A   1      32.120  21.358  22.249  1.00  0.00     0.256 C 
ATOM     13  N   UNL A   1      32.559  22.607  21.852  1.00  0.00    -0.322 N 
ATOM     14  H   UNL A   1      32.223  22.867  20.964  1.00  0.00     0.170 HD
ATOM     15  O   UNL A   1      31.421  20.710  21.465  1.00  0.00    -0.269 OA
BRANCH  13  16
ATOM     16  C   UNL A   1      33.381  23.588  22.435  1.00  0.00     0.042 A 
ATOM     17  C   UNL A   1      33.530  25.893  23.230  1.00  0.00     0.041 A 
ATOM     18  C   UNL A   1      34.693  25.542  23.931  1.00  0.00     0.014 A 
ATOM     19  C   UNL A   1      32.918  24.924  22.425  1.00  0.00     0.040 A 
ATOM     20  C   UNL A   1      35.238  24.264  23.822  1.00  0.00     0.003 A 
ATOM     21  C   UNL A   1      34.591  23.296  23.060  1.00  0.00     0.026 A 
BRANCH  17  22
ATOM     22  C   UNL A   1      33.112  27.317  23.349  1.00  0.00     0.251 C 
ATOM     23  N   UNL A   1      31.826  27.789  23.300  1.00  0.00    -0.346 N 
ATOM     24  H   UNL A   1      31.778  28.729  23.590  1.00  0.00     0.164 HD
ATOM     25  O   UNL A   1      33.995  28.137  23.617  1.00  0.00    -0.269 OA
BRANCH  23  26
ATOM     26  C   UNL A   1      30.509  27.277  22.936  1.00  0.00     0.109 C 
ATOM     27  C   UNL A   1      29.857  26.355  23.941  1.00  0.00     0.036 C 
BRANCH  26  28
ATOM     28  C   UNL A   1      29.493  28.406  22.751  1.00  0.00    -0.026 A 
ATOM     29  C   UNL A   1      29.920  29.726  22.506  1.00  0.00     0.006 A 
ATOM     30  C   UNL A   1      28.145  28.182  23.069  1.00  0.00     0.006 A 
ATOM     31  C   UNL A   1      29.033  30.795  22.641  1.00  0.00     0.000 A 
ATOM     32  C   UNL A   1      27.261  29.255  23.197  1.00  0.00     0.000 A 
ATOM     33  C   UNL A   1      27.708  30.560  23.000  1.00  0.00     0.000 A 
ENDBRANCH  26  28
ENDBRANCH  23  26
ENDBRANCH  17  22
ENDBRANCH  13  16
ENDBRANCH   7  12
ENDBRANCH   4   6
ENDBRANCH   3   4
ENDBRANCH   2   3
ENDBRANCH   1   2
BRANCH   1  34
ATOM     34  O   UNL A   1      32.274  26.573  26.469  1.00  0.00    -0.374 OA
BRANCH  34  35
ATOM     35  C   UNL A   1      32.005  27.684  27.310  1.00  0.00     0.202 C 
BRANCH  35  36
ATOM     36  C   UNL A   1      31.735  29.065  26.694  1.00  0.00     0.261 C 
BRANCH  36  37
ATOM     37  O   UNL A   1      32.890  29.781  26.223  1.00  0.00    -0.460 OA
BRANCH  37  38
ATOM     38  C   UNL A   1      33.310  30.778  27.041  1.00  0.00     0.338 C 
ATOM     39  O   UNL A   1      32.630  31.690  27.487  1.00  0.00    -0.246 OA
BRANCH  38  40
ATOM     40  C   UNL A   1      34.714  30.590  27.454  1.00  0.00     0.060 A 
ATOM     41  C   UNL A   1      35.222  29.286  27.494  1.00  0.00     0.016 A 
ATOM     42  C   UNL A   1      35.453  31.652  27.977  1.00  0.00     0.016 A 
ATOM     43  C   UNL A   1      36.449  29.031  28.110  1.00  0.00     0.010 A 
ATOM     44  C   UNL A   1      36.680  31.393  28.600  1.00  0.00     0.010 A 
ATOM     45  C   UNL A   1      37.166  30.077  28.709  1.00  0.00    -0.014 A 
BRANCH  45  46
ATOM     46  C   UNL A   1      38.350  29.782  29.558  1.00  0.00     0.031 A 
ATOM     47  C   UNL A   1      39.388  28.801  29.071  1.00  0.00     0.074 A 
ATOM     48  C   UNL A   1      38.497  30.366  30.762  1.00  0.00     0.049 A 
ATOM     49  N   UNL A   1      40.470  28.376  29.671  1.00  0.00    -0.248 NA
ATOM     50  C   UNL A   1      39.179  28.222  27.734  1.00  0.00     0.031 C 
ATOM     51  C   UNL A   1      37.563  31.323  31.355  1.00  0.00     0.029 A 
ATOM     52  N   UNL A   1      39.473  30.212  31.715  1.00  0.00    -0.354 N 
ATOM     53  C   UNL A   1      41.052  27.457  28.805  1.00  0.00     0.074 A 
ATOM     54  C   UNL A   1      40.203  27.384  27.635  1.00  0.00     0.031 C 
ATOM     55  C   UNL A   1      37.992  31.641  32.588  1.00  0.00     0.029 A 
ATOM     56  C   UNL A   1      39.215  30.895  32.880  1.00  0.00     0.049 A 
ATOM     57  H   UNL A   1      40.279  29.664  31.579  1.00  0.00     0.167 HD
ATOM     58  C   UNL A   1      42.195  26.747  28.960  1.00  0.00     0.034 A 
ATOM     59  C   UNL A   1      39.875  30.898  34.057  1.00  0.00     0.034 A 
ATOM     60  C   UNL A   1      43.061  26.840  30.106  1.00  0.00     0.049 A 
ATOM     61  C   UNL A   1      41.138  30.089  34.204  1.00  0.00     0.074 A 
ATOM     62  C   UNL A   1      44.278  26.214  30.314  1.00  0.00     0.029 A 
ATOM     63  N   UNL A   1      42.799  27.590  31.239  1.00  0.00    -0.354 N 
ATOM     64  N   UNL A   1      41.752  29.345  33.317  1.00  0.00    -0.248 NA
ATOM     65  C   UNL A   1      41.820  30.147  35.508  1.00  0.00     0.031 C 
ATOM     66  C   UNL A   1      44.738  26.564  31.588  1.00  0.00     0.029 A 
ATOM     67  C   UNL A   1      43.822  27.431  32.158  1.00  0.00     0.049 A 
ATOM     68  H   UNL A   1      42.002  28.154  31.373  1.00  0.00     0.167 HD
ATOM     69  C   UNL A   1      42.907  28.881  33.941  1.00  0.00     0.074 A 
ATOM     70  C   UNL A   1      42.920  29.445  35.272  1.00  0.00     0.031 C 
ATOM     71  C   UNL A   1      43.862  28.049  33.457  1.00  0.00     0.034 A 
BRANCH  58  72
ATOM     72  C   UNL A   1      42.615  25.824  27.847  1.00  0.00     0.023 A 
ATOM     73  C   UNL A   1      43.693  26.183  27.014  1.00  0.00     0.012 A 
ATOM     74  C   UNL A   1      42.015  24.557  27.697  1.00  0.00     0.148 A 
ATOM     75  C   UNL A   1      44.158  25.303  26.037  1.00  0.00     0.002 A 
ATOM     76  C   UNL A   1      42.510  23.670  26.749  1.00  0.00     0.091 A 
ATOM     77  F   UNL A   1      40.981  24.243  28.490  1.00  0.00    -0.205 F 
ATOM     78  C   UNL A   1      43.575  24.044  25.913  1.00  0.00     0.022 A 
BRANCH  76  79
ATOM     79  S   UNL A   1      41.883  21.997  26.562  1.00  0.00     0.127 S 
ATOM     80  O   UNL A   1      42.597  21.546  25.368  1.00  0.00    -0.237 OA
ATOM     81  O   UNL A   1      42.318  21.364  27.808  1.00  0.00    -0.237 OA
ATOM     82  O   UNL A   1      40.440  22.120  26.412  1.00  0.00    -0.744 OA
ENDBRANCH  76  79
ENDBRANCH  58  72
BRANCH  59  83
ATOM     83  C   UNL A   1      39.369  31.714  35.198  1.00  0.00     0.023 A 
ATOM     84  C   UNL A   1      38.467  31.144  36.118  1.00  0.00     0.012 A 
ATOM     85  C   UNL A   1      39.762  33.055  35.366  1.00  0.00     0.148 A 
ATOM     86  C   UNL A   1      37.938  31.904  37.160  1.00  0.00     0.002 A 
ATOM     87  C   UNL A   1      39.277  33.790  36.441  1.00  0.00     0.091 A 
ATOM     88  F   UNL A   1      40.602  33.590  34.468  1.00  0.00    -0.205 F 
ATOM     89  C   UNL A   1      38.350  33.223  37.328  1.00  0.00     0.022 A 
BRANCH  87  90
ATOM     90  S   UNL A   1      39.866  35.448  36.802  1.00  0.00     0.127 S 
ATOM     91  O   UNL A   1      39.244  35.713  38.095  1.00  0.00    -0.237 OA
ATOM     92  O   UNL A   1      41.316  35.256  36.842  1.00  0.00    -0.237 OA
ATOM     93  O   UNL A   1      39.406  36.269  35.689  1.00  0.00    -0.744 OA
ENDBRANCH  87  90
ENDBRANCH  59  83
BRANCH  71  94
ATOM     94  C   UNL A   1      45.035  27.727  34.349  1.00  0.00     0.023 A 
ATOM     95  C   UNL A   1      46.211  28.500  34.268  1.00  0.00     0.012 A 
ATOM     96  C   UNL A   1      44.943  26.710  35.320  1.00  0.00     0.148 A 
ATOM     97  C   UNL A   1      47.288  28.243  35.116  1.00  0.00     0.002 A 
ATOM     98  C   UNL A   1      46.003  26.490  36.194  1.00  0.00     0.091 A 
ATOM     99  F   UNL A   1      43.823  25.972  35.371  1.00  0.00    -0.205 F 
ATOM    100  C   UNL A   1      47.180  27.248  36.085  1.00  0.00     0.022 A 
BRANCH  98 101
ATOM    101  S   UNL A   1      45.913  25.295  37.533  1.00  0.00     0.127 S 
ATOM    102  O   UNL A   1      47.223  25.454  38.162  1.00  0.00    -0.237 OA
ATOM    103  O   UNL A   1      44.791  25.800  38.326  1.00  0.00    -0.237 OA
ATOM    104  O   UNL A   1      45.673  24.005  36.902  1.00  0.00    -0.744 OA
ENDBRANCH  98 101
ENDBRANCH  71  94
ENDBRANCH  45  46
ENDBRANCH  38  40
ENDBRANCH  37  38
ENDBRANCH  36  37
ENDBRANCH  35  36
ENDBRANCH  34  35
ENDBRANCH   1  34
TORSDOF 22
ENDMDL
MODEL 2
REMARK VINA RESULT:     -11.8      1.533      7.359
REMARK SMILES C[C@H](NC(=O)c1cccc(NC(=O)c2ccccc2C(=O)OCCOCCOC(=O)c2ccc(-c3c4nc(c(-c5cccc(S(=O)(=O)[O-])c5F)c5ccc([nH]5)c(-c5cccc(S(=O)(=O)[O-])c5F)c5nc(c(-c6cccc(S(=O)(=O)[O-])c6F)c6ccc3[nH]6)C=C5)C=C4)cc2)c1)c1ccccc1
REMARK SMILES IDX 24 1 23 2 22 3 20 4 21 5 19 6 14 7 15 8 16 9 18 10 17 11
REMARK SMILES IDX 12 12 11 13 13 15 10 16 6 17 7 18 94 19 8 20 9 21 4 22 3 23
REMARK SMILES IDX 5 25 2 26 1 27 95 28 96 29 100 30 97 31 99 32 98 33 25 34
REMARK SMILES IDX 26 35 27 36 28 37 29 38 30 39 31 40 32 41 93 42 33 43 92 44
REMARK SMILES IDX 34 45 35 46 36 47 86 48 37 49 91 50 85 51 87 52 38 53 90 54
REMARK SMILES IDX 84 55 83 56 39 58 71 59 51 60 70 61 52 62 55 63 69 64 88 65
REMARK SMILES IDX 53 66 54 67 68 69 89 70 56 71 40 72 41 73 49 74 42 75 44 76
REMARK SMILES IDX 50 77 43 78 45 79 46 80 47 81 48 82 72 83 73 84 81 85 74 86
REMARK SMILES IDX 76 87 82 88 75 89 77 90 78 91 79 92 80 93 57 94 58 95 66 96
REMARK SMILES IDX 59 97 61 98 67 99 60 100 62 101 63 102 64 103 65 104
REMARK H PARENT 11 14 3 24 87 57 55 68
REMARK Flexibility Score: inf
ROOT
ATOM      1  C   UNL A   1      31.352  26.481  26.271  1.00  0.00     0.202 C 
ENDROOT
BRANCH   1   2
ATOM      2  C   UNL A   1      31.862  25.080  25.918  1.00  0.00     0.261 C 
BRANCH   2   3
ATOM      3  O   UNL A   1      30.937  24.102  25.471  1.00  0.00    -0.460 OA
BRANCH   3   4
ATOM      4  C   UNL A   1      30.760  23.094  26.344  1.00  0.00     0.339 C 
ATOM      5  O   UNL A   1      29.696  22.643  26.754  1.00  0.00    -0.246 OA
BRANCH   4   6
ATOM      6  C   UNL A   1      32.058  22.516  26.702  1.00  0.00     0.072 A 
ATOM      7  C   UNL A   1      32.774  21.626  25.888  1.00  0.00     0.054 A 
ATOM      8  C   UNL A   1      33.982  21.101  26.383  1.00  0.00     0.015 A 
ATOM      9  C   UNL A   1      34.490  21.498  27.625  1.00  0.00     0.001 A 
ATOM     10  C   UNL A   1      32.587  22.935  27.938  1.00  0.00     0.016 A 
ATOM     11  C   UNL A   1      33.798  22.425  28.397  1.00  0.00     0.001 A 
BRANCH   7  12
ATOM     12  C   UNL A   1      32.328  21.085  24.580  1.00  0.00     0.256 C 
ATOM     13  N   UNL A   1      32.425  21.727  23.360  1.00  0.00    -0.322 N 
ATOM     14  H   UNL A   1      32.032  21.208  22.622  1.00  0.00     0.170 HD
ATOM     15  O   UNL A   1      31.821  19.960  24.607  1.00  0.00    -0.269 OA
BRANCH  13  16
ATOM     16  C   UNL A   1      32.964  22.957  22.939  1.00  0.00     0.042 A 
ATOM     17  C   UNL A   1      32.484  25.167  22.017  1.00  0.00     0.041 A 
ATOM     18  C   UNL A   1      33.758  25.582  22.433  1.00  0.00     0.014 A 
ATOM     19  C   UNL A   1      32.121  23.829  22.212  1.00  0.00     0.040 A 
ATOM     20  C   UNL A   1      34.649  24.683  23.015  1.00  0.00     0.003 A 
ATOM     21  C   UNL A   1      34.257  23.369  23.250  1.00  0.00     0.026 A 
BRANCH  17  22
ATOM     22  C   UNL A   1      31.669  26.197  21.316  1.00  0.00     0.251 C 
ATOM     23  N   UNL A   1      31.257  27.396  21.838  1.00  0.00    -0.346 N 
ATOM     24  H   UNL A   1      30.899  27.988  21.136  1.00  0.00     0.164 HD
ATOM     25  O   UNL A   1      31.427  25.998  20.121  1.00  0.00    -0.269 OA
BRANCH  23  26
ATOM     26  C   UNL A   1      31.207  28.033  23.149  1.00  0.00     0.109 C 
ATOM     27  C   UNL A   1      32.277  29.065  23.426  1.00  0.00     0.036 C 
BRANCH  26  28
ATOM     28  C   UNL A   1      29.894  28.790  23.361  1.00  0.00    -0.026 A 
ATOM     29  C   UNL A   1      28.657  28.183  23.072  1.00  0.00     0.006 A 
ATOM     30  C   UNL A   1      29.924  30.172  23.605  1.00  0.00     0.006 A 
ATOM     31  C   UNL A   1      27.496  28.950  22.968  1.00  0.00     0.000 A 
ATOM     32  C   UNL A   1      28.759  30.934  23.505  1.00  0.00     0.000 A 
ATOM     33  C   UNL A   1      27.550  30.327  23.170  1.00  0.00     0.000 A 
ENDBRANCH  26  28
ENDBRANCH  23  26
ENDBRANCH  17  22
ENDBRANCH  13  16
ENDBRANCH   7  12
ENDBRANCH   4   6
ENDBRANCH   3   4
ENDBRANCH   2   3
ENDBRANCH   1   2
BRANCH   1  34
ATOM     34  O   UNL A   1      32.267  27.513  26.585  1.00  0.00    -0.374 OA
BRANCH  34  35
ATOM     35  C   UNL A   1      31.841  28.561  27.444  1.00  0.00     0.202 C 
BRANCH  35  36
ATOM     36  C   UNL A   1      31.849  30.013  26.943  1.00  0.00     0.261 C 
BRANCH  36  37
ATOM     37  O   UNL A   1      33.125  30.529  26.525  1.00  0.00    -0.460 OA
BRANCH  37  38
ATOM     38  C   UNL A   1      33.737  31.328  27.434  1.00  0.00     0.338 C 
ATOM     39  O   UNL A   1      33.230  32.255  28.048  1.00  0.00    -0.246 OA
BRANCH  38  40
ATOM     40  C   UNL A   1      35.117  30.884  27.709  1.00  0.00     0.060 A 
ATOM     41  C   UNL A   1      35.367  29.508  27.778  1.00  0.00     0.016 A 
ATOM     42  C   UNL A   1      36.101  31.800  28.084  1.00  0.00     0.016 A 
ATOM     43  C   UNL A   1      36.585  29.041  28.277  1.00  0.00     0.010 A 
ATOM     44  C   UNL A   1      37.319  31.330  28.590  1.00  0.00     0.010 A 
ATOM     45  C   UNL A   1      37.552  29.949  28.731  1.00  0.00    -0.014 A 
BRANCH  45  46
ATOM     46  C   UNL A   1      38.747  29.462  29.468  1.00  0.00     0.031 A 
ATOM     47  C   UNL A   1      39.094  30.066  30.807  1.00  0.00     0.074 A 
ATOM     48  C   UNL A   1      39.532  28.500  28.947  1.00  0.00     0.049 A 
ATOM     49  N   UNL A   1      40.110  29.813  31.590  1.00  0.00    -0.248 NA
ATOM     50  C   UNL A   1      38.177  31.092  31.329  1.00  0.00     0.031 C 
ATOM     51  C   UNL A   1      39.316  27.840  27.661  1.00  0.00     0.029 A 
ATOM     52  N   UNL A   1      40.689  27.936  29.426  1.00  0.00    -0.354 N 
ATOM     53  C   UNL A   1      39.977  30.668  32.679  1.00  0.00     0.074 A 
ATOM     54  C   UNL A   1      38.780  31.449  32.456  1.00  0.00     0.031 C 
ATOM     55  C   UNL A   1      40.330  26.988  27.434  1.00  0.00     0.029 A 
ATOM     56  C   UNL A   1      41.278  27.058  28.545  1.00  0.00     0.049 A 
ATOM     57  H   UNL A   1      41.064  28.141  30.313  1.00  0.00     0.167 HD
ATOM     58  C   UNL A   1      40.768  30.784  33.772  1.00  0.00     0.034 A 
ATOM     59  C   UNL A   1      42.457  26.407  28.616  1.00  0.00     0.034 A 
ATOM     60  C   UNL A   1      41.941  29.986  34.015  1.00  0.00     0.049 A 
ATOM     61  C   UNL A   1      43.323  26.565  29.839  1.00  0.00     0.074 A 
ATOM     62  C   UNL A   1      42.761  29.985  35.131  1.00  0.00     0.029 A 
ATOM     63  N   UNL A   1      42.470  29.064  33.130  1.00  0.00    -0.354 N 
ATOM     64  N   UNL A   1      43.100  27.265  30.925  1.00  0.00    -0.248 NA
ATOM     65  C   UNL A   1      44.590  25.816  29.862  1.00  0.00     0.031 C 
ATOM     66  C   UNL A   1      43.804  29.079  34.907  1.00  0.00     0.029 A 
ATOM     67  C   UNL A   1      43.615  28.498  33.665  1.00  0.00     0.049 A 
ATOM     68  H   UNL A   1      42.090  28.842  32.248  1.00  0.00     0.167 HD
ATOM     69  C   UNL A   1      44.176  27.008  31.771  1.00  0.00     0.074 A 
ATOM     70  C   UNL A   1      45.037  26.073  31.083  1.00  0.00     0.031 C 
ATOM     71  C   UNL A   1      44.433  27.516  33.002  1.00  0.00     0.034 A 
BRANCH  58  72
ATOM     72  C   UNL A   1      40.382  31.788  34.826  1.00  0.00     0.023 A 
ATOM     73  C   UNL A   1      40.866  33.108  34.738  1.00  0.00     0.012 A 
ATOM     74  C   UNL A   1      39.459  31.453  35.836  1.00  0.00     0.148 A 
ATOM     75  C   UNL A   1      40.449  34.077  35.651  1.00  0.00     0.002 A 
ATOM     76  C   UNL A   1      39.017  32.433  36.717  1.00  0.00     0.091 A 
ATOM     77  F   UNL A   1      39.024  30.186  35.910  1.00  0.00    -0.205 F 
ATOM     78  C   UNL A   1      39.516  33.743  36.631  1.00  0.00     0.022 A 
BRANCH  76  79
ATOM     79  S   UNL A   1      37.760  32.126  37.963  1.00  0.00     0.127 S 
ATOM     80  O   UNL A   1      36.721  33.081  37.576  1.00  0.00    -0.237 OA
ATOM     81  O   UNL A   1      37.419  30.724  37.717  1.00  0.00    -0.237 OA
ATOM     82  O   UNL A   1      38.393  32.384  39.248  1.00  0.00    -0.744 OA
ENDBRANCH  76  79
ENDBRANCH  58  72
BRANCH  59  83
ATOM     83  C   UNL A   1      42.890  25.520  27.499  1.00  0.00     0.023 A 
ATOM     84  C   UNL A   1      43.760  26.018  26.509  1.00  0.00     0.012 A 
ATOM     85  C   UNL A   1      42.432  24.192  27.403  1.00  0.00     0.148 A 
ATOM     86  C   UNL A   1      44.135  25.224  25.425  1.00  0.00     0.002 A 
ATOM     87  C   UNL A   1      42.857  23.387  26.352  1.00  0.00     0.091 A 
ATOM     88  F   UNL A   1      41.586  23.741  28.339  1.00  0.00    -0.205 F 
ATOM     89  C   UNL A   1      43.692  23.906  25.352  1.00  0.00     0.022 A 
BRANCH  87  90
ATOM     90  S   UNL A   1      42.440  21.643  26.264  1.00  0.00     0.127 S 
ATOM     91  O   UNL A   1      41.063  21.686  25.783  1.00  0.00    -0.237 OA
ATOM     92  O   UNL A   1      43.417  21.142  25.295  1.00  0.00    -0.237 OA
ATOM     93  O   UNL A   1      42.632  21.133  27.616  1.00  0.00    -0.744 OA
ENDBRANCH  87  90
ENDBRANCH  59  83
BRANCH  71  94
ATOM     94  C   UNL A   1      45.673  27.041  33.716  1.00  0.00     0.023 A 
ATOM     95  C   UNL A   1      46.888  27.736  33.551  1.00  0.00     0.012 A 
ATOM     96  C   UNL A   1      45.617  25.952  34.610  1.00  0.00     0.148 A 
ATOM     97  C   UNL A   1      48.034  27.334  34.238  1.00  0.00     0.002 A 
ATOM     98  C   UNL A   1      46.751  25.587  35.327  1.00  0.00     0.091 A 
ATOM     99  F   UNL A   1      44.456  25.291  34.740  1.00  0.00    -0.205 F 
ATOM    100  C   UNL A   1      47.963  26.270  35.133  1.00  0.00     0.022 A 
BRANCH  98 101
ATOM    101  S   UNL A   1      46.725  24.291  36.571  1.00  0.00     0.127 S 
ATOM    102  O   UNL A   1      48.039  23.676  36.387  1.00  0.00    -0.237 OA
ATOM    103  O   UNL A   1      46.577  25.053  37.812  1.00  0.00    -0.237 OA
ATOM    104  O   UNL A   1      45.586  23.445  36.244  1.00  0.00    -0.744 OA
ENDBRANCH  98 101
ENDBRANCH  71  94
ENDBRANCH  45  46
ENDBRANCH  38  40
ENDBRANCH  37  38
ENDBRANCH  36  37
ENDBRANCH  35  36
ENDBRANCH  34  35
ENDBRANCH   1  34
TORSDOF 22
ENDMDL
MODEL 3
REMARK VINA RESULT:     -11.7      3.994      7.834
REMARK SMILES C[C@H](NC(=O)c1cccc(NC(=O)c2ccccc2C(=O)OCCOCCOC(=O)c2ccc(-c3c4nc(c(-c5cccc(S(=O)(=O)[O-])c5F)c5ccc([nH]5)c(-c5cccc(S(=O)(=O)[O-])c5F)c5nc(c(-c6cccc(S(=O)(=O)[O-])c6F)c6ccc3[nH]6)C=C5)C=C4)cc2)c1)c1ccccc1
REMARK SMILES IDX 24 1 23 2 22 3 20 4 21 5 19 6 14 7 15 8 16 9 18 10 17 11
REMARK SMILES IDX 12 12 11 13 13 15 10 16 6 17 7 18 94 19 8 20 9 21 4 22 3 23
REMARK SMILES IDX 5 25 2 26 1 27 95 28 96 29 100 30 97 31 99 32 98 33 25 34
REMARK SMILES IDX 26 35 27 36 28 37 29 38 30 39 31 40 32 41 93 42 33 43 92 44
REMARK SMILES IDX 34 45 35 46 36 47 86 48 37 49 91 50 85 51 87 52 38 53 90 54
REMARK SMILES IDX 84 55 83 56 39 58 71 59 51 60 70 61 52 62 55 63 69 64 88 65
REMARK SMILES IDX 53 66 54 67 68 69 89 70 56 71 40 72 41 73 49 74 42 75 44 76
REMARK SMILES IDX 50 77 43 78 45 79 46 80 47 81 48 82 72 83 73 84 81 85 74 86
REMARK SMILES IDX 76 87 82 88 75 89 77 90 78 91 79 92 80 93 57 94 58 95 66 96
REMARK SMILES IDX 59 97 61 98 67 99 60 100 62 101 63 102 64 103 65 104
REMARK H PARENT 11 14 3 24 87 57 55 68
REMARK Flexibility Score: inf
ROOT
ATOM      1  C   UNL A   1      35.059  23.856  23.674  1.00  0.00     0.202 C 
ENDROOT
BRANCH   1   2
ATOM      2  C   UNL A   1      34.707  25.262  24.170  1.00  0.00     0.261 C 
BRANCH   2   3
ATOM      3  O   UNL A   1      33.621  25.952  23.572  1.00  0.00    -0.460 OA
BRANCH   3   4
ATOM      4  C   UNL A   1      33.672  27.285  23.748  1.00  0.00     0.339 C 
ATOM      5  O   UNL A   1      34.068  28.127  22.948  1.00  0.00    -0.246 OA
BRANCH   4   6
ATOM      6  C   UNL A   1      33.092  27.636  25.047  1.00  0.00     0.072 A 
ATOM      7  C   UNL A   1      31.737  27.476  25.372  1.00  0.00     0.054 A 
ATOM      8  C   UNL A   1      31.304  27.911  26.639  1.00  0.00     0.015 A 
ATOM      9  C   UNL A   1      32.206  28.432  27.573  1.00  0.00     0.001 A 
ATOM     10  C   UNL A   1      34.000  28.134  26.001  1.00  0.00     0.016 A 
ATOM     11  C   UNL A   1      33.557  28.532  27.259  1.00  0.00     0.001 A 
BRANCH   7  12
ATOM     12  C   UNL A   1      30.671  26.988  24.463  1.00  0.00     0.256 C 
ATOM     13  N   UNL A   1      30.085  25.738  24.496  1.00  0.00    -0.322 N 
ATOM     14  H   UNL A   1      29.426  25.604  23.777  1.00  0.00     0.170 HD
ATOM     15  O   UNL A   1      30.290  27.787  23.602  1.00  0.00    -0.269 OA
BRANCH  13  16
ATOM     16  C   UNL A   1      30.221  24.613  25.330  1.00  0.00     0.042 A 
ATOM     17  C   UNL A   1      31.709  22.842  26.114  1.00  0.00     0.041 A 
ATOM     18  C   UNL A   1      30.833  22.625  27.188  1.00  0.00     0.014 A 
ATOM     19  C   UNL A   1      31.359  23.793  25.148  1.00  0.00     0.040 A 
ATOM     20  C   UNL A   1      29.634  23.329  27.288  1.00  0.00     0.003 A 
ATOM     21  C   UNL A   1      29.323  24.307  26.349  1.00  0.00     0.026 A 
BRANCH  17  22
ATOM     22  C   UNL A   1      32.903  21.953  26.068  1.00  0.00     0.251 C 
ATOM     23  N   UNL A   1      33.073  20.869  25.247  1.00  0.00    -0.346 N 
ATOM     24  H   UNL A   1      34.006  20.554  25.258  1.00  0.00     0.164 HD
ATOM     25  O   UNL A   1      33.870  22.281  26.763  1.00  0.00    -0.269 OA
BRANCH  23  26
ATOM     26  C   UNL A   1      32.247  20.056  24.359  1.00  0.00     0.109 C 
ATOM     27  C   UNL A   1      32.269  20.441  22.898  1.00  0.00     0.036 C 
BRANCH  26  28
ATOM     28  C   UNL A   1      32.683  18.589  24.367  1.00  0.00    -0.026 A 
ATOM     29  C   UNL A   1      32.603  17.820  25.543  1.00  0.00     0.006 A 
ATOM     30  C   UNL A   1      33.394  18.074  23.272  1.00  0.00     0.006 A 
ATOM     31  C   UNL A   1      33.272  16.599  25.640  1.00  0.00     0.000 A 
ATOM     32  C   UNL A   1      34.057  16.850  23.371  1.00  0.00     0.000 A 
ATOM     33  C   UNL A   1      34.010  16.121  24.559  1.00  0.00     0.000 A 
ENDBRANCH  26  28
ENDBRANCH  23  26
ENDBRANCH  17  22
ENDBRANCH  13  16
ENDBRANCH   7  12
ENDBRANCH   4   6
ENDBRANCH   3   4
ENDBRANCH   2   3
ENDBRANCH   1   2
BRANCH   1  34
ATOM     34  O   UNL A   1      35.754  22.957  24.517  1.00  0.00    -0.374 OA
BRANCH  34  35
ATOM     35  C   UNL A   1      37.054  22.535  24.135  1.00  0.00     0.202 C 
BRANCH  35  36
ATOM     36  C   UNL A   1      37.858  21.601  25.052  1.00  0.00     0.261 C 
BRANCH  36  37
ATOM     37  O   UNL A   1      38.227  22.142  26.334  1.00  0.00    -0.460 OA
BRANCH  37  38
ATOM     38  C   UNL A   1      39.484  22.649  26.392  1.00  0.00     0.338 C 
ATOM     39  O   UNL A   1      40.513  22.087  26.048  1.00  0.00    -0.246 OA
BRANCH  38  40
ATOM     40  C   UNL A   1      39.484  24.057  26.832  1.00  0.00     0.060 A 
ATOM     41  C   UNL A   1      40.127  25.002  26.023  1.00  0.00     0.016 A 
ATOM     42  C   UNL A   1      39.032  24.408  28.105  1.00  0.00     0.016 A 
ATOM     43  C   UNL A   1      40.373  26.289  26.508  1.00  0.00     0.010 A 
ATOM     44  C   UNL A   1      39.285  25.697  28.591  1.00  0.00     0.010 A 
ATOM     45  C   UNL A   1      39.995  26.631  27.814  1.00  0.00    -0.014 A 
BRANCH  45  46
ATOM     46  C   UNL A   1      40.451  27.913  28.412  1.00  0.00     0.031 A 
ATOM     47  C   UNL A   1      41.926  28.153  28.622  1.00  0.00     0.074 A 
ATOM     48  C   UNL A   1      39.563  28.853  28.785  1.00  0.00     0.049 A 
ATOM     49  N   UNL A   1      42.528  29.181  29.161  1.00  0.00    -0.248 NA
ATOM     50  C   UNL A   1      42.842  27.095  28.164  1.00  0.00     0.031 C 
ATOM     51  C   UNL A   1      38.111  28.744  28.648  1.00  0.00     0.029 A 
ATOM     52  N   UNL A   1      39.754  30.073  29.386  1.00  0.00    -0.354 N 
ATOM     53  C   UNL A   1      43.887  28.883  29.142  1.00  0.00     0.074 A 
ATOM     54  C   UNL A   1      44.021  27.575  28.536  1.00  0.00     0.031 C 
ATOM     55  C   UNL A   1      37.540  29.835  29.187  1.00  0.00     0.029 A 
ATOM     56  C   UNL A   1      38.582  30.708  29.726  1.00  0.00     0.049 A 
ATOM     57  H   UNL A   1      40.644  30.456  29.559  1.00  0.00     0.167 HD
ATOM     58  C   UNL A   1      44.929  29.632  29.574  1.00  0.00     0.034 A 
ATOM     59  C   UNL A   1      38.373  31.848  30.416  1.00  0.00     0.034 A 
ATOM     60  C   UNL A   1      44.804  30.946  30.146  1.00  0.00     0.049 A 
ATOM     61  C   UNL A   1      39.553  32.655  30.896  1.00  0.00     0.074 A 
ATOM     62  C   UNL A   1      45.811  31.809  30.543  1.00  0.00     0.029 A 
ATOM     63  N   UNL A   1      43.604  31.582  30.417  1.00  0.00    -0.354 N 
ATOM     64  N   UNL A   1      40.833  32.426  30.732  1.00  0.00    -0.248 NA
ATOM     65  C   UNL A   1      39.258  33.897  31.629  1.00  0.00     0.031 C 
ATOM     66  C   UNL A   1      45.219  32.956  31.081  1.00  0.00     0.029 A 
ATOM     67  C   UNL A   1      43.844  32.819  30.991  1.00  0.00     0.049 A 
ATOM     68  H   UNL A   1      42.711  31.210  30.230  1.00  0.00     0.167 HD
ATOM     69  C   UNL A   1      41.491  33.512  31.303  1.00  0.00     0.074 A 
ATOM     70  C   UNL A   1      40.469  34.408  31.798  1.00  0.00     0.031 C 
ATOM     71  C   UNL A   1      42.823  33.737  31.421  1.00  0.00     0.034 A 
BRANCH  58  72
ATOM     72  C   UNL A   1      46.319  29.075  29.416  1.00  0.00     0.023 A 
ATOM     73  C   UNL A   1      46.819  28.173  30.377  1.00  0.00     0.012 A 
ATOM     74  C   UNL A   1      47.083  29.358  28.266  1.00  0.00     0.148 A 
ATOM     75  C   UNL A   1      48.067  27.574  30.204  1.00  0.00     0.002 A 
ATOM     76  C   UNL A   1      48.307  28.727  28.081  1.00  0.00     0.091 A 
ATOM     77  F   UNL A   1      46.593  30.231  27.374  1.00  0.00    -0.205 F 
ATOM     78  C   UNL A   1      48.804  27.841  29.052  1.00  0.00     0.022 A 
BRANCH  76  79
ATOM     79  S   UNL A   1      49.296  28.940  26.597  1.00  0.00     0.127 S 
ATOM     80  O   UNL A   1      50.393  28.002  26.837  1.00  0.00    -0.237 OA
ATOM     81  O   UNL A   1      48.365  28.532  25.545  1.00  0.00    -0.237 OA
ATOM     82  O   UNL A   1      49.677  30.345  26.564  1.00  0.00    -0.744 OA
ENDBRANCH  76  79
ENDBRANCH  58  72
BRANCH  59  83
ATOM     83  C   UNL A   1      36.983  32.317  30.684  1.00  0.00     0.023 A 
ATOM     84  C   UNL A   1      36.427  32.153  31.967  1.00  0.00     0.012 A 
ATOM     85  C   UNL A   1      36.206  32.909  29.670  1.00  0.00     0.148 A 
ATOM     86  C   UNL A   1      35.110  32.534  32.226  1.00  0.00     0.002 A 
ATOM     87  C   UNL A   1      34.915  33.341  29.950  1.00  0.00     0.091 A 
ATOM     88  F   UNL A   1      36.742  33.036  28.448  1.00  0.00    -0.205 F 
ATOM     89  C   UNL A   1      34.358  33.137  31.221  1.00  0.00     0.022 A 
BRANCH  87  90
ATOM     90  S   UNL A   1      33.935  34.248  28.749  1.00  0.00     0.127 S 
ATOM     91  O   UNL A   1      33.590  33.202  27.791  1.00  0.00    -0.237 OA
ATOM     92  O   UNL A   1      32.820  34.731  29.565  1.00  0.00    -0.237 OA
ATOM     93  O   UNL A   1      34.812  35.304  28.258  1.00  0.00    -0.744 OA
ENDBRANCH  87  90
ENDBRANCH  59  83
BRANCH  71  94
ATOM     94  C   UNL A   1      43.266  35.024  32.070  1.00  0.00     0.023 A 
ATOM     95  C   UNL A   1      43.604  36.133  31.269  1.00  0.00     0.012 A 
ATOM     96  C   UNL A   1      43.274  35.158  33.473  1.00  0.00     0.148 A 
ATOM     97  C   UNL A   1      43.974  37.344  31.854  1.00  0.00     0.002 A 
ATOM     98  C   UNL A   1      43.598  36.382  34.049  1.00  0.00     0.091 A 
ATOM     99  F   UNL A   1      42.968  34.086  34.220  1.00  0.00    -0.205 F 
ATOM    100  C   UNL A   1      43.960  37.472  33.241  1.00  0.00     0.022 A 
BRANCH  98 101
ATOM    101  S   UNL A   1      43.513  36.663  35.821  1.00  0.00     0.127 S 
ATOM    102  O   UNL A   1      42.076  36.570  36.069  1.00  0.00    -0.237 OA
ATOM    103  O   UNL A   1      44.297  35.546  36.352  1.00  0.00    -0.237 OA
ATOM    104  O   UNL A   1      44.105  37.974  36.047  1.00  0.00    -0.744 OA
ENDBRANCH  98 101
ENDBRANCH  71  94
ENDBRANCH  45  46
ENDBRANCH  38  40
ENDBRANCH  37  38
ENDBRANCH  36  37
ENDBRANCH  35  36
ENDBRANCH  34  35
ENDBRANCH   1  34
TORSDOF 22
ENDMDL
