MODEL 1
REMARK VINA RESULT:     -13.0      0.000      0.000
REMARK SMILES O=C(OCCOCCOC(=O)c1ccc(-c2c3nc(c(-c4cccc(S(=O)(=O)[O-])c4F)c4ccc([nH]4)c(-c4cccc(S(=O)(=O)[O-])c4F)c4nc(c(-c5cccc(S(=O)(=O)[O-])c5F)c5ccc2[nH]5)C=C4)C=C3)cc1)C1=Cc2cc(S(F)(F)(F)(F)F)ccc2O[C@@H]1C(F)(F)F
REMARK SMILES IDX 7 1 6 2 5 3 4 4 3 5 2 6 1 7 75 8 76 9 90 10 77 11 89 12
REMARK SMILES IDX 78 13 88 14 79 15 87 16 86 17 91 18 92 19 93 20 94 21 80 22
REMARK SMILES IDX 81 23 82 24 83 25 84 26 85 27 8 28 9 29 10 30 11 31 12 32
REMARK SMILES IDX 13 33 74 34 14 35 73 36 15 37 16 38 17 39 67 40 18 41 72 42
REMARK SMILES IDX 66 43 68 44 19 45 71 46 65 47 64 48 20 50 52 51 32 52 51 53
REMARK SMILES IDX 33 54 36 55 50 56 69 57 34 58 35 59 49 61 70 62 37 63 21 64
REMARK SMILES IDX 22 65 30 66 23 67 25 68 31 69 24 70 26 71 27 72 28 73 29 74
REMARK SMILES IDX 53 75 54 76 62 77 55 78 57 79 63 80 56 81 58 82 59 83 60 84
REMARK SMILES IDX 61 85 38 86 39 87 47 88 40 89 42 90 48 91 41 92 43 93 44 94
REMARK SMILES IDX 45 95 46 96
REMARK H PARENT 68 49 36 60
REMARK Flexibility Score: inf
ROOT
ATOM      1  C   UNL A   1      33.943  20.883  25.148  1.00  0.00     0.202 C 
ENDROOT
BRANCH   1   2
ATOM      2  O   UNL A   1      33.775  22.166  24.562  1.00  0.00    -0.374 OA
BRANCH   2   3
ATOM      3  C   UNL A   1      32.393  22.496  24.536  1.00  0.00     0.202 C 
BRANCH   3   4
ATOM      4  C   UNL A   1      32.019  23.001  23.152  1.00  0.00     0.261 C 
BRANCH   4   5
ATOM      5  O   UNL A   1      31.195  24.151  23.274  1.00  0.00    -0.460 OA
BRANCH   5   6
ATOM      6  C   UNL A   1      31.655  25.407  22.796  1.00  0.00     0.338 C 
ATOM      7  O   UNL A   1      31.382  25.773  21.611  1.00  0.00    -0.246 OA
BRANCH   6   8
ATOM      8  C   UNL A   1      32.473  26.313  23.702  1.00  0.00     0.087 C 
ATOM      9  C   UNL A   1      31.959  27.501  24.120  1.00  0.00     0.027 C 
ATOM     10  C   UNL A   1      33.866  25.891  24.141  1.00  0.00     0.316 C 
ATOM     11  C   UNL A   1      30.566  27.924  23.681  1.00  0.00     0.019 A 
ATOM     12  O   UNL A   1      29.866  25.679  24.025  1.00  0.00    -0.475 OA
ATOM     13  C   UNL A   1      30.349  29.219  23.243  1.00  0.00     0.036 A 
ATOM     14  C   UNL A   1      29.579  27.036  23.726  1.00  0.00     0.128 A 
ATOM     15  C   UNL A   1      28.981  29.569  23.144  1.00  0.00     0.107 A 
ATOM     16  C   UNL A   1      28.281  27.421  23.484  1.00  0.00     0.048 A 
ATOM     17  C   UNL A   1      27.987  28.702  23.104  1.00  0.00     0.028 A 
BRANCH  10  18
ATOM     18  C   UNL A   1      33.912  25.799  25.658  1.00  0.00     0.430 C 
ATOM     19  F   UNL A   1      32.689  25.563  26.126  1.00  0.00    -0.167 F 
ATOM     20  F   UNL A   1      34.722  24.807  26.017  1.00  0.00    -0.167 F 
ATOM     21  F   UNL A   1      34.365  26.944  26.158  1.00  0.00    -0.167 F 
ENDBRANCH  10  18
BRANCH  15  22
ATOM     22  S   UNL A   1      28.567  31.329  23.066  1.00  0.00     0.310 S 
ATOM     23  F   UNL A   1      27.242  31.117  23.913  1.00  0.00    -0.094 F 
ATOM     24  F   UNL A   1      27.707  31.042  21.778  1.00  0.00    -0.094 F 
ATOM     25  F   UNL A   1      28.210  32.841  23.001  1.00  0.00    -0.094 F 
ATOM     26  F   UNL A   1      29.316  31.574  24.435  1.00  0.00    -0.094 F 
ATOM     27  F   UNL A   1      28.844  29.780  23.208  1.00  0.00    -0.094 F 
ENDBRANCH  15  22
ENDBRANCH   6   8
ENDBRANCH   5   6
ENDBRANCH   4   5
ENDBRANCH   3   4
ENDBRANCH   2   3
ENDBRANCH   1   2
BRANCH   1  28
ATOM     28  C   UNL A   1      35.390  20.444  25.001  1.00  0.00     0.261 C 
BRANCH  28  29
ATOM     29  O   UNL A   1      36.225  21.295  25.772  1.00  0.00    -0.460 OA
BRANCH  29  30
ATOM     30  C   UNL A   1      37.636  21.236  25.618  1.00  0.00     0.338 C 
ATOM     31  O   UNL A   1      38.177  20.198  25.120  1.00  0.00    -0.246 OA
BRANCH  30  32
ATOM     32  C   UNL A   1      38.498  22.411  26.048  1.00  0.00     0.060 A 
ATOM     33  C   UNL A   1      39.723  22.178  26.654  1.00  0.00     0.016 A 
ATOM     34  C   UNL A   1      38.059  23.645  25.834  1.00  0.00     0.016 A 
ATOM     35  C   UNL A   1      40.287  23.324  27.263  1.00  0.00     0.010 A 
ATOM     36  C   UNL A   1      38.736  24.726  26.345  1.00  0.00     0.010 A 
ATOM     37  C   UNL A   1      39.923  24.566  27.005  1.00  0.00    -0.014 A 
BRANCH  37  38
ATOM     38  C   UNL A   1      40.775  25.754  27.421  1.00  0.00     0.031 A 
ATOM     39  C   UNL A   1      42.113  25.787  27.027  1.00  0.00     0.074 A 
ATOM     40  C   UNL A   1      40.165  26.740  28.178  1.00  0.00     0.049 A 
ATOM     41  N   UNL A   1      43.007  26.749  27.264  1.00  0.00    -0.248 NA
ATOM     42  C   UNL A   1      42.771  24.725  26.252  1.00  0.00     0.031 C 
ATOM     43  C   UNL A   1      38.813  26.716  28.572  1.00  0.00     0.029 A 
ATOM     44  N   UNL A   1      40.731  27.892  28.678  1.00  0.00    -0.354 N 
ATOM     45  C   UNL A   1      44.180  26.435  26.711  1.00  0.00     0.074 A 
ATOM     46  C   UNL A   1      44.047  25.126  26.058  1.00  0.00     0.031 C 
ATOM     47  C   UNL A   1      38.570  27.833  29.308  1.00  0.00     0.029 A 
ATOM     48  C   UNL A   1      39.766  28.572  29.387  1.00  0.00     0.049 A 
ATOM     49  H   UNL A   1      41.663  28.180  28.550  1.00  0.00     0.167 HD
ATOM     50  C   UNL A   1      45.355  27.189  26.724  1.00  0.00     0.034 A 
ATOM     51  C   UNL A   1      39.900  29.770  30.071  1.00  0.00     0.034 A 
ATOM     52  C   UNL A   1      45.478  28.407  27.372  1.00  0.00     0.049 A 
ATOM     53  C   UNL A   1      41.092  30.496  30.133  1.00  0.00     0.074 A 
ATOM     54  C   UNL A   1      46.653  29.184  27.390  1.00  0.00     0.029 A 
ATOM     55  N   UNL A   1      44.520  29.076  28.101  1.00  0.00    -0.354 N 
ATOM     56  N   UNL A   1      42.253  30.201  29.547  1.00  0.00    -0.248 NA
ATOM     57  C   UNL A   1      41.256  31.750  30.882  1.00  0.00     0.031 C 
ATOM     58  C   UNL A   1      46.409  30.300  28.126  1.00  0.00     0.029 A 
ATOM     59  C   UNL A   1      45.079  30.239  28.583  1.00  0.00     0.049 A 
ATOM     60  H   UNL A   1      43.595  28.774  28.254  1.00  0.00     0.167 HD
ATOM     61  C   UNL A   1      43.158  31.143  29.820  1.00  0.00     0.074 A 
ATOM     62  C   UNL A   1      42.532  32.149  30.689  1.00  0.00     0.031 C 
ATOM     63  C   UNL A   1      44.480  31.205  29.377  1.00  0.00     0.034 A 
BRANCH  50  64
ATOM     64  C   UNL A   1      46.567  26.642  25.988  1.00  0.00     0.023 A 
ATOM     65  C   UNL A   1      47.324  25.638  26.567  1.00  0.00     0.012 A 
ATOM     66  C   UNL A   1      46.856  27.113  24.781  1.00  0.00     0.148 A 
ATOM     67  C   UNL A   1      48.551  25.393  25.907  1.00  0.00     0.002 A 
ATOM     68  C   UNL A   1      48.005  26.726  24.135  1.00  0.00     0.091 A 
ATOM     69  F   UNL A   1      46.025  27.969  24.191  1.00  0.00    -0.205 F 
ATOM     70  C   UNL A   1      48.831  25.781  24.676  1.00  0.00     0.022 A 
BRANCH  68  71
ATOM     71  S   UNL A   1      48.431  27.479  22.545  1.00  0.00     0.127 S 
ATOM     72  O   UNL A   1      47.264  28.343  22.061  1.00  0.00    -0.237 OA
ATOM     73  O   UNL A   1      49.678  28.352  22.712  1.00  0.00    -0.237 OA
ATOM     74  O   UNL A   1      48.745  26.251  21.398  1.00  0.00    -0.744 OA
ENDBRANCH  68  71
ENDBRANCH  50  64
BRANCH  51  75
ATOM     75  C   UNL A   1      38.684  30.324  30.793  1.00  0.00     0.023 A 
ATOM     76  C   UNL A   1      38.438  29.946  32.103  1.00  0.00     0.012 A 
ATOM     77  C   UNL A   1      37.855  31.133  30.144  1.00  0.00     0.148 A 
ATOM     78  C   UNL A   1      37.129  30.245  32.550  1.00  0.00     0.002 A 
ATOM     79  C   UNL A   1      36.651  31.495  30.698  1.00  0.00     0.091 A 
ATOM     80  F   UNL A   1      38.194  31.598  28.944  1.00  0.00    -0.205 F 
ATOM     81  C   UNL A   1      36.317  31.106  31.966  1.00  0.00     0.022 A 
BRANCH  79  82
ATOM     82  S   UNL A   1      35.492  32.498  29.737  1.00  0.00     0.127 S 
ATOM     83  O   UNL A   1      34.194  32.678  30.529  1.00  0.00    -0.237 OA
ATOM     84  O   UNL A   1      36.113  33.868  29.458  1.00  0.00    -0.237 OA
ATOM     85  O   UNL A   1      35.151  31.714  28.256  1.00  0.00    -0.744 OA
ENDBRANCH  79  82
ENDBRANCH  51  75
BRANCH  63  86
ATOM     86  C   UNL A   1      45.316  32.406  29.791  1.00  0.00     0.023 A 
ATOM     87  C   UNL A   1      46.069  32.353  30.952  1.00  0.00     0.012 A 
ATOM     88  C   UNL A   1      45.307  33.490  29.024  1.00  0.00     0.148 A 
ATOM     89  C   UNL A   1      46.559  33.612  31.375  1.00  0.00     0.002 A 
ATOM     90  C   UNL A   1      45.923  34.646  29.439  1.00  0.00     0.091 A 
ATOM     91  F   UNL A   1      44.697  33.457  27.843  1.00  0.00    -0.205 F 
ATOM     92  C   UNL A   1      46.635  34.683  30.606  1.00  0.00     0.022 A 
BRANCH  90  93
ATOM     93  S   UNL A   1      45.789  36.141  28.430  1.00  0.00     0.127 S 
ATOM     94  O   UNL A   1      46.141  35.811  26.978  1.00  0.00    -0.237 OA
ATOM     95  O   UNL A   1      44.357  36.677  28.498  1.00  0.00    -0.237 OA
ATOM     96  O   UNL A   1      46.869  37.327  29.022  1.00  0.00    -0.744 OA
ENDBRANCH  90  93
ENDBRANCH  63  86
ENDBRANCH  37  38
ENDBRANCH  30  32
ENDBRANCH  29  30
ENDBRANCH  28  29
ENDBRANCH   1  28
TORSDOF 19
ENDMDL
MODEL 2
REMARK VINA RESULT:     -12.7      0.344      7.202
REMARK SMILES O=C(OCCOCCOC(=O)c1ccc(-c2c3nc(c(-c4cccc(S(=O)(=O)[O-])c4F)c4ccc([nH]4)c(-c4cccc(S(=O)(=O)[O-])c4F)c4nc(c(-c5cccc(S(=O)(=O)[O-])c5F)c5ccc2[nH]5)C=C4)C=C3)cc1)C1=Cc2cc(S(F)(F)(F)(F)F)ccc2O[C@@H]1C(F)(F)F
REMARK SMILES IDX 7 1 6 2 5 3 4 4 3 5 2 6 1 7 75 8 76 9 90 10 77 11 89 12
REMARK SMILES IDX 78 13 88 14 79 15 87 16 86 17 91 18 92 19 93 20 94 21 80 22
REMARK SMILES IDX 81 23 82 24 83 25 84 26 85 27 8 28 9 29 10 30 11 31 12 32
REMARK SMILES IDX 13 33 74 34 14 35 73 36 15 37 16 38 17 39 67 40 18 41 72 42
REMARK SMILES IDX 66 43 68 44 19 45 71 46 65 47 64 48 20 50 52 51 32 52 51 53
REMARK SMILES IDX 33 54 36 55 50 56 69 57 34 58 35 59 49 61 70 62 37 63 21 64
REMARK SMILES IDX 22 65 30 66 23 67 25 68 31 69 24 70 26 71 27 72 28 73 29 74
REMARK SMILES IDX 53 75 54 76 62 77 55 78 57 79 63 80 56 81 58 82 59 83 60 84
REMARK SMILES IDX 61 85 38 86 39 87 47 88 40 89 42 90 48 91 41 92 43 93 44 94
REMARK SMILES IDX 45 95 46 96
REMARK H PARENT 68 49 36 60
REMARK Flexibility Score: inf
ROOT
ATOM      1  C   UNL A   1      34.268  21.421  25.081  1.00  0.00     0.202 C 
ENDROOT
BRANCH   1   2
ATOM      2  O   UNL A   1      33.782  22.310  24.086  1.00  0.00    -0.374 OA
BRANCH   2   3
ATOM      3  C   UNL A   1      32.386  22.503  24.265  1.00  0.00     0.202 C 
BRANCH   3   4
ATOM      4  C   UNL A   1      31.783  23.056  22.985  1.00  0.00     0.261 C 
BRANCH   4   5
ATOM      5  O   UNL A   1      31.101  24.269  23.268  1.00  0.00    -0.460 OA
BRANCH   5   6
ATOM      6  C   UNL A   1      31.612  25.502  22.780  1.00  0.00     0.338 C 
ATOM      7  O   UNL A   1      31.355  25.869  21.592  1.00  0.00    -0.246 OA
BRANCH   6   8
ATOM      8  C   UNL A   1      32.467  26.380  23.679  1.00  0.00     0.087 C 
ATOM      9  C   UNL A   1      31.994  27.583  24.104  1.00  0.00     0.027 C 
ATOM     10  C   UNL A   1      33.850  25.913  24.104  1.00  0.00     0.316 C 
ATOM     11  C   UNL A   1      30.611  28.049  23.679  1.00  0.00     0.019 A 
ATOM     12  O   UNL A   1      29.844  25.827  24.027  1.00  0.00    -0.475 OA
ATOM     13  C   UNL A   1      30.431  29.352  23.244  1.00  0.00     0.036 A 
ATOM     14  C   UNL A   1      29.597  27.194  23.732  1.00  0.00     0.128 A 
ATOM     15  C   UNL A   1      29.074  29.745  23.159  1.00  0.00     0.107 A 
ATOM     16  C   UNL A   1      28.310  27.619  23.503  1.00  0.00     0.048 A 
ATOM     17  C   UNL A   1      28.052  28.909  23.128  1.00  0.00     0.028 A 
BRANCH  10  18
ATOM     18  C   UNL A   1      33.908  25.817  25.620  1.00  0.00     0.430 C 
ATOM     19  F   UNL A   1      34.802  24.897  25.973  1.00  0.00    -0.167 F 
ATOM     20  F   UNL A   1      34.263  26.995  26.125  1.00  0.00    -0.167 F 
ATOM     21  F   UNL A   1      32.712  25.477  26.090  1.00  0.00    -0.167 F 
ENDBRANCH  10  18
BRANCH  15  22
ATOM     22  S   UNL A   1      28.714  31.517  23.087  1.00  0.00     0.310 S 
ATOM     23  F   UNL A   1      27.278  31.313  23.729  1.00  0.00    -0.094 F 
ATOM     24  F   UNL A   1      28.042  31.296  21.681  1.00  0.00    -0.094 F 
ATOM     25  F   UNL A   1      28.404  33.039  23.028  1.00  0.00    -0.094 F 
ATOM     26  F   UNL A   1      29.265  31.696  24.557  1.00  0.00    -0.094 F 
ATOM     27  F   UNL A   1      28.934  29.957  23.211  1.00  0.00    -0.094 F 
ENDBRANCH  15  22
ENDBRANCH   6   8
ENDBRANCH   5   6
ENDBRANCH   4   5
ENDBRANCH   3   4
ENDBRANCH   2   3
ENDBRANCH   1   2
BRANCH   1  28
ATOM     28  C   UNL A   1      35.693  21.014  24.745  1.00  0.00     0.261 C 
BRANCH  28  29
ATOM     29  O   UNL A   1      36.510  21.150  25.898  1.00  0.00    -0.460 OA
BRANCH  29  30
ATOM     30  C   UNL A   1      37.923  21.206  25.765  1.00  0.00     0.338 C 
ATOM     31  O   UNL A   1      38.555  20.212  25.284  1.00  0.00    -0.246 OA
BRANCH  30  32
ATOM     32  C   UNL A   1      38.680  22.451  26.197  1.00  0.00     0.060 A 
ATOM     33  C   UNL A   1      38.179  23.703  25.880  1.00  0.00     0.016 A 
ATOM     34  C   UNL A   1      39.812  22.313  26.876  1.00  0.00     0.016 A 
ATOM     35  C   UNL A   1      39.105  24.756  26.075  1.00  0.00     0.010 A 
ATOM     36  C   UNL A   1      40.600  23.404  27.149  1.00  0.00     0.010 A 
ATOM     37  C   UNL A   1      40.196  24.667  26.813  1.00  0.00    -0.014 A 
BRANCH  37  38
ATOM     38  C   UNL A   1      40.963  25.900  27.262  1.00  0.00     0.031 A 
ATOM     39  C   UNL A   1      40.294  26.865  28.016  1.00  0.00     0.074 A 
ATOM     40  C   UNL A   1      42.292  25.994  26.887  1.00  0.00     0.049 A 
ATOM     41  N   UNL A   1      40.797  27.991  28.525  1.00  0.00    -0.248 NA
ATOM     42  C   UNL A   1      38.873  26.784  28.387  1.00  0.00     0.031 C 
ATOM     43  C   UNL A   1      42.975  25.020  26.133  1.00  0.00     0.029 A 
ATOM     44  N   UNL A   1      43.177  27.012  27.161  1.00  0.00    -0.354 N 
ATOM     45  C   UNL A   1      39.856  28.650  29.205  1.00  0.00     0.074 A 
ATOM     46  C   UNL A   1      38.604  27.886  29.120  1.00  0.00     0.031 C 
ATOM     47  C   UNL A   1      44.251  25.450  25.946  1.00  0.00     0.029 A 
ATOM     48  C   UNL A   1      44.386  26.700  26.580  1.00  0.00     0.049 A 
ATOM     49  H   UNL A   1      42.981  27.823  27.684  1.00  0.00     0.167 HD
ATOM     50  C   UNL A   1      39.993  29.856  29.894  1.00  0.00     0.034 A 
ATOM     51  C   UNL A   1      45.552  27.449  26.590  1.00  0.00     0.034 A 
ATOM     52  C   UNL A   1      41.170  30.585  29.940  1.00  0.00     0.049 A 
ATOM     53  C   UNL A   1      45.673  28.686  27.230  1.00  0.00     0.074 A 
ATOM     54  C   UNL A   1      41.328  31.800  30.635  1.00  0.00     0.029 A 
ATOM     55  N   UNL A   1      42.372  30.285  29.338  1.00  0.00    -0.354 N 
ATOM     56  N   UNL A   1      44.743  29.324  27.942  1.00  0.00    -0.248 NA
ATOM     57  C   UNL A   1      46.893  29.504  27.218  1.00  0.00     0.031 C 
ATOM     58  C   UNL A   1      42.604  32.230  30.448  1.00  0.00     0.029 A 
ATOM     59  C   UNL A   1      43.264  31.292  29.631  1.00  0.00     0.049 A 
ATOM     60  H   UNL A   1      42.562  29.488  28.791  1.00  0.00     0.167 HD
ATOM     61  C   UNL A   1      45.235  30.471  28.416  1.00  0.00     0.074 A 
ATOM     62  C   UNL A   1      46.623  30.607  27.951  1.00  0.00     0.031 C 
ATOM     63  C   UNL A   1      44.584  31.407  29.219  1.00  0.00     0.034 A 
BRANCH  50  64
ATOM     64  C   UNL A   1      38.783  30.402  30.634  1.00  0.00     0.023 A 
ATOM     65  C   UNL A   1      38.610  30.103  31.975  1.00  0.00     0.012 A 
ATOM     66  C   UNL A   1      37.931  31.189  29.989  1.00  0.00     0.148 A 
ATOM     67  C   UNL A   1      37.336  30.454  32.481  1.00  0.00     0.002 A 
ATOM     68  C   UNL A   1      36.770  31.606  30.592  1.00  0.00     0.091 A 
ATOM     69  F   UNL A   1      38.205  31.578  28.746  1.00  0.00    -0.205 F 
ATOM     70  C   UNL A   1      36.504  31.298  31.897  1.00  0.00     0.022 A 
BRANCH  68  71
ATOM     71  S   UNL A   1      35.572  32.578  29.644  1.00  0.00     0.127 S 
ATOM     72  O   UNL A   1      36.257  33.830  29.089  1.00  0.00    -0.237 OA
ATOM     73  O   UNL A   1      35.034  31.735  28.486  1.00  0.00    -0.237 OA
ATOM     74  O   UNL A   1      34.278  33.039  30.661  1.00  0.00    -0.744 OA
ENDBRANCH  68  71
ENDBRANCH  50  64
BRANCH  51  75
ATOM     75  C   UNL A   1      46.766  26.896  25.863  1.00  0.00     0.023 A 
ATOM     76  C   UNL A   1      47.648  26.069  26.538  1.00  0.00     0.012 A 
ATOM     77  C   UNL A   1      46.983  27.247  24.600  1.00  0.00     0.148 A 
ATOM     78  C   UNL A   1      48.889  25.895  25.883  1.00  0.00     0.002 A 
ATOM     79  C   UNL A   1      48.164  26.926  23.976  1.00  0.00     0.091 A 
ATOM     80  F   UNL A   1      46.046  27.916  23.933  1.00  0.00    -0.205 F 
ATOM     81  C   UNL A   1      49.106  26.162  24.607  1.00  0.00     0.022 A 
BRANCH  79  82
ATOM     82  S   UNL A   1      48.478  27.524  22.298  1.00  0.00     0.127 S 
ATOM     83  O   UNL A   1      49.749  28.377  22.289  1.00  0.00    -0.237 OA
ATOM     84  O   UNL A   1      48.658  26.331  21.357  1.00  0.00    -0.237 OA
ATOM     85  O   UNL A   1      47.154  28.470  21.772  1.00  0.00    -0.744 OA
ENDBRANCH  79  82
ENDBRANCH  51  75
BRANCH  63  86
ATOM     86  C   UNL A   1      45.367  32.630  29.670  1.00  0.00     0.023 A 
ATOM     87  C   UNL A   1      46.118  32.578  30.833  1.00  0.00     0.012 A 
ATOM     88  C   UNL A   1      45.316  33.733  28.932  1.00  0.00     0.148 A 
ATOM     89  C   UNL A   1      46.553  33.844  31.291  1.00  0.00     0.002 A 
ATOM     90  C   UNL A   1      45.881  34.902  29.381  1.00  0.00     0.091 A 
ATOM     91  F   UNL A   1      44.712  33.706  27.748  1.00  0.00    -0.205 F 
ATOM     92  C   UNL A   1      46.587  34.937  30.552  1.00  0.00     0.022 A 
BRANCH  90  93
ATOM     93  S   UNL A   1      45.689  36.417  28.411  1.00  0.00     0.127 S 
ATOM     94  O   UNL A   1      46.749  36.457  27.309  1.00  0.00    -0.237 OA
ATOM     95  O   UNL A   1      44.295  36.445  27.778  1.00  0.00    -0.237 OA
ATOM     96  O   UNL A   1      45.878  37.775  29.432  1.00  0.00    -0.744 OA
ENDBRANCH  90  93
ENDBRANCH  63  86
ENDBRANCH  37  38
ENDBRANCH  30  32
ENDBRANCH  29  30
ENDBRANCH  28  29
ENDBRANCH   1  28
TORSDOF 19
ENDMDL
MODEL 3
REMARK VINA RESULT:     -12.6      5.375     10.230
REMARK SMILES O=C(OCCOCCOC(=O)c1ccc(-c2c3nc(c(-c4cccc(S(=O)(=O)[O-])c4F)c4ccc([nH]4)c(-c4cccc(S(=O)(=O)[O-])c4F)c4nc(c(-c5cccc(S(=O)(=O)[O-])c5F)c5ccc2[nH]5)C=C4)C=C3)cc1)C1=Cc2cc(S(F)(F)(F)(F)F)ccc2O[C@@H]1C(F)(F)F
REMARK SMILES IDX 7 1 6 2 5 3 4 4 3 5 2 6 1 7 75 8 76 9 90 10 77 11 89 12
REMARK SMILES IDX 78 13 88 14 79 15 87 16 86 17 91 18 92 19 93 20 94 21 80 22
REMARK SMILES IDX 81 23 82 24 83 25 84 26 85 27 8 28 9 29 10 30 11 31 12 32
REMARK SMILES IDX 13 33 74 34 14 35 73 36 15 37 16 38 17 39 67 40 18 41 72 42
REMARK SMILES IDX 66 43 68 44 19 45 71 46 65 47 64 48 20 50 52 51 32 52 51 53
REMARK SMILES IDX 33 54 36 55 50 56 69 57 34 58 35 59 49 61 70 62 37 63 21 64
REMARK SMILES IDX 22 65 30 66 23 67 25 68 31 69 24 70 26 71 27 72 28 73 29 74
REMARK SMILES IDX 53 75 54 76 62 77 55 78 57 79 63 80 56 81 58 82 59 83 60 84
REMARK SMILES IDX 61 85 38 86 39 87 47 88 40 89 42 90 48 91 41 92 43 93 44 94
REMARK SMILES IDX 45 95 46 96
REMARK H PARENT 68 49 36 60
REMARK Flexibility Score: inf
ROOT
ATOM      1  C   UNL A   1      31.084  28.595  24.047  1.00  0.00     0.202 C 
ENDROOT
BRANCH   1   2
ATOM      2  O   UNL A   1      32.205  27.726  23.979  1.00  0.00    -0.374 OA
BRANCH   2   3
ATOM      3  C   UNL A   1      31.872  26.583  23.203  1.00  0.00     0.202 C 
BRANCH   3   4
ATOM      4  C   UNL A   1      30.876  25.725  23.966  1.00  0.00     0.261 C 
BRANCH   4   5
ATOM      5  O   UNL A   1      31.128  24.354  23.697  1.00  0.00    -0.460 OA
BRANCH   5   6
ATOM      6  C   UNL A   1      31.446  23.469  24.761  1.00  0.00     0.338 C 
ATOM      7  O   UNL A   1      30.548  22.715  25.250  1.00  0.00    -0.246 OA
BRANCH   6   8
ATOM      8  C   UNL A   1      32.861  23.423  25.315  1.00  0.00     0.087 C 
ATOM      9  C   UNL A   1      33.640  22.328  25.103  1.00  0.00     0.027 C 
ATOM     10  C   UNL A   1      33.406  24.602  26.105  1.00  0.00     0.316 C 
ATOM     11  C   UNL A   1      33.095  21.149  24.313  1.00  0.00     0.019 A 
ATOM     12  O   UNL A   1      32.108  22.711  22.818  1.00  0.00    -0.475 OA
ATOM     13  C   UNL A   1      33.294  19.861  24.779  1.00  0.00     0.036 A 
ATOM     14  C   UNL A   1      32.433  21.379  23.184  1.00  0.00     0.128 A 
ATOM     15  C   UNL A   1      33.004  18.855  23.827  1.00  0.00     0.107 A 
ATOM     16  C   UNL A   1      32.061  20.338  22.367  1.00  0.00     0.048 A 
ATOM     17  C   UNL A   1      32.280  19.040  22.738  1.00  0.00     0.028 A 
BRANCH  10  18
ATOM     18  C   UNL A   1      34.637  25.155  25.405  1.00  0.00     0.430 C 
ATOM     19  F   UNL A   1      35.717  24.502  25.824  1.00  0.00    -0.167 F 
ATOM     20  F   UNL A   1      34.507  24.997  24.090  1.00  0.00    -0.167 F 
ATOM     21  F   UNL A   1      34.764  26.448  25.685  1.00  0.00    -0.167 F 
ENDBRANCH  10  18
BRANCH  15  22
ATOM     22  S   UNL A   1      33.673  17.199  24.121  1.00  0.00     0.310 S 
ATOM     23  F   UNL A   1      35.081  17.781  24.564  1.00  0.00    -0.094 F 
ATOM     24  F   UNL A   1      34.220  17.186  22.645  1.00  0.00    -0.094 F 
ATOM     25  F   UNL A   1      34.249  15.777  24.376  1.00  0.00    -0.094 F 
ATOM     26  F   UNL A   1      33.242  17.287  25.638  1.00  0.00    -0.094 F 
ATOM     27  F   UNL A   1      33.183  18.687  23.912  1.00  0.00    -0.094 F 
ENDBRANCH  15  22
ENDBRANCH   6   8
ENDBRANCH   5   6
ENDBRANCH   4   5
ENDBRANCH   3   4
ENDBRANCH   2   3
ENDBRANCH   1   2
BRANCH   1  28
ATOM     28  C   UNL A   1      31.179  29.447  25.302  1.00  0.00     0.261 C 
BRANCH  28  29
ATOM     29  O   UNL A   1      32.500  29.950  25.435  1.00  0.00    -0.460 OA
BRANCH  29  30
ATOM     30  C   UNL A   1      32.815  30.844  26.492  1.00  0.00     0.338 C 
ATOM     31  O   UNL A   1      32.042  31.820  26.751  1.00  0.00    -0.246 OA
BRANCH  30  32
ATOM     32  C   UNL A   1      34.078  30.637  27.313  1.00  0.00     0.060 A 
ATOM     33  C   UNL A   1      34.836  31.732  27.694  1.00  0.00     0.016 A 
ATOM     34  C   UNL A   1      34.431  29.403  27.651  1.00  0.00     0.016 A 
ATOM     35  C   UNL A   1      36.118  31.396  28.192  1.00  0.00     0.010 A 
ATOM     36  C   UNL A   1      35.640  29.163  28.257  1.00  0.00     0.010 A 
ATOM     37  C   UNL A   1      36.467  30.193  28.610  1.00  0.00    -0.014 A 
BRANCH  37  38
ATOM     38  C   UNL A   1      37.722  29.966  29.438  1.00  0.00     0.031 A 
ATOM     39  C   UNL A   1      37.831  30.605  30.674  1.00  0.00     0.074 A 
ATOM     40  C   UNL A   1      38.692  29.133  28.907  1.00  0.00     0.049 A 
ATOM     41  N   UNL A   1      38.831  30.509  31.552  1.00  0.00    -0.248 NA
ATOM     42  C   UNL A   1      36.818  31.516  31.224  1.00  0.00     0.031 C 
ATOM     43  C   UNL A   1      38.584  28.479  27.664  1.00  0.00     0.029 A 
ATOM     44  N   UNL A   1      39.905  28.791  29.460  1.00  0.00    -0.354 N 
ATOM     45  C   UNL A   1      38.571  31.252  32.630  1.00  0.00     0.074 A 
ATOM     46  C   UNL A   1      37.275  31.915  32.431  1.00  0.00     0.031 C 
ATOM     47  C   UNL A   1      39.721  27.761  27.466  1.00  0.00     0.029 A 
ATOM     48  C   UNL A   1      40.558  27.955  28.581  1.00  0.00     0.049 A 
ATOM     49  H   UNL A   1      40.247  29.090  30.333  1.00  0.00     0.167 HD
ATOM     50  C   UNL A   1      39.361  31.401  33.771  1.00  0.00     0.034 A 
ATOM     51  C   UNL A   1      41.813  27.384  28.724  1.00  0.00     0.034 A 
ATOM     52  C   UNL A   1      40.596  30.796  33.934  1.00  0.00     0.049 A 
ATOM     53  C   UNL A   1      42.630  27.580  29.841  1.00  0.00     0.074 A 
ATOM     54  C   UNL A   1      41.404  30.929  35.080  1.00  0.00     0.029 A 
ATOM     55  N   UNL A   1      41.260  29.980  33.044  1.00  0.00    -0.354 N 
ATOM     56  N   UNL A   1      42.351  28.291  30.935  1.00  0.00    -0.248 NA
ATOM     57  C   UNL A   1      43.975  27.007  29.989  1.00  0.00     0.031 C 
ATOM     58  C   UNL A   1      42.541  30.211  34.881  1.00  0.00     0.029 A 
ATOM     59  C   UNL A   1      42.464  29.619  33.606  1.00  0.00     0.049 A 
ATOM     60  H   UNL A   1      40.931  29.702  32.158  1.00  0.00     0.167 HD
ATOM     61  C   UNL A   1      43.370  28.228  31.795  1.00  0.00     0.074 A 
ATOM     62  C   UNL A   1      44.432  27.407  31.196  1.00  0.00     0.031 C 
ATOM     63  C   UNL A   1      43.454  28.819  33.056  1.00  0.00     0.034 A 
BRANCH  50  64
ATOM     64  C   UNL A   1      38.837  32.275  34.898  1.00  0.00     0.023 A 
ATOM     65  C   UNL A   1      38.943  33.652  34.801  1.00  0.00     0.012 A 
ATOM     66  C   UNL A   1      38.251  31.702  35.942  1.00  0.00     0.148 A 
ATOM     67  C   UNL A   1      38.652  34.336  36.005  1.00  0.00     0.002 A 
ATOM     68  C   UNL A   1      37.869  32.451  37.028  1.00  0.00     0.091 A 
ATOM     69  F   UNL A   1      38.031  30.389  35.936  1.00  0.00    -0.205 F 
ATOM     70  C   UNL A   1      37.998  33.811  37.026  1.00  0.00     0.022 A 
BRANCH  68  71
ATOM     71  S   UNL A   1      37.184  31.623  38.485  1.00  0.00     0.127 S 
ATOM     72  O   UNL A   1      35.831  32.248  38.837  1.00  0.00    -0.237 OA
ATOM     73  O   UNL A   1      36.995  30.134  38.184  1.00  0.00    -0.237 OA
ATOM     74  O   UNL A   1      38.257  31.806  39.803  1.00  0.00    -0.744 OA
ENDBRANCH  68  71
ENDBRANCH  50  64
BRANCH  51  75
ATOM     75  C   UNL A   1      42.329  26.496  27.605  1.00  0.00     0.023 A 
ATOM     76  C   UNL A   1      43.047  27.060  26.563  1.00  0.00     0.012 A 
ATOM     77  C   UNL A   1      42.051  25.198  27.624  1.00  0.00     0.148 A 
ATOM     78  C   UNL A   1      43.180  26.218  25.435  1.00  0.00     0.002 A 
ATOM     79  C   UNL A   1      42.332  24.405  26.538  1.00  0.00     0.091 A 
ATOM     80  F   UNL A   1      41.494  24.660  28.706  1.00  0.00    -0.205 F 
ATOM     81  C   UNL A   1      42.986  24.911  25.449  1.00  0.00     0.022 A 
BRANCH  79  82
ATOM     82  S   UNL A   1      41.829  22.667  26.549  1.00  0.00     0.127 S 
ATOM     83  O   UNL A   1      40.301  22.578  26.548  1.00  0.00    -0.237 OA
ATOM     84  O   UNL A   1      42.381  21.969  25.304  1.00  0.00    -0.237 OA
ATOM     85  O   UNL A   1      42.443  21.904  27.950  1.00  0.00    -0.744 OA
ENDBRANCH  79  82
ENDBRANCH  51  75
BRANCH  63  86
ATOM     86  C   UNL A   1      44.710  28.573  33.877  1.00  0.00     0.023 A 
ATOM     87  C   UNL A   1      45.783  29.443  33.774  1.00  0.00     0.012 A 
ATOM     88  C   UNL A   1      44.753  27.518  34.684  1.00  0.00     0.148 A 
ATOM     89  C   UNL A   1      46.977  28.951  34.351  1.00  0.00     0.002 A 
ATOM     90  C   UNL A   1      45.919  27.174  35.324  1.00  0.00     0.091 A 
ATOM     91  F   UNL A   1      43.658  26.790  34.876  1.00  0.00    -0.205 F 
ATOM     92  C   UNL A   1      47.036  27.956  35.218  1.00  0.00     0.022 A 
BRANCH  90  93
ATOM     93  S   UNL A   1      45.980  25.665  36.319  1.00  0.00     0.127 S 
ATOM     94  O   UNL A   1      47.426  25.381  36.731  1.00  0.00    -0.237 OA
ATOM     95  O   UNL A   1      45.119  25.844  37.572  1.00  0.00    -0.237 OA
ATOM     96  O   UNL A   1      45.381  24.353  35.400  1.00  0.00    -0.744 OA
ENDBRANCH  90  93
ENDBRANCH  63  86
ENDBRANCH  37  38
ENDBRANCH  30  32
ENDBRANCH  29  30
ENDBRANCH  28  29
ENDBRANCH   1  28
TORSDOF 19
ENDMDL
