MODEL 1
REMARK VINA RESULT:     -10.8      0.000      0.000
REMARK SMILES O=C(Cc1ccccc1[N+](=O)[O-])N[C@@H]1C=C[C@H](C(=O)OCCOCCOC(=O)c2ccc(-c3c4nc(c(-c5cccc(S(=O)(=O)[O-])c5F)c5ccc([nH]5)c(-c5cccc(S(=O)(=O)[O-])c5F)c5nc(c(-c6cccc(S(=O)(=O)[O-])c6F)c6ccc3[nH]6)C=C5)C=C4)cc2)C1
REMARK SMILES IDX 22 1 21 2 20 3 18 4 19 5 17 6 14 7 15 8 92 9 16 10 13 11
REMARK SMILES IDX 1 12 2 13 3 15 4 16 5 17 9 18 6 19 8 20 7 21 10 22 11 23
REMARK SMILES IDX 12 24 23 25 24 26 25 27 26 28 27 29 28 30 29 31 30 32 91 33
REMARK SMILES IDX 31 34 90 35 32 36 33 37 34 38 84 39 35 40 89 41 83 42 85 43
REMARK SMILES IDX 36 44 88 45 82 46 81 47 37 49 69 50 49 51 68 52 50 53 53 54
REMARK SMILES IDX 67 55 86 56 51 57 52 58 66 60 87 61 54 62 38 63 39 64 47 65
REMARK SMILES IDX 40 66 42 67 48 68 41 69 43 70 44 71 45 72 46 73 70 74 71 75
REMARK SMILES IDX 79 76 72 77 74 78 80 79 73 80 75 81 76 82 77 83 78 84 55 85
REMARK SMILES IDX 56 86 64 87 57 88 59 89 65 90 58 91 60 92 61 93 62 94 63 95
REMARK H PARENT 13 14 85 48 53 59
REMARK Flexibility Score: inf
ROOT
ATOM      1  C   UNL A   1      33.550  29.297  23.862  1.00  0.00     0.202 C 
ENDROOT
BRANCH   1   2
ATOM      2  C   UNL A   1      33.678  27.846  23.389  1.00  0.00     0.261 C 
BRANCH   2   3
ATOM      3  O   UNL A   1      32.990  26.920  24.237  1.00  0.00    -0.463 OA
BRANCH   3   4
ATOM      4  C   UNL A   1      31.658  26.804  23.966  1.00  0.00     0.312 C 
ATOM      5  O   UNL A   1      31.186  26.635  22.845  1.00  0.00    -0.252 OA
BRANCH   4   6
ATOM      6  C   UNL A   1      30.826  26.723  25.245  1.00  0.00     0.124 C 
ATOM      7  C   UNL A   1      31.658  24.903  26.638  1.00  0.00     0.106 C 
ATOM      8  C   UNL A   1      30.312  24.585  26.090  1.00  0.00    -0.006 C 
ATOM      9  C   UNL A   1      31.741  26.422  26.443  1.00  0.00     0.048 C 
ATOM     10  C   UNL A   1      29.851  25.584  25.321  1.00  0.00    -0.014 C 
BRANCH   7  11
ATOM     11  N   UNL A   1      32.725  24.154  25.986  1.00  0.00    -0.350 N 
ATOM     12  O   UNL A   1      32.952  22.313  27.379  1.00  0.00    -0.275 OA
ATOM     13  C   UNL A   1      33.213  22.907  26.339  1.00  0.00     0.225 C 
ATOM     14  H   UNL A   1      33.147  24.583  25.207  1.00  0.00     0.164 HD
BRANCH  13  15
ATOM     15  C   UNL A   1      34.127  22.268  25.306  1.00  0.00     0.142 C 
BRANCH  15  16
ATOM     16  C   UNL A   1      33.446  21.177  24.501  1.00  0.00     0.039 A 
ATOM     17  C   UNL A   1      33.512  19.852  24.977  1.00  0.00     0.011 A 
ATOM     18  C   UNL A   1      32.750  21.381  23.292  1.00  0.00     0.273 A 
ATOM     19  C   UNL A   1      32.921  18.790  24.283  1.00  0.00     0.001 A 
ATOM     20  C   UNL A   1      32.152  20.317  22.592  1.00  0.00     0.086 A 
ATOM     21  C   UNL A   1      32.241  19.022  23.092  1.00  0.00     0.007 A 
BRANCH  18  22
ATOM     22  N   UNL A   1      32.547  22.711  22.728  1.00  0.00     0.063 N 
ATOM     23  O   UNL A   1      31.579  23.362  23.144  1.00  0.00    -0.258 OA
ATOM     24  O   UNL A   1      33.411  23.130  21.946  1.00  0.00    -0.258 OA
ENDBRANCH  18  22
ENDBRANCH  15  16
ENDBRANCH  13  15
ENDBRANCH   7  11
ENDBRANCH   4   6
ENDBRANCH   3   4
ENDBRANCH   2   3
ENDBRANCH   1   2
BRANCH   1  25
ATOM     25  O   UNL A   1      33.084  29.543  25.189  1.00  0.00    -0.374 OA
BRANCH  25  26
ATOM     26  C   UNL A   1      31.787  30.112  25.358  1.00  0.00     0.202 C 
BRANCH  26  27
ATOM     27  C   UNL A   1      31.638  31.323  26.284  1.00  0.00     0.261 C 
BRANCH  27  28
ATOM     28  O   UNL A   1      32.436  31.223  27.472  1.00  0.00    -0.460 OA
BRANCH  28  29
ATOM     29  C   UNL A   1      33.337  32.220  27.627  1.00  0.00     0.338 C 
ATOM     30  O   UNL A   1      33.112  33.426  27.624  1.00  0.00    -0.246 OA
BRANCH  29  31
ATOM     31  C   UNL A   1      34.653  31.669  27.988  1.00  0.00     0.060 A 
ATOM     32  C   UNL A   1      34.735  30.289  28.221  1.00  0.00     0.016 A 
ATOM     33  C   UNL A   1      35.761  32.495  28.185  1.00  0.00     0.016 A 
ATOM     34  C   UNL A   1      35.915  29.736  28.709  1.00  0.00     0.010 A 
ATOM     35  C   UNL A   1      36.940  31.937  28.685  1.00  0.00     0.010 A 
ATOM     36  C   UNL A   1      37.007  30.566  28.989  1.00  0.00    -0.014 A 
BRANCH  36  37
ATOM     37  C   UNL A   1      38.162  30.022  29.738  1.00  0.00     0.031 A 
ATOM     38  C   UNL A   1      38.397  30.484  31.149  1.00  0.00     0.074 A 
ATOM     39  C   UNL A   1      38.997  29.140  29.165  1.00  0.00     0.049 A 
ATOM     40  N   UNL A   1      39.358  30.166  31.975  1.00  0.00    -0.248 NA
ATOM     41  C   UNL A   1      37.422  31.441  31.697  1.00  0.00     0.031 C 
ATOM     42  C   UNL A   1      38.875  28.630  27.801  1.00  0.00     0.029 A 
ATOM     43  N   UNL A   1      40.133  28.545  29.652  1.00  0.00    -0.354 N 
ATOM     44  C   UNL A   1      39.126  30.906  33.127  1.00  0.00     0.074 A 
ATOM     45  C   UNL A   1      37.938  31.698  32.890  1.00  0.00     0.031 C 
ATOM     46  C   UNL A   1      39.924  27.832  27.541  1.00  0.00     0.029 A 
ATOM     47  C   UNL A   1      40.796  27.790  28.715  1.00  0.00     0.049 A 
ATOM     48  H   UNL A   1      40.442  28.650  30.580  1.00  0.00     0.167 HD
ATOM     49  C   UNL A   1      39.828  30.915  34.285  1.00  0.00     0.034 A 
ATOM     50  C   UNL A   1      41.986  27.161  28.788  1.00  0.00     0.034 A 
ATOM     51  C   UNL A   1      40.995  30.110  34.523  1.00  0.00     0.049 A 
ATOM     52  C   UNL A   1      42.752  27.180  30.082  1.00  0.00     0.074 A 
ATOM     53  C   UNL A   1      41.735  29.988  35.685  1.00  0.00     0.029 A 
ATOM     54  N   UNL A   1      41.604  29.303  33.574  1.00  0.00    -0.354 N 
ATOM     55  N   UNL A   1      42.444  27.768  31.214  1.00  0.00    -0.248 NA
ATOM     56  C   UNL A   1      44.009  26.421  30.125  1.00  0.00     0.031 C 
ATOM     57  C   UNL A   1      42.811  29.129  35.429  1.00  0.00     0.029 A 
ATOM     58  C   UNL A   1      42.724  28.695  34.116  1.00  0.00     0.049 A 
ATOM     59  H   UNL A   1      41.288  29.180  32.650  1.00  0.00     0.167 HD
ATOM     60  C   UNL A   1      43.453  27.429  32.110  1.00  0.00     0.074 A 
ATOM     61  C   UNL A   1      44.372  26.568  31.393  1.00  0.00     0.031 C 
ATOM     62  C   UNL A   1      43.609  27.806  33.404  1.00  0.00     0.034 A 
BRANCH  49  63
ATOM     63  C   UNL A   1      39.332  31.814  35.386  1.00  0.00     0.023 A 
ATOM     64  C   UNL A   1      38.351  31.346  36.285  1.00  0.00     0.012 A 
ATOM     65  C   UNL A   1      39.848  33.115  35.544  1.00  0.00     0.148 A 
ATOM     66  C   UNL A   1      37.860  32.172  37.295  1.00  0.00     0.002 A 
ATOM     67  C   UNL A   1      39.384  33.918  36.581  1.00  0.00     0.091 A 
ATOM     68  F   UNL A   1      40.759  33.556  34.665  1.00  0.00    -0.205 F 
ATOM     69  C   UNL A   1      38.382  33.454  37.448  1.00  0.00     0.022 A 
BRANCH  67  70
ATOM     70  S   UNL A   1      40.054  35.554  36.896  1.00  0.00     0.127 S 
ATOM     71  O   UNL A   1      39.634  36.282  35.701  1.00  0.00    -0.237 OA
ATOM     72  O   UNL A   1      39.357  35.946  38.123  1.00  0.00    -0.237 OA
ATOM     73  O   UNL A   1      41.490  35.369  37.054  1.00  0.00    -0.744 OA
ENDBRANCH  67  70
ENDBRANCH  49  63
BRANCH  50  74
ATOM     74  C   UNL A   1      42.495  26.436  27.591  1.00  0.00     0.023 A 
ATOM     75  C   UNL A   1      43.390  27.077  26.715  1.00  0.00     0.012 A 
ATOM     76  C   UNL A   1      42.149  25.090  27.362  1.00  0.00     0.148 A 
ATOM     77  C   UNL A   1      43.924  26.392  25.622  1.00  0.00     0.002 A 
ATOM     78  C   UNL A   1      42.723  24.398  26.302  1.00  0.00     0.091 A 
ATOM     79  F   UNL A   1      41.284  24.506  28.203  1.00  0.00    -0.205 F 
ATOM     80  C   UNL A   1      43.602  25.051  25.425  1.00  0.00     0.022 A 
BRANCH  78  81
ATOM     81  S   UNL A   1      42.466  22.640  26.041  1.00  0.00     0.127 S 
ATOM     82  O   UNL A   1      43.066  22.442  24.723  1.00  0.00    -0.237 OA
ATOM     83  O   UNL A   1      43.217  22.058  27.153  1.00  0.00    -0.237 OA
ATOM     84  O   UNL A   1      41.026  22.434  26.112  1.00  0.00    -0.744 OA
ENDBRANCH  78  81
ENDBRANCH  50  74
BRANCH  62  85
ATOM     85  C   UNL A   1      44.809  27.281  34.149  1.00  0.00     0.023 A 
ATOM     86  C   UNL A   1      45.998  28.035  34.181  1.00  0.00     0.012 A 
ATOM     87  C   UNL A   1      44.729  26.084  34.891  1.00  0.00     0.148 A 
ATOM     88  C   UNL A   1      47.097  27.597  34.918  1.00  0.00     0.002 A 
ATOM     89  C   UNL A   1      45.813  25.677  35.661  1.00  0.00     0.091 A 
ATOM     90  F   UNL A   1      43.596  25.370  34.834  1.00  0.00    -0.205 F 
ATOM     91  C   UNL A   1      47.001  26.427  35.668  1.00  0.00     0.022 A 
BRANCH  89  92
ATOM     92  S   UNL A   1      45.746  24.236  36.732  1.00  0.00     0.127 S 
ATOM     93  O   UNL A   1      46.944  24.415  37.550  1.00  0.00    -0.237 OA
ATOM     94  O   UNL A   1      44.484  24.439  37.448  1.00  0.00    -0.237 OA
ATOM     95  O   UNL A   1      45.757  23.079  35.849  1.00  0.00    -0.744 OA
ENDBRANCH  89  92
ENDBRANCH  62  85
ENDBRANCH  36  37
ENDBRANCH  29  31
ENDBRANCH  28  29
ENDBRANCH  27  28
ENDBRANCH  26  27
ENDBRANCH  25  26
ENDBRANCH   1  25
TORSDOF 21
ENDMDL
MODEL 2
REMARK VINA RESULT:     -10.8      1.239      8.045
REMARK SMILES O=C(Cc1ccccc1[N+](=O)[O-])N[C@@H]1C=C[C@H](C(=O)OCCOCCOC(=O)c2ccc(-c3c4nc(c(-c5cccc(S(=O)(=O)[O-])c5F)c5ccc([nH]5)c(-c5cccc(S(=O)(=O)[O-])c5F)c5nc(c(-c6cccc(S(=O)(=O)[O-])c6F)c6ccc3[nH]6)C=C5)C=C4)cc2)C1
REMARK SMILES IDX 22 1 21 2 20 3 18 4 19 5 17 6 14 7 15 8 92 9 16 10 13 11
REMARK SMILES IDX 1 12 2 13 3 15 4 16 5 17 9 18 6 19 8 20 7 21 10 22 11 23
REMARK SMILES IDX 12 24 23 25 24 26 25 27 26 28 27 29 28 30 29 31 30 32 91 33
REMARK SMILES IDX 31 34 90 35 32 36 33 37 34 38 84 39 35 40 89 41 83 42 85 43
REMARK SMILES IDX 36 44 88 45 82 46 81 47 37 49 69 50 49 51 68 52 50 53 53 54
REMARK SMILES IDX 67 55 86 56 51 57 52 58 66 60 87 61 54 62 38 63 39 64 47 65
REMARK SMILES IDX 40 66 42 67 48 68 41 69 43 70 44 71 45 72 46 73 70 74 71 75
REMARK SMILES IDX 79 76 72 77 74 78 80 79 73 80 75 81 76 82 77 83 78 84 55 85
REMARK SMILES IDX 56 86 64 87 57 88 59 89 65 90 58 91 60 92 61 93 62 94 63 95
REMARK H PARENT 13 14 85 48 53 59
REMARK Flexibility Score: inf
ROOT
ATOM      1  C   UNL A   1      33.258  26.941  26.363  1.00  0.00     0.202 C 
ENDROOT
BRANCH   1   2
ATOM      2  C   UNL A   1      32.676  25.540  26.146  1.00  0.00     0.261 C 
BRANCH   2   3
ATOM      3  O   UNL A   1      33.647  24.500  26.311  1.00  0.00    -0.463 OA
BRANCH   3   4
ATOM      4  C   UNL A   1      33.257  23.508  27.162  1.00  0.00     0.312 C 
ATOM      5  O   UNL A   1      32.172  23.466  27.735  1.00  0.00    -0.252 OA
BRANCH   4   6
ATOM      6  C   UNL A   1      34.257  22.354  27.179  1.00  0.00     0.124 C 
ATOM      7  C   UNL A   1      34.553  21.505  24.912  1.00  0.00     0.106 C 
ATOM      8  C   UNL A   1      33.841  20.516  25.766  1.00  0.00    -0.006 C 
ATOM      9  C   UNL A   1      35.178  22.444  25.951  1.00  0.00     0.048 C 
ATOM     10  C   UNL A   1      33.675  20.980  27.014  1.00  0.00    -0.014 C 
BRANCH   7  11
ATOM     11  N   UNL A   1      33.671  22.166  23.958  1.00  0.00    -0.350 N 
ATOM     12  O   UNL A   1      35.164  23.423  22.703  1.00  0.00    -0.275 OA
ATOM     13  C   UNL A   1      34.039  22.976  22.897  1.00  0.00     0.225 C 
ATOM     14  H   UNL A   1      32.706  22.021  24.081  1.00  0.00     0.164 HD
BRANCH  13  15
ATOM     15  C   UNL A   1      32.918  23.287  21.917  1.00  0.00     0.142 C 
BRANCH  15  16
ATOM     16  C   UNL A   1      31.981  24.374  22.409  1.00  0.00     0.039 A 
ATOM     17  C   UNL A   1      30.919  24.009  23.261  1.00  0.00     0.011 A 
ATOM     18  C   UNL A   1      32.081  25.739  22.072  1.00  0.00     0.273 A 
ATOM     19  C   UNL A   1      30.006  24.953  23.744  1.00  0.00     0.001 A 
ATOM     20  C   UNL A   1      31.166  26.692  22.557  1.00  0.00     0.086 A 
ATOM     21  C   UNL A   1      30.129  26.293  23.395  1.00  0.00     0.007 A 
BRANCH  18  22
ATOM     22  N   UNL A   1      33.173  26.259  21.257  1.00  0.00     0.063 N 
ATOM     23  O   UNL A   1      33.181  25.953  20.057  1.00  0.00    -0.258 OA
ATOM     24  O   UNL A   1      33.959  27.047  21.802  1.00  0.00    -0.258 OA
ENDBRANCH  18  22
ENDBRANCH  15  16
ENDBRANCH  13  15
ENDBRANCH   7  11
ENDBRANCH   4   6
ENDBRANCH   3   4
ENDBRANCH   2   3
ENDBRANCH   1   2
BRANCH   1  25
ATOM     25  O   UNL A   1      32.951  27.960  25.412  1.00  0.00    -0.374 OA
BRANCH  25  26
ATOM     26  C   UNL A   1      31.743  28.700  25.576  1.00  0.00     0.202 C 
BRANCH  26  27
ATOM     27  C   UNL A   1      31.842  30.196  25.892  1.00  0.00     0.261 C 
BRANCH  27  28
ATOM     28  O   UNL A   1      32.368  30.459  27.201  1.00  0.00    -0.460 OA
BRANCH  28  29
ATOM     29  C   UNL A   1      33.088  31.600  27.297  1.00  0.00     0.338 C 
ATOM     30  O   UNL A   1      32.667  32.748  27.205  1.00  0.00    -0.246 OA
BRANCH  29  31
ATOM     31  C   UNL A   1      34.467  31.301  27.714  1.00  0.00     0.060 A 
ATOM     32  C   UNL A   1      34.794  29.960  27.957  1.00  0.00     0.016 A 
ATOM     33  C   UNL A   1      35.393  32.317  27.952  1.00  0.00     0.016 A 
ATOM     34  C   UNL A   1      36.034  29.634  28.496  1.00  0.00     0.010 A 
ATOM     35  C   UNL A   1      36.634  31.987  28.503  1.00  0.00     0.010 A 
ATOM     36  C   UNL A   1      36.942  30.651  28.816  1.00  0.00    -0.014 A 
BRANCH  36  37
ATOM     37  C   UNL A   1      38.145  30.329  29.615  1.00  0.00     0.031 A 
ATOM     38  C   UNL A   1      39.154  29.366  29.057  1.00  0.00     0.074 A 
ATOM     39  C   UNL A   1      38.329  30.877  30.828  1.00  0.00     0.049 A 
ATOM     40  N   UNL A   1      40.258  28.918  29.594  1.00  0.00    -0.248 NA
ATOM     41  C   UNL A   1      38.874  28.828  27.715  1.00  0.00     0.031 C 
ATOM     42  C   UNL A   1      37.414  31.814  31.476  1.00  0.00     0.029 A 
ATOM     43  N   UNL A   1      39.335  30.695  31.743  1.00  0.00    -0.354 N 
ATOM     44  C   UNL A   1      40.789  28.022  28.675  1.00  0.00     0.074 A 
ATOM     45  C   UNL A   1      39.880  27.980  27.550  1.00  0.00     0.031 C 
ATOM     46  C   UNL A   1      37.876  32.090  32.706  1.00  0.00     0.029 A 
ATOM     47  C   UNL A   1      39.109  31.337  32.935  1.00  0.00     0.049 A 
ATOM     48  H   UNL A   1      40.138  30.156  31.562  1.00  0.00     0.167 HD
ATOM     49  C   UNL A   1      41.937  27.309  28.753  1.00  0.00     0.034 A 
ATOM     50  C   UNL A   1      39.802  31.299  34.090  1.00  0.00     0.034 A 
ATOM     51  C   UNL A   1      42.847  27.369  29.864  1.00  0.00     0.049 A 
ATOM     52  C   UNL A   1      41.077  30.502  34.159  1.00  0.00     0.074 A 
ATOM     53  C   UNL A   1      44.073  26.746  30.008  1.00  0.00     0.029 A 
ATOM     54  N   UNL A   1      42.622  28.084  31.031  1.00  0.00    -0.354 N 
ATOM     55  N   UNL A   1      41.644  29.773  33.228  1.00  0.00    -0.248 NA
ATOM     56  C   UNL A   1      41.828  30.551  35.421  1.00  0.00     0.031 C 
ATOM     57  C   UNL A   1      44.575  27.060  31.277  1.00  0.00     0.029 A 
ATOM     58  C   UNL A   1      43.674  27.901  31.911  1.00  0.00     0.049 A 
ATOM     59  H   UNL A   1      41.828  28.640  31.209  1.00  0.00     0.167 HD
ATOM     60  C   UNL A   1      42.829  29.297  33.780  1.00  0.00     0.074 A 
ATOM     61  C   UNL A   1      42.907  29.838  35.122  1.00  0.00     0.031 C 
ATOM     62  C   UNL A   1      43.760  28.479  33.229  1.00  0.00     0.034 A 
BRANCH  49  63
ATOM     63  C   UNL A   1      42.276  26.416  27.589  1.00  0.00     0.023 A 
ATOM     64  C   UNL A   1      43.026  26.927  26.510  1.00  0.00     0.012 A 
ATOM     65  C   UNL A   1      41.867  25.069  27.568  1.00  0.00     0.148 A 
ATOM     66  C   UNL A   1      43.327  26.124  25.410  1.00  0.00     0.002 A 
ATOM     67  C   UNL A   1      42.208  24.262  26.488  1.00  0.00     0.091 A 
ATOM     68  F   UNL A   1      41.129  24.605  28.587  1.00  0.00    -0.205 F 
ATOM     69  C   UNL A   1      42.926  24.790  25.403  1.00  0.00     0.022 A 
BRANCH  67  70
ATOM     70  S   UNL A   1      41.796  22.515  26.431  1.00  0.00     0.127 S 
ATOM     71  O   UNL A   1      42.381  22.113  25.153  1.00  0.00    -0.237 OA
ATOM     72  O   UNL A   1      42.489  21.991  27.609  1.00  0.00    -0.237 OA
ATOM     73  O   UNL A   1      40.343  22.449  26.510  1.00  0.00    -0.744 OA
ENDBRANCH  67  70
ENDBRANCH  49  63
BRANCH  50  74
ATOM     74  C   UNL A   1      39.304  32.073  35.260  1.00  0.00     0.023 A 
ATOM     75  C   UNL A   1      38.442  31.461  36.187  1.00  0.00     0.012 A 
ATOM     76  C   UNL A   1      39.741  33.393  35.491  1.00  0.00     0.148 A 
ATOM     77  C   UNL A   1      38.014  32.152  37.321  1.00  0.00     0.002 A 
ATOM     78  C   UNL A   1      39.352  34.058  36.647  1.00  0.00     0.091 A 
ATOM     79  F   UNL A   1      40.551  33.960  34.585  1.00  0.00    -0.205 F 
ATOM     80  C   UNL A   1      38.479  33.444  37.558  1.00  0.00     0.022 A 
BRANCH  78  81
ATOM     81  S   UNL A   1      39.997  35.673  37.097  1.00  0.00     0.127 S 
ATOM     82  O   UNL A   1      39.338  35.912  38.380  1.00  0.00    -0.237 OA
ATOM     83  O   UNL A   1      41.433  35.409  37.183  1.00  0.00    -0.237 OA
ATOM     84  O   UNL A   1      39.611  36.571  36.017  1.00  0.00    -0.744 OA
ENDBRANCH  78  81
ENDBRANCH  50  74
BRANCH  62  85
ATOM     85  C   UNL A   1      44.964  28.123  34.064  1.00  0.00     0.023 A 
ATOM     86  C   UNL A   1      46.041  29.025  34.158  1.00  0.00     0.012 A 
ATOM     87  C   UNL A   1      44.987  26.937  34.827  1.00  0.00     0.148 A 
ATOM     88  C   UNL A   1      47.135  28.744  34.977  1.00  0.00     0.002 A 
ATOM     89  C   UNL A   1      46.058  26.685  35.677  1.00  0.00     0.091 A 
ATOM     90  F   UNL A   1      43.961  26.082  34.711  1.00  0.00    -0.205 F 
ATOM     91  C   UNL A   1      47.137  27.582  35.745  1.00  0.00     0.022 A 
BRANCH  89  92
ATOM     92  S   UNL A   1      46.102  25.263  36.774  1.00  0.00     0.127 S 
ATOM     93  O   UNL A   1      46.156  24.154  35.823  1.00  0.00    -0.237 OA
ATOM     94  O   UNL A   1      47.341  25.484  37.523  1.00  0.00    -0.237 OA
ATOM     95  O   UNL A   1      44.890  25.339  37.578  1.00  0.00    -0.744 OA
ENDBRANCH  89  92
ENDBRANCH  62  85
ENDBRANCH  36  37
ENDBRANCH  29  31
ENDBRANCH  28  29
ENDBRANCH  27  28
ENDBRANCH  26  27
ENDBRANCH  25  26
ENDBRANCH   1  25
TORSDOF 21
ENDMDL
MODEL 3
REMARK VINA RESULT:     -10.7      1.381      2.316
REMARK SMILES O=C(Cc1ccccc1[N+](=O)[O-])N[C@@H]1C=C[C@H](C(=O)OCCOCCOC(=O)c2ccc(-c3c4nc(c(-c5cccc(S(=O)(=O)[O-])c5F)c5ccc([nH]5)c(-c5cccc(S(=O)(=O)[O-])c5F)c5nc(c(-c6cccc(S(=O)(=O)[O-])c6F)c6ccc3[nH]6)C=C5)C=C4)cc2)C1
REMARK SMILES IDX 22 1 21 2 20 3 18 4 19 5 17 6 14 7 15 8 92 9 16 10 13 11
REMARK SMILES IDX 1 12 2 13 3 15 4 16 5 17 9 18 6 19 8 20 7 21 10 22 11 23
REMARK SMILES IDX 12 24 23 25 24 26 25 27 26 28 27 29 28 30 29 31 30 32 91 33
REMARK SMILES IDX 31 34 90 35 32 36 33 37 34 38 84 39 35 40 89 41 83 42 85 43
REMARK SMILES IDX 36 44 88 45 82 46 81 47 37 49 69 50 49 51 68 52 50 53 53 54
REMARK SMILES IDX 67 55 86 56 51 57 52 58 66 60 87 61 54 62 38 63 39 64 47 65
REMARK SMILES IDX 40 66 42 67 48 68 41 69 43 70 44 71 45 72 46 73 70 74 71 75
REMARK SMILES IDX 79 76 72 77 74 78 80 79 73 80 75 81 76 82 77 83 78 84 55 85
REMARK SMILES IDX 56 86 64 87 57 88 59 89 65 90 58 91 60 92 61 93 62 94 63 95
REMARK H PARENT 13 14 85 48 53 59
REMARK Flexibility Score: inf
ROOT
ATOM      1  C   UNL A   1      32.487  29.480  27.169  1.00  0.00     0.202 C 
ENDROOT
BRANCH   1   2
ATOM      2  C   UNL A   1      31.754  28.619  26.136  1.00  0.00     0.261 C 
BRANCH   2   3
ATOM      3  O   UNL A   1      31.815  27.219  26.431  1.00  0.00    -0.463 OA
BRANCH   3   4
ATOM      4  C   UNL A   1      32.005  26.430  25.335  1.00  0.00     0.312 C 
ATOM      5  O   UNL A   1      32.015  25.202  25.352  1.00  0.00    -0.252 OA
BRANCH   4   6
ATOM      6  C   UNL A   1      32.022  27.248  24.045  1.00  0.00     0.124 C 
ATOM      7  C   UNL A   1      31.872  25.745  22.131  1.00  0.00     0.106 C 
ATOM      8  C   UNL A   1      33.214  26.383  22.207  1.00  0.00    -0.006 C 
ATOM      9  C   UNL A   1      31.027  26.650  23.036  1.00  0.00     0.048 C 
ATOM     10  C   UNL A   1      33.301  27.210  23.261  1.00  0.00    -0.014 C 
BRANCH   7  11
ATOM     11  N   UNL A   1      31.889  24.343  22.529  1.00  0.00    -0.350 N 
ATOM     12  O   UNL A   1      33.538  23.464  21.156  1.00  0.00    -0.275 OA
ATOM     13  C   UNL A   1      32.759  23.357  22.095  1.00  0.00     0.225 C 
ATOM     14  H   UNL A   1      31.205  24.066  23.181  1.00  0.00     0.164 HD
BRANCH  13  15
ATOM     15  C   UNL A   1      32.707  22.066  22.898  1.00  0.00     0.142 C 
BRANCH  15  16
ATOM     16  C   UNL A   1      33.850  21.933  23.887  1.00  0.00     0.039 A 
ATOM     17  C   UNL A   1      34.720  23.028  24.058  1.00  0.00     0.011 A 
ATOM     18  C   UNL A   1      34.122  20.783  24.655  1.00  0.00     0.273 A 
ATOM     19  C   UNL A   1      35.805  22.976  24.940  1.00  0.00     0.001 A 
ATOM     20  C   UNL A   1      35.211  20.727  25.545  1.00  0.00     0.086 A 
ATOM     21  C   UNL A   1      36.050  21.827  25.684  1.00  0.00     0.007 A 
BRANCH  18  22
ATOM     22  N   UNL A   1      33.259  19.607  24.626  1.00  0.00     0.063 N 
ATOM     23  O   UNL A   1      33.713  18.584  24.096  1.00  0.00    -0.258 OA
ATOM     24  O   UNL A   1      32.174  19.689  25.218  1.00  0.00    -0.258 OA
ENDBRANCH  18  22
ENDBRANCH  15  16
ENDBRANCH  13  15
ENDBRANCH   7  11
ENDBRANCH   4   6
ENDBRANCH   3   4
ENDBRANCH   2   3
ENDBRANCH   1   2
BRANCH   1  25
ATOM     25  O   UNL A   1      32.786  30.836  26.837  1.00  0.00    -0.374 OA
BRANCH  25  26
ATOM     26  C   UNL A   1      31.709  31.765  26.742  1.00  0.00     0.202 C 
BRANCH  26  27
ATOM     27  C   UNL A   1      32.023  33.260  26.853  1.00  0.00     0.261 C 
BRANCH  27  28
ATOM     28  O   UNL A   1      32.413  33.654  28.177  1.00  0.00    -0.460 OA
BRANCH  28  29
ATOM     29  C   UNL A   1      33.575  34.344  28.237  1.00  0.00     0.338 C 
ATOM     30  O   UNL A   1      33.713  35.562  28.194  1.00  0.00    -0.246 OA
BRANCH  29  31
ATOM     31  C   UNL A   1      34.692  33.439  28.545  1.00  0.00     0.060 A 
ATOM     32  C   UNL A   1      34.415  32.313  29.333  1.00  0.00     0.016 A 
ATOM     33  C   UNL A   1      35.999  33.733  28.153  1.00  0.00     0.016 A 
ATOM     34  C   UNL A   1      35.455  31.505  29.781  1.00  0.00     0.010 A 
ATOM     35  C   UNL A   1      37.042  32.925  28.614  1.00  0.00     0.010 A 
ATOM     36  C   UNL A   1      36.778  31.836  29.463  1.00  0.00    -0.014 A 
BRANCH  36  37
ATOM     37  C   UNL A   1      37.889  31.131  30.142  1.00  0.00     0.031 A 
ATOM     38  C   UNL A   1      38.224  31.497  31.560  1.00  0.00     0.074 A 
ATOM     39  C   UNL A   1      38.596  30.188  29.498  1.00  0.00     0.049 A 
ATOM     40  N   UNL A   1      39.171  31.034  32.332  1.00  0.00    -0.248 NA
ATOM     41  C   UNL A   1      37.384  32.531  32.187  1.00  0.00     0.031 C 
ATOM     42  C   UNL A   1      38.370  29.759  28.120  1.00  0.00     0.029 A 
ATOM     43  N   UNL A   1      39.674  29.447  29.913  1.00  0.00    -0.354 N 
ATOM     44  C   UNL A   1      39.065  31.742  33.524  1.00  0.00     0.074 A 
ATOM     45  C   UNL A   1      37.968  32.672  33.368  1.00  0.00     0.031 C 
ATOM     46  C   UNL A   1      39.311  28.862  27.785  1.00  0.00     0.029 A 
ATOM     47  C   UNL A   1      40.213  28.667  28.920  1.00  0.00     0.049 A 
ATOM     48  H   UNL A   1      40.025  29.473  30.832  1.00  0.00     0.167 HD
ATOM     49  C   UNL A   1      39.804  31.617  34.652  1.00  0.00     0.034 A 
ATOM     50  C   UNL A   1      41.324  27.905  28.918  1.00  0.00     0.034 A 
ATOM     51  C   UNL A   1      40.879  30.676  34.808  1.00  0.00     0.049 A 
ATOM     52  C   UNL A   1      42.133  27.777  30.180  1.00  0.00     0.074 A 
ATOM     53  C   UNL A   1      41.640  30.417  35.933  1.00  0.00     0.029 A 
ATOM     54  N   UNL A   1      41.359  29.850  33.802  1.00  0.00    -0.354 N 
ATOM     55  N   UNL A   1      41.934  28.342  31.347  1.00  0.00    -0.248 NA
ATOM     56  C   UNL A   1      43.296  26.880  30.140  1.00  0.00     0.031 C 
ATOM     57  C   UNL A   1      42.601  29.455  35.598  1.00  0.00     0.029 A 
ATOM     58  C   UNL A   1      42.420  29.096  34.272  1.00  0.00     0.049 A 
ATOM     59  H   UNL A   1      40.998  29.807  32.887  1.00  0.00     0.167 HD
ATOM     60  C   UNL A   1      42.929  27.851  32.187  1.00  0.00     0.074 A 
ATOM     61  C   UNL A   1      43.718  26.926  31.397  1.00  0.00     0.031 C 
ATOM     62  C   UNL A   1      43.172  28.147  33.488  1.00  0.00     0.034 A 
BRANCH  49  63
ATOM     63  C   UNL A   1      39.453  32.514  35.809  1.00  0.00     0.023 A 
ATOM     64  C   UNL A   1      38.626  32.030  36.844  1.00  0.00     0.012 A 
ATOM     65  C   UNL A   1      39.954  33.827  35.883  1.00  0.00     0.148 A 
ATOM     66  C   UNL A   1      38.268  32.854  37.911  1.00  0.00     0.002 A 
ATOM     67  C   UNL A   1      39.628  34.629  36.972  1.00  0.00     0.091 A 
ATOM     68  F   UNL A   1      40.715  34.283  34.878  1.00  0.00    -0.205 F 
ATOM     69  C   UNL A   1      38.776  34.149  37.979  1.00  0.00     0.022 A 
BRANCH  67  70
ATOM     70  S   UNL A   1      40.297  36.283  37.178  1.00  0.00     0.127 S 
ATOM     71  O   UNL A   1      39.985  36.892  35.886  1.00  0.00    -0.237 OA
ATOM     72  O   UNL A   1      39.511  36.800  38.300  1.00  0.00    -0.237 OA
ATOM     73  O   UNL A   1      41.713  36.103  37.468  1.00  0.00    -0.744 OA
ENDBRANCH  67  70
ENDBRANCH  49  63
BRANCH  50  74
ATOM     74  C   UNL A   1      41.705  27.184  27.672  1.00  0.00     0.023 A 
ATOM     75  C   UNL A   1      42.266  27.897  26.597  1.00  0.00     0.012 A 
ATOM     76  C   UNL A   1      41.578  25.784  27.581  1.00  0.00     0.148 A 
ATOM     77  C   UNL A   1      42.685  27.228  25.445  1.00  0.00     0.002 A 
ATOM     78  C   UNL A   1      42.043  25.118  26.453  1.00  0.00     0.091 A 
ATOM     79  F   UNL A   1      41.028  25.130  28.614  1.00  0.00    -0.205 F 
ATOM     80  C   UNL A   1      42.586  25.840  25.380  1.00  0.00     0.022 A 
BRANCH  78  81
ATOM     81  S   UNL A   1      42.071  23.327  26.330  1.00  0.00     0.127 S 
ATOM     82  O   UNL A   1      40.646  23.003  26.349  1.00  0.00    -0.237 OA
ATOM     83  O   UNL A   1      42.731  23.125  25.040  1.00  0.00    -0.237 OA
ATOM     84  O   UNL A   1      42.836  22.861  27.479  1.00  0.00    -0.744 OA
ENDBRANCH  78  81
ENDBRANCH  50  74
BRANCH  62  85
ATOM     85  C   UNL A   1      44.330  27.456  34.161  1.00  0.00     0.023 A 
ATOM     86  C   UNL A   1      45.618  28.020  34.090  1.00  0.00     0.012 A 
ATOM     87  C   UNL A   1      44.124  26.297  34.939  1.00  0.00     0.148 A 
ATOM     88  C   UNL A   1      46.689  27.430  34.761  1.00  0.00     0.002 A 
ATOM     89  C   UNL A   1      45.187  25.741  35.642  1.00  0.00     0.091 A 
ATOM     90  F   UNL A   1      42.894  25.765  34.980  1.00  0.00    -0.205 F 
ATOM     91  C   UNL A   1      46.471  26.300  35.546  1.00  0.00     0.022 A 
BRANCH  89  92
ATOM     92  S   UNL A   1      44.979  24.345  36.753  1.00  0.00     0.127 S 
ATOM     93  O   UNL A   1      44.411  23.336  35.862  1.00  0.00    -0.237 OA
ATOM     94  O   UNL A   1      46.355  24.077  37.177  1.00  0.00    -0.237 OA
ATOM     95  O   UNL A   1      44.100  24.807  37.819  1.00  0.00    -0.744 OA
ENDBRANCH  89  92
ENDBRANCH  62  85
ENDBRANCH  36  37
ENDBRANCH  29  31
ENDBRANCH  28  29
ENDBRANCH  27  28
ENDBRANCH  26  27
ENDBRANCH  25  26
ENDBRANCH   1  25
TORSDOF 21
ENDMDL
