MODEL 1
REMARK VINA RESULT:     -11.0      0.000      0.000
REMARK SMILES Cc1nc2cc(C(=O)OCCOCCOC(=O)c3ccc(-c4c5nc(c(-c6cccc(S(=O)(=O)[O-])c6F)c6ccc([nH]6)c(-c6cccc(S(=O)(=O)[O-])c6F)c6nc(c(-c7cccc(S(=O)(=O)[O-])c7F)c7ccc4[nH]7)C=C6)C=C5)cc3)ccc2n1C
REMARK SMILES IDX 13 1 12 2 11 3 10 4 9 5 7 6 8 7 6 8 1 9 2 10 3 11 84 12 4 13
REMARK SMILES IDX 83 14 85 15 5 16 82 17 81 18 14 19 15 20 16 21 17 22 18 23
REMARK SMILES IDX 19 24 80 25 20 26 79 27 21 28 22 29 23 30 73 31 24 32 78 33
REMARK SMILES IDX 72 34 74 35 25 36 77 37 71 38 70 39 26 41 58 42 38 43 57 44
REMARK SMILES IDX 39 45 42 46 56 47 75 48 40 49 41 50 55 52 76 53 43 54 27 55
REMARK SMILES IDX 28 56 36 57 29 58 31 59 37 60 30 61 32 62 33 63 34 64 35 65
REMARK SMILES IDX 59 66 60 67 68 68 61 69 63 70 69 71 62 72 64 73 65 74 66 75
REMARK SMILES IDX 67 76 44 77 45 78 53 79 46 80 48 81 54 82 47 83 49 84 50 85
REMARK SMILES IDX 51 86 52 87
REMARK H PARENT 74 40 42 51
REMARK Flexibility Score: inf
ROOT
ATOM      1  C   UNL A   1      45.170  39.073  26.551  1.00  0.00     0.202 C 
ENDROOT
BRANCH   1   2
ATOM      2  O   UNL A   1      45.648  40.145  27.364  1.00  0.00    -0.374 OA
BRANCH   2   3
ATOM      3  C   UNL A   1      45.173  41.463  27.094  1.00  0.00     0.202 C 
BRANCH   3   4
ATOM      4  C   UNL A   1      43.727  41.640  26.597  1.00  0.00     0.261 C 
BRANCH   4   5
ATOM      5  O   UNL A   1      43.614  42.483  25.444  1.00  0.00    -0.460 OA
BRANCH   5   6
ATOM      6  C   UNL A   1      42.723  42.028  24.527  1.00  0.00     0.338 C 
ATOM      7  O   UNL A   1      41.729  41.351  24.746  1.00  0.00    -0.246 OA
BRANCH   6   8
ATOM      8  C   UNL A   1      42.960  42.657  23.206  1.00  0.00     0.062 A 
ATOM      9  C   UNL A   1      40.986  44.318  17.830  1.00  0.00     0.087 C 
ATOM     10  C   UNL A   1      41.642  44.072  19.137  1.00  0.00     0.106 A 
ATOM     11  N   UNL A   1      40.996  43.726  20.229  1.00  0.00    -0.233 NA
ATOM     12  N   UNL A   1      43.003  44.101  19.362  1.00  0.00    -0.331 N 
ATOM     13  C   UNL A   1      41.962  43.441  21.155  1.00  0.00     0.090 A 
ATOM     14  C   UNL A   1      43.235  43.715  20.664  1.00  0.00     0.068 A 
ATOM     15  C   UNL A   1      44.008  44.370  18.364  1.00  0.00     0.151 C 
ATOM     16  C   UNL A   1      41.813  42.913  22.438  1.00  0.00     0.046 A 
ATOM     17  C   UNL A   1      44.394  43.531  21.437  1.00  0.00     0.029 A 
ATOM     18  C   UNL A   1      44.231  42.990  22.723  1.00  0.00     0.018 A 
ENDBRANCH   6   8
ENDBRANCH   5   6
ENDBRANCH   4   5
ENDBRANCH   3   4
ENDBRANCH   2   3
ENDBRANCH   1   2
BRANCH   1  19
ATOM     19  C   UNL A   1      44.396  37.944  27.240  1.00  0.00     0.261 C 
BRANCH  19  20
ATOM     20  O   UNL A   1      44.900  36.658  26.847  1.00  0.00    -0.460 OA
BRANCH  20  21
ATOM     21  C   UNL A   1      43.970  35.722  26.547  1.00  0.00     0.338 C 
ATOM     22  O   UNL A   1      43.529  35.425  25.448  1.00  0.00    -0.246 OA
BRANCH  21  23
ATOM     23  C   UNL A   1      43.639  35.018  27.789  1.00  0.00     0.060 A 
ATOM     24  C   UNL A   1      42.351  35.112  28.318  1.00  0.00     0.016 A 
ATOM     25  C   UNL A   1      44.623  34.257  28.423  1.00  0.00     0.016 A 
ATOM     26  C   UNL A   1      42.047  34.415  29.486  1.00  0.00     0.010 A 
ATOM     27  C   UNL A   1      44.328  33.604  29.613  1.00  0.00     0.010 A 
ATOM     28  C   UNL A   1      43.028  33.642  30.132  1.00  0.00    -0.014 A 
BRANCH  28  29
ATOM     29  C   UNL A   1      42.615  32.737  31.225  1.00  0.00     0.031 A 
ATOM     30  C   UNL A   1      41.217  32.958  31.730  1.00  0.00     0.074 A 
ATOM     31  C   UNL A   1      43.185  31.527  31.398  1.00  0.00     0.049 A 
ATOM     32  N   UNL A   1      40.164  32.454  31.152  1.00  0.00    -0.248 NA
ATOM     33  C   UNL A   1      40.901  33.986  32.723  1.00  0.00     0.031 C 
ATOM     34  C   UNL A   1      43.580  30.656  30.283  1.00  0.00     0.029 A 
ATOM     35  N   UNL A   1      43.278  30.723  32.513  1.00  0.00    -0.354 N 
ATOM     36  C   UNL A   1      39.054  33.118  31.649  1.00  0.00     0.074 A 
ATOM     37  C   UNL A   1      39.562  34.049  32.634  1.00  0.00     0.031 C 
ATOM     38  C   UNL A   1      43.697  29.393  30.747  1.00  0.00     0.029 A 
ATOM     39  C   UNL A   1      43.533  29.388  32.199  1.00  0.00     0.049 A 
ATOM     40  H   UNL A   1      43.175  31.055  33.433  1.00  0.00     0.167 HD
ATOM     41  C   UNL A   1      37.784  32.869  31.223  1.00  0.00     0.034 A 
ATOM     42  C   UNL A   1      43.110  28.328  32.947  1.00  0.00     0.034 A 
ATOM     43  C   UNL A   1      37.663  31.840  30.230  1.00  0.00     0.049 A 
ATOM     44  C   UNL A   1      41.647  28.296  32.561  1.00  0.00     0.074 A 
ATOM     45  C   UNL A   1      37.507  31.753  28.863  1.00  0.00     0.029 A 
ATOM     46  N   UNL A   1      37.778  30.535  30.644  1.00  0.00    -0.354 N 
ATOM     47  N   UNL A   1      41.154  27.872  31.425  1.00  0.00    -0.248 NA
ATOM     48  C   UNL A   1      40.752  29.163  33.332  1.00  0.00     0.031 C 
ATOM     49  C   UNL A   1      38.022  30.465  28.503  1.00  0.00     0.029 A 
ATOM     50  C   UNL A   1      38.469  29.855  29.674  1.00  0.00     0.049 A 
ATOM     51  H   UNL A   1      37.427  30.157  31.483  1.00  0.00     0.167 HD
ATOM     52  C   UNL A   1      40.034  28.676  31.192  1.00  0.00     0.074 A 
ATOM     53  C   UNL A   1      39.844  29.443  32.409  1.00  0.00     0.031 C 
ATOM     54  C   UNL A   1      39.421  28.810  29.979  1.00  0.00     0.034 A 
BRANCH  41  55
ATOM     55  C   UNL A   1      36.557  33.392  31.876  1.00  0.00     0.023 A 
ATOM     56  C   UNL A   1      36.257  32.854  33.143  1.00  0.00     0.012 A 
ATOM     57  C   UNL A   1      35.603  34.192  31.220  1.00  0.00     0.148 A 
ATOM     58  C   UNL A   1      35.015  33.064  33.736  1.00  0.00     0.002 A 
ATOM     59  C   UNL A   1      34.363  34.407  31.824  1.00  0.00     0.091 A 
ATOM     60  F   UNL A   1      35.902  34.688  30.011  1.00  0.00    -0.205 F 
ATOM     61  C   UNL A   1      34.066  33.834  33.074  1.00  0.00     0.022 A 
BRANCH  59  62
ATOM     62  S   UNL A   1      33.043  35.370  31.073  1.00  0.00     0.127 S 
ATOM     63  O   UNL A   1      31.972  35.241  32.060  1.00  0.00    -0.237 OA
ATOM     64  O   UNL A   1      33.646  36.703  31.000  1.00  0.00    -0.237 OA
ATOM     65  O   UNL A   1      32.780  34.751  29.781  1.00  0.00    -0.744 OA
ENDBRANCH  59  62
ENDBRANCH  41  55
BRANCH  42  66
ATOM     66  C   UNL A   1      43.581  28.313  34.381  1.00  0.00     0.023 A 
ATOM     67  C   UNL A   1      44.264  29.464  34.847  1.00  0.00     0.012 A 
ATOM     68  C   UNL A   1      43.403  27.257  35.294  1.00  0.00     0.148 A 
ATOM     69  C   UNL A   1      44.631  29.616  36.186  1.00  0.00     0.002 A 
ATOM     70  C   UNL A   1      43.724  27.431  36.643  1.00  0.00     0.091 A 
ATOM     71  F   UNL A   1      42.903  26.095  34.854  1.00  0.00    -0.205 F 
ATOM     72  C   UNL A   1      44.328  28.611  37.092  1.00  0.00     0.022 A 
BRANCH  70  73
ATOM     73  S   UNL A   1      43.322  26.211  37.902  1.00  0.00     0.127 S 
ATOM     74  O   UNL A   1      43.937  26.789  39.097  1.00  0.00    -0.237 OA
ATOM     75  O   UNL A   1      41.861  26.249  37.882  1.00  0.00    -0.237 OA
ATOM     76  O   UNL A   1      43.920  24.963  37.449  1.00  0.00    -0.744 OA
ENDBRANCH  70  73
ENDBRANCH  42  66
BRANCH  54  77
ATOM     77  C   UNL A   1      39.893  27.914  28.879  1.00  0.00     0.023 A 
ATOM     78  C   UNL A   1      39.228  26.689  28.691  1.00  0.00     0.012 A 
ATOM     79  C   UNL A   1      40.899  28.302  27.970  1.00  0.00     0.148 A 
ATOM     80  C   UNL A   1      39.530  25.877  27.600  1.00  0.00     0.002 A 
ATOM     81  C   UNL A   1      41.180  27.496  26.871  1.00  0.00     0.091 A 
ATOM     82  F   UNL A   1      41.541  29.463  28.170  1.00  0.00    -0.205 F 
ATOM     83  C   UNL A   1      40.493  26.286  26.683  1.00  0.00     0.022 A 
BRANCH  81  84
ATOM     84  S   UNL A   1      42.381  27.943  25.610  1.00  0.00     0.127 S 
ATOM     85  O   UNL A   1      41.807  29.174  25.065  1.00  0.00    -0.237 OA
ATOM     86  O   UNL A   1      43.592  28.138  26.407  1.00  0.00    -0.237 OA
ATOM     87  O   UNL A   1      42.425  26.827  24.674  1.00  0.00    -0.744 OA
ENDBRANCH  81  84
ENDBRANCH  54  77
ENDBRANCH  28  29
ENDBRANCH  21  23
ENDBRANCH  20  21
ENDBRANCH  19  20
ENDBRANCH   1  19
TORSDOF 17
ENDMDL
MODEL 2
REMARK VINA RESULT:     -10.7      5.858     12.120
REMARK SMILES Cc1nc2cc(C(=O)OCCOCCOC(=O)c3ccc(-c4c5nc(c(-c6cccc(S(=O)(=O)[O-])c6F)c6ccc([nH]6)c(-c6cccc(S(=O)(=O)[O-])c6F)c6nc(c(-c7cccc(S(=O)(=O)[O-])c7F)c7ccc4[nH]7)C=C6)C=C5)cc3)ccc2n1C
REMARK SMILES IDX 13 1 12 2 11 3 10 4 9 5 7 6 8 7 6 8 1 9 2 10 3 11 84 12 4 13
REMARK SMILES IDX 83 14 85 15 5 16 82 17 81 18 14 19 15 20 16 21 17 22 18 23
REMARK SMILES IDX 19 24 80 25 20 26 79 27 21 28 22 29 23 30 73 31 24 32 78 33
REMARK SMILES IDX 72 34 74 35 25 36 77 37 71 38 70 39 26 41 58 42 38 43 57 44
REMARK SMILES IDX 39 45 42 46 56 47 75 48 40 49 41 50 55 52 76 53 43 54 27 55
REMARK SMILES IDX 28 56 36 57 29 58 31 59 37 60 30 61 32 62 33 63 34 64 35 65
REMARK SMILES IDX 59 66 60 67 68 68 61 69 63 70 69 71 62 72 64 73 65 74 66 75
REMARK SMILES IDX 67 76 44 77 45 78 53 79 46 80 48 81 54 82 47 83 49 84 50 85
REMARK SMILES IDX 51 86 52 87
REMARK H PARENT 74 40 42 51
REMARK Flexibility Score: inf
ROOT
ATOM      1  C   UNL A   1      42.701  19.070  26.293  1.00  0.00     0.202 C 
ENDROOT
BRANCH   1   2
ATOM      2  O   UNL A   1      43.207  19.520  25.035  1.00  0.00    -0.374 OA
BRANCH   2   3
ATOM      3  C   UNL A   1      44.565  19.228  24.708  1.00  0.00     0.202 C 
BRANCH   3   4
ATOM      4  C   UNL A   1      45.664  20.194  25.187  1.00  0.00     0.261 C 
BRANCH   4   5
ATOM      5  O   UNL A   1      45.924  21.269  24.275  1.00  0.00    -0.460 OA
BRANCH   5   6
ATOM      6  C   UNL A   1      45.112  22.340  24.457  1.00  0.00     0.338 C 
ATOM      7  O   UNL A   1      44.020  22.526  23.940  1.00  0.00    -0.246 OA
BRANCH   6   8
ATOM      8  C   UNL A   1      45.600  23.187  25.571  1.00  0.00     0.062 A 
ATOM      9  C   UNL A   1      49.591  27.012  27.806  1.00  0.00     0.087 C 
ATOM     10  C   UNL A   1      48.450  26.150  27.412  1.00  0.00     0.106 A 
ATOM     11  N   UNL A   1      48.204  25.779  26.175  1.00  0.00    -0.233 NA
ATOM     12  N   UNL A   1      47.552  25.571  28.285  1.00  0.00    -0.331 N 
ATOM     13  C   UNL A   1      47.181  24.873  26.258  1.00  0.00     0.090 A 
ATOM     14  C   UNL A   1      46.710  24.755  27.562  1.00  0.00     0.068 A 
ATOM     15  C   UNL A   1      47.579  25.705  29.721  1.00  0.00     0.151 C 
ATOM     16  C   UNL A   1      46.624  24.091  25.246  1.00  0.00     0.046 A 
ATOM     17  C   UNL A   1      45.642  23.907  27.901  1.00  0.00     0.029 A 
ATOM     18  C   UNL A   1      45.096  23.118  26.875  1.00  0.00     0.018 A 
ENDBRANCH   6   8
ENDBRANCH   5   6
ENDBRANCH   4   5
ENDBRANCH   3   4
ENDBRANCH   2   3
ENDBRANCH   1   2
BRANCH   1  19
ATOM     19  C   UNL A   1      41.809  20.028  27.088  1.00  0.00     0.261 C 
BRANCH  19  20
ATOM     20  O   UNL A   1      42.135  21.397  26.800  1.00  0.00    -0.460 OA
BRANCH  20  21
ATOM     21  C   UNL A   1      41.092  22.206  26.504  1.00  0.00     0.338 C 
ATOM     22  O   UNL A   1      39.970  21.885  26.141  1.00  0.00    -0.246 OA
BRANCH  21  23
ATOM     23  C   UNL A   1      41.503  23.581  26.801  1.00  0.00     0.060 A 
ATOM     24  C   UNL A   1      42.070  24.367  25.798  1.00  0.00     0.016 A 
ATOM     25  C   UNL A   1      41.316  24.083  28.090  1.00  0.00     0.016 A 
ATOM     26  C   UNL A   1      42.432  25.681  26.092  1.00  0.00     0.010 A 
ATOM     27  C   UNL A   1      41.723  25.377  28.390  1.00  0.00     0.010 A 
ATOM     28  C   UNL A   1      42.245  26.200  27.386  1.00  0.00    -0.014 A 
BRANCH  28  29
ATOM     29  C   UNL A   1      42.418  27.652  27.601  1.00  0.00     0.031 A 
ATOM     30  C   UNL A   1      41.138  28.437  27.662  1.00  0.00     0.074 A 
ATOM     31  C   UNL A   1      43.518  28.155  28.199  1.00  0.00     0.049 A 
ATOM     32  N   UNL A   1      40.420  28.541  28.743  1.00  0.00    -0.248 NA
ATOM     33  C   UNL A   1      40.447  28.894  26.456  1.00  0.00     0.031 C 
ATOM     34  C   UNL A   1      44.191  27.499  29.328  1.00  0.00     0.029 A 
ATOM     35  N   UNL A   1      44.084  29.409  28.142  1.00  0.00    -0.354 N 
ATOM     36  C   UNL A   1      39.173  29.021  28.373  1.00  0.00     0.074 A 
ATOM     37  C   UNL A   1      39.244  29.240  26.944  1.00  0.00     0.031 C 
ATOM     38  C   UNL A   1      44.947  28.416  29.968  1.00  0.00     0.029 A 
ATOM     39  C   UNL A   1      44.929  29.672  29.221  1.00  0.00     0.049 A 
ATOM     40  H   UNL A   1      43.910  30.052  27.418  1.00  0.00     0.167 HD
ATOM     41  C   UNL A   1      38.154  29.209  29.258  1.00  0.00     0.034 A 
ATOM     42  C   UNL A   1      45.140  30.913  29.747  1.00  0.00     0.034 A 
ATOM     43  C   UNL A   1      38.466  28.897  30.624  1.00  0.00     0.049 A 
ATOM     44  C   UNL A   1      43.852  31.099  30.518  1.00  0.00     0.074 A 
ATOM     45  C   UNL A   1      38.258  27.861  31.509  1.00  0.00     0.029 A 
ATOM     46  N   UNL A   1      39.236  29.794  31.325  1.00  0.00    -0.354 N 
ATOM     47  N   UNL A   1      43.534  30.520  31.647  1.00  0.00    -0.248 NA
ATOM     48  C   UNL A   1      42.717  31.641  29.766  1.00  0.00     0.031 C 
ATOM     49  C   UNL A   1      39.301  27.978  32.484  1.00  0.00     0.029 A 
ATOM     50  C   UNL A   1      40.086  29.072  32.122  1.00  0.00     0.049 A 
ATOM     51  H   UNL A   1      39.186  30.776  31.265  1.00  0.00     0.167 HD
ATOM     52  C   UNL A   1      42.149  30.337  31.585  1.00  0.00     0.074 A 
ATOM     53  C   UNL A   1      41.713  31.055  30.403  1.00  0.00     0.031 C 
ATOM     54  C   UNL A   1      41.448  29.480  32.385  1.00  0.00     0.034 A 
BRANCH  41  55
ATOM     55  C   UNL A   1      36.888  29.920  28.949  1.00  0.00     0.023 A 
ATOM     56  C   UNL A   1      36.033  29.282  28.028  1.00  0.00     0.012 A 
ATOM     57  C   UNL A   1      36.620  31.245  29.338  1.00  0.00     0.148 A 
ATOM     58  C   UNL A   1      34.955  29.957  27.463  1.00  0.00     0.002 A 
ATOM     59  C   UNL A   1      35.531  31.913  28.776  1.00  0.00     0.091 A 
ATOM     60  F   UNL A   1      37.448  31.839  30.209  1.00  0.00    -0.205 F 
ATOM     61  C   UNL A   1      34.709  31.274  27.831  1.00  0.00     0.022 A 
BRANCH  59  62
ATOM     62  S   UNL A   1      35.107  33.620  29.154  1.00  0.00     0.127 S 
ATOM     63  O   UNL A   1      33.997  33.868  28.236  1.00  0.00    -0.237 OA
ATOM     64  O   UNL A   1      34.722  33.530  30.564  1.00  0.00    -0.237 OA
ATOM     65  O   UNL A   1      36.312  34.398  28.902  1.00  0.00    -0.744 OA
ENDBRANCH  59  62
ENDBRANCH  41  55
BRANCH  42  66
ATOM     66  C   UNL A   1      45.679  31.945  28.786  1.00  0.00     0.023 A 
ATOM     67  C   UNL A   1      46.218  31.470  27.565  1.00  0.00     0.012 A 
ATOM     68  C   UNL A   1      45.693  33.337  28.997  1.00  0.00     0.148 A 
ATOM     69  C   UNL A   1      46.625  32.336  26.547  1.00  0.00     0.002 A 
ATOM     70  C   UNL A   1      46.052  34.202  27.961  1.00  0.00     0.091 A 
ATOM     71  F   UNL A   1      45.338  33.815  30.196  1.00  0.00    -0.205 F 
ATOM     72  C   UNL A   1      46.509  33.705  26.734  1.00  0.00     0.022 A 
BRANCH  70  73
ATOM     73  S   UNL A   1      45.885  35.989  28.085  1.00  0.00     0.127 S 
ATOM     74  O   UNL A   1      46.792  36.306  29.188  1.00  0.00    -0.237 OA
ATOM     75  O   UNL A   1      46.350  36.412  26.766  1.00  0.00    -0.237 OA
ATOM     76  O   UNL A   1      44.477  36.236  28.360  1.00  0.00    -0.744 OA
ENDBRANCH  70  73
ENDBRANCH  42  66
BRANCH  54  77
ATOM     77  C   UNL A   1      42.202  28.821  33.497  1.00  0.00     0.023 A 
ATOM     78  C   UNL A   1      42.638  27.497  33.309  1.00  0.00     0.012 A 
ATOM     79  C   UNL A   1      42.576  29.513  34.667  1.00  0.00     0.148 A 
ATOM     80  C   UNL A   1      43.461  26.880  34.248  1.00  0.00     0.002 A 
ATOM     81  C   UNL A   1      43.416  28.899  35.591  1.00  0.00     0.091 A 
ATOM     82  F   UNL A   1      42.138  30.769  34.845  1.00  0.00    -0.205 F 
ATOM     83  C   UNL A   1      43.862  27.584  35.379  1.00  0.00     0.022 A 
BRANCH  81  84
ATOM     84  S   UNL A   1      44.019  29.725  37.069  1.00  0.00     0.127 S 
ATOM     85  O   UNL A   1      42.797  30.333  37.597  1.00  0.00    -0.237 OA
ATOM     86  O   UNL A   1      44.527  28.600  37.853  1.00  0.00    -0.237 OA
ATOM     87  O   UNL A   1      45.026  30.678  36.621  1.00  0.00    -0.744 OA
ENDBRANCH  81  84
ENDBRANCH  54  77
ENDBRANCH  28  29
ENDBRANCH  21  23
ENDBRANCH  20  21
ENDBRANCH  19  20
ENDBRANCH   1  19
TORSDOF 17
ENDMDL
MODEL 3
REMARK VINA RESULT:     -10.6      5.766     13.259
REMARK SMILES Cc1nc2cc(C(=O)OCCOCCOC(=O)c3ccc(-c4c5nc(c(-c6cccc(S(=O)(=O)[O-])c6F)c6ccc([nH]6)c(-c6cccc(S(=O)(=O)[O-])c6F)c6nc(c(-c7cccc(S(=O)(=O)[O-])c7F)c7ccc4[nH]7)C=C6)C=C5)cc3)ccc2n1C
REMARK SMILES IDX 13 1 12 2 11 3 10 4 9 5 7 6 8 7 6 8 1 9 2 10 3 11 84 12 4 13
REMARK SMILES IDX 83 14 85 15 5 16 82 17 81 18 14 19 15 20 16 21 17 22 18 23
REMARK SMILES IDX 19 24 80 25 20 26 79 27 21 28 22 29 23 30 73 31 24 32 78 33
REMARK SMILES IDX 72 34 74 35 25 36 77 37 71 38 70 39 26 41 58 42 38 43 57 44
REMARK SMILES IDX 39 45 42 46 56 47 75 48 40 49 41 50 55 52 76 53 43 54 27 55
REMARK SMILES IDX 28 56 36 57 29 58 31 59 37 60 30 61 32 62 33 63 34 64 35 65
REMARK SMILES IDX 59 66 60 67 68 68 61 69 63 70 69 71 62 72 64 73 65 74 66 75
REMARK SMILES IDX 67 76 44 77 45 78 53 79 46 80 48 81 54 82 47 83 49 84 50 85
REMARK SMILES IDX 51 86 52 87
REMARK H PARENT 74 40 42 51
REMARK Flexibility Score: inf
ROOT
ATOM      1  C   UNL A   1      38.465  21.542  25.468  1.00  0.00     0.202 C 
ENDROOT
BRANCH   1   2
ATOM      2  O   UNL A   1      37.124  21.894  25.814  1.00  0.00    -0.374 OA
BRANCH   2   3
ATOM      3  C   UNL A   1      36.719  23.253  25.657  1.00  0.00     0.202 C 
BRANCH   3   4
ATOM      4  C   UNL A   1      35.735  23.604  24.528  1.00  0.00     0.261 C 
BRANCH   4   5
ATOM      5  O   UNL A   1      34.595  24.353  24.969  1.00  0.00    -0.460 OA
BRANCH   5   6
ATOM      6  C   UNL A   1      33.752  23.640  25.758  1.00  0.00     0.338 C 
ATOM      7  O   UNL A   1      33.253  24.006  26.812  1.00  0.00    -0.246 OA
BRANCH   6   8
ATOM      8  C   UNL A   1      33.297  22.411  25.066  1.00  0.00     0.062 A 
ATOM      9  C   UNL A   1      32.618  16.489  24.937  1.00  0.00     0.087 C 
ATOM     10  C   UNL A   1      32.610  17.967  24.811  1.00  0.00     0.106 A 
ATOM     11  N   UNL A   1      32.860  18.789  25.807  1.00  0.00    -0.233 NA
ATOM     12  N   UNL A   1      32.416  18.664  23.637  1.00  0.00    -0.331 N 
ATOM     13  C   UNL A   1      32.914  20.038  25.249  1.00  0.00     0.090 A 
ATOM     14  C   UNL A   1      32.589  20.006  23.897  1.00  0.00     0.068 A 
ATOM     15  C   UNL A   1      32.194  18.071  22.341  1.00  0.00     0.151 C 
ATOM     16  C   UNL A   1      33.267  21.247  25.849  1.00  0.00     0.046 A 
ATOM     17  C   UNL A   1      32.547  21.167  23.107  1.00  0.00     0.029 A 
ATOM     18  C   UNL A   1      32.913  22.377  23.721  1.00  0.00     0.018 A 
ENDBRANCH   6   8
ENDBRANCH   5   6
ENDBRANCH   4   5
ENDBRANCH   3   4
ENDBRANCH   2   3
ENDBRANCH   1   2
BRANCH   1  19
ATOM     19  C   UNL A   1      39.563  21.811  26.503  1.00  0.00     0.261 C 
BRANCH  19  20
ATOM     20  O   UNL A   1      40.766  22.276  25.870  1.00  0.00    -0.460 OA
BRANCH  20  21
ATOM     21  C   UNL A   1      41.871  22.308  26.649  1.00  0.00     0.338 C 
ATOM     22  O   UNL A   1      42.620  21.385  26.932  1.00  0.00    -0.246 OA
BRANCH  21  23
ATOM     23  C   UNL A   1      42.100  23.705  27.030  1.00  0.00     0.060 A 
ATOM     24  C   UNL A   1      43.048  24.465  26.345  1.00  0.00     0.016 A 
ATOM     25  C   UNL A   1      41.357  24.254  28.076  1.00  0.00     0.016 A 
ATOM     26  C   UNL A   1      43.234  25.799  26.705  1.00  0.00     0.010 A 
ATOM     27  C   UNL A   1      41.580  25.570  28.463  1.00  0.00     0.010 A 
ATOM     28  C   UNL A   1      42.490  26.365  27.755  1.00  0.00    -0.014 A 
BRANCH  28  29
ATOM     29  C   UNL A   1      42.541  27.829  27.953  1.00  0.00     0.031 A 
ATOM     30  C   UNL A   1      41.205  28.516  27.921  1.00  0.00     0.074 A 
ATOM     31  C   UNL A   1      43.560  28.421  28.609  1.00  0.00     0.049 A 
ATOM     32  N   UNL A   1      40.414  28.581  28.953  1.00  0.00    -0.248 NA
ATOM     33  C   UNL A   1      40.559  28.903  26.666  1.00  0.00     0.031 C 
ATOM     34  C   UNL A   1      44.208  27.833  29.790  1.00  0.00     0.029 A 
ATOM     35  N   UNL A   1      44.034  29.713  28.565  1.00  0.00    -0.354 N 
ATOM     36  C   UNL A   1      39.160  28.960  28.499  1.00  0.00     0.074 A 
ATOM     37  C   UNL A   1      39.305  29.164  27.073  1.00  0.00     0.031 C 
ATOM     38  C   UNL A   1      44.852  28.813  30.458  1.00  0.00     0.029 A 
ATOM     39  C   UNL A   1      44.787  30.054  29.688  1.00  0.00     0.049 A 
ATOM     40  H   UNL A   1      43.859  30.331  27.820  1.00  0.00     0.167 HD
ATOM     41  C   UNL A   1      38.077  29.083  29.315  1.00  0.00     0.034 A 
ATOM     42  C   UNL A   1      44.873  31.314  30.204  1.00  0.00     0.034 A 
ATOM     43  C   UNL A   1      38.324  28.814  30.704  1.00  0.00     0.049 A 
ATOM     44  C   UNL A   1      43.528  31.413  30.890  1.00  0.00     0.074 A 
ATOM     45  C   UNL A   1      38.138  27.778  31.593  1.00  0.00     0.029 A 
ATOM     46  N   UNL A   1      38.980  29.776  31.434  1.00  0.00    -0.354 N 
ATOM     47  N   UNL A   1      43.183  30.827  32.008  1.00  0.00    -0.248 NA
ATOM     48  C   UNL A   1      42.405  31.858  30.060  1.00  0.00     0.031 C 
ATOM     49  C   UNL A   1      39.107  27.986  32.628  1.00  0.00     0.029 A 
ATOM     50  C   UNL A   1      39.829  29.130  32.295  1.00  0.00     0.049 A 
ATOM     51  H   UNL A   1      38.861  30.750  31.353  1.00  0.00     0.167 HD
ATOM     52  C   UNL A   1      41.823  30.540  31.864  1.00  0.00     0.074 A 
ATOM     53  C   UNL A   1      41.410  31.207  30.644  1.00  0.00     0.031 C 
ATOM     54  C   UNL A   1      41.138  29.643  32.634  1.00  0.00     0.034 A 
BRANCH  41  55
ATOM     55  C   UNL A   1      36.783  29.692  28.916  1.00  0.00     0.023 A 
ATOM     56  C   UNL A   1      36.038  28.979  27.955  1.00  0.00     0.012 A 
ATOM     57  C   UNL A   1      36.394  30.999  29.264  1.00  0.00     0.148 A 
ATOM     58  C   UNL A   1      34.950  29.564  27.312  1.00  0.00     0.002 A 
ATOM     59  C   UNL A   1      35.296  31.575  28.623  1.00  0.00     0.091 A 
ATOM     60  F   UNL A   1      37.119  31.665  30.172  1.00  0.00    -0.205 F 
ATOM     61  C   UNL A   1      34.584  30.864  27.640  1.00  0.00     0.022 A 
BRANCH  59  62
ATOM     62  S   UNL A   1      34.723  33.250  28.943  1.00  0.00     0.127 S 
ATOM     63  O   UNL A   1      35.880  34.049  28.541  1.00  0.00    -0.237 OA
ATOM     64  O   UNL A   1      33.572  33.351  28.044  1.00  0.00    -0.237 OA
ATOM     65  O   UNL A   1      34.394  33.298  30.361  1.00  0.00    -0.744 OA
ENDBRANCH  59  62
ENDBRANCH  41  55
BRANCH  42  66
ATOM     66  C   UNL A   1      45.393  32.370  29.259  1.00  0.00     0.023 A 
ATOM     67  C   UNL A   1      46.618  32.995  29.602  1.00  0.00     0.012 A 
ATOM     68  C   UNL A   1      44.768  32.789  28.069  1.00  0.00     0.148 A 
ATOM     69  C   UNL A   1      47.259  33.889  28.742  1.00  0.00     0.002 A 
ATOM     70  C   UNL A   1      45.434  33.644  27.188  1.00  0.00     0.091 A 
ATOM     71  F   UNL A   1      43.538  32.339  27.789  1.00  0.00    -0.205 F 
ATOM     72  C   UNL A   1      46.682  34.187  27.518  1.00  0.00     0.022 A 
BRANCH  70  73
ATOM     73  S   UNL A   1      44.795  34.047  25.555  1.00  0.00     0.127 S 
ATOM     74  O   UNL A   1      45.928  34.742  24.945  1.00  0.00    -0.237 OA
ATOM     75  O   UNL A   1      44.527  32.715  25.016  1.00  0.00    -0.237 OA
ATOM     76  O   UNL A   1      43.620  34.876  25.784  1.00  0.00    -0.744 OA
ENDBRANCH  70  73
ENDBRANCH  42  66
BRANCH  54  77
ATOM     77  C   UNL A   1      41.867  29.059  33.802  1.00  0.00     0.023 A 
ATOM     78  C   UNL A   1      41.735  29.693  35.051  1.00  0.00     0.012 A 
ATOM     79  C   UNL A   1      42.585  27.848  33.714  1.00  0.00     0.148 A 
ATOM     80  C   UNL A   1      42.275  29.119  36.200  1.00  0.00     0.002 A 
ATOM     81  C   UNL A   1      43.103  27.270  34.868  1.00  0.00     0.091 A 
ATOM     82  F   UNL A   1      42.721  27.262  32.514  1.00  0.00    -0.205 F 
ATOM     83  C   UNL A   1      42.944  27.903  36.112  1.00  0.00     0.022 A 
BRANCH  81  84
ATOM     84  S   UNL A   1      43.957  25.688  34.874  1.00  0.00     0.127 S 
ATOM     85  O   UNL A   1      42.917  24.779  34.389  1.00  0.00    -0.237 OA
ATOM     86  O   UNL A   1      45.042  25.932  33.924  1.00  0.00    -0.237 OA
ATOM     87  O   UNL A   1      44.375  25.454  36.250  1.00  0.00    -0.744 OA
ENDBRANCH  81  84
ENDBRANCH  54  77
ENDBRANCH  28  29
ENDBRANCH  21  23
ENDBRANCH  20  21
ENDBRANCH  19  20
ENDBRANCH   1  19
TORSDOF 17
ENDMDL
