MODEL 1
REMARK VINA RESULT:     -11.8      0.000      0.000
REMARK SMILES C[C@@H]1C(C(=O)OCCOCCOC(=O)c2ccc(-c3c4nc(c(-c5cccc(S(=O)(=O)[O-])c5F)c5ccc([nH]5)c(-c5cccc(S(=O)(=O)[O-])c5F)c5nc(c(-c6cccc(S(=O)(=O)[O-])c6F)c6ccc3[nH]6)C=C5)C=C4)cc2)=NC2=C1C(=O)C[C@H](c1ccccc1)C2
REMARK SMILES IDX 10 1 9 2 8 3 7 4 6 5 4 6 5 7 3 8 1 9 2 10 80 11 78 12 79 13
REMARK SMILES IDX 81 14 91 15 82 16 83 17 84 18 85 19 86 20 90 21 87 22 89 23
REMARK SMILES IDX 88 24 11 25 12 26 13 27 14 28 15 29 16 30 77 31 17 32 76 33
REMARK SMILES IDX 18 34 19 35 20 36 70 37 21 38 75 39 69 40 71 41 22 42 74 43
REMARK SMILES IDX 68 44 67 45 23 47 55 48 35 49 54 50 36 51 39 52 53 53 72 54
REMARK SMILES IDX 37 55 38 56 52 58 73 59 40 60 24 61 25 62 33 63 26 64 28 65
REMARK SMILES IDX 34 66 27 67 29 68 30 69 31 70 32 71 56 72 57 73 65 74 58 75
REMARK SMILES IDX 60 76 66 77 59 78 61 79 62 80 63 81 64 82 41 83 42 84 50 85
REMARK SMILES IDX 43 86 45 87 51 88 44 89 46 90 47 91 48 92 49 93
REMARK H PARENT 71 46 39 57
REMARK Flexibility Score: inf
ROOT
ATOM      1  C   UNL A   1      37.398  22.344  25.167  1.00  0.00     0.202 C 
ENDROOT
BRANCH   1   2
ATOM      2  O   UNL A   1      36.282  22.733  25.965  1.00  0.00    -0.374 OA
BRANCH   2   3
ATOM      3  C   UNL A   1      35.016  22.466  25.365  1.00  0.00     0.202 C 
BRANCH   3   4
ATOM      4  C   UNL A   1      33.858  22.664  26.351  1.00  0.00     0.261 C 
BRANCH   4   5
ATOM      5  O   UNL A   1      33.458  24.054  26.398  1.00  0.00    -0.459 OA
BRANCH   5   6
ATOM      6  C   UNL A   1      32.128  24.316  26.427  1.00  0.00     0.353 C 
ATOM      7  O   UNL A   1      31.370  24.153  27.363  1.00  0.00    -0.245 OA
BRANCH   6   8
ATOM      8  C   UNL A   1      31.728  25.063  25.151  1.00  0.00     0.133 C 
ATOM      9  C   UNL A   1      31.219  23.633  23.192  1.00  0.00     0.020 C 
ATOM     10  C   UNL A   1      32.236  24.602  23.799  1.00  0.00     0.078 C 
ATOM     11  C   UNL A   1      32.104  25.962  23.217  1.00  0.00     0.026 C 
ATOM     12  N   UNL A   1      30.992  26.152  25.148  1.00  0.00    -0.249 NA
ATOM     13  C   UNL A   1      31.239  26.700  23.909  1.00  0.00     0.049 C 
ATOM     14  C   UNL A   1      33.040  26.650  22.326  1.00  0.00     0.161 C 
ATOM     15  C   UNL A   1      30.977  28.127  23.538  1.00  0.00     0.065 C 
ATOM     16  O   UNL A   1      33.661  25.990  21.500  1.00  0.00    -0.294 OA
ATOM     17  C   UNL A   1      33.291  28.155  22.550  1.00  0.00     0.089 C 
ATOM     18  C   UNL A   1      32.315  28.894  23.535  1.00  0.00     0.033 C 
BRANCH  18  19
ATOM     19  C   UNL A   1      32.834  29.190  24.957  1.00  0.00    -0.044 A 
ATOM     20  C   UNL A   1      33.983  28.559  25.479  1.00  0.00     0.004 A 
ATOM     21  C   UNL A   1      32.170  30.079  25.815  1.00  0.00     0.004 A 
ATOM     22  C   UNL A   1      34.550  28.925  26.701  1.00  0.00     0.000 A 
ATOM     23  C   UNL A   1      32.731  30.442  27.054  1.00  0.00     0.000 A 
ATOM     24  C   UNL A   1      33.942  29.899  27.475  1.00  0.00     0.000 A 
ENDBRANCH  18  19
ENDBRANCH   6   8
ENDBRANCH   5   6
ENDBRANCH   4   5
ENDBRANCH   3   4
ENDBRANCH   2   3
ENDBRANCH   1   2
BRANCH   1  25
ATOM     25  C   UNL A   1      38.028  21.056  25.645  1.00  0.00     0.261 C 
BRANCH  25  26
ATOM     26  O   UNL A   1      39.388  21.097  25.277  1.00  0.00    -0.460 OA
BRANCH  26  27
ATOM     27  C   UNL A   1      40.228  20.150  25.714  1.00  0.00     0.338 C 
ATOM     28  O   UNL A   1      40.099  18.935  25.690  1.00  0.00    -0.246 OA
BRANCH  27  29
ATOM     29  C   UNL A   1      41.242  20.936  26.417  1.00  0.00     0.060 A 
ATOM     30  C   UNL A   1      41.161  20.886  27.802  1.00  0.00     0.016 A 
ATOM     31  C   UNL A   1      41.841  22.007  25.719  1.00  0.00     0.016 A 
ATOM     32  C   UNL A   1      41.425  22.048  28.480  1.00  0.00     0.010 A 
ATOM     33  C   UNL A   1      42.026  23.184  26.387  1.00  0.00     0.010 A 
ATOM     34  C   UNL A   1      41.751  23.200  27.749  1.00  0.00    -0.014 A 
BRANCH  34  35
ATOM     35  C   UNL A   1      42.065  24.389  28.496  1.00  0.00     0.031 A 
ATOM     36  C   UNL A   1      40.990  25.385  28.314  1.00  0.00     0.074 A 
ATOM     37  C   UNL A   1      43.136  24.514  29.296  1.00  0.00     0.049 A 
ATOM     38  N   UNL A   1      41.001  26.394  27.508  1.00  0.00    -0.248 NA
ATOM     39  C   UNL A   1      39.655  25.042  28.834  1.00  0.00     0.031 C 
ATOM     40  C   UNL A   1      44.052  23.475  29.767  1.00  0.00     0.029 A 
ATOM     41  N   UNL A   1      43.544  25.616  29.970  1.00  0.00    -0.354 N 
ATOM     42  C   UNL A   1      39.744  26.964  27.658  1.00  0.00     0.074 A 
ATOM     43  C   UNL A   1      38.900  25.938  28.198  1.00  0.00     0.031 C 
ATOM     44  C   UNL A   1      44.737  23.950  30.835  1.00  0.00     0.029 A 
ATOM     45  C   UNL A   1      44.393  25.349  31.035  1.00  0.00     0.049 A 
ATOM     46  H   UNL A   1      43.263  26.527  29.726  1.00  0.00     0.167 HD
ATOM     47  C   UNL A   1      39.604  28.316  27.686  1.00  0.00     0.034 A 
ATOM     48  C   UNL A   1      44.681  26.206  32.048  1.00  0.00     0.034 A 
ATOM     49  C   UNL A   1      40.770  28.964  27.128  1.00  0.00     0.049 A 
ATOM     50  C   UNL A   1      44.319  27.570  31.584  1.00  0.00     0.074 A 
ATOM     51  C   UNL A   1      41.431  28.903  25.917  1.00  0.00     0.029 A 
ATOM     52  N   UNL A   1      41.661  29.500  28.026  1.00  0.00    -0.354 N 
ATOM     53  N   UNL A   1      44.938  28.189  30.618  1.00  0.00    -0.248 NA
ATOM     54  C   UNL A   1      42.980  28.057  31.879  1.00  0.00     0.031 C 
ATOM     55  C   UNL A   1      42.817  28.984  26.248  1.00  0.00     0.029 A 
ATOM     56  C   UNL A   1      42.927  29.164  27.629  1.00  0.00     0.049 A 
ATOM     57  H   UNL A   1      41.429  30.035  28.819  1.00  0.00     0.167 HD
ATOM     58  C   UNL A   1      43.922  28.800  29.892  1.00  0.00     0.074 A 
ATOM     59  C   UNL A   1      42.758  28.778  30.776  1.00  0.00     0.031 C 
ATOM     60  C   UNL A   1      44.036  28.986  28.543  1.00  0.00     0.034 A 
BRANCH  47  61
ATOM     61  C   UNL A   1      38.652  29.046  28.613  1.00  0.00     0.023 A 
ATOM     62  C   UNL A   1      37.892  30.087  28.040  1.00  0.00     0.012 A 
ATOM     63  C   UNL A   1      38.661  28.972  30.028  1.00  0.00     0.148 A 
ATOM     64  C   UNL A   1      37.246  31.044  28.829  1.00  0.00     0.002 A 
ATOM     65  C   UNL A   1      37.955  29.878  30.807  1.00  0.00     0.091 A 
ATOM     66  F   UNL A   1      39.450  28.110  30.665  1.00  0.00    -0.205 F 
ATOM     67  C   UNL A   1      37.276  30.940  30.214  1.00  0.00     0.022 A 
BRANCH  65  68
ATOM     68  S   UNL A   1      37.937  29.756  32.603  1.00  0.00     0.127 S 
ATOM     69  O   UNL A   1      39.350  29.941  32.920  1.00  0.00    -0.237 OA
ATOM     70  O   UNL A   1      37.065  30.873  32.966  1.00  0.00    -0.237 OA
ATOM     71  O   UNL A   1      37.380  28.444  32.908  1.00  0.00    -0.744 OA
ENDBRANCH  65  68
ENDBRANCH  47  61
BRANCH  48  72
ATOM     72  C   UNL A   1      44.941  25.921  33.479  1.00  0.00     0.023 A 
ATOM     73  C   UNL A   1      46.268  25.907  33.956  1.00  0.00     0.012 A 
ATOM     74  C   UNL A   1      43.895  25.946  34.428  1.00  0.00     0.148 A 
ATOM     75  C   UNL A   1      46.544  25.952  35.329  1.00  0.00     0.002 A 
ATOM     76  C   UNL A   1      44.173  25.983  35.792  1.00  0.00     0.091 A 
ATOM     77  F   UNL A   1      42.631  26.033  33.994  1.00  0.00    -0.205 F 
ATOM     78  C   UNL A   1      45.497  25.999  36.246  1.00  0.00     0.022 A 
BRANCH  76  79
ATOM     79  S   UNL A   1      42.875  26.067  37.033  1.00  0.00     0.127 S 
ATOM     80  O   UNL A   1      43.628  25.871  38.272  1.00  0.00    -0.237 OA
ATOM     81  O   UNL A   1      42.359  27.419  36.839  1.00  0.00    -0.237 OA
ATOM     82  O   UNL A   1      41.951  24.985  36.718  1.00  0.00    -0.744 OA
ENDBRANCH  76  79
ENDBRANCH  48  72
BRANCH  60  83
ATOM     83  C   UNL A   1      45.389  28.763  27.913  1.00  0.00     0.023 A 
ATOM     84  C   UNL A   1      46.409  29.739  27.922  1.00  0.00     0.012 A 
ATOM     85  C   UNL A   1      45.690  27.472  27.451  1.00  0.00     0.148 A 
ATOM     86  C   UNL A   1      47.693  29.436  27.460  1.00  0.00     0.002 A 
ATOM     87  C   UNL A   1      46.979  27.160  27.039  1.00  0.00     0.091 A 
ATOM     88  F   UNL A   1      44.710  26.555  27.451  1.00  0.00    -0.205 F 
ATOM     89  C   UNL A   1      47.982  28.142  27.032  1.00  0.00     0.022 A 
BRANCH  87  90
ATOM     90  S   UNL A   1      47.439  25.483  26.600  1.00  0.00     0.127 S 
ATOM     91  O   UNL A   1      48.862  25.625  26.302  1.00  0.00    -0.237 OA
ATOM     92  O   UNL A   1      47.140  24.744  27.827  1.00  0.00    -0.237 OA
ATOM     93  O   UNL A   1      46.593  25.120  25.468  1.00  0.00    -0.744 OA
ENDBRANCH  87  90
ENDBRANCH  60  83
ENDBRANCH  34  35
ENDBRANCH  27  29
ENDBRANCH  26  27
ENDBRANCH  25  26
ENDBRANCH   1  25
TORSDOF 18
ENDMDL
MODEL 2
REMARK VINA RESULT:     -11.6      1.924      2.189
REMARK SMILES C[C@@H]1C(C(=O)OCCOCCOC(=O)c2ccc(-c3c4nc(c(-c5cccc(S(=O)(=O)[O-])c5F)c5ccc([nH]5)c(-c5cccc(S(=O)(=O)[O-])c5F)c5nc(c(-c6cccc(S(=O)(=O)[O-])c6F)c6ccc3[nH]6)C=C5)C=C4)cc2)=NC2=C1C(=O)C[C@H](c1ccccc1)C2
REMARK SMILES IDX 10 1 9 2 8 3 7 4 6 5 4 6 5 7 3 8 1 9 2 10 80 11 78 12 79 13
REMARK SMILES IDX 81 14 91 15 82 16 83 17 84 18 85 19 86 20 90 21 87 22 89 23
REMARK SMILES IDX 88 24 11 25 12 26 13 27 14 28 15 29 16 30 77 31 17 32 76 33
REMARK SMILES IDX 18 34 19 35 20 36 70 37 21 38 75 39 69 40 71 41 22 42 74 43
REMARK SMILES IDX 68 44 67 45 23 47 55 48 35 49 54 50 36 51 39 52 53 53 72 54
REMARK SMILES IDX 37 55 38 56 52 58 73 59 40 60 24 61 25 62 33 63 26 64 28 65
REMARK SMILES IDX 34 66 27 67 29 68 30 69 31 70 32 71 56 72 57 73 65 74 58 75
REMARK SMILES IDX 60 76 66 77 59 78 61 79 62 80 63 81 64 82 41 83 42 84 50 85
REMARK SMILES IDX 43 86 45 87 51 88 44 89 46 90 47 91 48 92 49 93
REMARK H PARENT 71 46 39 57
REMARK Flexibility Score: inf
ROOT
ATOM      1  C   UNL A   1      39.087  22.277  26.463  1.00  0.00     0.202 C 
ENDROOT
BRANCH   1   2
ATOM      2  O   UNL A   1      37.704  22.597  26.336  1.00  0.00    -0.374 OA
BRANCH   2   3
ATOM      3  C   UNL A   1      37.442  23.724  25.502  1.00  0.00     0.202 C 
BRANCH   3   4
ATOM      4  C   UNL A   1      36.089  23.610  24.787  1.00  0.00     0.261 C 
BRANCH   4   5
ATOM      5  O   UNL A   1      35.007  23.961  25.681  1.00  0.00    -0.459 OA
BRANCH   5   6
ATOM      6  C   UNL A   1      33.908  23.168  25.666  1.00  0.00     0.353 C 
ATOM      7  O   UNL A   1      33.656  22.252  26.426  1.00  0.00    -0.245 OA
BRANCH   6   8
ATOM      8  C   UNL A   1      32.892  23.722  24.663  1.00  0.00     0.133 C 
ATOM      9  C   UNL A   1      32.464  22.300  22.679  1.00  0.00     0.020 C 
ATOM     10  C   UNL A   1      33.131  23.587  23.173  1.00  0.00     0.078 C 
ATOM     11  C   UNL A   1      32.299  24.779  22.869  1.00  0.00     0.026 C 
ATOM     12  N   UNL A   1      31.812  24.383  25.015  1.00  0.00    -0.249 NA
ATOM     13  C   UNL A   1      31.449  25.038  23.859  1.00  0.00     0.049 C 
ATOM     14  C   UNL A   1      32.578  25.843  21.903  1.00  0.00     0.161 C 
ATOM     15  C   UNL A   1      30.538  26.226  23.800  1.00  0.00     0.065 C 
ATOM     16  O   UNL A   1      33.146  25.555  20.855  1.00  0.00    -0.294 OA
ATOM     17  C   UNL A   1      32.252  27.296  22.301  1.00  0.00     0.089 C 
ATOM     18  C   UNL A   1      31.388  27.496  23.599  1.00  0.00     0.033 C 
BRANCH  18  19
ATOM     19  C   UNL A   1      32.128  27.925  24.883  1.00  0.00    -0.044 A 
ATOM     20  C   UNL A   1      31.487  27.949  26.141  1.00  0.00     0.004 A 
ATOM     21  C   UNL A   1      33.467  28.341  24.860  1.00  0.00     0.004 A 
ATOM     22  C   UNL A   1      32.180  28.187  27.330  1.00  0.00     0.000 A 
ATOM     23  C   UNL A   1      34.166  28.595  26.055  1.00  0.00     0.000 A 
ATOM     24  C   UNL A   1      33.534  28.475  27.289  1.00  0.00     0.000 A 
ENDBRANCH  18  19
ENDBRANCH   6   8
ENDBRANCH   5   6
ENDBRANCH   4   5
ENDBRANCH   3   4
ENDBRANCH   2   3
ENDBRANCH   1   2
BRANCH   1  25
ATOM     25  C   UNL A   1      39.458  21.015  25.718  1.00  0.00     0.261 C 
BRANCH  25  26
ATOM     26  O   UNL A   1      40.449  20.360  26.477  1.00  0.00    -0.460 OA
BRANCH  26  27
ATOM     27  C   UNL A   1      41.660  20.139  25.950  1.00  0.00     0.338 C 
ATOM     28  O   UNL A   1      42.025  19.233  25.214  1.00  0.00    -0.246 OA
BRANCH  27  29
ATOM     29  C   UNL A   1      42.485  21.128  26.641  1.00  0.00     0.060 A 
ATOM     30  C   UNL A   1      42.410  21.084  28.026  1.00  0.00     0.016 A 
ATOM     31  C   UNL A   1      42.851  22.289  25.926  1.00  0.00     0.016 A 
ATOM     32  C   UNL A   1      42.425  22.286  28.686  1.00  0.00     0.010 A 
ATOM     33  C   UNL A   1      42.786  23.490  26.576  1.00  0.00     0.010 A 
ATOM     34  C   UNL A   1      42.508  23.469  27.937  1.00  0.00    -0.014 A 
BRANCH  34  35
ATOM     35  C   UNL A   1      42.565  24.709  28.666  1.00  0.00     0.031 A 
ATOM     36  C   UNL A   1      41.360  25.510  28.371  1.00  0.00     0.074 A 
ATOM     37  C   UNL A   1      43.535  25.024  29.537  1.00  0.00     0.049 A 
ATOM     38  N   UNL A   1      41.270  26.491  27.535  1.00  0.00    -0.248 NA
ATOM     39  C   UNL A   1      40.061  24.963  28.802  1.00  0.00     0.031 C 
ATOM     40  C   UNL A   1      44.568  24.160  30.109  1.00  0.00     0.029 A 
ATOM     41  N   UNL A   1      43.705  26.192  30.202  1.00  0.00    -0.354 N 
ATOM     42  C   UNL A   1      39.929  26.849  27.573  1.00  0.00     0.074 A 
ATOM     43  C   UNL A   1      39.224  25.709  28.084  1.00  0.00     0.031 C 
ATOM     44  C   UNL A   1      45.081  24.764  31.208  1.00  0.00     0.029 A 
ATOM     45  C   UNL A   1      44.501  26.091  31.335  1.00  0.00     0.049 A 
ATOM     46  H   UNL A   1      43.300  27.040  29.908  1.00  0.00     0.167 HD
ATOM     47  C   UNL A   1      39.570  28.160  27.546  1.00  0.00     0.034 A 
ATOM     48  C   UNL A   1      44.565  27.004  32.337  1.00  0.00     0.034 A 
ATOM     49  C   UNL A   1      40.654  28.979  27.054  1.00  0.00     0.049 A 
ATOM     50  C   UNL A   1      44.024  28.281  31.803  1.00  0.00     0.074 A 
ATOM     51  C   UNL A   1      41.410  29.002  25.897  1.00  0.00     0.029 A 
ATOM     52  N   UNL A   1      41.374  29.673  27.997  1.00  0.00    -0.354 N 
ATOM     53  N   UNL A   1      44.607  28.973  30.865  1.00  0.00    -0.248 NA
ATOM     54  C   UNL A   1      42.605  28.547  31.983  1.00  0.00     0.031 C 
ATOM     55  C   UNL A   1      42.733  29.317  26.327  1.00  0.00     0.029 A 
ATOM     56  C   UNL A   1      42.705  29.541  27.706  1.00  0.00     0.049 A 
ATOM     57  H   UNL A   1      40.997  30.179  28.752  1.00  0.00     0.167 HD
ATOM     58  C   UNL A   1      43.566  29.394  30.047  1.00  0.00     0.074 A 
ATOM     59  C   UNL A   1      42.355  29.198  30.843  1.00  0.00     0.031 C 
ATOM     60  C   UNL A   1      43.753  29.568  28.705  1.00  0.00     0.034 A 
BRANCH  47  61
ATOM     61  C   UNL A   1      38.442  28.742  28.375  1.00  0.00     0.023 A 
ATOM     62  C   UNL A   1      37.489  29.518  27.683  1.00  0.00     0.012 A 
ATOM     63  C   UNL A   1      38.413  28.815  29.790  1.00  0.00     0.148 A 
ATOM     64  C   UNL A   1      36.614  30.376  28.356  1.00  0.00     0.002 A 
ATOM     65  C   UNL A   1      37.491  29.610  30.457  1.00  0.00     0.091 A 
ATOM     66  F   UNL A   1      39.351  28.225  30.527  1.00  0.00    -0.205 F 
ATOM     67  C   UNL A   1      36.612  30.422  29.744  1.00  0.00     0.022 A 
BRANCH  65  68
ATOM     68  S   UNL A   1      37.431  29.669  32.255  1.00  0.00     0.127 S 
ATOM     69  O   UNL A   1      38.667  30.383  32.562  1.00  0.00    -0.237 OA
ATOM     70  O   UNL A   1      36.200  30.424  32.485  1.00  0.00    -0.237 OA
ATOM     71  O   UNL A   1      37.369  28.281  32.698  1.00  0.00    -0.744 OA
ENDBRANCH  65  68
ENDBRANCH  47  61
BRANCH  48  72
ATOM     72  C   UNL A   1      44.756  26.796  33.793  1.00  0.00     0.023 A 
ATOM     73  C   UNL A   1      45.965  27.192  34.400  1.00  0.00     0.012 A 
ATOM     74  C   UNL A   1      43.664  26.479  34.631  1.00  0.00     0.148 A 
ATOM     75  C   UNL A   1      46.073  27.303  35.793  1.00  0.00     0.002 A 
ATOM     76  C   UNL A   1      43.777  26.583  36.015  1.00  0.00     0.091 A 
ATOM     77  F   UNL A   1      42.487  26.172  34.072  1.00  0.00    -0.205 F 
ATOM     78  C   UNL A   1      44.977  27.006  36.599  1.00  0.00     0.022 A 
BRANCH  76  79
ATOM     79  S   UNL A   1      42.400  26.239  37.118  1.00  0.00     0.127 S 
ATOM     80  O   UNL A   1      43.024  26.381  38.434  1.00  0.00    -0.237 OA
ATOM     81  O   UNL A   1      41.461  27.302  36.769  1.00  0.00    -0.237 OA
ATOM     82  O   UNL A   1      41.967  24.883  36.806  1.00  0.00    -0.744 OA
ENDBRANCH  76  79
ENDBRANCH  48  72
BRANCH  60  83
ATOM     83  C   UNL A   1      45.169  29.557  28.183  1.00  0.00     0.023 A 
ATOM     84  C   UNL A   1      45.800  28.389  27.702  1.00  0.00     0.012 A 
ATOM     85  C   UNL A   1      45.815  30.793  28.019  1.00  0.00     0.148 A 
ATOM     86  C   UNL A   1      47.056  28.454  27.092  1.00  0.00     0.002 A 
ATOM     87  C   UNL A   1      47.040  30.860  27.368  1.00  0.00     0.091 A 
ATOM     88  F   UNL A   1      45.200  31.894  28.479  1.00  0.00    -0.205 F 
ATOM     89  C   UNL A   1      47.669  29.692  26.911  1.00  0.00     0.022 A 
BRANCH  87  90
ATOM     90  S   UNL A   1      47.813  32.435  26.995  1.00  0.00     0.127 S 
ATOM     91  O   UNL A   1      46.862  33.027  26.056  1.00  0.00    -0.237 OA
ATOM     92  O   UNL A   1      47.861  33.080  28.308  1.00  0.00    -0.237 OA
ATOM     93  O   UNL A   1      49.125  32.116  26.443  1.00  0.00    -0.744 OA
ENDBRANCH  87  90
ENDBRANCH  60  83
ENDBRANCH  34  35
ENDBRANCH  27  29
ENDBRANCH  26  27
ENDBRANCH  25  26
ENDBRANCH   1  25
TORSDOF 18
ENDMDL
MODEL 3
REMARK VINA RESULT:     -11.6      1.647      2.053
REMARK SMILES C[C@@H]1C(C(=O)OCCOCCOC(=O)c2ccc(-c3c4nc(c(-c5cccc(S(=O)(=O)[O-])c5F)c5ccc([nH]5)c(-c5cccc(S(=O)(=O)[O-])c5F)c5nc(c(-c6cccc(S(=O)(=O)[O-])c6F)c6ccc3[nH]6)C=C5)C=C4)cc2)=NC2=C1C(=O)C[C@H](c1ccccc1)C2
REMARK SMILES IDX 10 1 9 2 8 3 7 4 6 5 4 6 5 7 3 8 1 9 2 10 80 11 78 12 79 13
REMARK SMILES IDX 81 14 91 15 82 16 83 17 84 18 85 19 86 20 90 21 87 22 89 23
REMARK SMILES IDX 88 24 11 25 12 26 13 27 14 28 15 29 16 30 77 31 17 32 76 33
REMARK SMILES IDX 18 34 19 35 20 36 70 37 21 38 75 39 69 40 71 41 22 42 74 43
REMARK SMILES IDX 68 44 67 45 23 47 55 48 35 49 54 50 36 51 39 52 53 53 72 54
REMARK SMILES IDX 37 55 38 56 52 58 73 59 40 60 24 61 25 62 33 63 26 64 28 65
REMARK SMILES IDX 34 66 27 67 29 68 30 69 31 70 32 71 56 72 57 73 65 74 58 75
REMARK SMILES IDX 60 76 66 77 59 78 61 79 62 80 63 81 64 82 41 83 42 84 50 85
REMARK SMILES IDX 43 86 45 87 51 88 44 89 46 90 47 91 48 92 49 93
REMARK H PARENT 71 46 39 57
REMARK Flexibility Score: inf
ROOT
ATOM      1  C   UNL A   1      36.967  21.849  24.745  1.00  0.00     0.202 C 
ENDROOT
BRANCH   1   2
ATOM      2  O   UNL A   1      37.624  22.987  25.297  1.00  0.00    -0.374 OA
BRANCH   2   3
ATOM      3  C   UNL A   1      36.815  23.750  26.191  1.00  0.00     0.202 C 
BRANCH   3   4
ATOM      4  C   UNL A   1      35.340  23.754  25.772  1.00  0.00     0.261 C 
BRANCH   4   5
ATOM      5  O   UNL A   1      34.505  23.229  26.831  1.00  0.00    -0.459 OA
BRANCH   5   6
ATOM      6  C   UNL A   1      33.746  22.143  26.542  1.00  0.00     0.353 C 
ATOM      7  O   UNL A   1      33.658  21.119  27.191  1.00  0.00    -0.245 OA
BRANCH   6   8
ATOM      8  C   UNL A   1      32.825  22.464  25.361  1.00  0.00     0.133 C 
ATOM      9  C   UNL A   1      32.611  20.677  23.659  1.00  0.00     0.020 C 
ATOM     10  C   UNL A   1      33.209  22.054  23.953  1.00  0.00     0.078 C 
ATOM     11  C   UNL A   1      32.395  23.140  23.350  1.00  0.00     0.026 C 
ATOM     12  N   UNL A   1      31.708  23.146  25.477  1.00  0.00    -0.249 NA
ATOM     13  C   UNL A   1      31.450  23.556  24.188  1.00  0.00     0.049 C 
ATOM     14  C   UNL A   1      32.752  24.008  22.226  1.00  0.00     0.161 C 
ATOM     15  C   UNL A   1      30.534  24.681  23.816  1.00  0.00     0.065 C 
ATOM     16  O   UNL A   1      33.423  23.543  21.311  1.00  0.00    -0.294 OA
ATOM     17  C   UNL A   1      32.370  25.499  22.304  1.00  0.00     0.089 C 
ATOM     18  C   UNL A   1      31.383  25.916  23.454  1.00  0.00     0.033 C 
BRANCH  18  19
ATOM     19  C   UNL A   1      31.989  26.605  24.694  1.00  0.00    -0.044 A 
ATOM     20  C   UNL A   1      33.334  27.031  24.728  1.00  0.00     0.004 A 
ATOM     21  C   UNL A   1      31.241  26.815  25.861  1.00  0.00     0.004 A 
ATOM     22  C   UNL A   1      33.854  27.788  25.780  1.00  0.00     0.000 A 
ATOM     23  C   UNL A   1      31.765  27.567  26.930  1.00  0.00     0.000 A 
ATOM     24  C   UNL A   1      33.054  28.089  26.869  1.00  0.00     0.000 A 
ENDBRANCH  18  19
ENDBRANCH   6   8
ENDBRANCH   5   6
ENDBRANCH   4   5
ENDBRANCH   3   4
ENDBRANCH   2   3
ENDBRANCH   1   2
BRANCH   1  25
ATOM     25  C   UNL A   1      37.721  20.565  25.005  1.00  0.00     0.261 C 
BRANCH  25  26
ATOM     26  O   UNL A   1      38.941  20.916  25.620  1.00  0.00    -0.460 OA
BRANCH  26  27
ATOM     27  C   UNL A   1      39.932  20.020  25.702  1.00  0.00     0.338 C 
ATOM     28  O   UNL A   1      39.907  18.820  25.467  1.00  0.00    -0.246 OA
BRANCH  27  29
ATOM     29  C   UNL A   1      40.996  20.791  26.343  1.00  0.00     0.060 A 
ATOM     30  C   UNL A   1      41.052  20.670  27.724  1.00  0.00     0.016 A 
ATOM     31  C   UNL A   1      41.505  21.909  25.646  1.00  0.00     0.016 A 
ATOM     32  C   UNL A   1      41.362  21.802  28.434  1.00  0.00     0.010 A 
ATOM     33  C   UNL A   1      41.735  23.055  26.354  1.00  0.00     0.010 A 
ATOM     34  C   UNL A   1      41.594  22.996  27.735  1.00  0.00    -0.014 A 
BRANCH  34  35
ATOM     35  C   UNL A   1      41.960  24.153  28.510  1.00  0.00     0.031 A 
ATOM     36  C   UNL A   1      40.953  25.215  28.315  1.00  0.00     0.074 A 
ATOM     37  C   UNL A   1      43.014  24.200  29.339  1.00  0.00     0.049 A 
ATOM     38  N   UNL A   1      41.047  26.234  27.526  1.00  0.00    -0.248 NA
ATOM     39  C   UNL A   1      39.585  24.948  28.794  1.00  0.00     0.031 C 
ATOM     40  C   UNL A   1      43.852  23.100  29.817  1.00  0.00     0.029 A 
ATOM     41  N   UNL A   1      43.470  25.265  30.041  1.00  0.00    -0.354 N 
ATOM     42  C   UNL A   1      39.824  26.877  27.652  1.00  0.00     0.074 A 
ATOM     43  C   UNL A   1      38.905  25.897  28.154  1.00  0.00     0.031 C 
ATOM     44  C   UNL A   1      44.535  23.517  30.911  1.00  0.00     0.029 A 
ATOM     45  C   UNL A   1      44.272  24.931  31.123  1.00  0.00     0.049 A 
ATOM     46  H   UNL A   1      43.252  26.196  29.805  1.00  0.00     0.167 HD
ATOM     47  C   UNL A   1      39.766  28.235  27.698  1.00  0.00     0.034 A 
ATOM     48  C   UNL A   1      44.584  25.754  32.157  1.00  0.00     0.034 A 
ATOM     49  C   UNL A   1      40.983  28.818  27.181  1.00  0.00     0.049 A 
ATOM     50  C   UNL A   1      44.319  27.145  31.706  1.00  0.00     0.074 A 
ATOM     51  C   UNL A   1      41.673  28.734  25.987  1.00  0.00     0.029 A 
ATOM     52  N   UNL A   1      41.881  29.286  28.111  1.00  0.00    -0.354 N 
ATOM     53  N   UNL A   1      45.000  27.739  30.766  1.00  0.00    -0.248 NA
ATOM     54  C   UNL A   1      43.004  27.709  31.974  1.00  0.00     0.031 C 
ATOM     55  C   UNL A   1      43.051  28.725  26.356  1.00  0.00     0.029 A 
ATOM     56  C   UNL A   1      43.134  28.878  27.742  1.00  0.00     0.049 A 
ATOM     57  H   UNL A   1      41.661  29.822  28.906  1.00  0.00     0.167 HD
ATOM     58  C   UNL A   1      44.044  28.422  30.024  1.00  0.00     0.074 A 
ATOM     59  C   UNL A   1      42.857  28.458  30.877  1.00  0.00     0.031 C 
ATOM     60  C   UNL A   1      44.205  28.619  28.682  1.00  0.00     0.034 A 
BRANCH  47  61
ATOM     61  C   UNL A   1      38.835  29.008  28.611  1.00  0.00     0.023 A 
ATOM     62  C   UNL A   1      38.169  30.112  28.040  1.00  0.00     0.012 A 
ATOM     63  C   UNL A   1      38.790  28.901  30.023  1.00  0.00     0.148 A 
ATOM     64  C   UNL A   1      37.564  31.094  28.832  1.00  0.00     0.002 A 
ATOM     65  C   UNL A   1      38.122  29.837  30.802  1.00  0.00     0.091 A 
ATOM     66  F   UNL A   1      39.495  27.972  30.665  1.00  0.00    -0.205 F 
ATOM     67  C   UNL A   1      37.538  30.957  30.213  1.00  0.00     0.022 A 
BRANCH  65  68
ATOM     68  S   UNL A   1      38.034  29.676  32.592  1.00  0.00     0.127 S 
ATOM     69  O   UNL A   1      39.442  29.778  32.962  1.00  0.00    -0.237 OA
ATOM     70  O   UNL A   1      37.208  30.829  32.952  1.00  0.00    -0.237 OA
ATOM     71  O   UNL A   1      37.399  28.388  32.846  1.00  0.00    -0.744 OA
ENDBRANCH  65  68
ENDBRANCH  47  61
BRANCH  48  72
ATOM     72  C   UNL A   1      44.787  25.433  33.590  1.00  0.00     0.023 A 
ATOM     73  C   UNL A   1      43.678  25.397  34.459  1.00  0.00     0.012 A 
ATOM     74  C   UNL A   1      46.007  24.886  34.047  1.00  0.00     0.148 A 
ATOM     75  C   UNL A   1      43.770  24.806  35.726  1.00  0.00     0.002 A 
ATOM     76  C   UNL A   1      46.096  24.307  35.310  1.00  0.00     0.091 A 
ATOM     77  F   UNL A   1      47.051  24.845  33.209  1.00  0.00    -0.205 F 
ATOM     78  C   UNL A   1      44.977  24.254  36.148  1.00  0.00     0.022 A 
BRANCH  76  79
ATOM     79  S   UNL A   1      47.614  23.553  35.913  1.00  0.00     0.127 S 
ATOM     80  O   UNL A   1      48.537  24.689  35.910  1.00  0.00    -0.237 OA
ATOM     81  O   UNL A   1      47.215  23.094  37.241  1.00  0.00    -0.237 OA
ATOM     82  O   UNL A   1      47.948  22.508  34.955  1.00  0.00    -0.744 OA
ENDBRANCH  76  79
ENDBRANCH  48  72
BRANCH  60  83
ATOM     83  C   UNL A   1      45.558  28.323  28.084  1.00  0.00     0.023 A 
ATOM     84  C   UNL A   1      46.639  29.229  28.146  1.00  0.00     0.012 A 
ATOM     85  C   UNL A   1      45.789  27.026  27.598  1.00  0.00     0.148 A 
ATOM     86  C   UNL A   1      47.914  28.854  27.711  1.00  0.00     0.002 A 
ATOM     87  C   UNL A   1      47.067  26.640  27.214  1.00  0.00     0.091 A 
ATOM     88  F   UNL A   1      44.752  26.175  27.548  1.00  0.00    -0.205 F 
ATOM     89  C   UNL A   1      48.131  27.554  27.259  1.00  0.00     0.022 A 
BRANCH  87  90
ATOM     90  S   UNL A   1      47.429  24.947  26.746  1.00  0.00     0.127 S 
ATOM     91  O   UNL A   1      48.888  24.918  26.810  1.00  0.00    -0.237 OA
ATOM     92  O   UNL A   1      46.754  24.180  27.794  1.00  0.00    -0.237 OA
ATOM     93  O   UNL A   1      46.855  24.768  25.417  1.00  0.00    -0.744 OA
ENDBRANCH  87  90
ENDBRANCH  60  83
ENDBRANCH  34  35
ENDBRANCH  27  29
ENDBRANCH  26  27
ENDBRANCH  25  26
ENDBRANCH   1  25
TORSDOF 18
ENDMDL
