MODEL 1
REMARK VINA RESULT:     -11.0      0.000      0.000
REMARK SMILES O=C(OCCOCCOC(=O)c1noc(-c2ccccc2C(F)(F)F)n1)c1ccc(-c2c3nc(c(-c4cccc(S(=O)(=O)[O-])c4F)c4ccc([nH]4)c(-c4cccc(S(=O)(=O)[O-])c4F)c4nc(c(-c5cccc(S(=O)(=O)[O-])c5F)c5ccc2[nH]5)C=C4)C=C3)cc1
REMARK SMILES IDX 5 1 4 2 3 3 2 4 1 5 27 6 28 7 89 8 29 9 88 10 30 11 31 12
REMARK SMILES IDX 32 13 82 14 33 15 87 16 81 17 83 18 34 19 86 20 80 21 79 22
REMARK SMILES IDX 35 24 67 25 47 26 66 27 48 28 51 29 65 30 84 31 49 32 50 33
REMARK SMILES IDX 64 35 85 36 52 37 36 38 37 39 45 40 38 41 40 42 46 43 39 44
REMARK SMILES IDX 41 45 42 46 43 47 44 48 68 49 69 50 77 51 70 52 72 53 78 54
REMARK SMILES IDX 71 55 73 56 74 57 75 58 76 59 53 60 54 61 62 62 55 63 57 64
REMARK SMILES IDX 63 65 56 66 58 67 59 68 60 69 61 70 6 71 7 72 8 73 9 74
REMARK SMILES IDX 10 75 11 76 12 77 13 78 26 79 14 80 15 81 16 82 17 83 21 84
REMARK SMILES IDX 18 85 20 86 19 87 22 88 23 89 24 90 25 91
REMARK H PARENT 83 23 51 34
REMARK Flexibility Score: inf
ROOT
ATOM      1  C   UNL A   1      31.125  28.986  24.960  1.00  0.00     0.202 C 
ENDROOT
BRANCH   1   2
ATOM      2  C   UNL A   1      31.455  30.409  25.414  1.00  0.00     0.261 C 
BRANCH   2   3
ATOM      3  O   UNL A   1      32.802  30.474  25.910  1.00  0.00    -0.460 OA
BRANCH   3   4
ATOM      4  C   UNL A   1      33.286  31.259  26.902  1.00  0.00     0.338 C 
ATOM      5  O   UNL A   1      32.721  32.327  27.128  1.00  0.00    -0.246 OA
BRANCH   4   6
ATOM      6  C   UNL A   1      34.478  30.898  27.730  1.00  0.00     0.060 A 
ATOM      7  C   UNL A   1      34.737  29.625  28.237  1.00  0.00     0.016 A 
ATOM      8  C   UNL A   1      35.452  31.891  27.920  1.00  0.00     0.016 A 
ATOM      9  C   UNL A   1      35.883  29.342  28.956  1.00  0.00     0.010 A 
ATOM     10  C   UNL A   1      36.638  31.605  28.606  1.00  0.00     0.010 A 
ATOM     11  C   UNL A   1      36.847  30.325  29.127  1.00  0.00    -0.014 A 
BRANCH  11  12
ATOM     12  C   UNL A   1      38.039  29.963  29.906  1.00  0.00     0.031 A 
ATOM     13  C   UNL A   1      39.057  29.067  29.280  1.00  0.00     0.074 A 
ATOM     14  C   UNL A   1      38.235  30.547  31.103  1.00  0.00     0.049 A 
ATOM     15  N   UNL A   1      40.171  28.617  29.782  1.00  0.00    -0.248 NA
ATOM     16  C   UNL A   1      38.797  28.636  27.894  1.00  0.00     0.031 C 
ATOM     17  C   UNL A   1      37.326  31.514  31.726  1.00  0.00     0.029 A 
ATOM     18  N   UNL A   1      39.261  30.430  32.000  1.00  0.00    -0.354 N 
ATOM     19  C   UNL A   1      40.718  27.802  28.801  1.00  0.00     0.074 A 
ATOM     20  C   UNL A   1      39.833  27.843  27.660  1.00  0.00     0.031 C 
ATOM     21  C   UNL A   1      37.835  31.898  32.909  1.00  0.00     0.029 A 
ATOM     22  C   UNL A   1      39.063  31.153  33.153  1.00  0.00     0.049 A 
ATOM     23  H   UNL A   1      40.061  29.880  31.836  1.00  0.00     0.167 HD
ATOM     24  C   UNL A   1      41.855  27.076  28.867  1.00  0.00     0.034 A 
ATOM     25  C   UNL A   1      39.778  31.167  34.293  1.00  0.00     0.034 A 
ATOM     26  C   UNL A   1      42.717  27.071  30.016  1.00  0.00     0.049 A 
ATOM     27  C   UNL A   1      41.009  30.305  34.350  1.00  0.00     0.074 A 
ATOM     28  C   UNL A   1      43.886  26.364  30.211  1.00  0.00     0.029 A 
ATOM     29  N   UNL A   1      42.487  27.803  31.172  1.00  0.00    -0.354 N 
ATOM     30  N   UNL A   1      41.541  29.564  33.405  1.00  0.00    -0.248 NA
ATOM     31  C   UNL A   1      41.747  30.283  35.619  1.00  0.00     0.031 C 
ATOM     32  C   UNL A   1      44.345  26.640  31.503  1.00  0.00     0.029 A 
ATOM     33  C   UNL A   1      43.481  27.551  32.096  1.00  0.00     0.049 A 
ATOM     34  H   UNL A   1      41.726  28.413  31.312  1.00  0.00     0.167 HD
ATOM     35  C   UNL A   1      42.686  29.006  33.957  1.00  0.00     0.074 A 
ATOM     36  C   UNL A   1      42.786  29.523  35.308  1.00  0.00     0.031 C 
ATOM     37  C   UNL A   1      43.565  28.129  33.413  1.00  0.00     0.034 A 
BRANCH  24  38
ATOM     38  C   UNL A   1      42.193  26.200  27.695  1.00  0.00     0.023 A 
ATOM     39  C   UNL A   1      42.938  26.709  26.613  1.00  0.00     0.012 A 
ATOM     40  C   UNL A   1      41.786  24.852  27.685  1.00  0.00     0.148 A 
ATOM     41  C   UNL A   1      43.253  25.893  25.527  1.00  0.00     0.002 A 
ATOM     42  C   UNL A   1      42.139  24.034  26.621  1.00  0.00     0.091 A 
ATOM     43  F   UNL A   1      41.053  24.400  28.714  1.00  0.00    -0.205 F 
ATOM     44  C   UNL A   1      42.863  24.554  25.535  1.00  0.00     0.022 A 
BRANCH  42  45
ATOM     45  S   UNL A   1      41.737  22.286  26.566  1.00  0.00     0.127 S 
ATOM     46  O   UNL A   1      42.355  21.800  27.800  1.00  0.00    -0.237 OA
ATOM     47  O   UNL A   1      40.274  22.310  26.585  1.00  0.00    -0.237 OA
ATOM     48  O   UNL A   1      42.326  21.772  25.337  1.00  0.00    -0.744 OA
ENDBRANCH  42  45
ENDBRANCH  24  38
BRANCH  25  49
ATOM     49  C   UNL A   1      39.335  31.977  35.466  1.00  0.00     0.023 A 
ATOM     50  C   UNL A   1      38.475  31.414  36.426  1.00  0.00     0.012 A 
ATOM     51  C   UNL A   1      39.753  33.314  35.626  1.00  0.00     0.148 A 
ATOM     52  C   UNL A   1      38.004  32.178  37.497  1.00  0.00     0.002 A 
ATOM     53  C   UNL A   1      39.331  34.051  36.726  1.00  0.00     0.091 A 
ATOM     54  F   UNL A   1      40.555  33.847  34.692  1.00  0.00    -0.205 F 
ATOM     55  C   UNL A   1      38.439  33.493  37.651  1.00  0.00     0.022 A 
BRANCH  53  56
ATOM     56  S   UNL A   1      39.946  35.705  37.060  1.00  0.00     0.127 S 
ATOM     57  O   UNL A   1      39.191  36.070  38.255  1.00  0.00    -0.237 OA
ATOM     58  O   UNL A   1      41.371  35.463  37.282  1.00  0.00    -0.237 OA
ATOM     59  O   UNL A   1      39.653  36.478  35.860  1.00  0.00    -0.744 OA
ENDBRANCH  53  56
ENDBRANCH  25  49
BRANCH  37  60
ATOM     60  C   UNL A   1      44.725  27.705  34.270  1.00  0.00     0.023 A 
ATOM     61  C   UNL A   1      45.910  28.464  34.271  1.00  0.00     0.012 A 
ATOM     62  C   UNL A   1      44.600  26.601  35.135  1.00  0.00     0.148 A 
ATOM     63  C   UNL A   1      46.970  28.112  35.103  1.00  0.00     0.002 A 
ATOM     64  C   UNL A   1      45.639  26.292  36.002  1.00  0.00     0.091 A 
ATOM     65  F   UNL A   1      43.467  25.884  35.101  1.00  0.00    -0.205 F 
ATOM     66  C   UNL A   1      46.829  27.038  35.977  1.00  0.00     0.022 A 
BRANCH  64  67
ATOM     67  S   UNL A   1      45.500  24.998  37.238  1.00  0.00     0.127 S 
ATOM     68  O   UNL A   1      46.796  25.089  37.909  1.00  0.00    -0.237 OA
ATOM     69  O   UNL A   1      44.365  25.457  38.039  1.00  0.00    -0.237 OA
ATOM     70  O   UNL A   1      45.262  23.763  36.503  1.00  0.00    -0.744 OA
ENDBRANCH  64  67
ENDBRANCH  37  60
ENDBRANCH  11  12
ENDBRANCH   4   6
ENDBRANCH   3   4
ENDBRANCH   2   3
ENDBRANCH   1   2
BRANCH   1  71
ATOM     71  O   UNL A   1      31.819  28.548  23.793  1.00  0.00    -0.374 OA
BRANCH  71  72
ATOM     72  C   UNL A   1      31.472  27.262  23.267  1.00  0.00     0.202 C 
BRANCH  72  73
ATOM     73  C   UNL A   1      30.205  26.763  23.977  1.00  0.00     0.261 C 
BRANCH  73  74
ATOM     74  O   UNL A   1      30.438  25.419  24.415  1.00  0.00    -0.457 OA
BRANCH  74  75
ATOM     75  C   UNL A   1      30.695  25.335  25.761  1.00  0.00     0.380 C 
ATOM     76  O   UNL A   1      30.236  26.097  26.603  1.00  0.00    -0.242 OA
BRANCH  75  77
ATOM     77  C   UNL A   1      31.520  24.165  26.052  1.00  0.00     0.281 A 
ATOM     78  N   UNL A   1      31.554  23.546  27.249  1.00  0.00    -0.049 NA
ATOM     79  N   UNL A   1      32.380  23.617  25.117  1.00  0.00    -0.181 NA
ATOM     80  O   UNL A   1      32.618  22.650  27.120  1.00  0.00    -0.333 OA
ATOM     81  C   UNL A   1      33.100  22.813  25.856  1.00  0.00     0.259 A 
BRANCH  81  82
ATOM     82  C   UNL A   1      34.486  22.459  25.655  1.00  0.00     0.052 A 
ATOM     83  C   UNL A   1      35.500  23.395  25.907  1.00  0.00     0.014 A 
ATOM     84  C   UNL A   1      34.815  21.159  25.213  1.00  0.00     0.068 A 
ATOM     85  C   UNL A   1      36.837  23.043  25.728  1.00  0.00     0.001 A 
ATOM     86  C   UNL A   1      36.170  20.826  25.050  1.00  0.00     0.014 A 
ATOM     87  C   UNL A   1      37.171  21.761  25.301  1.00  0.00     0.001 A 
BRANCH  84  88
ATOM     88  C   UNL A   1      33.791  20.075  24.923  1.00  0.00     0.417 C 
ATOM     89  F   UNL A   1      32.974  20.424  23.887  1.00  0.00    -0.166 F 
ATOM     90  F   UNL A   1      34.376  18.905  24.547  1.00  0.00    -0.166 F 
ATOM     91  F   UNL A   1      32.938  19.770  25.934  1.00  0.00    -0.166 F 
ENDBRANCH  84  88
ENDBRANCH  81  82
ENDBRANCH  75  77
ENDBRANCH  74  75
ENDBRANCH  73  74
ENDBRANCH  72  73
ENDBRANCH  71  72
ENDBRANCH   1  71
TORSDOF 19
ENDMDL
MODEL 2
REMARK VINA RESULT:     -10.9      2.000      7.924
REMARK SMILES O=C(OCCOCCOC(=O)c1noc(-c2ccccc2C(F)(F)F)n1)c1ccc(-c2c3nc(c(-c4cccc(S(=O)(=O)[O-])c4F)c4ccc([nH]4)c(-c4cccc(S(=O)(=O)[O-])c4F)c4nc(c(-c5cccc(S(=O)(=O)[O-])c5F)c5ccc2[nH]5)C=C4)C=C3)cc1
REMARK SMILES IDX 5 1 4 2 3 3 2 4 1 5 27 6 28 7 89 8 29 9 88 10 30 11 31 12
REMARK SMILES IDX 32 13 82 14 33 15 87 16 81 17 83 18 34 19 86 20 80 21 79 22
REMARK SMILES IDX 35 24 67 25 47 26 66 27 48 28 51 29 65 30 84 31 49 32 50 33
REMARK SMILES IDX 64 35 85 36 52 37 36 38 37 39 45 40 38 41 40 42 46 43 39 44
REMARK SMILES IDX 41 45 42 46 43 47 44 48 68 49 69 50 77 51 70 52 72 53 78 54
REMARK SMILES IDX 71 55 73 56 74 57 75 58 76 59 53 60 54 61 62 62 55 63 57 64
REMARK SMILES IDX 63 65 56 66 58 67 59 68 60 69 61 70 6 71 7 72 8 73 9 74
REMARK SMILES IDX 10 75 11 76 12 77 13 78 26 79 14 80 15 81 16 82 17 83 21 84
REMARK SMILES IDX 18 85 20 86 19 87 22 88 23 89 24 90 25 91
REMARK H PARENT 83 23 51 34
REMARK Flexibility Score: inf
ROOT
ATOM      1  C   UNL A   1      30.918  29.976  24.570  1.00  0.00     0.202 C 
ENDROOT
BRANCH   1   2
ATOM      2  C   UNL A   1      32.224  29.790  25.345  1.00  0.00     0.261 C 
BRANCH   2   3
ATOM      3  O   UNL A   1      32.151  30.464  26.612  1.00  0.00    -0.460 OA
BRANCH   3   4
ATOM      4  C   UNL A   1      33.026  31.359  27.130  1.00  0.00     0.338 C 
ATOM      5  O   UNL A   1      32.798  32.557  26.969  1.00  0.00    -0.246 OA
BRANCH   4   6
ATOM      6  C   UNL A   1      34.259  30.966  27.879  1.00  0.00     0.060 A 
ATOM      7  C   UNL A   1      34.557  29.668  28.294  1.00  0.00     0.016 A 
ATOM      8  C   UNL A   1      35.229  31.960  28.086  1.00  0.00     0.016 A 
ATOM      9  C   UNL A   1      35.739  29.359  28.941  1.00  0.00     0.010 A 
ATOM     10  C   UNL A   1      36.449  31.651  28.697  1.00  0.00     0.010 A 
ATOM     11  C   UNL A   1      36.698  30.345  29.129  1.00  0.00    -0.014 A 
BRANCH  11  12
ATOM     12  C   UNL A   1      37.929  29.954  29.828  1.00  0.00     0.031 A 
ATOM     13  C   UNL A   1      38.146  30.444  31.222  1.00  0.00     0.074 A 
ATOM     14  C   UNL A   1      38.758  29.071  29.241  1.00  0.00     0.049 A 
ATOM     15  N   UNL A   1      39.154  30.232  32.018  1.00  0.00    -0.248 NA
ATOM     16  C   UNL A   1      37.073  31.268  31.809  1.00  0.00     0.031 C 
ATOM     17  C   UNL A   1      38.549  28.472  27.918  1.00  0.00     0.029 A 
ATOM     18  N   UNL A   1      39.927  28.511  29.677  1.00  0.00    -0.354 N 
ATOM     19  C   UNL A   1      38.870  30.942  33.176  1.00  0.00     0.074 A 
ATOM     20  C   UNL A   1      37.580  31.566  32.996  1.00  0.00     0.031 C 
ATOM     21  C   UNL A   1      39.562  27.632  27.650  1.00  0.00     0.029 A 
ATOM     22  C   UNL A   1      40.518  27.688  28.747  1.00  0.00     0.049 A 
ATOM     23  H   UNL A   1      40.307  28.682  30.569  1.00  0.00     0.167 HD
ATOM     24  C   UNL A   1      39.638  31.063  34.280  1.00  0.00     0.034 A 
ATOM     25  C   UNL A   1      41.723  27.090  28.772  1.00  0.00     0.034 A 
ATOM     26  C   UNL A   1      40.911  30.416  34.428  1.00  0.00     0.049 A 
ATOM     27  C   UNL A   1      42.574  27.292  29.996  1.00  0.00     0.074 A 
ATOM     28  C   UNL A   1      41.790  30.477  35.490  1.00  0.00     0.029 A 
ATOM     29  N   UNL A   1      41.490  29.599  33.467  1.00  0.00    -0.354 N 
ATOM     30  N   UNL A   1      42.284  27.935  31.104  1.00  0.00    -0.248 NA
ATOM     31  C   UNL A   1      43.909  26.683  29.986  1.00  0.00     0.031 C 
ATOM     32  C   UNL A   1      42.920  29.724  35.156  1.00  0.00     0.029 A 
ATOM     33  C   UNL A   1      42.726  29.163  33.902  1.00  0.00     0.049 A 
ATOM     34  H   UNL A   1      41.080  29.364  32.603  1.00  0.00     0.167 HD
ATOM     35  C   UNL A   1      43.390  27.790  31.930  1.00  0.00     0.074 A 
ATOM     36  C   UNL A   1      44.341  26.969  31.205  1.00  0.00     0.031 C 
ATOM     37  C   UNL A   1      43.617  28.304  33.164  1.00  0.00     0.034 A 
BRANCH  24  38
ATOM     38  C   UNL A   1      39.144  31.964  35.377  1.00  0.00     0.023 A 
ATOM     39  C   UNL A   1      39.329  33.357  35.296  1.00  0.00     0.012 A 
ATOM     40  C   UNL A   1      38.468  31.416  36.484  1.00  0.00     0.148 A 
ATOM     41  C   UNL A   1      38.866  34.192  36.314  1.00  0.00     0.002 A 
ATOM     42  C   UNL A   1      37.973  32.254  37.473  1.00  0.00     0.091 A 
ATOM     43  F   UNL A   1      38.331  30.083  36.552  1.00  0.00    -0.205 F 
ATOM     44  C   UNL A   1      38.181  33.642  37.397  1.00  0.00     0.022 A 
BRANCH  42  45
ATOM     45  S   UNL A   1      37.027  31.651  38.874  1.00  0.00     0.127 S 
ATOM     46  O   UNL A   1      37.966  31.856  39.976  1.00  0.00    -0.237 OA
ATOM     47  O   UNL A   1      35.878  32.555  38.875  1.00  0.00    -0.237 OA
ATOM     48  O   UNL A   1      36.713  30.259  38.583  1.00  0.00    -0.744 OA
ENDBRANCH  42  45
ENDBRANCH  24  38
BRANCH  25  49
ATOM     49  C   UNL A   1      42.207  26.292  27.607  1.00  0.00     0.023 A 
ATOM     50  C   UNL A   1      42.978  26.908  26.603  1.00  0.00     0.012 A 
ATOM     51  C   UNL A   1      41.893  24.924  27.481  1.00  0.00     0.148 A 
ATOM     52  C   UNL A   1      43.387  26.189  25.477  1.00  0.00     0.002 A 
ATOM     53  C   UNL A   1      42.354  24.199  26.389  1.00  0.00     0.091 A 
ATOM     54  F   UNL A   1      41.138  24.353  28.432  1.00  0.00    -0.205 F 
ATOM     55  C   UNL A   1      43.083  24.834  25.374  1.00  0.00     0.022 A 
BRANCH  53  56
ATOM     56  S   UNL A   1      42.111  22.424  26.249  1.00  0.00     0.127 S 
ATOM     57  O   UNL A   1      42.806  22.124  25.001  1.00  0.00    -0.237 OA
ATOM     58  O   UNL A   1      42.771  21.928  27.457  1.00  0.00    -0.237 OA
ATOM     59  O   UNL A   1      40.667  22.230  26.238  1.00  0.00    -0.744 OA
ENDBRANCH  53  56
ENDBRANCH  25  49
BRANCH  37  60
ATOM     60  C   UNL A   1      44.928  27.963  33.815  1.00  0.00     0.023 A 
ATOM     61  C   UNL A   1      46.025  28.834  33.680  1.00  0.00     0.012 A 
ATOM     62  C   UNL A   1      45.038  26.821  34.631  1.00  0.00     0.148 A 
ATOM     63  C   UNL A   1      47.228  28.557  34.326  1.00  0.00     0.002 A 
ATOM     64  C   UNL A   1      46.221  26.582  35.316  1.00  0.00     0.091 A 
ATOM     65  F   UNL A   1      43.983  25.998  34.727  1.00  0.00    -0.205 F 
ATOM     66  C   UNL A   1      47.320  27.441  35.154  1.00  0.00     0.022 A 
BRANCH  64  67
ATOM     67  S   UNL A   1      46.391  25.235  36.490  1.00  0.00     0.127 S 
ATOM     68  O   UNL A   1      45.856  24.108  35.727  1.00  0.00    -0.237 OA
ATOM     69  O   UNL A   1      47.837  25.194  36.706  1.00  0.00    -0.237 OA
ATOM     70  O   UNL A   1      45.615  25.621  37.661  1.00  0.00    -0.744 OA
ENDBRANCH  64  67
ENDBRANCH  37  60
ENDBRANCH  11  12
ENDBRANCH   4   6
ENDBRANCH   3   4
ENDBRANCH   2   3
ENDBRANCH   1   2
BRANCH   1  71
ATOM     71  O   UNL A   1      30.719  29.059  23.495  1.00  0.00    -0.374 OA
BRANCH  71  72
ATOM     72  C   UNL A   1      30.043  27.832  23.797  1.00  0.00     0.202 C 
BRANCH  72  73
ATOM     73  C   UNL A   1      30.939  26.659  23.375  1.00  0.00     0.261 C 
BRANCH  73  74
ATOM     74  O   UNL A   1      31.707  27.070  22.238  1.00  0.00    -0.457 OA
BRANCH  74  75
ATOM     75  C   UNL A   1      33.060  26.955  22.440  1.00  0.00     0.380 C 
ATOM     76  O   UNL A   1      33.796  27.883  22.752  1.00  0.00    -0.242 OA
BRANCH  75  77
ATOM     77  C   UNL A   1      33.480  25.561  22.313  1.00  0.00     0.281 A 
ATOM     78  N   UNL A   1      33.278  24.811  21.211  1.00  0.00    -0.049 NA
ATOM     79  N   UNL A   1      34.089  24.876  23.349  1.00  0.00    -0.181 NA
ATOM     80  O   UNL A   1      33.634  23.525  21.625  1.00  0.00    -0.333 OA
ATOM     81  C   UNL A   1      34.026  23.641  22.925  1.00  0.00     0.259 A 
BRANCH  81  82
ATOM     82  C   UNL A   1      33.894  22.451  23.734  1.00  0.00     0.052 A 
ATOM     83  C   UNL A   1      32.627  21.913  24.002  1.00  0.00     0.014 A 
ATOM     84  C   UNL A   1      35.053  21.827  24.248  1.00  0.00     0.068 A 
ATOM     85  C   UNL A   1      32.506  20.755  24.769  1.00  0.00     0.001 A 
ATOM     86  C   UNL A   1      34.905  20.656  25.010  1.00  0.00     0.014 A 
ATOM     87  C   UNL A   1      33.643  20.128  25.271  1.00  0.00     0.001 A 
BRANCH  84  88
ATOM     88  C   UNL A   1      36.466  22.329  24.006  1.00  0.00     0.417 C 
ATOM     89  F   UNL A   1      36.727  23.456  24.732  1.00  0.00    -0.166 F 
ATOM     90  F   UNL A   1      37.404  21.421  24.392  1.00  0.00    -0.166 F 
ATOM     91  F   UNL A   1      36.769  22.675  22.729  1.00  0.00    -0.166 F 
ENDBRANCH  84  88
ENDBRANCH  81  82
ENDBRANCH  75  77
ENDBRANCH  74  75
ENDBRANCH  73  74
ENDBRANCH  72  73
ENDBRANCH  71  72
ENDBRANCH   1  71
TORSDOF 19
ENDMDL
MODEL 3
REMARK VINA RESULT:     -10.9      1.403      1.710
REMARK SMILES O=C(OCCOCCOC(=O)c1noc(-c2ccccc2C(F)(F)F)n1)c1ccc(-c2c3nc(c(-c4cccc(S(=O)(=O)[O-])c4F)c4ccc([nH]4)c(-c4cccc(S(=O)(=O)[O-])c4F)c4nc(c(-c5cccc(S(=O)(=O)[O-])c5F)c5ccc2[nH]5)C=C4)C=C3)cc1
REMARK SMILES IDX 5 1 4 2 3 3 2 4 1 5 27 6 28 7 89 8 29 9 88 10 30 11 31 12
REMARK SMILES IDX 32 13 82 14 33 15 87 16 81 17 83 18 34 19 86 20 80 21 79 22
REMARK SMILES IDX 35 24 67 25 47 26 66 27 48 28 51 29 65 30 84 31 49 32 50 33
REMARK SMILES IDX 64 35 85 36 52 37 36 38 37 39 45 40 38 41 40 42 46 43 39 44
REMARK SMILES IDX 41 45 42 46 43 47 44 48 68 49 69 50 77 51 70 52 72 53 78 54
REMARK SMILES IDX 71 55 73 56 74 57 75 58 76 59 53 60 54 61 62 62 55 63 57 64
REMARK SMILES IDX 63 65 56 66 58 67 59 68 60 69 61 70 6 71 7 72 8 73 9 74
REMARK SMILES IDX 10 75 11 76 12 77 13 78 26 79 14 80 15 81 16 82 17 83 21 84
REMARK SMILES IDX 18 85 20 86 19 87 22 88 23 89 24 90 25 91
REMARK H PARENT 83 23 51 34
REMARK Flexibility Score: inf
ROOT
ATOM      1  C   UNL A   1      31.180  29.514  24.171  1.00  0.00     0.202 C 
ENDROOT
BRANCH   1   2
ATOM      2  C   UNL A   1      31.412  29.894  25.634  1.00  0.00     0.261 C 
BRANCH   2   3
ATOM      3  O   UNL A   1      32.664  30.584  25.776  1.00  0.00    -0.460 OA
BRANCH   3   4
ATOM      4  C   UNL A   1      33.096  31.313  26.833  1.00  0.00     0.338 C 
ATOM      5  O   UNL A   1      32.431  32.287  27.180  1.00  0.00    -0.246 OA
BRANCH   4   6
ATOM      6  C   UNL A   1      34.346  31.001  27.593  1.00  0.00     0.060 A 
ATOM      7  C   UNL A   1      35.284  31.948  28.004  1.00  0.00     0.016 A 
ATOM      8  C   UNL A   1      34.532  29.671  28.005  1.00  0.00     0.016 A 
ATOM      9  C   UNL A   1      36.397  31.601  28.747  1.00  0.00     0.010 A 
ATOM     10  C   UNL A   1      35.629  29.316  28.796  1.00  0.00     0.010 A 
ATOM     11  C   UNL A   1      36.565  30.288  29.162  1.00  0.00    -0.014 A 
BRANCH  11  12
ATOM     12  C   UNL A   1      37.772  29.983  29.943  1.00  0.00     0.031 A 
ATOM     13  C   UNL A   1      38.833  29.138  29.318  1.00  0.00     0.074 A 
ATOM     14  C   UNL A   1      37.937  30.575  31.141  1.00  0.00     0.049 A 
ATOM     15  N   UNL A   1      39.966  28.741  29.822  1.00  0.00    -0.248 NA
ATOM     16  C   UNL A   1      38.597  28.696  27.932  1.00  0.00     0.031 C 
ATOM     17  C   UNL A   1      36.981  31.497  31.763  1.00  0.00     0.029 A 
ATOM     18  N   UNL A   1      38.965  30.506  32.040  1.00  0.00    -0.354 N 
ATOM     19  C   UNL A   1      40.554  27.954  28.842  1.00  0.00     0.074 A 
ATOM     20  C   UNL A   1      39.670  27.954  27.699  1.00  0.00     0.031 C 
ATOM     21  C   UNL A   1      37.468  31.903  32.947  1.00  0.00     0.029 A 
ATOM     22  C   UNL A   1      38.730  31.218  33.193  1.00  0.00     0.049 A 
ATOM     23  H   UNL A   1      39.791  29.996  31.878  1.00  0.00     0.167 HD
ATOM     24  C   UNL A   1      41.724  27.284  28.911  1.00  0.00     0.034 A 
ATOM     25  C   UNL A   1      39.441  31.265  34.334  1.00  0.00     0.034 A 
ATOM     26  C   UNL A   1      42.583  27.319  30.061  1.00  0.00     0.049 A 
ATOM     27  C   UNL A   1      40.712  30.463  34.394  1.00  0.00     0.074 A 
ATOM     28  C   UNL A   1      43.784  26.668  30.259  1.00  0.00     0.029 A 
ATOM     29  N   UNL A   1      42.315  28.038  31.217  1.00  0.00    -0.354 N 
ATOM     30  N   UNL A   1      41.281  29.750  33.450  1.00  0.00    -0.248 NA
ATOM     31  C   UNL A   1      41.447  30.476  35.664  1.00  0.00     0.031 C 
ATOM     32  C   UNL A   1      44.226  26.966  31.552  1.00  0.00     0.029 A 
ATOM     33  C   UNL A   1      43.318  27.833  32.143  1.00  0.00     0.049 A 
ATOM     34  H   UNL A   1      41.526  28.610  31.356  1.00  0.00     0.167 HD
ATOM     35  C   UNL A   1      42.450  29.247  34.004  1.00  0.00     0.074 A 
ATOM     36  C   UNL A   1      42.523  29.767  35.356  1.00  0.00     0.031 C 
ATOM     37  C   UNL A   1      43.371  28.414  33.461  1.00  0.00     0.034 A 
BRANCH  24  38
ATOM     38  C   UNL A   1      42.106  26.426  27.738  1.00  0.00     0.023 A 
ATOM     39  C   UNL A   1      42.840  26.967  26.665  1.00  0.00     0.012 A 
ATOM     40  C   UNL A   1      41.751  25.063  27.720  1.00  0.00     0.148 A 
ATOM     41  C   UNL A   1      43.197  26.168  25.579  1.00  0.00     0.002 A 
ATOM     42  C   UNL A   1      42.145  24.263  26.657  1.00  0.00     0.091 A 
ATOM     43  F   UNL A   1      41.027  24.579  28.740  1.00  0.00    -0.205 F 
ATOM     44  C   UNL A   1      42.859  24.815  25.579  1.00  0.00     0.022 A 
BRANCH  42  45
ATOM     45  S   UNL A   1      41.811  22.501  26.592  1.00  0.00     0.127 S 
ATOM     46  O   UNL A   1      42.369  22.141  25.288  1.00  0.00    -0.237 OA
ATOM     47  O   UNL A   1      42.571  22.006  27.739  1.00  0.00    -0.237 OA
ATOM     48  O   UNL A   1      40.366  22.357  26.704  1.00  0.00    -0.744 OA
ENDBRANCH  42  45
ENDBRANCH  24  38
BRANCH  25  49
ATOM     49  C   UNL A   1      38.957  32.052  35.507  1.00  0.00     0.023 A 
ATOM     50  C   UNL A   1      39.157  33.445  35.552  1.00  0.00     0.012 A 
ATOM     51  C   UNL A   1      38.311  31.421  36.590  1.00  0.00     0.148 A 
ATOM     52  C   UNL A   1      38.763  34.185  36.669  1.00  0.00     0.002 A 
ATOM     53  C   UNL A   1      37.868  32.172  37.672  1.00  0.00     0.091 A 
ATOM     54  F   UNL A   1      38.147  30.091  36.547  1.00  0.00    -0.205 F 
ATOM     55  C   UNL A   1      38.112  33.551  37.724  1.00  0.00     0.022 A 
BRANCH  53  56
ATOM     56  S   UNL A   1      36.911  31.448  39.008  1.00  0.00     0.127 S 
ATOM     57  O   UNL A   1      35.740  32.320  39.046  1.00  0.00    -0.237 OA
ATOM     58  O   UNL A   1      36.656  30.097  38.506  1.00  0.00    -0.237 OA
ATOM     59  O   UNL A   1      37.779  31.494  40.177  1.00  0.00    -0.744 OA
ENDBRANCH  53  56
ENDBRANCH  25  49
BRANCH  37  60
ATOM     60  C   UNL A   1      44.548  28.044  34.320  1.00  0.00     0.023 A 
ATOM     61  C   UNL A   1      45.707  28.844  34.303  1.00  0.00     0.012 A 
ATOM     62  C   UNL A   1      44.465  26.953  35.206  1.00  0.00     0.148 A 
ATOM     63  C   UNL A   1      46.782  28.544  35.136  1.00  0.00     0.002 A 
ATOM     64  C   UNL A   1      45.517  26.696  36.073  1.00  0.00     0.091 A 
ATOM     65  F   UNL A   1      43.357  26.198  35.189  1.00  0.00    -0.205 F 
ATOM     66  C   UNL A   1      46.681  27.481  36.030  1.00  0.00     0.022 A 
BRANCH  64  67
ATOM     67  S   UNL A   1      45.427  25.420  37.333  1.00  0.00     0.127 S 
ATOM     68  O   UNL A   1      46.754  25.511  37.941  1.00  0.00    -0.237 OA
ATOM     69  O   UNL A   1      44.334  25.898  38.179  1.00  0.00    -0.237 OA
ATOM     70  O   UNL A   1      45.147  24.177  36.628  1.00  0.00    -0.744 OA
ENDBRANCH  64  67
ENDBRANCH  37  60
ENDBRANCH  11  12
ENDBRANCH   4   6
ENDBRANCH   3   4
ENDBRANCH   2   3
ENDBRANCH   1   2
BRANCH   1  71
ATOM     71  O   UNL A   1      30.105  28.603  23.947  1.00  0.00    -0.374 OA
BRANCH  71  72
ATOM     72  C   UNL A   1      30.331  27.537  23.017  1.00  0.00     0.202 C 
BRANCH  72  73
ATOM     73  C   UNL A   1      31.306  26.531  23.646  1.00  0.00     0.261 C 
BRANCH  73  74
ATOM     74  O   UNL A   1      30.547  25.610  24.439  1.00  0.00    -0.457 OA
BRANCH  74  75
ATOM     75  C   UNL A   1      30.939  25.592  25.755  1.00  0.00     0.380 C 
ATOM     76  O   UNL A   1      30.651  26.455  26.576  1.00  0.00    -0.242 OA
BRANCH  75  77
ATOM     77  C   UNL A   1      31.671  24.364  26.054  1.00  0.00     0.281 A 
ATOM     78  N   UNL A   1      31.655  23.750  27.254  1.00  0.00    -0.049 NA
ATOM     79  N   UNL A   1      32.490  23.748  25.124  1.00  0.00    -0.181 NA
ATOM     80  O   UNL A   1      32.647  22.775  27.132  1.00  0.00    -0.333 OA
ATOM     81  C   UNL A   1      33.144  22.895  25.869  1.00  0.00     0.259 A 
BRANCH  81  82
ATOM     82  C   UNL A   1      34.500  22.435  25.674  1.00  0.00     0.052 A 
ATOM     83  C   UNL A   1      35.583  23.265  26.001  1.00  0.00     0.014 A 
ATOM     84  C   UNL A   1      34.729  21.140  25.161  1.00  0.00     0.068 A 
ATOM     85  C   UNL A   1      36.890  22.811  25.828  1.00  0.00     0.001 A 
ATOM     86  C   UNL A   1      36.054  20.702  25.004  1.00  0.00     0.014 A 
ATOM     87  C   UNL A   1      37.125  21.531  25.331  1.00  0.00     0.001 A 
BRANCH  84  88
ATOM     88  C   UNL A   1      33.624  20.167  24.787  1.00  0.00     0.417 C 
ATOM     89  F   UNL A   1      32.919  20.604  23.702  1.00  0.00    -0.166 F 
ATOM     90  F   UNL A   1      34.114  18.947  24.435  1.00  0.00    -0.166 F 
ATOM     91  F   UNL A   1      32.677  19.942  25.733  1.00  0.00    -0.166 F 
ENDBRANCH  84  88
ENDBRANCH  81  82
ENDBRANCH  75  77
ENDBRANCH  74  75
ENDBRANCH  73  74
ENDBRANCH  72  73
ENDBRANCH  71  72
ENDBRANCH   1  71
TORSDOF 19
ENDMDL
