MODEL 1
REMARK VINA RESULT:     -12.5      0.000      0.000
REMARK SMILES Cc1ccc(C(=O)N2C[C@@H](C(=O)OCCOCCOC(=O)c3ccc(-c4c5nc(c(-c6cccc(S(=O)(=O)[O-])c6F)c6ccc([nH]6)c(-c6cccc(S(=O)(=O)[O-])c6F)c6nc(c(-c7cccc(S(=O)(=O)[O-])c7F)c7ccc4[nH]7)C=C6)C=C5)cc3)C[C@H](C(=O)N3CCOCC3)C2)cc1F
REMARK SMILES IDX 17 1 16 2 15 3 14 4 13 5 11 6 12 7 10 8 8 9 9 10 95 11 86 12
REMARK SMILES IDX 85 13 6 14 7 15 5 16 1 17 2 18 3 19 97 20 4 21 96 22 98 23
REMARK SMILES IDX 87 24 88 25 89 26 90 27 94 28 91 29 93 30 92 31 18 32 19 33
REMARK SMILES IDX 20 34 21 35 22 36 23 37 84 38 24 39 83 40 25 41 26 42 27 43
REMARK SMILES IDX 77 44 28 45 82 46 76 47 78 48 29 49 81 50 75 51 74 52 30 54
REMARK SMILES IDX 62 55 42 56 61 57 43 58 46 59 60 60 79 61 44 62 45 63 59 65
REMARK SMILES IDX 80 66 47 67 31 68 32 69 40 70 33 71 35 72 41 73 34 74 36 75
REMARK SMILES IDX 37 76 38 77 39 78 63 79 64 80 72 81 65 82 67 83 73 84 66 85
REMARK SMILES IDX 68 86 69 87 70 88 71 89 48 90 49 91 57 92 50 93 52 94 58 95
REMARK SMILES IDX 51 96 53 97 54 98 55 99 56 100
REMARK H PARENT 78 53 46 64
REMARK Flexibility Score: inf
ROOT
ATOM      1  C   UNL A   1      33.839  33.228  28.343  1.00  0.00     0.202 C 
ENDROOT
BRANCH   1   2
ATOM      2  O   UNL A   1      33.765  32.048  27.545  1.00  0.00    -0.374 OA
BRANCH   2   3
ATOM      3  C   UNL A   1      32.538  31.419  27.233  1.00  0.00     0.202 C 
BRANCH   3   4
ATOM      4  C   UNL A   1      32.489  30.286  26.192  1.00  0.00     0.261 C 
BRANCH   4   5
ATOM      5  O   UNL A   1      32.277  28.965  26.708  1.00  0.00    -0.463 OA
BRANCH   5   6
ATOM      6  C   UNL A   1      33.299  28.122  26.448  1.00  0.00     0.310 C 
ATOM      7  O   UNL A   1      34.478  28.354  26.690  1.00  0.00    -0.252 OA
BRANCH   6   8
ATOM      8  C   UNL A   1      32.879  26.863  25.744  1.00  0.00     0.119 C 
ATOM      9  N   UNL A   1      31.118  25.952  24.408  1.00  0.00    -0.337 N 
ATOM     10  C   UNL A   1      31.407  26.926  25.444  1.00  0.00     0.135 C 
ATOM     11  C   UNL A   1      31.439  24.551  24.705  1.00  0.00     0.133 C 
ATOM     12  C   UNL A   1      32.848  24.356  25.335  1.00  0.00     0.099 C 
ATOM     13  C   UNL A   1      33.243  25.487  26.304  1.00  0.00     0.032 C 
BRANCH   9  14
ATOM     14  C   UNL A   1      30.879  26.425  23.127  1.00  0.00     0.254 C 
ATOM     15  O   UNL A   1      31.395  25.941  22.124  1.00  0.00    -0.269 OA
BRANCH  14  16
ATOM     16  C   UNL A   1      30.147  27.703  22.994  1.00  0.00     0.042 A 
ATOM     17  C   UNL A   1      27.791  31.022  21.643  1.00  0.00     0.047 C 
ATOM     18  C   UNL A   1      28.635  29.911  22.187  1.00  0.00    -0.015 A 
ATOM     19  C   UNL A   1      30.016  29.894  21.970  1.00  0.00     0.007 A 
ATOM     20  C   UNL A   1      28.037  28.837  22.856  1.00  0.00     0.126 A 
ATOM     21  C   UNL A   1      30.769  28.792  22.370  1.00  0.00     0.014 A 
ATOM     22  C   UNL A   1      28.776  27.732  23.257  1.00  0.00     0.053 A 
ATOM     23  F   UNL A   1      26.712  28.842  23.065  1.00  0.00    -0.207 F 
ENDBRANCH  14  16
ENDBRANCH   9  14
BRANCH  12  24
ATOM     24  C   UNL A   1      33.807  23.884  24.221  1.00  0.00     0.227 C 
ATOM     25  O   UNL A   1      34.255  24.756  23.462  1.00  0.00    -0.275 OA
ATOM     26  N   UNL A   1      34.388  22.637  24.241  1.00  0.00    -0.338 N 
ATOM     27  C   UNL A   1      33.721  21.330  24.292  1.00  0.00     0.148 C 
ATOM     28  C   UNL A   1      35.782  22.513  23.818  1.00  0.00     0.148 C 
ATOM     29  C   UNL A   1      34.513  20.356  25.187  1.00  0.00     0.181 C 
ATOM     30  C   UNL A   1      36.506  21.562  24.774  1.00  0.00     0.181 C 
ATOM     31  O   UNL A   1      35.886  20.264  24.760  1.00  0.00    -0.378 OA
ENDBRANCH  12  24
ENDBRANCH   6   8
ENDBRANCH   5   6
ENDBRANCH   4   5
ENDBRANCH   3   4
ENDBRANCH   2   3
ENDBRANCH   1   2
BRANCH   1  32
ATOM     32  C   UNL A   1      34.660  33.321  29.626  1.00  0.00     0.261 C 
BRANCH  32  33
ATOM     33  O   UNL A   1      34.803  32.064  30.288  1.00  0.00    -0.460 OA
BRANCH  33  34
ATOM     34  C   UNL A   1      36.089  31.672  30.430  1.00  0.00     0.338 C 
ATOM     35  O   UNL A   1      36.999  32.292  30.950  1.00  0.00    -0.246 OA
BRANCH  34  36
ATOM     36  C   UNL A   1      36.351  30.425  29.690  1.00  0.00     0.060 A 
ATOM     37  C   UNL A   1      36.781  29.411  30.558  1.00  0.00     0.016 A 
ATOM     38  C   UNL A   1      36.899  30.595  28.416  1.00  0.00     0.016 A 
ATOM     39  C   UNL A   1      38.050  28.920  30.364  1.00  0.00     0.010 A 
ATOM     40  C   UNL A   1      38.155  30.086  28.212  1.00  0.00     0.010 A 
ATOM     41  C   UNL A   1      38.754  29.355  29.239  1.00  0.00    -0.014 A 
BRANCH  41  42
ATOM     42  C   UNL A   1      40.130  28.985  29.037  1.00  0.00     0.031 A 
ATOM     43  C   UNL A   1      40.352  27.570  28.724  1.00  0.00     0.074 A 
ATOM     44  C   UNL A   1      41.126  29.882  29.193  1.00  0.00     0.049 A 
ATOM     45  N   UNL A   1      41.288  26.845  29.221  1.00  0.00    -0.248 NA
ATOM     46  C   UNL A   1      39.400  26.813  27.907  1.00  0.00     0.031 C 
ATOM     47  C   UNL A   1      42.528  29.673  28.865  1.00  0.00     0.029 A 
ATOM     48  N   UNL A   1      41.116  31.121  29.839  1.00  0.00    -0.354 N 
ATOM     49  C   UNL A   1      41.288  25.675  28.494  1.00  0.00     0.074 A 
ATOM     50  C   UNL A   1      40.000  25.622  27.842  1.00  0.00     0.031 C 
ATOM     51  C   UNL A   1      43.268  30.565  29.547  1.00  0.00     0.029 A 
ATOM     52  C   UNL A   1      42.370  31.270  30.447  1.00  0.00     0.049 A 
ATOM     53  H   UNL A   1      40.371  31.764  29.862  1.00  0.00     0.167 HD
ATOM     54  C   UNL A   1      42.457  25.001  28.318  1.00  0.00     0.034 A 
ATOM     55  C   UNL A   1      42.574  31.414  31.791  1.00  0.00     0.034 A 
ATOM     56  C   UNL A   1      43.549  25.718  28.959  1.00  0.00     0.049 A 
ATOM     57  C   UNL A   1      43.452  30.314  32.341  1.00  0.00     0.074 A 
ATOM     58  C   UNL A   1      44.442  26.647  28.448  1.00  0.00     0.029 A 
ATOM     59  N   UNL A   1      43.600  25.834  30.340  1.00  0.00    -0.354 N 
ATOM     60  N   UNL A   1      43.509  29.121  31.816  1.00  0.00    -0.248 NA
ATOM     61  C   UNL A   1      44.313  30.460  33.510  1.00  0.00     0.031 C 
ATOM     62  C   UNL A   1      45.017  27.345  29.531  1.00  0.00     0.029 A 
ATOM     63  C   UNL A   1      44.484  26.832  30.701  1.00  0.00     0.049 A 
ATOM     64  H   UNL A   1      43.082  25.285  30.971  1.00  0.00     0.167 HD
ATOM     65  C   UNL A   1      44.443  28.376  32.496  1.00  0.00     0.074 A 
ATOM     66  C   UNL A   1      44.899  29.251  33.557  1.00  0.00     0.031 C 
ATOM     67  C   UNL A   1      44.776  27.112  32.098  1.00  0.00     0.034 A 
BRANCH  54  68
ATOM     68  C   UNL A   1      42.650  23.948  27.251  1.00  0.00     0.023 A 
ATOM     69  C   UNL A   1      43.448  24.162  26.107  1.00  0.00     0.012 A 
ATOM     70  C   UNL A   1      42.056  22.671  27.369  1.00  0.00     0.148 A 
ATOM     71  C   UNL A   1      43.753  23.129  25.208  1.00  0.00     0.002 A 
ATOM     72  C   UNL A   1      42.335  21.656  26.457  1.00  0.00     0.091 A 
ATOM     73  F   UNL A   1      41.210  22.408  28.371  1.00  0.00    -0.205 F 
ATOM     74  C   UNL A   1      43.204  21.868  25.389  1.00  0.00     0.022 A 
BRANCH  72  75
ATOM     75  S   UNL A   1      41.550  20.056  26.681  1.00  0.00     0.127 S 
ATOM     76  O   UNL A   1      40.157  20.413  26.934  1.00  0.00    -0.237 OA
ATOM     77  O   UNL A   1      41.839  19.369  25.428  1.00  0.00    -0.237 OA
ATOM     78  O   UNL A   1      42.248  19.503  27.843  1.00  0.00    -0.744 OA
ENDBRANCH  72  75
ENDBRANCH  54  68
BRANCH  55  79
ATOM     79  C   UNL A   1      41.441  32.021  32.536  1.00  0.00     0.023 A 
ATOM     80  C   UNL A   1      41.469  33.386  32.870  1.00  0.00     0.012 A 
ATOM     81  C   UNL A   1      40.586  31.155  33.245  1.00  0.00     0.148 A 
ATOM     82  C   UNL A   1      40.727  33.855  33.960  1.00  0.00     0.002 A 
ATOM     83  C   UNL A   1      39.899  31.617  34.363  1.00  0.00     0.091 A 
ATOM     84  F   UNL A   1      40.547  29.859  32.898  1.00  0.00    -0.205 F 
ATOM     85  C   UNL A   1      39.961  32.968  34.720  1.00  0.00     0.022 A 
BRANCH  83  86
ATOM     86  S   UNL A   1      39.171  30.414  35.482  1.00  0.00     0.127 S 
ATOM     87  O   UNL A   1      38.185  29.728  34.657  1.00  0.00    -0.237 OA
ATOM     88  O   UNL A   1      40.335  29.636  35.900  1.00  0.00    -0.237 OA
ATOM     89  O   UNL A   1      38.600  31.228  36.555  1.00  0.00    -0.744 OA
ENDBRANCH  83  86
ENDBRANCH  55  79
BRANCH  67  90
ATOM     90  C   UNL A   1      45.555  26.069  32.871  1.00  0.00     0.023 A 
ATOM     91  C   UNL A   1      46.975  26.079  32.769  1.00  0.00     0.012 A 
ATOM     92  C   UNL A   1      45.000  25.024  33.617  1.00  0.00     0.148 A 
ATOM     93  C   UNL A   1      47.787  25.109  33.357  1.00  0.00     0.002 A 
ATOM     94  C   UNL A   1      45.819  24.126  34.305  1.00  0.00     0.091 A 
ATOM     95  F   UNL A   1      43.677  24.827  33.632  1.00  0.00    -0.205 F 
ATOM     96  C   UNL A   1      47.208  24.140  34.155  1.00  0.00     0.022 A 
BRANCH  94  97
ATOM     97  S   UNL A   1      45.060  23.034  35.507  1.00  0.00     0.127 S 
ATOM     98  O   UNL A   1      44.226  22.178  34.669  1.00  0.00    -0.237 OA
ATOM     99  O   UNL A   1      46.202  22.395  36.153  1.00  0.00    -0.237 OA
ATOM    100  O   UNL A   1      44.311  23.946  36.371  1.00  0.00    -0.744 OA
ENDBRANCH  94  97
ENDBRANCH  67  90
ENDBRANCH  41  42
ENDBRANCH  34  36
ENDBRANCH  33  34
ENDBRANCH  32  33
ENDBRANCH   1  32
TORSDOF 20
ENDMDL
MODEL 2
REMARK VINA RESULT:     -12.5      3.981      9.176
REMARK SMILES Cc1ccc(C(=O)N2C[C@@H](C(=O)OCCOCCOC(=O)c3ccc(-c4c5nc(c(-c6cccc(S(=O)(=O)[O-])c6F)c6ccc([nH]6)c(-c6cccc(S(=O)(=O)[O-])c6F)c6nc(c(-c7cccc(S(=O)(=O)[O-])c7F)c7ccc4[nH]7)C=C6)C=C5)cc3)C[C@H](C(=O)N3CCOCC3)C2)cc1F
REMARK SMILES IDX 17 1 16 2 15 3 14 4 13 5 11 6 12 7 10 8 8 9 9 10 95 11 86 12
REMARK SMILES IDX 85 13 6 14 7 15 5 16 1 17 2 18 3 19 97 20 4 21 96 22 98 23
REMARK SMILES IDX 87 24 88 25 89 26 90 27 94 28 91 29 93 30 92 31 18 32 19 33
REMARK SMILES IDX 20 34 21 35 22 36 23 37 84 38 24 39 83 40 25 41 26 42 27 43
REMARK SMILES IDX 77 44 28 45 82 46 76 47 78 48 29 49 81 50 75 51 74 52 30 54
REMARK SMILES IDX 62 55 42 56 61 57 43 58 46 59 60 60 79 61 44 62 45 63 59 65
REMARK SMILES IDX 80 66 47 67 31 68 32 69 40 70 33 71 35 72 41 73 34 74 36 75
REMARK SMILES IDX 37 76 38 77 39 78 63 79 64 80 72 81 65 82 67 83 73 84 66 85
REMARK SMILES IDX 68 86 69 87 70 88 71 89 48 90 49 91 57 92 50 93 52 94 58 95
REMARK SMILES IDX 51 96 53 97 54 98 55 99 56 100
REMARK H PARENT 78 53 46 64
REMARK Flexibility Score: inf
ROOT
ATOM      1  C   UNL A   1      41.512  20.272  26.107  1.00  0.00     0.202 C 
ENDROOT
BRANCH   1   2
ATOM      2  O   UNL A   1      40.201  20.668  26.507  1.00  0.00    -0.374 OA
BRANCH   2   3
ATOM      3  C   UNL A   1      39.329  21.378  25.651  1.00  0.00     0.202 C 
BRANCH   3   4
ATOM      4  C   UNL A   1      37.928  20.821  25.337  1.00  0.00     0.261 C 
BRANCH   4   5
ATOM      5  O   UNL A   1      37.234  21.443  24.248  1.00  0.00    -0.463 OA
BRANCH   5   6
ATOM      6  C   UNL A   1      36.440  22.464  24.637  1.00  0.00     0.310 C 
ATOM      7  O   UNL A   1      36.840  23.565  24.998  1.00  0.00    -0.252 OA
BRANCH   6   8
ATOM      8  C   UNL A   1      34.979  22.114  24.671  1.00  0.00     0.119 C 
ATOM      9  N   UNL A   1      32.805  23.096  24.533  1.00  0.00    -0.337 N 
ATOM     10  C   UNL A   1      34.174  23.355  24.937  1.00  0.00     0.135 C 
ATOM     11  C   UNL A   1      32.115  21.984  25.199  1.00  0.00     0.133 C 
ATOM     12  C   UNL A   1      32.970  20.686  25.287  1.00  0.00     0.099 C 
ATOM     13  C   UNL A   1      34.466  20.960  25.534  1.00  0.00     0.032 C 
BRANCH   9  14
ATOM     14  C   UNL A   1      32.359  23.675  23.355  1.00  0.00     0.254 C 
ATOM     15  O   UNL A   1      32.656  23.250  22.242  1.00  0.00    -0.269 OA
BRANCH  14  16
ATOM     16  C   UNL A   1      31.681  24.986  23.449  1.00  0.00     0.042 A 
ATOM     17  C   UNL A   1      29.192  28.429  22.868  1.00  0.00     0.047 C 
ATOM     18  C   UNL A   1      30.105  27.272  23.133  1.00  0.00    -0.015 A 
ATOM     19  C   UNL A   1      31.358  27.199  22.518  1.00  0.00     0.007 A 
ATOM     20  C   UNL A   1      29.681  26.214  23.945  1.00  0.00     0.126 A 
ATOM     21  C   UNL A   1      32.143  26.057  22.673  1.00  0.00     0.014 A 
ATOM     22  C   UNL A   1      30.452  25.070  24.106  1.00  0.00     0.053 A 
ATOM     23  F   UNL A   1      28.478  26.274  24.536  1.00  0.00    -0.207 F 
ENDBRANCH  14  16
ENDBRANCH   9  14
BRANCH  12  24
ATOM     24  C   UNL A   1      32.505  19.732  24.167  1.00  0.00     0.227 C 
ATOM     25  O   UNL A   1      32.178  20.249  23.089  1.00  0.00    -0.275 OA
ATOM     26  N   UNL A   1      32.727  18.375  24.229  1.00  0.00    -0.338 N 
ATOM     27  C   UNL A   1      32.304  17.436  25.276  1.00  0.00     0.148 C 
ATOM     28  C   UNL A   1      33.104  17.676  23.001  1.00  0.00     0.148 C 
ATOM     29  C   UNL A   1      33.398  16.379  25.525  1.00  0.00     0.181 C 
ATOM     30  C   UNL A   1      34.215  16.674  23.325  1.00  0.00     0.181 C 
ATOM     31  O   UNL A   1      33.764  15.716  24.299  1.00  0.00    -0.378 OA
ENDBRANCH  12  24
ENDBRANCH   6   8
ENDBRANCH   5   6
ENDBRANCH   4   5
ENDBRANCH   3   4
ENDBRANCH   2   3
ENDBRANCH   1   2
BRANCH   1  32
ATOM     32  C   UNL A   1      42.708  21.220  26.100  1.00  0.00     0.261 C 
BRANCH  32  33
ATOM     33  O   UNL A   1      42.462  22.422  25.370  1.00  0.00    -0.460 OA
BRANCH  33  34
ATOM     34  C   UNL A   1      42.731  23.545  26.074  1.00  0.00     0.338 C 
ATOM     35  O   UNL A   1      43.762  23.823  26.659  1.00  0.00    -0.246 OA
BRANCH  34  36
ATOM     36  C   UNL A   1      41.525  24.376  26.234  1.00  0.00     0.060 A 
ATOM     37  C   UNL A   1      41.752  25.679  25.768  1.00  0.00     0.016 A 
ATOM     38  C   UNL A   1      40.775  24.117  27.384  1.00  0.00     0.016 A 
ATOM     39  C   UNL A   1      41.672  26.695  26.691  1.00  0.00     0.010 A 
ATOM     40  C   UNL A   1      40.674  25.136  28.296  1.00  0.00     0.010 A 
ATOM     41  C   UNL A   1      41.230  26.376  27.976  1.00  0.00    -0.014 A 
BRANCH  41  42
ATOM     42  C   UNL A   1      41.241  27.358  29.028  1.00  0.00     0.031 A 
ATOM     43  C   UNL A   1      40.169  28.356  28.956  1.00  0.00     0.074 A 
ATOM     44  C   UNL A   1      42.215  27.372  29.963  1.00  0.00     0.049 A 
ATOM     45  N   UNL A   1      40.321  29.614  29.164  1.00  0.00    -0.248 NA
ATOM     46  C   UNL A   1      38.830  28.001  28.479  1.00  0.00     0.031 C 
ATOM     47  C   UNL A   1      42.248  28.205  31.155  1.00  0.00     0.029 A 
ATOM     48  N   UNL A   1      43.469  26.756  29.951  1.00  0.00    -0.354 N 
ATOM     49  C   UNL A   1      39.051  30.142  29.235  1.00  0.00     0.074 A 
ATOM     50  C   UNL A   1      38.187  29.164  28.618  1.00  0.00     0.031 C 
ATOM     51  C   UNL A   1      43.517  28.286  31.590  1.00  0.00     0.029 A 
ATOM     52  C   UNL A   1      44.354  27.630  30.597  1.00  0.00     0.049 A 
ATOM     53  H   UNL A   1      43.688  25.878  29.563  1.00  0.00     0.167 HD
ATOM     54  C   UNL A   1      38.825  31.228  30.024  1.00  0.00     0.034 A 
ATOM     55  C   UNL A   1      45.457  28.193  30.019  1.00  0.00     0.034 A 
ATOM     56  C   UNL A   1      40.053  31.621  30.697  1.00  0.00     0.049 A 
ATOM     57  C   UNL A   1      45.388  29.702  30.041  1.00  0.00     0.074 A 
ATOM     58  C   UNL A   1      40.546  31.282  31.948  1.00  0.00     0.029 A 
ATOM     59  N   UNL A   1      41.121  32.128  29.973  1.00  0.00    -0.354 N 
ATOM     60  N   UNL A   1      44.263  30.361  30.032  1.00  0.00    -0.248 NA
ATOM     61  C   UNL A   1      46.557  30.575  30.064  1.00  0.00     0.031 C 
ATOM     62  C   UNL A   1      41.928  31.565  31.968  1.00  0.00     0.029 A 
ATOM     63  C   UNL A   1      42.273  32.089  30.734  1.00  0.00     0.049 A 
ATOM     64  H   UNL A   1      41.067  32.468  29.051  1.00  0.00     0.167 HD
ATOM     65  C   UNL A   1      44.530  31.706  30.126  1.00  0.00     0.074 A 
ATOM     66  C   UNL A   1      45.978  31.787  30.121  1.00  0.00     0.031 C 
ATOM     67  C   UNL A   1      43.528  32.629  30.233  1.00  0.00     0.034 A 
BRANCH  54  68
ATOM     68  C   UNL A   1      37.445  31.649  30.473  1.00  0.00     0.023 A 
ATOM     69  C   UNL A   1      36.953  31.386  31.770  1.00  0.00     0.012 A 
ATOM     70  C   UNL A   1      36.583  32.364  29.612  1.00  0.00     0.148 A 
ATOM     71  C   UNL A   1      35.741  31.921  32.230  1.00  0.00     0.002 A 
ATOM     72  C   UNL A   1      35.364  32.867  30.060  1.00  0.00     0.091 A 
ATOM     73  F   UNL A   1      36.925  32.579  28.336  1.00  0.00    -0.205 F 
ATOM     74  C   UNL A   1      34.947  32.674  31.376  1.00  0.00     0.022 A 
BRANCH  72  75
ATOM     75  S   UNL A   1      34.329  33.776  28.908  1.00  0.00     0.127 S 
ATOM     76  O   UNL A   1      35.215  34.842  28.450  1.00  0.00    -0.237 OA
ATOM     77  O   UNL A   1      33.956  32.760  27.930  1.00  0.00    -0.237 OA
ATOM     78  O   UNL A   1      33.221  34.235  29.747  1.00  0.00    -0.744 OA
ENDBRANCH  72  75
ENDBRANCH  54  68
BRANCH  55  79
ATOM     79  C   UNL A   1      46.053  27.406  28.909  1.00  0.00     0.023 A 
ATOM     80  C   UNL A   1      47.209  26.637  29.132  1.00  0.00     0.012 A 
ATOM     81  C   UNL A   1      45.712  27.770  27.592  1.00  0.00     0.148 A 
ATOM     82  C   UNL A   1      48.058  26.325  28.064  1.00  0.00     0.002 A 
ATOM     83  C   UNL A   1      46.591  27.507  26.547  1.00  0.00     0.091 A 
ATOM     84  F   UNL A   1      44.591  28.480  27.389  1.00  0.00    -0.205 F 
ATOM     85  C   UNL A   1      47.762  26.778  26.777  1.00  0.00     0.022 A 
BRANCH  83  86
ATOM     86  S   UNL A   1      46.338  28.349  24.979  1.00  0.00     0.127 S 
ATOM     87  O   UNL A   1      44.980  27.976  24.603  1.00  0.00    -0.237 OA
ATOM     88  O   UNL A   1      46.561  29.747  25.338  1.00  0.00    -0.237 OA
ATOM     89  O   UNL A   1      47.378  27.798  24.109  1.00  0.00    -0.744 OA
ENDBRANCH  83  86
ENDBRANCH  55  79
BRANCH  67  90
ATOM     90  C   UNL A   1      43.626  34.131  30.067  1.00  0.00     0.023 A 
ATOM     91  C   UNL A   1      43.676  34.934  31.241  1.00  0.00     0.012 A 
ATOM     92  C   UNL A   1      43.579  34.822  28.851  1.00  0.00     0.148 A 
ATOM     93  C   UNL A   1      43.669  36.328  31.210  1.00  0.00     0.002 A 
ATOM     94  C   UNL A   1      43.695  36.213  28.818  1.00  0.00     0.091 A 
ATOM     95  F   UNL A   1      43.358  34.168  27.705  1.00  0.00    -0.205 F 
ATOM     96  C   UNL A   1      43.706  36.974  29.988  1.00  0.00     0.022 A 
BRANCH  94  97
ATOM     97  S   UNL A   1      43.973  37.004  27.233  1.00  0.00     0.127 S 
ATOM     98  O   UNL A   1      42.677  36.856  26.577  1.00  0.00    -0.237 OA
ATOM     99  O   UNL A   1      44.365  38.362  27.596  1.00  0.00    -0.237 OA
ATOM    100  O   UNL A   1      45.045  36.205  26.638  1.00  0.00    -0.744 OA
ENDBRANCH  94  97
ENDBRANCH  67  90
ENDBRANCH  41  42
ENDBRANCH  34  36
ENDBRANCH  33  34
ENDBRANCH  32  33
ENDBRANCH   1  32
TORSDOF 20
ENDMDL
MODEL 3
REMARK VINA RESULT:     -12.5      1.823      2.217
REMARK SMILES Cc1ccc(C(=O)N2C[C@@H](C(=O)OCCOCCOC(=O)c3ccc(-c4c5nc(c(-c6cccc(S(=O)(=O)[O-])c6F)c6ccc([nH]6)c(-c6cccc(S(=O)(=O)[O-])c6F)c6nc(c(-c7cccc(S(=O)(=O)[O-])c7F)c7ccc4[nH]7)C=C6)C=C5)cc3)C[C@H](C(=O)N3CCOCC3)C2)cc1F
REMARK SMILES IDX 17 1 16 2 15 3 14 4 13 5 11 6 12 7 10 8 8 9 9 10 95 11 86 12
REMARK SMILES IDX 85 13 6 14 7 15 5 16 1 17 2 18 3 19 97 20 4 21 96 22 98 23
REMARK SMILES IDX 87 24 88 25 89 26 90 27 94 28 91 29 93 30 92 31 18 32 19 33
REMARK SMILES IDX 20 34 21 35 22 36 23 37 84 38 24 39 83 40 25 41 26 42 27 43
REMARK SMILES IDX 77 44 28 45 82 46 76 47 78 48 29 49 81 50 75 51 74 52 30 54
REMARK SMILES IDX 62 55 42 56 61 57 43 58 46 59 60 60 79 61 44 62 45 63 59 65
REMARK SMILES IDX 80 66 47 67 31 68 32 69 40 70 33 71 35 72 41 73 34 74 36 75
REMARK SMILES IDX 37 76 38 77 39 78 63 79 64 80 72 81 65 82 67 83 73 84 66 85
REMARK SMILES IDX 68 86 69 87 70 88 71 89 48 90 49 91 57 92 50 93 52 94 58 95
REMARK SMILES IDX 51 96 53 97 54 98 55 99 56 100
REMARK H PARENT 78 53 46 64
REMARK Flexibility Score: inf
ROOT
ATOM      1  C   UNL A   1      34.382  32.144  28.710  1.00  0.00     0.202 C 
ENDROOT
BRANCH   1   2
ATOM      2  O   UNL A   1      33.436  31.665  27.756  1.00  0.00    -0.374 OA
BRANCH   2   3
ATOM      3  C   UNL A   1      33.686  30.537  26.942  1.00  0.00     0.202 C 
BRANCH   3   4
ATOM      4  C   UNL A   1      34.014  29.176  27.583  1.00  0.00     0.261 C 
BRANCH   4   5
ATOM      5  O   UNL A   1      33.745  28.020  26.779  1.00  0.00    -0.463 OA
BRANCH   5   6
ATOM      6  C   UNL A   1      32.509  27.511  26.975  1.00  0.00     0.310 C 
ATOM      7  O   UNL A   1      31.733  27.873  27.852  1.00  0.00    -0.252 OA
BRANCH   6   8
ATOM      8  C   UNL A   1      32.173  26.372  26.055  1.00  0.00     0.119 C 
ATOM      9  N   UNL A   1      30.652  25.737  24.324  1.00  0.00    -0.337 N 
ATOM     10  C   UNL A   1      30.786  26.564  25.508  1.00  0.00     0.135 C 
ATOM     11  C   UNL A   1      30.852  24.293  24.495  1.00  0.00     0.133 C 
ATOM     12  C   UNL A   1      32.111  23.936  25.337  1.00  0.00     0.099 C 
ATOM     13  C   UNL A   1      32.368  24.920  26.494  1.00  0.00     0.032 C 
BRANCH   9  14
ATOM     14  C   UNL A   1      30.674  26.369  23.090  1.00  0.00     0.254 C 
ATOM     15  O   UNL A   1      31.370  25.991  22.152  1.00  0.00    -0.269 OA
BRANCH  14  16
ATOM     16  C   UNL A   1      29.998  27.680  22.979  1.00  0.00     0.042 A 
ATOM     17  C   UNL A   1      27.795  31.124  21.684  1.00  0.00     0.047 C 
ATOM     18  C   UNL A   1      28.587  29.967  22.209  1.00  0.00    -0.015 A 
ATOM     19  C   UNL A   1      29.968  29.895  22.000  1.00  0.00     0.007 A 
ATOM     20  C   UNL A   1      27.939  28.906  22.853  1.00  0.00     0.126 A 
ATOM     21  C   UNL A   1      30.670  28.754  22.381  1.00  0.00     0.014 A 
ATOM     22  C   UNL A   1      28.628  27.762  23.236  1.00  0.00     0.053 A 
ATOM     23  F   UNL A   1      26.615  28.964  23.055  1.00  0.00    -0.207 F 
ENDBRANCH  14  16
ENDBRANCH   9  14
BRANCH  12  24
ATOM     24  C   UNL A   1      33.238  23.535  24.362  1.00  0.00     0.227 C 
ATOM     25  O   UNL A   1      33.848  24.457  23.800  1.00  0.00    -0.275 OA
ATOM     26  N   UNL A   1      33.760  22.261  24.337  1.00  0.00    -0.338 N 
ATOM     27  C   UNL A   1      33.048  20.996  24.116  1.00  0.00     0.148 C 
ATOM     28  C   UNL A   1      35.202  22.106  24.154  1.00  0.00     0.148 C 
ATOM     29  C   UNL A   1      33.629  19.888  25.016  1.00  0.00     0.181 C 
ATOM     30  C   UNL A   1      35.706  21.016  25.105  1.00  0.00     0.181 C 
ATOM     31  O   UNL A   1      35.052  19.765  24.830  1.00  0.00    -0.378 OA
ENDBRANCH  12  24
ENDBRANCH   6   8
ENDBRANCH   5   6
ENDBRANCH   4   5
ENDBRANCH   3   4
ENDBRANCH   2   3
ENDBRANCH   1   2
BRANCH   1  32
ATOM     32  C   UNL A   1      35.676  32.856  28.323  1.00  0.00     0.261 C 
BRANCH  32  33
ATOM     33  O   UNL A   1      36.745  31.953  28.041  1.00  0.00    -0.460 OA
BRANCH  33  34
ATOM     34  C   UNL A   1      37.116  31.207  29.106  1.00  0.00     0.338 C 
ATOM     35  O   UNL A   1      37.410  31.602  30.220  1.00  0.00    -0.246 OA
BRANCH  34  36
ATOM     36  C   UNL A   1      37.323  29.799  28.725  1.00  0.00     0.060 A 
ATOM     37  C   UNL A   1      37.561  29.007  29.857  1.00  0.00     0.016 A 
ATOM     38  C   UNL A   1      38.008  29.604  27.524  1.00  0.00     0.016 A 
ATOM     39  C   UNL A   1      38.786  28.391  29.942  1.00  0.00     0.010 A 
ATOM     40  C   UNL A   1      39.221  28.969  27.601  1.00  0.00     0.010 A 
ATOM     41  C   UNL A   1      39.638  28.476  28.839  1.00  0.00    -0.014 A 
BRANCH  41  42
ATOM     42  C   UNL A   1      40.983  27.968  28.899  1.00  0.00     0.031 A 
ATOM     43  C   UNL A   1      41.137  26.571  28.479  1.00  0.00     0.074 A 
ATOM     44  C   UNL A   1      41.996  28.723  29.371  1.00  0.00     0.049 A 
ATOM     45  N   UNL A   1      41.862  25.698  29.080  1.00  0.00    -0.248 NA
ATOM     46  C   UNL A   1      40.329  26.010  27.392  1.00  0.00     0.031 C 
ATOM     47  C   UNL A   1      43.410  28.382  29.334  1.00  0.00     0.029 A 
ATOM     48  N   UNL A   1      41.955  29.889  30.139  1.00  0.00    -0.354 N 
ATOM     49  C   UNL A   1      41.918  24.609  28.239  1.00  0.00     0.074 A 
ATOM     50  C   UNL A   1      40.815  24.768  27.321  1.00  0.00     0.031 C 
ATOM     51  C   UNL A   1      44.055  29.114  30.259  1.00  0.00     0.029 A 
ATOM     52  C   UNL A   1      43.045  29.833  31.019  1.00  0.00     0.049 A 
ATOM     53  H   UNL A   1      41.289  30.611  30.075  1.00  0.00     0.167 HD
ATOM     54  C   UNL A   1      43.028  23.821  28.245  1.00  0.00     0.034 A 
ATOM     55  C   UNL A   1      42.949  29.828  32.382  1.00  0.00     0.034 A 
ATOM     56  C   UNL A   1      44.006  24.342  29.187  1.00  0.00     0.049 A 
ATOM     57  C   UNL A   1      43.571  28.586  32.978  1.00  0.00     0.074 A 
ATOM     58  C   UNL A   1      45.076  25.203  28.994  1.00  0.00     0.029 A 
ATOM     59  N   UNL A   1      43.751  24.324  30.549  1.00  0.00    -0.354 N 
ATOM     60  N   UNL A   1      43.634  27.449  32.343  1.00  0.00    -0.248 NA
ATOM     61  C   UNL A   1      44.152  28.522  34.315  1.00  0.00     0.031 C 
ATOM     62  C   UNL A   1      45.451  25.726  30.249  1.00  0.00     0.029 A 
ATOM     63  C   UNL A   1      44.619  25.173  31.207  1.00  0.00     0.049 A 
ATOM     64  H   UNL A   1      43.053  23.784  30.985  1.00  0.00     0.167 HD
ATOM     65  C   UNL A   1      44.314  26.539  33.118  1.00  0.00     0.074 A 
ATOM     66  C   UNL A   1      44.595  27.253  34.348  1.00  0.00     0.031 C 
ATOM     67  C   UNL A   1      44.609  25.287  32.658  1.00  0.00     0.034 A 
BRANCH  54  68
ATOM     68  C   UNL A   1      43.360  22.856  27.130  1.00  0.00     0.023 A 
ATOM     69  C   UNL A   1      44.267  23.171  26.096  1.00  0.00     0.012 A 
ATOM     70  C   UNL A   1      42.793  21.562  27.091  1.00  0.00     0.148 A 
ATOM     71  C   UNL A   1      44.692  22.215  25.162  1.00  0.00     0.002 A 
ATOM     72  C   UNL A   1      43.193  20.624  26.142  1.00  0.00     0.091 A 
ATOM     73  F   UNL A   1      41.854  21.207  27.976  1.00  0.00    -0.205 F 
ATOM     74  C   UNL A   1      44.162  20.933  25.190  1.00  0.00     0.022 A 
BRANCH  72  75
ATOM     75  S   UNL A   1      42.433  18.997  26.165  1.00  0.00     0.127 S 
ATOM     76  O   UNL A   1      41.058  19.277  25.763  1.00  0.00    -0.237 OA
ATOM     77  O   UNL A   1      43.254  18.238  25.228  1.00  0.00    -0.237 OA
ATOM     78  O   UNL A   1      42.577  18.582  27.561  1.00  0.00    -0.744 OA
ENDBRANCH  72  75
ENDBRANCH  54  68
BRANCH  55  79
ATOM     79  C   UNL A   1      41.738  30.492  32.928  1.00  0.00     0.023 A 
ATOM     80  C   UNL A   1      40.549  29.762  33.095  1.00  0.00     0.012 A 
ATOM     81  C   UNL A   1      41.680  31.899  32.866  1.00  0.00     0.148 A 
ATOM     82  C   UNL A   1      39.316  30.425  33.102  1.00  0.00     0.002 A 
ATOM     83  C   UNL A   1      40.449  32.543  32.813  1.00  0.00     0.091 A 
ATOM     84  F   UNL A   1      42.826  32.586  32.734  1.00  0.00    -0.205 F 
ATOM     85  C   UNL A   1      39.264  31.811  32.938  1.00  0.00     0.022 A 
BRANCH  83  86
ATOM     86  S   UNL A   1      40.403  34.267  32.308  1.00  0.00     0.127 S 
ATOM     87  O   UNL A   1      41.274  34.931  33.269  1.00  0.00    -0.237 OA
ATOM     88  O   UNL A   1      40.876  34.198  30.927  1.00  0.00    -0.237 OA
ATOM     89  O   UNL A   1      38.990  34.632  32.421  1.00  0.00    -0.744 OA
ENDBRANCH  83  86
ENDBRANCH  55  79
BRANCH  67  90
ATOM     90  C   UNL A   1      45.089  24.093  33.456  1.00  0.00     0.023 A 
ATOM     91  C   UNL A   1      44.178  23.023  33.676  1.00  0.00     0.012 A 
ATOM     92  C   UNL A   1      46.334  23.979  34.084  1.00  0.00     0.148 A 
ATOM     93  C   UNL A   1      44.478  21.920  34.476  1.00  0.00     0.002 A 
ATOM     94  C   UNL A   1      46.677  22.819  34.782  1.00  0.00     0.091 A 
ATOM     95  F   UNL A   1      47.194  25.004  34.080  1.00  0.00    -0.205 F 
ATOM     96  C   UNL A   1      45.748  21.803  35.011  1.00  0.00     0.022 A 
BRANCH  94  97
ATOM     97  S   UNL A   1      48.388  22.593  35.264  1.00  0.00     0.127 S 
ATOM     98  O   UNL A   1      49.103  22.868  34.020  1.00  0.00    -0.237 OA
ATOM     99  O   UNL A   1      48.568  23.559  36.343  1.00  0.00    -0.237 OA
ATOM    100  O   UNL A   1      48.440  21.194  35.691  1.00  0.00    -0.744 OA
ENDBRANCH  94  97
ENDBRANCH  67  90
ENDBRANCH  41  42
ENDBRANCH  34  36
ENDBRANCH  33  34
ENDBRANCH  32  33
ENDBRANCH   1  32
TORSDOF 20
ENDMDL
