MODEL 1
REMARK VINA RESULT:     -12.2      0.000      0.000
REMARK SMILES NS(=O)(=O)c1ccc(-n2nc(C(=O)OCCOCCOC(=O)c3ccc(-c4c5nc(c(-c6cccc(S(=O)(=O)[O-])c6F)c6ccc([nH]6)c(-c6cccc(S(=O)(=O)[O-])c6F)c6nc(c(-c7cccc(S(=O)(=O)[O-])c7F)c7ccc4[nH]7)C=C6)C=C5)cc3)c(Cl)c2-c2ccc(Cl)cc2)cc1
REMARK SMILES IDX 17 1 16 2 15 3 14 4 12 5 13 6 11 7 9 8 10 9 88 10 86 11
REMARK SMILES IDX 87 12 8 13 5 14 6 15 97 16 7 17 96 18 2 19 3 20 4 21 1 22
REMARK SMILES IDX 89 25 90 26 95 27 91 28 94 29 92 30 93 31 18 32 19 33 20 34
REMARK SMILES IDX 21 35 22 36 23 37 24 38 85 39 25 40 84 41 26 42 27 43 28 44
REMARK SMILES IDX 78 45 29 46 83 47 77 48 79 49 30 50 82 51 76 52 75 53 31 55
REMARK SMILES IDX 63 56 43 57 62 58 44 59 47 60 61 61 80 62 45 63 46 64 60 66
REMARK SMILES IDX 81 67 48 68 32 69 33 70 41 71 34 72 36 73 42 74 35 75 37 76
REMARK SMILES IDX 38 77 39 78 40 79 64 80 65 81 73 82 66 83 68 84 74 85 67 86
REMARK SMILES IDX 69 87 70 88 71 89 72 90 49 91 50 92 58 93 51 94 53 95 59 96
REMARK SMILES IDX 52 97 54 98 55 99 56 100 57 101
REMARK H PARENT 1 23 1 24 79 54 47 65
REMARK Flexibility Score: inf
ROOT
ATOM      1  O   UNL A   1      36.017  20.791  25.399  1.00  0.00    -0.374 OA
ENDROOT
BRANCH   1   2
ATOM      2  C   UNL A   1      34.826  20.409  24.714  1.00  0.00     0.202 C 
BRANCH   2   3
ATOM      3  C   UNL A   1      33.716  21.451  24.597  1.00  0.00     0.261 C 
BRANCH   3   4
ATOM      4  O   UNL A   1      34.143  22.589  23.839  1.00  0.00    -0.458 OA
BRANCH   4   5
ATOM      5  C   UNL A   1      33.227  23.179  23.017  1.00  0.00     0.360 C 
ATOM      6  O   UNL A   1      32.902  22.729  21.924  1.00  0.00    -0.244 OA
BRANCH   5   7
ATOM      7  C   UNL A   1      32.644  24.392  23.610  1.00  0.00     0.190 A 
ATOM      8  N   UNL A   1      31.474  26.185  23.760  1.00  0.00    -0.231 N 
ATOM      9  N   UNL A   1      31.596  25.037  23.048  1.00  0.00    -0.159 NA
ATOM     10  C   UNL A   1      32.424  26.287  24.760  1.00  0.00     0.094 A 
ATOM     11  C   UNL A   1      33.088  25.077  24.766  1.00  0.00     0.102 A 
ATOM     12  Cl  UNL A   1      34.320  24.612  25.848  1.00  0.00    -0.079 Cl
BRANCH   8  13
ATOM     13  C   UNL A   1      30.656  27.229  23.271  1.00  0.00     0.065 A 
ATOM     14  C   UNL A   1      29.143  29.447  22.557  1.00  0.00     0.082 A 
ATOM     15  C   UNL A   1      28.526  28.370  23.207  1.00  0.00     0.024 A 
ATOM     16  C   UNL A   1      30.501  29.399  22.226  1.00  0.00     0.024 A 
ATOM     17  C   UNL A   1      29.284  27.241  23.552  1.00  0.00     0.030 A 
ATOM     18  C   UNL A   1      31.262  28.293  22.594  1.00  0.00     0.030 A 
BRANCH  14  19
ATOM     19  S   UNL A   1      28.238  30.915  22.164  1.00  0.00     0.238 S 
ATOM     20  O   UNL A   1      27.311  31.203  23.229  1.00  0.00    -0.207 OA
ATOM     21  O   UNL A   1      27.833  30.859  20.775  1.00  0.00    -0.207 OA
BRANCH  19  22
ATOM     22  N   UNL A   1      29.385  32.140  22.259  1.00  0.00    -0.225 NA
ATOM     23  H   UNL A   1      30.305  31.732  22.427  1.00  0.00     0.137 HD
ATOM     24  H   UNL A   1      29.146  32.770  23.025  1.00  0.00     0.137 HD
ENDBRANCH  19  22
ENDBRANCH  14  19
ENDBRANCH   8  13
BRANCH  10  25
ATOM     25  C   UNL A   1      32.705  27.468  25.567  1.00  0.00     0.002 A 
ATOM     26  C   UNL A   1      31.651  28.021  26.311  1.00  0.00     0.012 A 
ATOM     27  C   UNL A   1      33.949  28.105  25.555  1.00  0.00     0.012 A 
ATOM     28  C   UNL A   1      31.821  29.216  27.005  1.00  0.00     0.021 A 
ATOM     29  C   UNL A   1      34.121  29.303  26.259  1.00  0.00     0.021 A 
ATOM     30  C   UNL A   1      33.056  29.856  26.971  1.00  0.00     0.041 A 
ATOM     31  Cl  UNL A   1      33.253  31.343  27.810  1.00  0.00    -0.084 Cl
ENDBRANCH  10  25
ENDBRANCH   5   7
ENDBRANCH   4   5
ENDBRANCH   3   4
ENDBRANCH   2   3
ENDBRANCH   1   2
BRANCH   1  32
ATOM     32  C   UNL A   1      37.203  21.079  24.663  1.00  0.00     0.202 C 
BRANCH  32  33
ATOM     33  C   UNL A   1      38.420  21.592  25.416  1.00  0.00     0.261 C 
BRANCH  33  34
ATOM     34  O   UNL A   1      38.911  20.640  26.342  1.00  0.00    -0.460 OA
BRANCH  34  35
ATOM     35  C   UNL A   1      40.085  20.075  25.972  1.00  0.00     0.338 C 
ATOM     36  O   UNL A   1      40.243  18.995  25.427  1.00  0.00    -0.246 OA
BRANCH  35  37
ATOM     37  C   UNL A   1      41.171  20.893  26.515  1.00  0.00     0.060 A 
ATOM     38  C   UNL A   1      41.321  20.822  27.901  1.00  0.00     0.016 A 
ATOM     39  C   UNL A   1      41.656  21.969  25.756  1.00  0.00     0.016 A 
ATOM     40  C   UNL A   1      41.665  21.974  28.557  1.00  0.00     0.010 A 
ATOM     41  C   UNL A   1      41.978  23.125  26.414  1.00  0.00     0.010 A 
ATOM     42  C   UNL A   1      41.869  23.133  27.800  1.00  0.00    -0.014 A 
BRANCH  42  43
ATOM     43  C   UNL A   1      42.121  24.358  28.515  1.00  0.00     0.031 A 
ATOM     44  C   UNL A   1      41.025  25.320  28.289  1.00  0.00     0.074 A 
ATOM     45  C   UNL A   1      43.182  24.516  29.325  1.00  0.00     0.049 A 
ATOM     46  N   UNL A   1      41.054  26.370  27.538  1.00  0.00    -0.248 NA
ATOM     47  C   UNL A   1      39.672  24.921  28.715  1.00  0.00     0.031 C 
ATOM     48  C   UNL A   1      44.136  23.508  29.793  1.00  0.00     0.029 A 
ATOM     49  N   UNL A   1      43.550  25.620  30.022  1.00  0.00    -0.354 N 
ATOM     50  C   UNL A   1      39.776  26.907  27.642  1.00  0.00     0.074 A 
ATOM     51  C   UNL A   1      38.930  25.845  28.106  1.00  0.00     0.031 C 
ATOM     52  C   UNL A   1      44.774  23.982  30.889  1.00  0.00     0.029 A 
ATOM     53  C   UNL A   1      44.358  25.356  31.121  1.00  0.00     0.049 A 
ATOM     54  H   UNL A   1      43.268  26.530  29.771  1.00  0.00     0.167 HD
ATOM     55  C   UNL A   1      39.601  28.254  27.691  1.00  0.00     0.034 A 
ATOM     56  C   UNL A   1      44.547  26.177  32.187  1.00  0.00     0.034 A 
ATOM     57  C   UNL A   1      40.763  28.945  27.182  1.00  0.00     0.049 A 
ATOM     58  C   UNL A   1      44.164  27.546  31.752  1.00  0.00     0.074 A 
ATOM     59  C   UNL A   1      41.462  28.924  25.990  1.00  0.00     0.029 A 
ATOM     60  N   UNL A   1      41.616  29.494  28.109  1.00  0.00    -0.354 N 
ATOM     61  N   UNL A   1      44.803  28.205  30.824  1.00  0.00    -0.248 NA
ATOM     62  C   UNL A   1      42.787  27.960  31.979  1.00  0.00     0.031 C 
ATOM     63  C   UNL A   1      42.834  29.010  26.367  1.00  0.00     0.029 A 
ATOM     64  C   UNL A   1      42.896  29.160  27.754  1.00  0.00     0.049 A 
ATOM     65  H   UNL A   1      41.354  30.032  28.891  1.00  0.00     0.167 HD
ATOM     66  C   UNL A   1      43.798  28.765  30.046  1.00  0.00     0.074 A 
ATOM     67  C   UNL A   1      42.581  28.650  30.854  1.00  0.00     0.031 C 
ATOM     68  C   UNL A   1      43.971  28.978  28.707  1.00  0.00     0.034 A 
BRANCH  55  69
ATOM     69  C   UNL A   1      38.596  28.939  28.593  1.00  0.00     0.023 A 
ATOM     70  C   UNL A   1      37.763  29.904  27.989  1.00  0.00     0.012 A 
ATOM     71  C   UNL A   1      38.608  28.907  30.010  1.00  0.00     0.148 A 
ATOM     72  C   UNL A   1      37.048  30.836  28.749  1.00  0.00     0.002 A 
ATOM     73  C   UNL A   1      37.839  29.784  30.762  1.00  0.00     0.091 A 
ATOM     74  F   UNL A   1      39.458  28.119  30.668  1.00  0.00    -0.205 F 
ATOM     75  C   UNL A   1      37.085  30.775  30.137  1.00  0.00     0.022 A 
BRANCH  73  76
ATOM     76  S   UNL A   1      37.826  29.722  32.561  1.00  0.00     0.127 S 
ATOM     77  O   UNL A   1      36.799  30.711  32.876  1.00  0.00    -0.237 OA
ATOM     78  O   UNL A   1      37.446  28.331  32.804  1.00  0.00    -0.237 OA
ATOM     79  O   UNL A   1      39.181  30.054  32.982  1.00  0.00    -0.744 OA
ENDBRANCH  73  76
ENDBRANCH  55  69
BRANCH  56  80
ATOM     80  C   UNL A   1      44.655  25.805  33.624  1.00  0.00     0.023 A 
ATOM     81  C   UNL A   1      43.497  25.713  34.424  1.00  0.00     0.012 A 
ATOM     82  C   UNL A   1      45.859  25.281  34.150  1.00  0.00     0.148 A 
ATOM     83  C   UNL A   1      43.536  25.110  35.691  1.00  0.00     0.002 A 
ATOM     84  C   UNL A   1      45.898  24.701  35.414  1.00  0.00     0.091 A 
ATOM     85  F   UNL A   1      46.949  25.261  33.374  1.00  0.00    -0.205 F 
ATOM     86  C   UNL A   1      44.735  24.602  36.186  1.00  0.00     0.022 A 
BRANCH  84  87
ATOM     87  S   UNL A   1      47.417  24.024  36.101  1.00  0.00     0.127 S 
ATOM     88  O   UNL A   1      47.685  22.904  35.198  1.00  0.00    -0.237 OA
ATOM     89  O   UNL A   1      48.337  25.149  35.972  1.00  0.00    -0.237 OA
ATOM     90  O   UNL A   1      47.095  23.623  37.466  1.00  0.00    -0.744 OA
ENDBRANCH  84  87
ENDBRANCH  56  80
BRANCH  68  91
ATOM     91  C   UNL A   1      45.348  28.776  28.120  1.00  0.00     0.023 A 
ATOM     92  C   UNL A   1      46.374  29.740  28.234  1.00  0.00     0.012 A 
ATOM     93  C   UNL A   1      45.670  27.502  27.625  1.00  0.00     0.148 A 
ATOM     94  C   UNL A   1      47.686  29.442  27.852  1.00  0.00     0.002 A 
ATOM     95  C   UNL A   1      46.982  27.194  27.289  1.00  0.00     0.091 A 
ATOM     96  F   UNL A   1      44.686  26.595  27.536  1.00  0.00    -0.205 F 
ATOM     97  C   UNL A   1      47.993  28.164  27.392  1.00  0.00     0.022 A 
BRANCH  95  98
ATOM     98  S   UNL A   1      47.467  25.535  26.812  1.00  0.00     0.127 S 
ATOM     99  O   UNL A   1      46.950  24.736  27.921  1.00  0.00    -0.237 OA
ATOM    100  O   UNL A   1      46.758  25.355  25.544  1.00  0.00    -0.237 OA
ATOM    101  O   UNL A   1      48.920  25.559  26.687  1.00  0.00    -0.744 OA
ENDBRANCH  95  98
ENDBRANCH  68  91
ENDBRANCH  42  43
ENDBRANCH  35  37
ENDBRANCH  34  35
ENDBRANCH  33  34
ENDBRANCH  32  33
ENDBRANCH   1  32
TORSDOF 21
ENDMDL
MODEL 2
REMARK VINA RESULT:     -11.8      3.047      7.112
REMARK SMILES NS(=O)(=O)c1ccc(-n2nc(C(=O)OCCOCCOC(=O)c3ccc(-c4c5nc(c(-c6cccc(S(=O)(=O)[O-])c6F)c6ccc([nH]6)c(-c6cccc(S(=O)(=O)[O-])c6F)c6nc(c(-c7cccc(S(=O)(=O)[O-])c7F)c7ccc4[nH]7)C=C6)C=C5)cc3)c(Cl)c2-c2ccc(Cl)cc2)cc1
REMARK SMILES IDX 17 1 16 2 15 3 14 4 12 5 13 6 11 7 9 8 10 9 88 10 86 11
REMARK SMILES IDX 87 12 8 13 5 14 6 15 97 16 7 17 96 18 2 19 3 20 4 21 1 22
REMARK SMILES IDX 89 25 90 26 95 27 91 28 94 29 92 30 93 31 18 32 19 33 20 34
REMARK SMILES IDX 21 35 22 36 23 37 24 38 85 39 25 40 84 41 26 42 27 43 28 44
REMARK SMILES IDX 78 45 29 46 83 47 77 48 79 49 30 50 82 51 76 52 75 53 31 55
REMARK SMILES IDX 63 56 43 57 62 58 44 59 47 60 61 61 80 62 45 63 46 64 60 66
REMARK SMILES IDX 81 67 48 68 32 69 33 70 41 71 34 72 36 73 42 74 35 75 37 76
REMARK SMILES IDX 38 77 39 78 40 79 64 80 65 81 73 82 66 83 68 84 74 85 67 86
REMARK SMILES IDX 69 87 70 88 71 89 72 90 49 91 50 92 58 93 51 94 53 95 59 96
REMARK SMILES IDX 52 97 54 98 55 99 56 100 57 101
REMARK H PARENT 1 23 1 24 79 54 47 65
REMARK Flexibility Score: inf
ROOT
ATOM      1  O   UNL A   1      35.286  21.317  24.959  1.00  0.00    -0.374 OA
ENDROOT
BRANCH   1   2
ATOM      2  C   UNL A   1      34.581  20.076  24.992  1.00  0.00     0.202 C 
BRANCH   2   3
ATOM      3  C   UNL A   1      33.144  20.070  24.475  1.00  0.00     0.261 C 
BRANCH   3   4
ATOM      4  O   UNL A   1      32.480  21.309  24.757  1.00  0.00    -0.458 OA
BRANCH   4   5
ATOM      5  C   UNL A   1      32.367  22.208  23.736  1.00  0.00     0.360 C 
ATOM      6  O   UNL A   1      32.567  21.932  22.558  1.00  0.00    -0.244 OA
BRANCH   5   7
ATOM      7  C   UNL A   1      31.939  23.534  24.206  1.00  0.00     0.190 A 
ATOM      8  N   UNL A   1      30.973  25.451  24.185  1.00  0.00    -0.231 N 
ATOM      9  N   UNL A   1      30.946  24.227  23.601  1.00  0.00    -0.159 NA
ATOM     10  C   UNL A   1      31.963  25.554  25.145  1.00  0.00     0.094 A 
ATOM     11  C   UNL A   1      32.494  24.286  25.268  1.00  0.00     0.102 A 
ATOM     12  Cl  UNL A   1      33.709  23.807  26.365  1.00  0.00    -0.079 Cl
BRANCH   8  13
ATOM     13  C   UNL A   1      30.254  26.520  23.604  1.00  0.00     0.065 A 
ATOM     14  C   UNL A   1      28.955  28.800  22.692  1.00  0.00     0.082 A 
ATOM     15  C   UNL A   1      28.245  27.856  23.445  1.00  0.00     0.024 A 
ATOM     16  C   UNL A   1      30.297  28.587  22.359  1.00  0.00     0.024 A 
ATOM     17  C   UNL A   1      28.894  26.694  23.892  1.00  0.00     0.030 A 
ATOM     18  C   UNL A   1      30.951  27.451  22.826  1.00  0.00     0.030 A 
BRANCH  14  19
ATOM     19  S   UNL A   1      28.192  30.307  22.167  1.00  0.00     0.238 S 
ATOM     20  O   UNL A   1      27.249  30.739  23.168  1.00  0.00    -0.207 OA
ATOM     21  O   UNL A   1      27.842  30.193  20.766  1.00  0.00    -0.207 OA
BRANCH  19  22
ATOM     22  N   UNL A   1      29.432  31.439  22.239  1.00  0.00    -0.225 NA
ATOM     23  H   UNL A   1      30.298  30.979  22.519  1.00  0.00     0.137 HD
ATOM     24  H   UNL A   1      29.194  32.161  22.920  1.00  0.00     0.137 HD
ENDBRANCH  19  22
ENDBRANCH  14  19
ENDBRANCH   8  13
BRANCH  10  25
ATOM     25  C   UNL A   1      32.398  26.777  25.810  1.00  0.00     0.002 A 
ATOM     26  C   UNL A   1      31.499  27.401  26.690  1.00  0.00     0.012 A 
ATOM     27  C   UNL A   1      33.628  27.382  25.538  1.00  0.00     0.012 A 
ATOM     28  C   UNL A   1      31.805  28.632  27.262  1.00  0.00     0.021 A 
ATOM     29  C   UNL A   1      33.937  28.616  26.119  1.00  0.00     0.021 A 
ATOM     30  C   UNL A   1      33.022  29.239  26.969  1.00  0.00     0.041 A 
ATOM     31  Cl  UNL A   1      33.384  30.771  27.660  1.00  0.00    -0.084 Cl
ENDBRANCH  10  25
ENDBRANCH   5   7
ENDBRANCH   4   5
ENDBRANCH   3   4
ENDBRANCH   2   3
ENDBRANCH   1   2
BRANCH   1  32
ATOM     32  C   UNL A   1      36.663  21.364  25.320  1.00  0.00     0.202 C 
BRANCH  32  33
ATOM     33  C   UNL A   1      37.142  22.500  26.211  1.00  0.00     0.261 C 
BRANCH  33  34
ATOM     34  O   UNL A   1      38.401  23.000  25.803  1.00  0.00    -0.460 OA
BRANCH  34  35
ATOM     35  C   UNL A   1      39.431  22.585  26.579  1.00  0.00     0.338 C 
ATOM     36  O   UNL A   1      39.485  21.567  27.248  1.00  0.00    -0.246 OA
BRANCH  35  37
ATOM     37  C   UNL A   1      40.413  23.670  26.644  1.00  0.00     0.060 A 
ATOM     38  C   UNL A   1      41.216  23.664  27.786  1.00  0.00     0.016 A 
ATOM     39  C   UNL A   1      40.204  24.822  25.871  1.00  0.00     0.016 A 
ATOM     40  C   UNL A   1      41.543  24.877  28.331  1.00  0.00     0.010 A 
ATOM     41  C   UNL A   1      40.512  26.033  26.429  1.00  0.00     0.010 A 
ATOM     42  C   UNL A   1      41.078  26.036  27.699  1.00  0.00    -0.014 A 
BRANCH  42  43
ATOM     43  C   UNL A   1      41.338  27.296  28.347  1.00  0.00     0.031 A 
ATOM     44  C   UNL A   1      42.625  27.854  27.889  1.00  0.00     0.074 A 
ATOM     45  C   UNL A   1      40.456  27.874  29.181  1.00  0.00     0.049 A 
ATOM     46  N   UNL A   1      43.736  27.888  28.547  1.00  0.00    -0.248 NA
ATOM     47  C   UNL A   1      42.766  28.147  26.452  1.00  0.00     0.031 C 
ATOM     48  C   UNL A   1      39.066  27.499  29.447  1.00  0.00     0.029 A 
ATOM     49  N   UNL A   1      40.592  29.031  29.877  1.00  0.00    -0.354 N 
ATOM     50  C   UNL A   1      44.641  28.477  27.672  1.00  0.00     0.074 A 
ATOM     51  C   UNL A   1      44.082  28.330  26.357  1.00  0.00     0.031 C 
ATOM     52  C   UNL A   1      38.426  28.553  30.008  1.00  0.00     0.029 A 
ATOM     53  C   UNL A   1      39.387  29.619  30.240  1.00  0.00     0.049 A 
ATOM     54  H   UNL A   1      41.468  29.420  30.104  1.00  0.00     0.167 HD
ATOM     55  C   UNL A   1      45.575  29.348  28.136  1.00  0.00     0.034 A 
ATOM     56  C   UNL A   1      39.207  30.923  30.579  1.00  0.00     0.034 A 
ATOM     57  C   UNL A   1      45.764  29.192  29.559  1.00  0.00     0.049 A 
ATOM     58  C   UNL A   1      40.540  31.458  30.967  1.00  0.00     0.074 A 
ATOM     59  C   UNL A   1      46.112  28.140  30.384  1.00  0.00     0.029 A 
ATOM     60  N   UNL A   1      45.170  30.127  30.372  1.00  0.00    -0.354 N 
ATOM     61  N   UNL A   1      41.206  31.028  32.005  1.00  0.00    -0.248 NA
ATOM     62  C   UNL A   1      41.339  32.085  29.925  1.00  0.00     0.031 C 
ATOM     63  C   UNL A   1      45.288  28.289  31.538  1.00  0.00     0.029 A 
ATOM     64  C   UNL A   1      44.544  29.461  31.392  1.00  0.00     0.049 A 
ATOM     65  H   UNL A   1      45.189  31.103  30.244  1.00  0.00     0.167 HD
ATOM     66  C   UNL A   1      42.510  30.898  31.546  1.00  0.00     0.074 A 
ATOM     67  C   UNL A   1      42.547  31.642  30.285  1.00  0.00     0.031 C 
ATOM     68  C   UNL A   1      43.350  29.945  32.053  1.00  0.00     0.034 A 
BRANCH  55  69
ATOM     69  C   UNL A   1      45.977  30.615  27.410  1.00  0.00     0.023 A 
ATOM     70  C   UNL A   1      47.359  30.890  27.342  1.00  0.00     0.012 A 
ATOM     71  C   UNL A   1      45.101  31.670  27.051  1.00  0.00     0.148 A 
ATOM     72  C   UNL A   1      47.839  32.163  27.016  1.00  0.00     0.002 A 
ATOM     73  C   UNL A   1      45.582  32.910  26.655  1.00  0.00     0.091 A 
ATOM     74  F   UNL A   1      43.783  31.546  27.207  1.00  0.00    -0.205 F 
ATOM     75  C   UNL A   1      46.950  33.173  26.670  1.00  0.00     0.022 A 
BRANCH  73  76
ATOM     76  S   UNL A   1      44.472  34.239  26.164  1.00  0.00     0.127 S 
ATOM     77  O   UNL A   1      45.420  35.296  25.823  1.00  0.00    -0.237 OA
ATOM     78  O   UNL A   1      43.777  33.637  25.027  1.00  0.00    -0.237 OA
ATOM     79  O   UNL A   1      43.620  34.495  27.319  1.00  0.00    -0.744 OA
ENDBRANCH  73  76
ENDBRANCH  55  69
BRANCH  56  80
ATOM     80  C   UNL A   1      38.072  31.816  30.221  1.00  0.00     0.023 A 
ATOM     81  C   UNL A   1      37.598  31.870  28.894  1.00  0.00     0.012 A 
ATOM     82  C   UNL A   1      37.277  32.417  31.225  1.00  0.00     0.148 A 
ATOM     83  C   UNL A   1      36.375  32.484  28.583  1.00  0.00     0.002 A 
ATOM     84  C   UNL A   1      36.074  33.042  30.911  1.00  0.00     0.091 A 
ATOM     85  F   UNL A   1      37.648  32.293  32.505  1.00  0.00    -0.205 F 
ATOM     86  C   UNL A   1      35.612  33.070  29.591  1.00  0.00     0.022 A 
BRANCH  84  87
ATOM     87  S   UNL A   1      35.045  33.809  32.173  1.00  0.00     0.127 S 
ATOM     88  O   UNL A   1      35.960  34.792  32.753  1.00  0.00    -0.237 OA
ATOM     89  O   UNL A   1      33.960  34.375  31.377  1.00  0.00    -0.237 OA
ATOM     90  O   UNL A   1      34.666  32.737  33.087  1.00  0.00    -0.744 OA
ENDBRANCH  84  87
ENDBRANCH  56  80
BRANCH  68  91
ATOM     91  C   UNL A   1      42.899  29.162  33.263  1.00  0.00     0.023 A 
ATOM     92  C   UNL A   1      41.999  28.077  33.176  1.00  0.00     0.012 A 
ATOM     93  C   UNL A   1      43.561  29.395  34.479  1.00  0.00     0.148 A 
ATOM     94  C   UNL A   1      41.756  27.254  34.281  1.00  0.00     0.002 A 
ATOM     95  C   UNL A   1      43.351  28.550  35.561  1.00  0.00     0.091 A 
ATOM     96  F   UNL A   1      44.422  30.421  34.540  1.00  0.00    -0.205 F 
ATOM     97  C   UNL A   1      42.443  27.483  35.470  1.00  0.00     0.022 A 
BRANCH  95  98
ATOM     98  S   UNL A   1      44.296  28.711  37.077  1.00  0.00     0.127 S 
ATOM     99  O   UNL A   1      45.667  28.777  36.576  1.00  0.00    -0.237 OA
ATOM    100  O   UNL A   1      43.785  29.966  37.631  1.00  0.00    -0.237 OA
ATOM    101  O   UNL A   1      43.982  27.533  37.876  1.00  0.00    -0.744 OA
ENDBRANCH  95  98
ENDBRANCH  68  91
ENDBRANCH  42  43
ENDBRANCH  35  37
ENDBRANCH  34  35
ENDBRANCH  33  34
ENDBRANCH  32  33
ENDBRANCH   1  32
TORSDOF 21
ENDMDL
MODEL 3
REMARK VINA RESULT:     -11.6      3.632      8.046
REMARK SMILES NS(=O)(=O)c1ccc(-n2nc(C(=O)OCCOCCOC(=O)c3ccc(-c4c5nc(c(-c6cccc(S(=O)(=O)[O-])c6F)c6ccc([nH]6)c(-c6cccc(S(=O)(=O)[O-])c6F)c6nc(c(-c7cccc(S(=O)(=O)[O-])c7F)c7ccc4[nH]7)C=C6)C=C5)cc3)c(Cl)c2-c2ccc(Cl)cc2)cc1
REMARK SMILES IDX 17 1 16 2 15 3 14 4 12 5 13 6 11 7 9 8 10 9 88 10 86 11
REMARK SMILES IDX 87 12 8 13 5 14 6 15 97 16 7 17 96 18 2 19 3 20 4 21 1 22
REMARK SMILES IDX 89 25 90 26 95 27 91 28 94 29 92 30 93 31 18 32 19 33 20 34
REMARK SMILES IDX 21 35 22 36 23 37 24 38 85 39 25 40 84 41 26 42 27 43 28 44
REMARK SMILES IDX 78 45 29 46 83 47 77 48 79 49 30 50 82 51 76 52 75 53 31 55
REMARK SMILES IDX 63 56 43 57 62 58 44 59 47 60 61 61 80 62 45 63 46 64 60 66
REMARK SMILES IDX 81 67 48 68 32 69 33 70 41 71 34 72 36 73 42 74 35 75 37 76
REMARK SMILES IDX 38 77 39 78 40 79 64 80 65 81 73 82 66 83 68 84 74 85 67 86
REMARK SMILES IDX 69 87 70 88 71 89 72 90 49 91 50 92 58 93 51 94 53 95 59 96
REMARK SMILES IDX 52 97 54 98 55 99 56 100 57 101
REMARK H PARENT 1 23 1 24 79 54 47 65
REMARK Flexibility Score: inf
ROOT
ATOM      1  O   UNL A   1      31.336  29.131  26.336  1.00  0.00    -0.374 OA
ENDROOT
BRANCH   1   2
ATOM      2  C   UNL A   1      31.274  28.038  25.421  1.00  0.00     0.202 C 
BRANCH   2   3
ATOM      3  C   UNL A   1      30.883  26.672  25.982  1.00  0.00     0.261 C 
BRANCH   3   4
ATOM      4  O   UNL A   1      30.085  25.931  25.051  1.00  0.00    -0.458 OA
BRANCH   4   5
ATOM      5  C   UNL A   1      30.586  25.756  23.793  1.00  0.00     0.360 C 
ATOM      6  O   UNL A   1      30.237  26.418  22.822  1.00  0.00    -0.244 OA
BRANCH   5   7
ATOM      7  C   UNL A   1      31.620  24.711  23.745  1.00  0.00     0.190 A 
ATOM      8  N   UNL A   1      32.491  22.750  23.808  1.00  0.00    -0.231 N 
ATOM      9  N   UNL A   1      31.313  23.398  23.628  1.00  0.00    -0.159 NA
ATOM     10  C   UNL A   1      33.539  23.621  24.041  1.00  0.00     0.094 A 
ATOM     11  C   UNL A   1      33.019  24.886  23.859  1.00  0.00     0.102 A 
ATOM     12  Cl  UNL A   1      33.885  26.352  23.949  1.00  0.00    -0.079 Cl
BRANCH   8  13
ATOM     13  C   UNL A   1      32.495  21.354  24.028  1.00  0.00     0.065 A 
ATOM     14  C   UNL A   1      32.817  18.628  24.455  1.00  0.00     0.082 A 
ATOM     15  C   UNL A   1      32.524  19.095  23.167  1.00  0.00     0.024 A 
ATOM     16  C   UNL A   1      32.905  19.513  25.534  1.00  0.00     0.024 A 
ATOM     17  C   UNL A   1      32.344  20.470  22.952  1.00  0.00     0.030 A 
ATOM     18  C   UNL A   1      32.756  20.880  25.318  1.00  0.00     0.030 A 
BRANCH  14  19
ATOM     19  S   UNL A   1      33.116  16.911  24.756  1.00  0.00     0.238 S 
ATOM     20  O   UNL A   1      33.206  16.215  23.497  1.00  0.00    -0.207 OA
ATOM     21  O   UNL A   1      32.255  16.465  25.831  1.00  0.00    -0.207 OA
BRANCH  19  22
ATOM     22  N   UNL A   1      34.679  16.871  25.373  1.00  0.00    -0.225 NA
ATOM     23  H   UNL A   1      34.839  17.699  25.948  1.00  0.00     0.137 HD
ATOM     24  H   UNL A   1      35.348  16.856  24.603  1.00  0.00     0.137 HD
ENDBRANCH  19  22
ENDBRANCH  14  19
ENDBRANCH   8  13
BRANCH  10  25
ATOM     25  C   UNL A   1      34.884  23.258  24.474  1.00  0.00     0.002 A 
ATOM     26  C   UNL A   1      35.754  22.706  23.521  1.00  0.00     0.012 A 
ATOM     27  C   UNL A   1      35.296  23.361  25.805  1.00  0.00     0.012 A 
ATOM     28  C   UNL A   1      37.006  22.227  23.895  1.00  0.00     0.021 A 
ATOM     29  C   UNL A   1      36.558  22.885  26.180  1.00  0.00     0.021 A 
ATOM     30  C   UNL A   1      37.401  22.313  25.226  1.00  0.00     0.041 A 
ATOM     31  Cl  UNL A   1      38.939  21.698  25.687  1.00  0.00    -0.084 Cl
ENDBRANCH  10  25
ENDBRANCH   5   7
ENDBRANCH   4   5
ENDBRANCH   3   4
ENDBRANCH   2   3
ENDBRANCH   1   2
BRANCH   1  32
ATOM     32  C   UNL A   1      32.476  29.296  27.175  1.00  0.00     0.202 C 
BRANCH  32  33
ATOM     33  C   UNL A   1      33.762  29.823  26.558  1.00  0.00     0.261 C 
BRANCH  33  34
ATOM     34  O   UNL A   1      34.846  29.770  27.466  1.00  0.00    -0.460 OA
BRANCH  34  35
ATOM     35  C   UNL A   1      35.149  30.967  28.024  1.00  0.00     0.338 C 
ATOM     36  O   UNL A   1      34.769  32.067  27.658  1.00  0.00    -0.246 OA
BRANCH  35  37
ATOM     37  C   UNL A   1      36.181  30.745  29.037  1.00  0.00     0.060 A 
ATOM     38  C   UNL A   1      37.259  31.630  28.978  1.00  0.00     0.016 A 
ATOM     39  C   UNL A   1      36.267  29.488  29.656  1.00  0.00     0.016 A 
ATOM     40  C   UNL A   1      38.504  31.125  29.250  1.00  0.00     0.010 A 
ATOM     41  C   UNL A   1      37.512  28.980  29.905  1.00  0.00     0.010 A 
ATOM     42  C   UNL A   1      38.611  29.773  29.593  1.00  0.00    -0.014 A 
BRANCH  42  43
ATOM     43  C   UNL A   1      39.935  29.234  29.766  1.00  0.00     0.031 A 
ATOM     44  C   UNL A   1      40.375  29.389  31.167  1.00  0.00     0.074 A 
ATOM     45  C   UNL A   1      40.598  28.614  28.774  1.00  0.00     0.049 A 
ATOM     46  N   UNL A   1      41.233  30.241  31.623  1.00  0.00    -0.248 NA
ATOM     47  C   UNL A   1      39.572  28.726  32.208  1.00  0.00     0.031 C 
ATOM     48  C   UNL A   1      40.100  28.194  27.462  1.00  0.00     0.029 A 
ATOM     49  N   UNL A   1      41.852  28.098  28.796  1.00  0.00    -0.354 N 
ATOM     50  C   UNL A   1      41.266  30.001  32.991  1.00  0.00     0.074 A 
ATOM     51  C   UNL A   1      40.050  29.307  33.308  1.00  0.00     0.031 C 
ATOM     52  C   UNL A   1      40.939  27.262  26.952  1.00  0.00     0.029 A 
ATOM     53  C   UNL A   1      42.078  27.112  27.844  1.00  0.00     0.049 A 
ATOM     54  H   UNL A   1      42.543  28.395  29.433  1.00  0.00     0.167 HD
ATOM     55  C   UNL A   1      42.442  30.065  33.669  1.00  0.00     0.034 A 
ATOM     56  C   UNL A   1      43.063  26.177  27.882  1.00  0.00     0.034 A 
ATOM     57  C   UNL A   1      43.428  30.811  32.924  1.00  0.00     0.049 A 
ATOM     58  C   UNL A   1      44.109  26.687  28.808  1.00  0.00     0.074 A 
ATOM     59  C   UNL A   1      43.486  32.087  32.395  1.00  0.00     0.029 A 
ATOM     60  N   UNL A   1      44.390  30.085  32.263  1.00  0.00    -0.354 N 
ATOM     61  N   UNL A   1      44.807  27.764  28.571  1.00  0.00    -0.248 NA
ATOM     62  C   UNL A   1      44.011  26.299  30.208  1.00  0.00     0.031 C 
ATOM     63  C   UNL A   1      44.133  31.932  31.133  1.00  0.00     0.029 A 
ATOM     64  C   UNL A   1      44.505  30.593  30.996  1.00  0.00     0.049 A 
ATOM     65  H   UNL A   1      44.905  29.332  32.633  1.00  0.00     0.167 HD
ATOM     66  C   UNL A   1      44.828  28.435  29.787  1.00  0.00     0.074 A 
ATOM     67  C   UNL A   1      44.395  27.445  30.776  1.00  0.00     0.031 C 
ATOM     68  C   UNL A   1      44.882  29.800  29.845  1.00  0.00     0.034 A 
BRANCH  55  69
ATOM     69  C   UNL A   1      42.834  29.097  34.766  1.00  0.00     0.023 A 
ATOM     70  C   UNL A   1      43.443  29.654  35.910  1.00  0.00     0.012 A 
ATOM     71  C   UNL A   1      42.904  27.688  34.631  1.00  0.00     0.148 A 
ATOM     72  C   UNL A   1      44.151  28.865  36.822  1.00  0.00     0.002 A 
ATOM     73  C   UNL A   1      43.542  26.899  35.578  1.00  0.00     0.091 A 
ATOM     74  F   UNL A   1      42.472  27.085  33.524  1.00  0.00    -0.205 F 
ATOM     75  C   UNL A   1      44.199  27.486  36.658  1.00  0.00     0.022 A 
BRANCH  73  76
ATOM     76  S   UNL A   1      43.602  25.107  35.428  1.00  0.00     0.127 S 
ATOM     77  O   UNL A   1      44.380  24.945  34.203  1.00  0.00    -0.237 OA
ATOM     78  O   UNL A   1      44.295  24.731  36.660  1.00  0.00    -0.237 OA
ATOM     79  O   UNL A   1      42.214  24.664  35.365  1.00  0.00    -0.744 OA
ENDBRANCH  73  76
ENDBRANCH  55  69
BRANCH  56  80
ATOM     80  C   UNL A   1      42.982  24.742  27.496  1.00  0.00     0.023 A 
ATOM     81  C   UNL A   1      41.836  23.983  27.812  1.00  0.00     0.012 A 
ATOM     82  C   UNL A   1      43.909  24.182  26.586  1.00  0.00     0.148 A 
ATOM     83  C   UNL A   1      41.617  22.724  27.233  1.00  0.00     0.002 A 
ATOM     84  C   UNL A   1      43.698  22.924  26.028  1.00  0.00     0.091 A 
ATOM     85  F   UNL A   1      44.952  24.920  26.188  1.00  0.00    -0.205 F 
ATOM     86  C   UNL A   1      42.545  22.194  26.340  1.00  0.00     0.022 A 
BRANCH  84  87
ATOM     87  S   UNL A   1      44.861  22.195  24.864  1.00  0.00     0.127 S 
ATOM     88  O   UNL A   1      45.009  23.263  23.876  1.00  0.00    -0.237 OA
ATOM     89  O   UNL A   1      46.031  21.970  25.706  1.00  0.00    -0.237 OA
ATOM     90  O   UNL A   1      44.211  20.994  24.349  1.00  0.00    -0.744 OA
ENDBRANCH  84  87
ENDBRANCH  56  80
BRANCH  68  91
ATOM     91  C   UNL A   1      45.119  30.564  28.564  1.00  0.00     0.023 A 
ATOM     92  C   UNL A   1      44.063  31.024  27.746  1.00  0.00     0.012 A 
ATOM     93  C   UNL A   1      46.425  31.004  28.294  1.00  0.00     0.148 A 
ATOM     94  C   UNL A   1      44.309  31.891  26.676  1.00  0.00     0.002 A 
ATOM     95  C   UNL A   1      46.660  31.900  27.259  1.00  0.00     0.091 A 
ATOM     96  F   UNL A   1      47.412  30.567  29.089  1.00  0.00    -0.205 F 
ATOM     97  C   UNL A   1      45.607  32.340  26.441  1.00  0.00     0.022 A 
BRANCH  95  98
ATOM     98  S   UNL A   1      48.281  32.614  26.984  1.00  0.00     0.127 S 
ATOM     99  O   UNL A   1      49.074  31.441  26.622  1.00  0.00    -0.237 OA
ATOM    100  O   UNL A   1      48.029  33.546  25.883  1.00  0.00    -0.237 OA
ATOM    101  O   UNL A   1      48.658  33.257  28.237  1.00  0.00    -0.744 OA
ENDBRANCH  95  98
ENDBRANCH  68  91
ENDBRANCH  42  43
ENDBRANCH  35  37
ENDBRANCH  34  35
ENDBRANCH  33  34
ENDBRANCH  32  33
ENDBRANCH   1  32
TORSDOF 21
ENDMDL
