MODEL 1
REMARK VINA RESULT:     -10.0      0.000      0.000
REMARK SMILES COc1ccc(OCCNc2c(Cl)cccc2C(=O)OCCOCCOC(=O)c2ccc(-c3c4nc(c(-c5cccc(S(=O)(=O)[O-])c5F)c5ccc([nH]5)c(-c5cccc(S(=O)(=O)[O-])c5F)c5nc(c(-c6cccc(S(=O)(=O)[O-])c6F)c6ccc3[nH]6)C=C5)C=C4)cc2)cc1
REMARK SMILES IDX 21 1 20 2 18 3 19 4 17 5 11 6 12 7 13 8 14 9 16 10 15 11
REMARK SMILES IDX 10 12 9 14 8 15 7 16 6 17 3 18 4 19 93 20 5 21 92 22 2 23
REMARK SMILES IDX 1 24 22 25 23 26 24 27 25 28 26 29 27 30 28 31 29 32 30 33
REMARK SMILES IDX 91 34 31 35 90 36 32 37 33 38 34 39 84 40 35 41 89 42 83 43
REMARK SMILES IDX 85 44 36 45 88 46 82 47 81 48 37 50 69 51 49 52 68 53 50 54
REMARK SMILES IDX 53 55 67 56 86 57 51 58 52 59 66 61 87 62 54 63 38 64 39 65
REMARK SMILES IDX 47 66 40 67 42 68 48 69 41 70 43 71 44 72 45 73 46 74 70 75
REMARK SMILES IDX 71 76 79 77 72 78 74 79 80 80 73 81 75 82 76 83 77 84 78 85
REMARK SMILES IDX 55 86 56 87 64 88 57 89 59 90 65 91 58 92 60 93 61 94 62 95
REMARK SMILES IDX 63 96
REMARK H PARENT 10 13 85 49 53 60
REMARK Flexibility Score: inf
ROOT
ATOM      1  C   UNL A   1      33.791  28.573  27.247  1.00  0.00     0.261 C 
ENDROOT
BRANCH   1   2
ATOM      2  O   UNL A   1      34.373  27.721  26.250  1.00  0.00    -0.460 OA
BRANCH   2   3
ATOM      3  C   UNL A   1      33.546  26.794  25.725  1.00  0.00     0.340 C 
ATOM      4  O   UNL A   1      33.300  25.692  26.200  1.00  0.00    -0.246 OA
BRANCH   3   5
ATOM      5  C   UNL A   1      32.752  27.343  24.607  1.00  0.00     0.084 A 
ATOM      6  C   UNL A   1      31.376  27.177  24.390  1.00  0.00     0.068 A 
ATOM      7  C   UNL A   1      30.825  28.042  23.396  1.00  0.00     0.065 A 
ATOM      8  Cl  UNL A   1      29.115  28.267  23.229  1.00  0.00    -0.082 Cl
ATOM      9  C   UNL A   1      31.597  28.834  22.538  1.00  0.00     0.023 A 
ATOM     10  C   UNL A   1      33.535  28.130  23.720  1.00  0.00     0.018 A 
ATOM     11  C   UNL A   1      32.969  28.837  22.666  1.00  0.00     0.003 A 
BRANCH   6  12
ATOM     12  N   UNL A   1      30.502  26.321  25.034  1.00  0.00    -0.380 N 
ATOM     13  H   UNL A   1      29.860  26.788  25.615  1.00  0.00     0.160 HD
BRANCH  12  14
ATOM     14  C   UNL A   1      30.328  24.870  25.034  1.00  0.00     0.154 C 
BRANCH  14  15
ATOM     15  C   UNL A   1      30.912  24.227  23.745  1.00  0.00     0.250 C 
BRANCH  15  16
ATOM     16  O   UNL A   1      31.538  22.951  23.961  1.00  0.00    -0.492 OA
BRANCH  16  17
ATOM     17  C   UNL A   1      32.890  22.816  23.835  1.00  0.00     0.119 A 
ATOM     18  C   UNL A   1      35.666  22.539  24.115  1.00  0.00     0.119 A 
ATOM     19  C   UNL A   1      34.824  21.500  24.497  1.00  0.00     0.050 A 
ATOM     20  C   UNL A   1      35.135  23.632  23.444  1.00  0.00     0.050 A 
ATOM     21  C   UNL A   1      33.437  21.648  24.372  1.00  0.00     0.050 A 
ATOM     22  C   UNL A   1      33.752  23.745  23.268  1.00  0.00     0.050 A 
BRANCH  18  23
ATOM     23  O   UNL A   1      37.007  22.411  24.357  1.00  0.00    -0.497 OA
ATOM     24  C   UNL A   1      37.346  21.102  24.821  1.00  0.00     0.278 C 
ENDBRANCH  18  23
ENDBRANCH  16  17
ENDBRANCH  15  16
ENDBRANCH  14  15
ENDBRANCH  12  14
ENDBRANCH   6  12
ENDBRANCH   3   5
ENDBRANCH   2   3
ENDBRANCH   1   2
BRANCH   1  25
ATOM     25  C   UNL A   1      34.787  29.659  27.652  1.00  0.00     0.202 C 
BRANCH  25  26
ATOM     26  O   UNL A   1      34.278  30.994  27.700  1.00  0.00    -0.374 OA
BRANCH  26  27
ATOM     27  C   UNL A   1      32.965  31.213  27.185  1.00  0.00     0.202 C 
BRANCH  27  28
ATOM     28  C   UNL A   1      32.373  32.621  27.335  1.00  0.00     0.261 C 
BRANCH  28  29
ATOM     29  O   UNL A   1      33.367  33.654  27.434  1.00  0.00    -0.460 OA
BRANCH  29  30
ATOM     30  C   UNL A   1      33.328  34.369  28.581  1.00  0.00     0.338 C 
ATOM     31  O   UNL A   1      32.433  35.128  28.949  1.00  0.00    -0.246 OA
BRANCH  30  32
ATOM     32  C   UNL A   1      34.451  33.998  29.455  1.00  0.00     0.060 A 
ATOM     33  C   UNL A   1      35.742  34.376  29.061  1.00  0.00     0.016 A 
ATOM     34  C   UNL A   1      34.255  33.216  30.594  1.00  0.00     0.016 A 
ATOM     35  C   UNL A   1      36.848  33.936  29.786  1.00  0.00     0.010 A 
ATOM     36  C   UNL A   1      35.367  32.768  31.313  1.00  0.00     0.010 A 
ATOM     37  C   UNL A   1      36.668  33.100  30.896  1.00  0.00    -0.014 A 
BRANCH  37  38
ATOM     38  C   UNL A   1      37.846  32.495  31.564  1.00  0.00     0.031 A 
ATOM     39  C   UNL A   1      38.559  31.344  30.910  1.00  0.00     0.074 A 
ATOM     40  C   UNL A   1      38.265  32.964  32.752  1.00  0.00     0.049 A 
ATOM     41  N   UNL A   1      39.573  30.644  31.347  1.00  0.00    -0.248 NA
ATOM     42  C   UNL A   1      38.059  30.921  29.592  1.00  0.00     0.031 C 
ATOM     43  C   UNL A   1      37.655  34.074  33.482  1.00  0.00     0.029 A 
ATOM     44  N   UNL A   1      39.285  32.544  33.567  1.00  0.00    -0.354 N 
ATOM     45  C   UNL A   1      39.815  29.678  30.378  1.00  0.00     0.074 A 
ATOM     46  C   UNL A   1      38.835  29.878  29.330  1.00  0.00     0.031 C 
ATOM     47  C   UNL A   1      38.294  34.229  34.653  1.00  0.00     0.029 A 
ATOM     48  C   UNL A   1      39.335  33.210  34.769  1.00  0.00     0.049 A 
ATOM     49  H   UNL A   1      39.920  31.833  33.317  1.00  0.00     0.167 HD
ATOM     50  C   UNL A   1      40.771  28.719  30.356  1.00  0.00     0.034 A 
ATOM     51  C   UNL A   1      40.112  33.001  35.850  1.00  0.00     0.034 A 
ATOM     52  C   UNL A   1      41.753  28.535  31.392  1.00  0.00     0.049 A 
ATOM     53  C   UNL A   1      41.149  31.909  35.813  1.00  0.00     0.074 A 
ATOM     54  C   UNL A   1      42.800  27.631  31.432  1.00  0.00     0.029 A 
ATOM     55  N   UNL A   1      41.799  29.253  32.577  1.00  0.00    -0.354 N 
ATOM     56  N   UNL A   1      41.448  31.087  34.836  1.00  0.00    -0.248 NA
ATOM     57  C   UNL A   1      41.974  31.733  37.018  1.00  0.00     0.031 C 
ATOM     58  C   UNL A   1      43.456  27.779  32.659  1.00  0.00     0.029 A 
ATOM     59  C   UNL A   1      42.841  28.798  33.366  1.00  0.00     0.049 A 
ATOM     60  H   UNL A   1      41.180  29.979  32.821  1.00  0.00     0.167 HD
ATOM     61  C   UNL A   1      42.514  30.319  35.296  1.00  0.00     0.074 A 
ATOM     62  C   UNL A   1      42.822  30.790  36.631  1.00  0.00     0.031 C 
ATOM     63  C   UNL A   1      43.167  29.305  34.675  1.00  0.00     0.034 A 
BRANCH  50  64
ATOM     64  C   UNL A   1      40.816  27.800  29.163  1.00  0.00     0.023 A 
ATOM     65  C   UNL A   1      39.938  26.699  29.093  1.00  0.00     0.012 A 
ATOM     66  C   UNL A   1      41.685  28.059  28.085  1.00  0.00     0.148 A 
ATOM     67  C   UNL A   1      39.945  25.854  27.984  1.00  0.00     0.002 A 
ATOM     68  C   UNL A   1      41.656  27.237  26.965  1.00  0.00     0.091 A 
ATOM     69  F   UNL A   1      42.528  29.097  28.179  1.00  0.00    -0.205 F 
ATOM     70  C   UNL A   1      40.796  26.128  26.917  1.00  0.00     0.022 A 
BRANCH  68  71
ATOM     71  S   UNL A   1      42.657  27.552  25.506  1.00  0.00     0.127 S 
ATOM     72  O   UNL A   1      43.998  27.637  26.081  1.00  0.00    -0.237 OA
ATOM     73  O   UNL A   1      42.414  26.353  24.702  1.00  0.00    -0.237 OA
ATOM     74  O   UNL A   1      42.145  28.786  24.926  1.00  0.00    -0.744 OA
ENDBRANCH  68  71
ENDBRANCH  50  64
BRANCH  51  75
ATOM     75  C   UNL A   1      39.953  33.864  37.055  1.00  0.00     0.023 A 
ATOM     76  C   UNL A   1      40.499  35.162  37.057  1.00  0.00     0.012 A 
ATOM     77  C   UNL A   1      39.245  33.415  38.186  1.00  0.00     0.148 A 
ATOM     78  C   UNL A   1      40.366  35.987  38.174  1.00  0.00     0.002 A 
ATOM     79  C   UNL A   1      39.065  34.262  39.272  1.00  0.00     0.091 A 
ATOM     80  F   UNL A   1      38.747  32.170  38.169  1.00  0.00    -0.205 F 
ATOM     81  C   UNL A   1      39.640  35.541  39.276  1.00  0.00     0.022 A 
BRANCH  79  82
ATOM     82  S   UNL A   1      38.035  33.827  40.678  1.00  0.00     0.127 S 
ATOM     83  O   UNL A   1      36.828  33.330  40.022  1.00  0.00    -0.237 OA
ATOM     84  O   UNL A   1      38.847  32.801  41.335  1.00  0.00    -0.237 OA
ATOM     85  O   UNL A   1      37.877  35.053  41.447  1.00  0.00    -0.744 OA
ENDBRANCH  79  82
ENDBRANCH  51  75
BRANCH  63  86
ATOM     86  C   UNL A   1      44.306  28.648  35.414  1.00  0.00     0.023 A 
ATOM     87  C   UNL A   1      45.623  29.116  35.231  1.00  0.00     0.012 A 
ATOM     88  C   UNL A   1      44.063  27.621  36.347  1.00  0.00     0.148 A 
ATOM     89  C   UNL A   1      46.682  28.550  35.940  1.00  0.00     0.002 A 
ATOM     90  C   UNL A   1      45.115  27.097  37.087  1.00  0.00     0.091 A 
ATOM     91  F   UNL A   1      42.805  27.180  36.496  1.00  0.00    -0.205 F 
ATOM     92  C   UNL A   1      46.427  27.550  36.876  1.00  0.00     0.022 A 
BRANCH  90  93
ATOM     93  S   UNL A   1      44.872  25.874  38.381  1.00  0.00     0.127 S 
ATOM     94  O   UNL A   1      43.907  26.547  39.250  1.00  0.00    -0.237 OA
ATOM     95  O   UNL A   1      44.332  24.737  37.635  1.00  0.00    -0.237 OA
ATOM     96  O   UNL A   1      46.185  25.644  38.969  1.00  0.00    -0.744 OA
ENDBRANCH  90  93
ENDBRANCH  63  86
ENDBRANCH  37  38
ENDBRANCH  30  32
ENDBRANCH  29  30
ENDBRANCH  28  29
ENDBRANCH  27  28
ENDBRANCH  26  27
ENDBRANCH  25  26
ENDBRANCH   1  25
TORSDOF 23
ENDMDL
MODEL 2
REMARK VINA RESULT:      -9.6      2.754      3.850
REMARK SMILES COc1ccc(OCCNc2c(Cl)cccc2C(=O)OCCOCCOC(=O)c2ccc(-c3c4nc(c(-c5cccc(S(=O)(=O)[O-])c5F)c5ccc([nH]5)c(-c5cccc(S(=O)(=O)[O-])c5F)c5nc(c(-c6cccc(S(=O)(=O)[O-])c6F)c6ccc3[nH]6)C=C5)C=C4)cc2)cc1
REMARK SMILES IDX 21 1 20 2 18 3 19 4 17 5 11 6 12 7 13 8 14 9 16 10 15 11
REMARK SMILES IDX 10 12 9 14 8 15 7 16 6 17 3 18 4 19 93 20 5 21 92 22 2 23
REMARK SMILES IDX 1 24 22 25 23 26 24 27 25 28 26 29 27 30 28 31 29 32 30 33
REMARK SMILES IDX 91 34 31 35 90 36 32 37 33 38 34 39 84 40 35 41 89 42 83 43
REMARK SMILES IDX 85 44 36 45 88 46 82 47 81 48 37 50 69 51 49 52 68 53 50 54
REMARK SMILES IDX 53 55 67 56 86 57 51 58 52 59 66 61 87 62 54 63 38 64 39 65
REMARK SMILES IDX 47 66 40 67 42 68 48 69 41 70 43 71 44 72 45 73 46 74 70 75
REMARK SMILES IDX 71 76 79 77 72 78 74 79 80 80 73 81 75 82 76 83 77 84 78 85
REMARK SMILES IDX 55 86 56 87 64 88 57 89 59 90 65 91 58 92 60 93 61 94 62 95
REMARK SMILES IDX 63 96
REMARK H PARENT 10 13 85 49 53 60
REMARK Flexibility Score: inf
ROOT
ATOM      1  C   UNL A   1      33.018  27.077  24.508  1.00  0.00     0.261 C 
ENDROOT
BRANCH   1   2
ATOM      2  O   UNL A   1      34.099  26.151  24.328  1.00  0.00    -0.460 OA
BRANCH   2   3
ATOM      3  C   UNL A   1      33.754  24.847  24.339  1.00  0.00     0.340 C 
ATOM      4  O   UNL A   1      32.761  24.357  23.816  1.00  0.00    -0.246 OA
BRANCH   3   5
ATOM      5  C   UNL A   1      34.847  23.999  24.859  1.00  0.00     0.084 A 
ATOM      6  C   UNL A   1      35.072  22.645  24.569  1.00  0.00     0.068 A 
ATOM      7  C   UNL A   1      36.349  22.156  24.981  1.00  0.00     0.065 A 
ATOM      8  Cl  UNL A   1      36.976  20.646  24.408  1.00  0.00    -0.082 Cl
ATOM      9  C   UNL A   1      37.230  22.872  25.800  1.00  0.00     0.023 A 
ATOM     10  C   UNL A   1      35.732  24.715  25.710  1.00  0.00     0.018 A 
ATOM     11  C   UNL A   1      36.894  24.144  26.213  1.00  0.00     0.003 A 
BRANCH   6  12
ATOM     12  N   UNL A   1      34.238  21.756  23.917  1.00  0.00    -0.380 N 
ATOM     13  H   UNL A   1      34.381  21.734  22.943  1.00  0.00     0.160 HD
BRANCH  12  14
ATOM     14  C   UNL A   1      33.191  20.841  24.365  1.00  0.00     0.154 C 
BRANCH  14  15
ATOM     15  C   UNL A   1      32.304  20.368  23.179  1.00  0.00     0.250 C 
BRANCH  15  16
ATOM     16  O   UNL A   1      31.706  19.076  23.377  1.00  0.00    -0.492 OA
BRANCH  16  17
ATOM     17  C   UNL A   1      32.481  17.998  23.694  1.00  0.00     0.119 A 
ATOM     18  C   UNL A   1      34.266  16.103  24.735  1.00  0.00     0.119 A 
ATOM     19  C   UNL A   1      33.163  16.500  25.483  1.00  0.00     0.050 A 
ATOM     20  C   UNL A   1      34.378  16.521  23.416  1.00  0.00     0.050 A 
ATOM     21  C   UNL A   1      32.283  17.460  24.968  1.00  0.00     0.050 A 
ATOM     22  C   UNL A   1      33.460  17.434  22.887  1.00  0.00     0.050 A 
BRANCH  18  23
ATOM     23  O   UNL A   1      35.170  15.252  25.312  1.00  0.00    -0.497 OA
ATOM     24  C   UNL A   1      36.300  15.949  25.841  1.00  0.00     0.278 C 
ENDBRANCH  18  23
ENDBRANCH  16  17
ENDBRANCH  15  16
ENDBRANCH  14  15
ENDBRANCH  12  14
ENDBRANCH   6  12
ENDBRANCH   3   5
ENDBRANCH   2   3
ENDBRANCH   1   2
BRANCH   1  25
ATOM     25  C   UNL A   1      32.696  27.221  25.995  1.00  0.00     0.202 C 
BRANCH  25  26
ATOM     26  O   UNL A   1      33.139  28.427  26.621  1.00  0.00    -0.374 OA
BRANCH  26  27
ATOM     27  C   UNL A   1      32.822  29.658  25.970  1.00  0.00     0.202 C 
BRANCH  27  28
ATOM     28  C   UNL A   1      32.344  30.820  26.850  1.00  0.00     0.261 C 
BRANCH  28  29
ATOM     29  O   UNL A   1      32.942  32.081  26.510  1.00  0.00    -0.460 OA
BRANCH  29  30
ATOM     30  C   UNL A   1      33.408  32.791  27.564  1.00  0.00     0.338 C 
ATOM     31  O   UNL A   1      32.811  33.669  28.184  1.00  0.00    -0.246 OA
BRANCH  30  32
ATOM     32  C   UNL A   1      34.704  32.259  28.007  1.00  0.00     0.060 A 
ATOM     33  C   UNL A   1      34.733  30.966  28.548  1.00  0.00     0.016 A 
ATOM     34  C   UNL A   1      35.858  33.044  27.979  1.00  0.00     0.016 A 
ATOM     35  C   UNL A   1      35.911  30.469  29.101  1.00  0.00     0.010 A 
ATOM     36  C   UNL A   1      37.036  32.546  28.543  1.00  0.00     0.010 A 
ATOM     37  C   UNL A   1      37.061  31.270  29.133  1.00  0.00    -0.014 A 
BRANCH  37  38
ATOM     38  C   UNL A   1      38.262  30.809  29.871  1.00  0.00     0.031 A 
ATOM     39  C   UNL A   1      39.193  29.820  29.226  1.00  0.00     0.074 A 
ATOM     40  C   UNL A   1      38.509  31.261  31.112  1.00  0.00     0.049 A 
ATOM     41  N   UNL A   1      40.266  29.255  29.715  1.00  0.00    -0.248 NA
ATOM     42  C   UNL A   1      38.870  29.408  27.850  1.00  0.00     0.031 C 
ATOM     43  C   UNL A   1      37.679  32.219  31.840  1.00  0.00     0.029 A 
ATOM     44  N   UNL A   1      39.515  30.949  31.991  1.00  0.00    -0.354 N 
ATOM     45  C   UNL A   1      40.730  28.397  28.724  1.00  0.00     0.074 A 
ATOM     46  C   UNL A   1      39.816  28.512  27.606  1.00  0.00     0.031 C 
ATOM     47  C   UNL A   1      38.192  32.396  33.068  1.00  0.00     0.029 A 
ATOM     48  C   UNL A   1      39.367  31.539  33.224  1.00  0.00     0.049 A 
ATOM     49  H   UNL A   1      40.269  30.358  31.762  1.00  0.00     0.167 HD
ATOM     50  C   UNL A   1      41.821  27.596  28.738  1.00  0.00     0.034 A 
ATOM     51  C   UNL A   1      40.080  31.384  34.357  1.00  0.00     0.034 A 
ATOM     52  C   UNL A   1      42.735  27.498  29.845  1.00  0.00     0.049 A 
ATOM     53  C   UNL A   1      41.272  30.464  34.357  1.00  0.00     0.074 A 
ATOM     54  C   UNL A   1      43.903  26.761  29.932  1.00  0.00     0.029 A 
ATOM     55  N   UNL A   1      42.577  28.140  31.063  1.00  0.00    -0.354 N 
ATOM     56  N   UNL A   1      41.771  29.758  33.371  1.00  0.00    -0.248 NA
ATOM     57  C   UNL A   1      42.017  30.340  35.619  1.00  0.00     0.031 C 
ATOM     58  C   UNL A   1      44.431  26.929  31.216  1.00  0.00     0.029 A 
ATOM     59  C   UNL A   1      43.612  27.799  31.917  1.00  0.00     0.049 A 
ATOM     60  H   UNL A   1      41.837  28.748  31.289  1.00  0.00     0.167 HD
ATOM     61  C   UNL A   1      42.903  29.131  33.883  1.00  0.00     0.074 A 
ATOM     62  C   UNL A   1      43.029  29.560  35.261  1.00  0.00     0.031 C 
ATOM     63  C   UNL A   1      43.752  28.268  33.273  1.00  0.00     0.034 A 
BRANCH  50  64
ATOM     64  C   UNL A   1      42.101  26.769  27.510  1.00  0.00     0.023 A 
ATOM     65  C   UNL A   1      42.667  27.377  26.371  1.00  0.00     0.012 A 
ATOM     66  C   UNL A   1      41.862  25.380  27.505  1.00  0.00     0.148 A 
ATOM     67  C   UNL A   1      42.960  26.622  25.235  1.00  0.00     0.002 A 
ATOM     68  C   UNL A   1      42.197  24.629  26.386  1.00  0.00     0.091 A 
ATOM     69  F   UNL A   1      41.304  24.824  28.590  1.00  0.00    -0.205 F 
ATOM     70  C   UNL A   1      42.735  25.248  25.246  1.00  0.00     0.022 A 
BRANCH  68  71
ATOM     71  S   UNL A   1      42.018  22.841  26.330  1.00  0.00     0.127 S 
ATOM     72  O   UNL A   1      40.565  22.689  26.369  1.00  0.00    -0.237 OA
ATOM     73  O   UNL A   1      42.630  22.511  25.042  1.00  0.00    -0.237 OA
ATOM     74  O   UNL A   1      42.733  22.329  27.491  1.00  0.00    -0.744 OA
ENDBRANCH  68  71
ENDBRANCH  50  64
BRANCH  51  75
ATOM     75  C   UNL A   1      39.695  32.137  35.584  1.00  0.00     0.023 A 
ATOM     76  C   UNL A   1      40.200  33.435  35.789  1.00  0.00     0.012 A 
ATOM     77  C   UNL A   1      38.814  31.584  36.534  1.00  0.00     0.148 A 
ATOM     78  C   UNL A   1      39.857  34.158  36.932  1.00  0.00     0.002 A 
ATOM     79  C   UNL A   1      38.430  32.332  37.639  1.00  0.00     0.091 A 
ATOM     80  F   UNL A   1      38.357  30.342  36.326  1.00  0.00    -0.205 F 
ATOM     81  C   UNL A   1      38.964  33.612  37.851  1.00  0.00     0.022 A 
BRANCH  79  82
ATOM     82  S   UNL A   1      37.185  31.767  38.804  1.00  0.00     0.127 S 
ATOM     83  O   UNL A   1      37.852  31.987  40.085  1.00  0.00    -0.237 OA
ATOM     84  O   UNL A   1      36.077  32.679  38.521  1.00  0.00    -0.237 OA
ATOM     85  O   UNL A   1      36.922  30.377  38.459  1.00  0.00    -0.744 OA
ENDBRANCH  79  82
ENDBRANCH  51  75
BRANCH  63  86
ATOM     86  C   UNL A   1      44.918  27.745  34.074  1.00  0.00     0.023 A 
ATOM     87  C   UNL A   1      46.118  28.482  34.129  1.00  0.00     0.012 A 
ATOM     88  C   UNL A   1      44.797  26.566  34.836  1.00  0.00     0.148 A 
ATOM     89  C   UNL A   1      47.190  28.036  34.902  1.00  0.00     0.002 A 
ATOM     90  C   UNL A   1      45.851  26.155  35.643  1.00  0.00     0.091 A 
ATOM     91  F   UNL A   1      43.653  25.871  34.759  1.00  0.00    -0.205 F 
ATOM     92  C   UNL A   1      47.053  26.880  35.668  1.00  0.00     0.022 A 
BRANCH  90  93
ATOM     93  S   UNL A   1      45.733  24.733  36.737  1.00  0.00     0.127 S 
ATOM     94  O   UNL A   1      47.129  24.306  36.822  1.00  0.00    -0.237 OA
ATOM     95  O   UNL A   1      45.202  25.330  37.963  1.00  0.00    -0.237 OA
ATOM     96  O   UNL A   1      44.832  23.794  36.081  1.00  0.00    -0.744 OA
ENDBRANCH  90  93
ENDBRANCH  63  86
ENDBRANCH  37  38
ENDBRANCH  30  32
ENDBRANCH  29  30
ENDBRANCH  28  29
ENDBRANCH  27  28
ENDBRANCH  26  27
ENDBRANCH  25  26
ENDBRANCH   1  25
TORSDOF 23
ENDMDL
MODEL 3
REMARK VINA RESULT:      -9.2      5.480      9.116
REMARK SMILES COc1ccc(OCCNc2c(Cl)cccc2C(=O)OCCOCCOC(=O)c2ccc(-c3c4nc(c(-c5cccc(S(=O)(=O)[O-])c5F)c5ccc([nH]5)c(-c5cccc(S(=O)(=O)[O-])c5F)c5nc(c(-c6cccc(S(=O)(=O)[O-])c6F)c6ccc3[nH]6)C=C5)C=C4)cc2)cc1
REMARK SMILES IDX 21 1 20 2 18 3 19 4 17 5 11 6 12 7 13 8 14 9 16 10 15 11
REMARK SMILES IDX 10 12 9 14 8 15 7 16 6 17 3 18 4 19 93 20 5 21 92 22 2 23
REMARK SMILES IDX 1 24 22 25 23 26 24 27 25 28 26 29 27 30 28 31 29 32 30 33
REMARK SMILES IDX 91 34 31 35 90 36 32 37 33 38 34 39 84 40 35 41 89 42 83 43
REMARK SMILES IDX 85 44 36 45 88 46 82 47 81 48 37 50 69 51 49 52 68 53 50 54
REMARK SMILES IDX 53 55 67 56 86 57 51 58 52 59 66 61 87 62 54 63 38 64 39 65
REMARK SMILES IDX 47 66 40 67 42 68 48 69 41 70 43 71 44 72 45 73 46 74 70 75
REMARK SMILES IDX 71 76 79 77 72 78 74 79 80 80 73 81 75 82 76 83 77 84 78 85
REMARK SMILES IDX 55 86 56 87 64 88 57 89 59 90 65 91 58 92 60 93 61 94 62 95
REMARK SMILES IDX 63 96
REMARK H PARENT 10 13 85 49 53 60
REMARK Flexibility Score: inf
ROOT
ATOM      1  C   UNL A   1      36.475  22.579  23.874  1.00  0.00     0.261 C 
ENDROOT
BRANCH   1   2
ATOM      2  O   UNL A   1      35.154  23.113  23.707  1.00  0.00    -0.460 OA
BRANCH   2   3
ATOM      3  C   UNL A   1      34.893  24.241  24.398  1.00  0.00     0.340 C 
ATOM      4  O   UNL A   1      35.431  24.591  25.442  1.00  0.00    -0.246 OA
BRANCH   3   5
ATOM      5  C   UNL A   1      34.035  25.165  23.629  1.00  0.00     0.084 A 
ATOM      6  C   UNL A   1      33.693  26.481  23.975  1.00  0.00     0.068 A 
ATOM      7  C   UNL A   1      33.087  27.231  22.921  1.00  0.00     0.065 A 
ATOM      8  Cl  UNL A   1      32.924  28.955  23.005  1.00  0.00    -0.082 Cl
ATOM      9  C   UNL A   1      32.653  26.669  21.715  1.00  0.00     0.023 A 
ATOM     10  C   UNL A   1      33.572  24.592  22.414  1.00  0.00     0.018 A 
ATOM     11  C   UNL A   1      32.850  25.325  21.481  1.00  0.00     0.003 A 
BRANCH   6  12
ATOM     12  N   UNL A   1      33.899  27.135  25.175  1.00  0.00    -0.380 N 
ATOM     13  H   UNL A   1      34.678  27.737  25.159  1.00  0.00     0.160 HD
BRANCH  12  14
ATOM     14  C   UNL A   1      33.207  27.125  26.461  1.00  0.00     0.154 C 
BRANCH  14  15
ATOM     15  C   UNL A   1      31.698  27.458  26.298  1.00  0.00     0.250 C 
BRANCH  15  16
ATOM     16  O   UNL A   1      30.818  26.388  26.682  1.00  0.00    -0.492 OA
BRANCH  16  17
ATOM     17  C   UNL A   1      30.888  25.179  26.055  1.00  0.00     0.119 A 
ATOM     18  C   UNL A   1      31.564  22.770  24.788  1.00  0.00     0.119 A 
ATOM     19  C   UNL A   1      31.864  22.953  26.133  1.00  0.00     0.050 A 
ATOM     20  C   UNL A   1      30.783  23.712  24.131  1.00  0.00     0.050 A 
ATOM     21  C   UNL A   1      31.541  24.165  26.759  1.00  0.00     0.050 A 
ATOM     22  C   UNL A   1      30.412  24.893  24.781  1.00  0.00     0.050 A 
BRANCH  18  23
ATOM     23  O   UNL A   1      31.996  21.625  24.176  1.00  0.00    -0.497 OA
ATOM     24  C   UNL A   1      32.548  20.694  25.109  1.00  0.00     0.278 C 
ENDBRANCH  18  23
ENDBRANCH  16  17
ENDBRANCH  15  16
ENDBRANCH  14  15
ENDBRANCH  12  14
ENDBRANCH   6  12
ENDBRANCH   3   5
ENDBRANCH   2   3
ENDBRANCH   1   2
BRANCH   1  25
ATOM     25  C   UNL A   1      36.398  21.163  24.444  1.00  0.00     0.202 C 
BRANCH  25  26
ATOM     26  O   UNL A   1      37.554  20.704  25.148  1.00  0.00    -0.374 OA
BRANCH  26  27
ATOM     27  C   UNL A   1      38.254  21.656  25.950  1.00  0.00     0.202 C 
BRANCH  27  28
ATOM     28  C   UNL A   1      39.766  21.456  26.124  1.00  0.00     0.261 C 
BRANCH  28  29
ATOM     29  O   UNL A   1      40.181  20.086  26.012  1.00  0.00    -0.460 OA
BRANCH  29  30
ATOM     30  C   UNL A   1      41.512  19.883  26.143  1.00  0.00     0.338 C 
ATOM     31  O   UNL A   1      42.122  18.832  25.955  1.00  0.00    -0.246 OA
BRANCH  30  32
ATOM     32  C   UNL A   1      42.202  21.158  26.389  1.00  0.00     0.060 A 
ATOM     33  C   UNL A   1      42.404  21.549  27.720  1.00  0.00     0.016 A 
ATOM     34  C   UNL A   1      42.566  22.000  25.337  1.00  0.00     0.016 A 
ATOM     35  C   UNL A   1      42.935  22.805  28.003  1.00  0.00     0.010 A 
ATOM     36  C   UNL A   1      43.090  23.264  25.625  1.00  0.00     0.010 A 
ATOM     37  C   UNL A   1      43.248  23.684  26.958  1.00  0.00    -0.014 A 
BRANCH  37  38
ATOM     38  C   UNL A   1      43.651  25.079  27.260  1.00  0.00     0.031 A 
ATOM     39  C   UNL A   1      45.101  25.468  27.168  1.00  0.00     0.074 A 
ATOM     40  C   UNL A   1      42.729  25.985  27.628  1.00  0.00     0.049 A 
ATOM     41  N   UNL A   1      45.667  26.615  27.437  1.00  0.00    -0.248 NA
ATOM     42  C   UNL A   1      46.037  24.425  26.719  1.00  0.00     0.031 C 
ATOM     43  C   UNL A   1      41.296  25.725  27.753  1.00  0.00     0.029 A 
ATOM     44  N   UNL A   1      42.867  27.300  27.994  1.00  0.00    -0.354 N 
ATOM     45  C   UNL A   1      47.027  26.427  27.224  1.00  0.00     0.074 A 
ATOM     46  C   UNL A   1      47.203  25.051  26.808  1.00  0.00     0.031 C 
ATOM     47  C   UNL A   1      40.688  26.838  28.196  1.00  0.00     0.029 A 
ATOM     48  C   UNL A   1      41.692  27.877  28.416  1.00  0.00     0.049 A 
ATOM     49  H   UNL A   1      43.724  27.784  27.959  1.00  0.00     0.167 HD
ATOM     50  C   UNL A   1      48.037  27.320  27.351  1.00  0.00     0.034 A 
ATOM     51  C   UNL A   1      41.460  29.093  28.948  1.00  0.00     0.034 A 
ATOM     52  C   UNL A   1      47.856  28.692  27.749  1.00  0.00     0.049 A 
ATOM     53  C   UNL A   1      42.605  30.059  29.107  1.00  0.00     0.074 A 
ATOM     54  C   UNL A   1      48.809  29.690  27.848  1.00  0.00     0.029 A 
ATOM     55  N   UNL A   1      46.648  29.253  28.132  1.00  0.00    -0.354 N 
ATOM     56  N   UNL A   1      43.865  29.907  28.780  1.00  0.00    -0.248 NA
ATOM     57  C   UNL A   1      42.290  31.374  29.685  1.00  0.00     0.031 C 
ATOM     58  C   UNL A   1      48.182  30.846  28.326  1.00  0.00     0.029 A 
ATOM     59  C   UNL A   1      46.832  30.577  28.490  1.00  0.00     0.049 A 
ATOM     60  H   UNL A   1      45.785  28.779  28.147  1.00  0.00     0.167 HD
ATOM     61  C   UNL A   1      44.487  31.115  29.082  1.00  0.00     0.074 A 
ATOM     62  C   UNL A   1      43.458  31.995  29.598  1.00  0.00     0.031 C 
ATOM     63  C   UNL A   1      45.793  31.459  28.958  1.00  0.00     0.034 A 
BRANCH  50  64
ATOM     64  C   UNL A   1      49.434  26.850  27.041  1.00  0.00     0.023 A 
ATOM     65  C   UNL A   1      50.112  26.018  27.955  1.00  0.00     0.012 A 
ATOM     66  C   UNL A   1      50.053  27.181  25.819  1.00  0.00     0.148 A 
ATOM     67  C   UNL A   1      51.395  25.549  27.672  1.00  0.00     0.002 A 
ATOM     68  C   UNL A   1      51.313  26.674  25.526  1.00  0.00     0.091 A 
ATOM     69  F   UNL A   1      49.401  27.990  24.972  1.00  0.00    -0.205 F 
ATOM     70  C   UNL A   1      51.991  25.868  26.455  1.00  0.00     0.022 A 
BRANCH  68  71
ATOM     71  S   UNL A   1      52.132  26.964  23.953  1.00  0.00     0.127 S 
ATOM     72  O   UNL A   1      52.743  28.273  24.175  1.00  0.00    -0.237 OA
ATOM     73  O   UNL A   1      53.081  25.851  23.891  1.00  0.00    -0.237 OA
ATOM     74  O   UNL A   1      51.084  26.926  22.942  1.00  0.00    -0.744 OA
ENDBRANCH  68  71
ENDBRANCH  50  64
BRANCH  51  75
ATOM     75  C   UNL A   1      40.076  29.475  29.348  1.00  0.00     0.023 A 
ATOM     76  C   UNL A   1      39.171  29.932  28.371  1.00  0.00     0.012 A 
ATOM     77  C   UNL A   1      39.646  29.363  30.685  1.00  0.00     0.148 A 
ATOM     78  C   UNL A   1      37.871  30.298  28.723  1.00  0.00     0.002 A 
ATOM     79  C   UNL A   1      38.334  29.672  31.018  1.00  0.00     0.091 A 
ATOM     80  F   UNL A   1      40.528  28.939  31.601  1.00  0.00    -0.205 F 
ATOM     81  C   UNL A   1      37.450  30.158  30.043  1.00  0.00     0.022 A 
BRANCH  79  82
ATOM     82  S   UNL A   1      37.662  29.397  32.661  1.00  0.00     0.127 S 
ATOM     83  O   UNL A   1      38.536  30.230  33.485  1.00  0.00    -0.237 OA
ATOM     84  O   UNL A   1      36.295  29.898  32.512  1.00  0.00    -0.237 OA
ATOM     85  O   UNL A   1      37.755  27.963  32.892  1.00  0.00    -0.744 OA
ENDBRANCH  79  82
ENDBRANCH  51  75
BRANCH  63  86
ATOM     86  C   UNL A   1      46.191  32.857  29.357  1.00  0.00     0.023 A 
ATOM     87  C   UNL A   1      46.082  33.910  28.426  1.00  0.00     0.012 A 
ATOM     88  C   UNL A   1      46.599  33.142  30.675  1.00  0.00     0.148 A 
ATOM     89  C   UNL A   1      46.403  35.217  28.792  1.00  0.00     0.002 A 
ATOM     90  C   UNL A   1      46.869  34.454  31.046  1.00  0.00     0.091 A 
ATOM     91  F   UNL A   1      46.712  32.125  31.542  1.00  0.00    -0.205 F 
ATOM     92  C   UNL A   1      46.784  35.491  30.103  1.00  0.00     0.022 A 
BRANCH  90  93
ATOM     93  S   UNL A   1      47.274  34.917  32.735  1.00  0.00     0.127 S 
ATOM     94  O   UNL A   1      48.606  34.334  32.893  1.00  0.00    -0.237 OA
ATOM     95  O   UNL A   1      47.253  36.379  32.667  1.00  0.00    -0.237 OA
ATOM     96  O   UNL A   1      46.235  34.334  33.573  1.00  0.00    -0.744 OA
ENDBRANCH  90  93
ENDBRANCH  63  86
ENDBRANCH  37  38
ENDBRANCH  30  32
ENDBRANCH  29  30
ENDBRANCH  28  29
ENDBRANCH  27  28
ENDBRANCH  26  27
ENDBRANCH  25  26
ENDBRANCH   1  25
TORSDOF 23
ENDMDL
