MODEL 1
REMARK VINA RESULT:     -10.2      0.000      0.000
REMARK SMILES COc1ccc(-c2ccc(C(=O)NCc3ccc(C(=O)OCCOCCOC(=O)c4ccc(-c5c6nc(c(-c7cccc(S(=O)(=O)[O-])c7F)c7ccc([nH]7)c(-c7cccc(S(=O)(=O)[O-])c7F)c7nc(c(-c8cccc(S(=O)(=O)[O-])c8F)c8ccc5[nH]8)C=C7)C=C6)cc4)cc3)o2)c([N+](=O)[O-])c1
REMARK SMILES IDX 23 1 22 2 21 3 19 4 20 5 18 6 15 7 16 8 94 9 17 10 93 11
REMARK SMILES IDX 14 12 13 13 11 14 12 15 10 17 7 18 8 19 95 20 9 21 6 22 3 23
REMARK SMILES IDX 4 24 100 25 5 26 96 27 2 28 1 29 97 30 98 31 99 32 24 33
REMARK SMILES IDX 25 34 26 35 27 36 28 37 29 38 30 39 31 40 92 41 32 42 91 43
REMARK SMILES IDX 33 44 34 45 35 46 85 47 36 48 90 49 84 50 86 51 37 52 89 53
REMARK SMILES IDX 83 54 82 55 38 57 70 58 50 59 69 60 51 61 54 62 68 63 87 64
REMARK SMILES IDX 52 65 53 66 67 68 88 69 55 70 39 71 40 72 48 73 41 74 43 75
REMARK SMILES IDX 49 76 42 77 44 78 45 79 46 80 47 81 71 82 72 83 80 84 73 85
REMARK SMILES IDX 75 86 81 87 74 88 76 89 77 90 78 91 79 92 56 93 57 94 65 95
REMARK SMILES IDX 58 96 60 97 66 98 59 99 61 100 62 101 63 102 64 103
REMARK H PARENT 13 16 86 56 54 67
REMARK Flexibility Score: inf
ROOT
ATOM      1  C   UNL A   1      44.270  18.798  24.766  1.00  0.00     0.202 C 
ENDROOT
BRANCH   1   2
ATOM      2  C   UNL A   1      43.436  18.784  26.050  1.00  0.00     0.261 C 
BRANCH   2   3
ATOM      3  O   UNL A   1      42.039  18.969  25.766  1.00  0.00    -0.460 OA
BRANCH   3   4
ATOM      4  C   UNL A   1      41.405  19.849  26.572  1.00  0.00     0.338 C 
ATOM      5  O   UNL A   1      41.881  20.435  27.537  1.00  0.00    -0.246 OA
BRANCH   4   6
ATOM      6  C   UNL A   1      40.062  20.168  26.038  1.00  0.00     0.060 A 
ATOM      7  C   UNL A   1      37.500  20.920  25.155  1.00  0.00    -0.029 A 
ATOM      8  C   UNL A   1      38.366  21.865  25.717  1.00  0.00     0.006 A 
ATOM      9  C   UNL A   1      37.952  19.597  25.001  1.00  0.00     0.006 A 
ATOM     10  C   UNL A   1      39.633  21.492  26.157  1.00  0.00     0.016 A 
ATOM     11  C   UNL A   1      39.231  19.221  25.431  1.00  0.00     0.016 A 
BRANCH   7  12
ATOM     12  C   UNL A   1      36.077  21.290  24.815  1.00  0.00     0.152 C 
BRANCH  12  13
ATOM     13  N   UNL A   1      35.184  20.203  25.149  1.00  0.00    -0.345 N 
ATOM     14  C   UNL A   1      33.851  19.963  24.929  1.00  0.00     0.287 C 
ATOM     15  O   UNL A   1      33.431  18.898  25.393  1.00  0.00    -0.266 OA
ATOM     16  H   UNL A   1      35.628  19.476  25.644  1.00  0.00     0.164 HD
BRANCH  14  17
ATOM     17  C   UNL A   1      32.986  20.880  24.203  1.00  0.00     0.192 A 
ATOM     18  C   UNL A   1      32.026  22.871  23.955  1.00  0.00     0.142 A 
ATOM     19  C   UNL A   1      31.604  22.107  22.894  1.00  0.00     0.052 A 
ATOM     20  O   UNL A   1      32.880  22.153  24.730  1.00  0.00    -0.451 OA
ATOM     21  C   UNL A   1      32.201  20.832  23.064  1.00  0.00     0.057 A 
BRANCH  18  22
ATOM     22  C   UNL A   1      31.757  24.234  24.383  1.00  0.00     0.095 A 
ATOM     23  C   UNL A   1      31.049  26.910  25.011  1.00  0.00     0.125 A 
ATOM     24  C   UNL A   1      31.720  26.606  23.824  1.00  0.00     0.047 A 
ATOM     25  C   UNL A   1      30.753  25.884  25.904  1.00  0.00     0.132 A 
ATOM     26  C   UNL A   1      32.080  25.288  23.517  1.00  0.00     0.023 A 
ATOM     27  C   UNL A   1      31.111  24.560  25.586  1.00  0.00     0.284 A 
BRANCH  23  28
ATOM     28  O   UNL A   1      30.719  28.227  25.165  1.00  0.00    -0.497 OA
ATOM     29  C   UNL A   1      31.378  29.162  24.319  1.00  0.00     0.278 C 
ENDBRANCH  23  28
BRANCH  27  30
ATOM     30  N   UNL A   1      30.782  23.535  26.570  1.00  0.00     0.063 N 
ATOM     31  O   UNL A   1      29.917  22.701  26.280  1.00  0.00    -0.258 OA
ATOM     32  O   UNL A   1      31.433  23.546  27.625  1.00  0.00    -0.258 OA
ENDBRANCH  27  30
ENDBRANCH  18  22
ENDBRANCH  14  17
ENDBRANCH  12  13
ENDBRANCH   7  12
ENDBRANCH   4   6
ENDBRANCH   3   4
ENDBRANCH   2   3
ENDBRANCH   1   2
BRANCH   1  33
ATOM     33  O   UNL A   1      44.445  20.070  24.138  1.00  0.00    -0.374 OA
BRANCH  33  34
ATOM     34  C   UNL A   1      44.599  21.201  24.998  1.00  0.00     0.202 C 
BRANCH  34  35
ATOM     35  C   UNL A   1      43.564  22.323  24.846  1.00  0.00     0.261 C 
BRANCH  35  36
ATOM     36  O   UNL A   1      43.470  23.134  26.030  1.00  0.00    -0.460 OA
BRANCH  36  37
ATOM     37  C   UNL A   1      44.085  24.337  25.941  1.00  0.00     0.338 C 
ATOM     38  O   UNL A   1      44.882  24.694  25.080  1.00  0.00    -0.246 OA
BRANCH  37  39
ATOM     39  C   UNL A   1      43.530  25.272  26.936  1.00  0.00     0.060 A 
ATOM     40  C   UNL A   1      44.101  26.549  27.001  1.00  0.00     0.016 A 
ATOM     41  C   UNL A   1      42.531  24.893  27.837  1.00  0.00     0.016 A 
ATOM     42  C   UNL A   1      43.724  27.430  28.011  1.00  0.00     0.010 A 
ATOM     43  C   UNL A   1      42.156  25.781  28.853  1.00  0.00     0.010 A 
ATOM     44  C   UNL A   1      42.784  27.034  28.971  1.00  0.00    -0.014 A 
BRANCH  44  45
ATOM     45  C   UNL A   1      42.586  27.881  30.173  1.00  0.00     0.031 A 
ATOM     46  C   UNL A   1      43.376  27.584  31.419  1.00  0.00     0.074 A 
ATOM     47  C   UNL A   1      41.743  28.930  30.143  1.00  0.00     0.049 A 
ATOM     48  N   UNL A   1      43.398  28.226  32.558  1.00  0.00    -0.248 NA
ATOM     49  C   UNL A   1      44.260  26.407  31.377  1.00  0.00     0.031 C 
ATOM     50  C   UNL A   1      40.919  29.318  29.000  1.00  0.00     0.029 A 
ATOM     51  N   UNL A   1      41.437  29.854  31.110  1.00  0.00    -0.354 N 
ATOM     52  C   UNL A   1      44.275  27.523  33.374  1.00  0.00     0.074 A 
ATOM     53  C   UNL A   1      44.751  26.392  32.607  1.00  0.00     0.031 C 
ATOM     54  C   UNL A   1      40.184  30.392  29.338  1.00  0.00     0.029 A 
ATOM     55  C   UNL A   1      40.476  30.758  30.724  1.00  0.00     0.049 A 
ATOM     56  H   UNL A   1      41.864  29.867  31.997  1.00  0.00     0.167 HD
ATOM     57  C   UNL A   1      44.669  27.803  34.640  1.00  0.00     0.034 A 
ATOM     58  C   UNL A   1      39.894  31.759  31.411  1.00  0.00     0.034 A 
ATOM     59  C   UNL A   1      44.215  28.939  35.396  1.00  0.00     0.049 A 
ATOM     60  C   UNL A   1      40.344  32.044  32.821  1.00  0.00     0.074 A 
ATOM     61  C   UNL A   1      44.596  29.337  36.665  1.00  0.00     0.029 A 
ATOM     62  N   UNL A   1      43.269  29.854  34.958  1.00  0.00    -0.354 N 
ATOM     63  N   UNL A   1      41.273  31.450  33.530  1.00  0.00    -0.248 NA
ATOM     64  C   UNL A   1      39.689  33.166  33.512  1.00  0.00     0.031 C 
ATOM     65  C   UNL A   1      43.861  30.477  37.005  1.00  0.00     0.029 A 
ATOM     66  C   UNL A   1      43.043  30.807  35.937  1.00  0.00     0.049 A 
ATOM     67  H   UNL A   1      42.824  29.829  34.080  1.00  0.00     0.167 HD
ATOM     68  C   UNL A   1      41.337  32.142  34.734  1.00  0.00     0.074 A 
ATOM     69  C   UNL A   1      40.372  33.219  34.648  1.00  0.00     0.031 C 
ATOM     70  C   UNL A   1      42.112  31.901  35.822  1.00  0.00     0.034 A 
BRANCH  57  71
ATOM     71  C   UNL A   1      45.668  26.874  35.280  1.00  0.00     0.023 A 
ATOM     72  C   UNL A   1      47.044  27.053  35.031  1.00  0.00     0.012 A 
ATOM     73  C   UNL A   1      45.252  25.860  36.164  1.00  0.00     0.148 A 
ATOM     74  C   UNL A   1      47.989  26.217  35.627  1.00  0.00     0.002 A 
ATOM     75  C   UNL A   1      46.201  25.059  36.788  1.00  0.00     0.091 A 
ATOM     76  F   UNL A   1      43.938  25.690  36.368  1.00  0.00    -0.205 F 
ATOM     77  C   UNL A   1      47.568  25.229  36.513  1.00  0.00     0.022 A 
BRANCH  75  78
ATOM     78  S   UNL A   1      45.765  23.807  38.001  1.00  0.00     0.127 S 
ATOM     79  O   UNL A   1      45.354  22.697  37.142  1.00  0.00    -0.237 OA
ATOM     80  O   UNL A   1      47.033  23.600  38.700  1.00  0.00    -0.237 OA
ATOM     81  O   UNL A   1      44.709  24.390  38.817  1.00  0.00    -0.744 OA
ENDBRANCH  75  78
ENDBRANCH  57  71
BRANCH  58  82
ATOM     82  C   UNL A   1      38.849  32.598  30.761  1.00  0.00     0.023 A 
ATOM     83  C   UNL A   1      39.220  33.773  30.078  1.00  0.00     0.012 A 
ATOM     84  C   UNL A   1      37.489  32.232  30.808  1.00  0.00     0.148 A 
ATOM     85  C   UNL A   1      38.253  34.583  29.481  1.00  0.00     0.002 A 
ATOM     86  C   UNL A   1      36.538  33.012  30.162  1.00  0.00     0.091 A 
ATOM     87  F   UNL A   1      37.154  31.120  31.479  1.00  0.00    -0.205 F 
ATOM     88  C   UNL A   1      36.916  34.197  29.513  1.00  0.00     0.022 A 
BRANCH  86  89
ATOM     89  S   UNL A   1      34.814  32.524  30.043  1.00  0.00     0.127 S 
ATOM     90  O   UNL A   1      34.236  33.646  29.309  1.00  0.00    -0.237 OA
ATOM     91  O   UNL A   1      34.907  31.274  29.288  1.00  0.00    -0.237 OA
ATOM     92  O   UNL A   1      34.357  32.361  31.417  1.00  0.00    -0.744 OA
ENDBRANCH  86  89
ENDBRANCH  58  82
BRANCH  70  93
ATOM     93  C   UNL A   1      41.969  32.830  37.001  1.00  0.00     0.023 A 
ATOM     94  C   UNL A   1      41.076  32.506  38.042  1.00  0.00     0.012 A 
ATOM     95  C   UNL A   1      42.756  33.994  37.104  1.00  0.00     0.148 A 
ATOM     96  C   UNL A   1      40.937  33.347  39.146  1.00  0.00     0.002 A 
ATOM     97  C   UNL A   1      42.649  34.801  38.231  1.00  0.00     0.091 A 
ATOM     98  F   UNL A   1      43.587  34.298  36.097  1.00  0.00    -0.205 F 
ATOM     99  C   UNL A   1      41.730  34.488  39.245  1.00  0.00     0.022 A 
BRANCH  97 100
ATOM    100  S   UNL A   1      43.700  36.236  38.486  1.00  0.00     0.127 S 
ATOM    101  O   UNL A   1      43.252  36.706  39.795  1.00  0.00    -0.237 OA
ATOM    102  O   UNL A   1      45.040  35.647  38.476  1.00  0.00    -0.237 OA
ATOM    103  O   UNL A   1      43.429  37.131  37.369  1.00  0.00    -0.744 OA
ENDBRANCH  97 100
ENDBRANCH  70  93
ENDBRANCH  44  45
ENDBRANCH  37  39
ENDBRANCH  36  37
ENDBRANCH  35  36
ENDBRANCH  34  35
ENDBRANCH  33  34
ENDBRANCH   1  33
TORSDOF 23
ENDMDL
MODEL 2
REMARK VINA RESULT:     -10.0      5.545      9.407
REMARK SMILES COc1ccc(-c2ccc(C(=O)NCc3ccc(C(=O)OCCOCCOC(=O)c4ccc(-c5c6nc(c(-c7cccc(S(=O)(=O)[O-])c7F)c7ccc([nH]7)c(-c7cccc(S(=O)(=O)[O-])c7F)c7nc(c(-c8cccc(S(=O)(=O)[O-])c8F)c8ccc5[nH]8)C=C7)C=C6)cc4)cc3)o2)c([N+](=O)[O-])c1
REMARK SMILES IDX 23 1 22 2 21 3 19 4 20 5 18 6 15 7 16 8 94 9 17 10 93 11
REMARK SMILES IDX 14 12 13 13 11 14 12 15 10 17 7 18 8 19 95 20 9 21 6 22 3 23
REMARK SMILES IDX 4 24 100 25 5 26 96 27 2 28 1 29 97 30 98 31 99 32 24 33
REMARK SMILES IDX 25 34 26 35 27 36 28 37 29 38 30 39 31 40 92 41 32 42 91 43
REMARK SMILES IDX 33 44 34 45 35 46 85 47 36 48 90 49 84 50 86 51 37 52 89 53
REMARK SMILES IDX 83 54 82 55 38 57 70 58 50 59 69 60 51 61 54 62 68 63 87 64
REMARK SMILES IDX 52 65 53 66 67 68 88 69 55 70 39 71 40 72 48 73 41 74 43 75
REMARK SMILES IDX 49 76 42 77 44 78 45 79 46 80 47 81 71 82 72 83 80 84 73 85
REMARK SMILES IDX 75 86 81 87 74 88 76 89 77 90 78 91 79 92 56 93 57 94 65 95
REMARK SMILES IDX 58 96 60 97 66 98 59 99 61 100 62 101 63 102 64 103
REMARK H PARENT 13 16 86 56 54 67
REMARK Flexibility Score: inf
ROOT
ATOM      1  C   UNL A   1      35.910  21.698  24.884  1.00  0.00     0.202 C 
ENDROOT
BRANCH   1   2
ATOM      2  C   UNL A   1      34.574  22.161  25.474  1.00  0.00     0.261 C 
BRANCH   2   3
ATOM      3  O   UNL A   1      34.561  23.584  25.679  1.00  0.00    -0.460 OA
BRANCH   3   4
ATOM      4  C   UNL A   1      33.375  24.090  26.082  1.00  0.00     0.338 C 
ATOM      5  O   UNL A   1      32.447  23.472  26.591  1.00  0.00    -0.246 OA
BRANCH   4   6
ATOM      6  C   UNL A   1      33.383  25.567  25.989  1.00  0.00     0.060 A 
ATOM      7  C   UNL A   1      33.576  28.360  25.727  1.00  0.00    -0.029 A 
ATOM      8  C   UNL A   1      34.228  27.513  24.824  1.00  0.00     0.006 A 
ATOM      9  C   UNL A   1      32.787  27.788  26.741  1.00  0.00     0.006 A 
ATOM     10  C   UNL A   1      34.135  26.130  24.955  1.00  0.00     0.016 A 
ATOM     11  C   UNL A   1      32.681  26.398  26.869  1.00  0.00     0.016 A 
BRANCH   7  12
ATOM     12  C   UNL A   1      33.795  29.852  25.674  1.00  0.00     0.152 C 
BRANCH  12  13
ATOM     13  N   UNL A   1      32.595  30.549  26.084  1.00  0.00    -0.345 N 
ATOM     14  C   UNL A   1      31.321  30.627  25.582  1.00  0.00     0.287 C 
ATOM     15  O   UNL A   1      30.555  31.357  26.219  1.00  0.00    -0.266 OA
ATOM     16  H   UNL A   1      32.720  31.085  26.900  1.00  0.00     0.164 HD
BRANCH  14  17
ATOM     17  C   UNL A   1      30.887  29.907  24.393  1.00  0.00     0.192 A 
ATOM     18  C   UNL A   1      30.832  28.073  23.136  1.00  0.00     0.142 A 
ATOM     19  C   UNL A   1      30.078  29.013  22.477  1.00  0.00     0.052 A 
ATOM     20  O   UNL A   1      31.297  28.591  24.303  1.00  0.00    -0.451 OA
ATOM     21  C   UNL A   1      30.129  30.187  23.269  1.00  0.00     0.057 A 
BRANCH  18  22
ATOM     22  C   UNL A   1      31.203  26.698  22.847  1.00  0.00     0.095 A 
ATOM     23  C   UNL A   1      32.174  24.068  22.399  1.00  0.00     0.125 A 
ATOM     24  C   UNL A   1      32.728  25.161  21.728  1.00  0.00     0.047 A 
ATOM     25  C   UNL A   1      31.114  24.278  23.277  1.00  0.00     0.132 A 
ATOM     26  C   UNL A   1      32.243  26.458  21.939  1.00  0.00     0.023 A 
ATOM     27  C   UNL A   1      30.637  25.585  23.491  1.00  0.00     0.284 A 
BRANCH  23  28
ATOM     28  O   UNL A   1      32.769  22.867  22.134  1.00  0.00    -0.497 OA
ATOM     29  C   UNL A   1      32.159  21.707  22.687  1.00  0.00     0.278 C 
ENDBRANCH  23  28
BRANCH  27  30
ATOM     30  N   UNL A   1      29.518  25.734  24.413  1.00  0.00     0.063 N 
ATOM     31  O   UNL A   1      28.418  26.061  23.952  1.00  0.00    -0.258 OA
ATOM     32  O   UNL A   1      29.739  25.477  25.606  1.00  0.00    -0.258 OA
ENDBRANCH  27  30
ENDBRANCH  18  22
ENDBRANCH  14  17
ENDBRANCH  12  13
ENDBRANCH   7  12
ENDBRANCH   4   6
ENDBRANCH   3   4
ENDBRANCH   2   3
ENDBRANCH   1   2
BRANCH   1  33
ATOM     33  O   UNL A   1      36.290  20.348  25.159  1.00  0.00    -0.374 OA
BRANCH  33  34
ATOM     34  C   UNL A   1      37.670  20.018  24.997  1.00  0.00     0.202 C 
BRANCH  34  35
ATOM     35  C   UNL A   1      38.673  20.844  25.812  1.00  0.00     0.261 C 
BRANCH  35  36
ATOM     36  O   UNL A   1      40.023  20.379  25.637  1.00  0.00    -0.460 OA
BRANCH  36  37
ATOM     37  C   UNL A   1      40.786  20.429  26.754  1.00  0.00     0.338 C 
ATOM     38  O   UNL A   1      41.380  19.495  27.283  1.00  0.00    -0.246 OA
BRANCH  37  39
ATOM     39  C   UNL A   1      40.976  21.827  27.183  1.00  0.00     0.060 A 
ATOM     40  C   UNL A   1      40.639  22.828  26.265  1.00  0.00     0.016 A 
ATOM     41  C   UNL A   1      41.539  22.155  28.420  1.00  0.00     0.016 A 
ATOM     42  C   UNL A   1      40.927  24.160  26.550  1.00  0.00     0.010 A 
ATOM     43  C   UNL A   1      41.830  23.496  28.701  1.00  0.00     0.010 A 
ATOM     44  C   UNL A   1      41.568  24.498  27.749  1.00  0.00    -0.014 A 
BRANCH  44  45
ATOM     45  C   UNL A   1      42.090  25.875  27.921  1.00  0.00     0.031 A 
ATOM     46  C   UNL A   1      41.198  26.929  28.523  1.00  0.00     0.074 A 
ATOM     47  C   UNL A   1      43.358  26.177  27.586  1.00  0.00     0.049 A 
ATOM     48  N   UNL A   1      41.467  28.175  28.810  1.00  0.00    -0.248 NA
ATOM     49  C   UNL A   1      39.819  26.523  28.841  1.00  0.00     0.031 C 
ATOM     50  C   UNL A   1      44.317  25.248  26.993  1.00  0.00     0.029 A 
ATOM     51  N   UNL A   1      44.049  27.357  27.691  1.00  0.00    -0.354 N 
ATOM     52  C   UNL A   1      40.291  28.710  29.321  1.00  0.00     0.074 A 
ATOM     53  C   UNL A   1      39.298  27.658  29.286  1.00  0.00     0.031 C 
ATOM     54  C   UNL A   1      45.471  25.899  26.767  1.00  0.00     0.029 A 
ATOM     55  C   UNL A   1      45.327  27.292  27.188  1.00  0.00     0.049 A 
ATOM     56  H   UNL A   1      43.667  28.172  28.088  1.00  0.00     0.167 HD
ATOM     57  C   UNL A   1      40.061  29.957  29.799  1.00  0.00     0.034 A 
ATOM     58  C   UNL A   1      46.268  28.249  27.073  1.00  0.00     0.034 A 
ATOM     59  C   UNL A   1      41.052  30.997  29.856  1.00  0.00     0.049 A 
ATOM     60  C   UNL A   1      45.984  29.631  27.604  1.00  0.00     0.074 A 
ATOM     61  C   UNL A   1      40.930  32.275  30.371  1.00  0.00     0.029 A 
ATOM     62  N   UNL A   1      42.346  30.884  29.371  1.00  0.00    -0.354 N 
ATOM     63  N   UNL A   1      44.910  30.081  28.207  1.00  0.00    -0.248 NA
ATOM     64  C   UNL A   1      47.059  30.626  27.473  1.00  0.00     0.031 C 
ATOM     65  C   UNL A   1      42.143  32.944  30.173  1.00  0.00     0.029 A 
ATOM     66  C   UNL A   1      43.030  32.073  29.561  1.00  0.00     0.049 A 
ATOM     67  H   UNL A   1      42.724  30.076  28.953  1.00  0.00     0.167 HD
ATOM     68  C   UNL A   1      45.191  31.398  28.555  1.00  0.00     0.074 A 
ATOM     69  C   UNL A   1      46.546  31.664  28.120  1.00  0.00     0.031 C 
ATOM     70  C   UNL A   1      44.394  32.312  29.164  1.00  0.00     0.034 A 
BRANCH  57  71
ATOM     71  C   UNL A   1      38.682  30.256  30.328  1.00  0.00     0.023 A 
ATOM     72  C   UNL A   1      38.368  29.950  31.668  1.00  0.00     0.012 A 
ATOM     73  C   UNL A   1      37.717  30.885  29.518  1.00  0.00     0.148 A 
ATOM     74  C   UNL A   1      37.104  30.235  32.185  1.00  0.00     0.002 A 
ATOM     75  C   UNL A   1      36.474  31.206  30.052  1.00  0.00     0.091 A 
ATOM     76  F   UNL A   1      38.026  31.146  28.240  1.00  0.00    -0.205 F 
ATOM     77  C   UNL A   1      36.163  30.872  31.381  1.00  0.00     0.022 A 
BRANCH  75  78
ATOM     78  S   UNL A   1      35.219  32.093  29.121  1.00  0.00     0.127 S 
ATOM     79  O   UNL A   1      34.322  31.007  28.730  1.00  0.00    -0.237 OA
ATOM     80  O   UNL A   1      34.673  33.002  30.129  1.00  0.00    -0.237 OA
ATOM     81  O   UNL A   1      35.921  32.749  28.026  1.00  0.00    -0.744 OA
ENDBRANCH  75  78
ENDBRANCH  57  71
BRANCH  58  82
ATOM     82  C   UNL A   1      47.589  27.925  26.465  1.00  0.00     0.023 A 
ATOM     83  C   UNL A   1      48.703  27.696  27.295  1.00  0.00     0.012 A 
ATOM     84  C   UNL A   1      47.742  27.831  25.068  1.00  0.00     0.148 A 
ATOM     85  C   UNL A   1      49.953  27.411  26.744  1.00  0.00     0.002 A 
ATOM     86  C   UNL A   1      48.977  27.490  24.528  1.00  0.00     0.091 A 
ATOM     87  F   UNL A   1      46.674  28.069  24.294  1.00  0.00    -0.205 F 
ATOM     88  C   UNL A   1      50.087  27.297  25.363  1.00  0.00     0.022 A 
BRANCH  86  89
ATOM     89  S   UNL A   1      49.209  27.194  22.772  1.00  0.00     0.127 S 
ATOM     90  O   UNL A   1      48.809  28.476  22.198  1.00  0.00    -0.237 OA
ATOM     91  O   UNL A   1      50.642  26.906  22.702  1.00  0.00    -0.237 OA
ATOM     92  O   UNL A   1      48.355  26.059  22.449  1.00  0.00    -0.744 OA
ENDBRANCH  86  89
ENDBRANCH  58  82
BRANCH  70  93
ATOM     93  C   UNL A   1      44.972  33.681  29.420  1.00  0.00     0.023 A 
ATOM     94  C   UNL A   1      45.707  33.922  30.598  1.00  0.00     0.012 A 
ATOM     95  C   UNL A   1      44.835  34.713  28.470  1.00  0.00     0.148 A 
ATOM     96  C   UNL A   1      46.259  35.177  30.848  1.00  0.00     0.002 A 
ATOM     97  C   UNL A   1      45.431  35.948  28.702  1.00  0.00     0.091 A 
ATOM     98  F   UNL A   1      44.118  34.474  27.363  1.00  0.00    -0.205 F 
ATOM     99  C   UNL A   1      46.130  36.187  29.896  1.00  0.00     0.022 A 
BRANCH  97 100
ATOM    100  S   UNL A   1      45.396  37.272  27.488  1.00  0.00     0.127 S 
ATOM    101  O   UNL A   1      46.311  36.765  26.467  1.00  0.00    -0.237 OA
ATOM    102  O   UNL A   1      43.988  37.293  27.089  1.00  0.00    -0.237 OA
ATOM    103  O   UNL A   1      45.838  38.468  28.192  1.00  0.00    -0.744 OA
ENDBRANCH  97 100
ENDBRANCH  70  93
ENDBRANCH  44  45
ENDBRANCH  37  39
ENDBRANCH  36  37
ENDBRANCH  35  36
ENDBRANCH  34  35
ENDBRANCH  33  34
ENDBRANCH   1  33
TORSDOF 23
ENDMDL
MODEL 3
REMARK VINA RESULT:      -9.9      5.158      9.446
REMARK SMILES COc1ccc(-c2ccc(C(=O)NCc3ccc(C(=O)OCCOCCOC(=O)c4ccc(-c5c6nc(c(-c7cccc(S(=O)(=O)[O-])c7F)c7ccc([nH]7)c(-c7cccc(S(=O)(=O)[O-])c7F)c7nc(c(-c8cccc(S(=O)(=O)[O-])c8F)c8ccc5[nH]8)C=C7)C=C6)cc4)cc3)o2)c([N+](=O)[O-])c1
REMARK SMILES IDX 23 1 22 2 21 3 19 4 20 5 18 6 15 7 16 8 94 9 17 10 93 11
REMARK SMILES IDX 14 12 13 13 11 14 12 15 10 17 7 18 8 19 95 20 9 21 6 22 3 23
REMARK SMILES IDX 4 24 100 25 5 26 96 27 2 28 1 29 97 30 98 31 99 32 24 33
REMARK SMILES IDX 25 34 26 35 27 36 28 37 29 38 30 39 31 40 92 41 32 42 91 43
REMARK SMILES IDX 33 44 34 45 35 46 85 47 36 48 90 49 84 50 86 51 37 52 89 53
REMARK SMILES IDX 83 54 82 55 38 57 70 58 50 59 69 60 51 61 54 62 68 63 87 64
REMARK SMILES IDX 52 65 53 66 67 68 88 69 55 70 39 71 40 72 48 73 41 74 43 75
REMARK SMILES IDX 49 76 42 77 44 78 45 79 46 80 47 81 71 82 72 83 80 84 73 85
REMARK SMILES IDX 75 86 81 87 74 88 76 89 77 90 78 91 79 92 56 93 57 94 65 95
REMARK SMILES IDX 58 96 60 97 66 98 59 99 61 100 62 101 63 102 64 103
REMARK H PARENT 13 16 86 56 54 67
REMARK Flexibility Score: inf
ROOT
ATOM      1  C   UNL A   1      35.299  21.008  24.822  1.00  0.00     0.202 C 
ENDROOT
BRANCH   1   2
ATOM      2  C   UNL A   1      33.871  20.899  25.362  1.00  0.00     0.261 C 
BRANCH   2   3
ATOM      3  O   UNL A   1      33.141  22.120  25.157  1.00  0.00    -0.460 OA
BRANCH   3   4
ATOM      4  C   UNL A   1      32.396  22.156  24.030  1.00  0.00     0.338 C 
ATOM      5  O   UNL A   1      32.401  21.335  23.120  1.00  0.00    -0.246 OA
BRANCH   4   6
ATOM      6  C   UNL A   1      31.412  23.259  24.094  1.00  0.00     0.060 A 
ATOM      7  C   UNL A   1      29.497  25.296  24.400  1.00  0.00    -0.029 A 
ATOM      8  C   UNL A   1      30.182  24.789  25.510  1.00  0.00     0.006 A 
ATOM      9  C   UNL A   1      29.815  24.797  23.124  1.00  0.00     0.006 A 
ATOM     10  C   UNL A   1      31.128  23.779  25.360  1.00  0.00     0.016 A 
ATOM     11  C   UNL A   1      30.775  23.789  22.968  1.00  0.00     0.016 A 
BRANCH   7  12
ATOM     12  C   UNL A   1      28.370  26.284  24.579  1.00  0.00     0.152 C 
BRANCH  12  13
ATOM     13  N   UNL A   1      28.339  27.213  23.471  1.00  0.00    -0.345 N 
ATOM     14  C   UNL A   1      29.203  28.174  23.010  1.00  0.00     0.287 C 
ATOM     15  O   UNL A   1      28.809  28.792  22.015  1.00  0.00    -0.266 OA
ATOM     16  H   UNL A   1      27.520  27.141  22.930  1.00  0.00     0.164 HD
BRANCH  14  17
ATOM     17  C   UNL A   1      30.489  28.454  23.630  1.00  0.00     0.192 A 
ATOM     18  C   UNL A   1      32.482  27.797  24.367  1.00  0.00     0.142 A 
ATOM     19  C   UNL A   1      32.411  29.148  24.605  1.00  0.00     0.052 A 
ATOM     20  O   UNL A   1      31.345  27.377  23.754  1.00  0.00    -0.451 OA
ATOM     21  C   UNL A   1      31.133  29.563  24.153  1.00  0.00     0.057 A 
BRANCH  18  22
ATOM     22  C   UNL A   1      33.491  26.782  24.622  1.00  0.00     0.095 A 
ATOM     23  C   UNL A   1      35.263  24.656  25.250  1.00  0.00     0.125 A 
ATOM     24  C   UNL A   1      34.730  25.465  26.256  1.00  0.00     0.047 A 
ATOM     25  C   UNL A   1      34.937  24.920  23.923  1.00  0.00     0.132 A 
ATOM     26  C   UNL A   1      33.864  26.522  25.948  1.00  0.00     0.023 A 
ATOM     27  C   UNL A   1      34.060  25.979  23.621  1.00  0.00     0.284 A 
BRANCH  23  28
ATOM     28  O   UNL A   1      36.058  23.636  25.693  1.00  0.00    -0.497 OA
ATOM     29  C   UNL A   1      37.448  23.727  25.404  1.00  0.00     0.278 C 
ENDBRANCH  23  28
BRANCH  27  30
ATOM     30  N   UNL A   1      33.769  26.210  22.210  1.00  0.00     0.063 N 
ATOM     31  O   UNL A   1      34.014  27.326  21.737  1.00  0.00    -0.258 OA
ATOM     32  O   UNL A   1      33.332  25.245  21.565  1.00  0.00    -0.258 OA
ENDBRANCH  27  30
ENDBRANCH  18  22
ENDBRANCH  14  17
ENDBRANCH  12  13
ENDBRANCH   7  12
ENDBRANCH   4   6
ENDBRANCH   3   4
ENDBRANCH   2   3
ENDBRANCH   1   2
BRANCH   1  33
ATOM     33  O   UNL A   1      36.149  19.880  25.043  1.00  0.00    -0.374 OA
BRANCH  33  34
ATOM     34  C   UNL A   1      37.526  20.028  24.694  1.00  0.00     0.202 C 
BRANCH  34  35
ATOM     35  C   UNL A   1      38.527  20.065  25.856  1.00  0.00     0.261 C 
BRANCH  35  36
ATOM     36  O   UNL A   1      39.841  19.644  25.451  1.00  0.00    -0.460 OA
BRANCH  36  37
ATOM     37  C   UNL A   1      40.783  19.726  26.420  1.00  0.00     0.338 C 
ATOM     38  O   UNL A   1      41.498  18.818  26.830  1.00  0.00    -0.246 OA
BRANCH  37  39
ATOM     39  C   UNL A   1      40.986  21.130  26.820  1.00  0.00     0.060 A 
ATOM     40  C   UNL A   1      40.754  22.111  25.848  1.00  0.00     0.016 A 
ATOM     41  C   UNL A   1      41.464  21.482  28.085  1.00  0.00     0.016 A 
ATOM     42  C   UNL A   1      41.063  23.442  26.114  1.00  0.00     0.010 A 
ATOM     43  C   UNL A   1      41.777  22.821  28.348  1.00  0.00     0.010 A 
ATOM     44  C   UNL A   1      41.621  23.799  27.349  1.00  0.00    -0.014 A 
BRANCH  44  45
ATOM     45  C   UNL A   1      42.174  25.164  27.519  1.00  0.00     0.031 A 
ATOM     46  C   UNL A   1      41.329  26.222  28.178  1.00  0.00     0.074 A 
ATOM     47  C   UNL A   1      43.431  25.451  27.131  1.00  0.00     0.049 A 
ATOM     48  N   UNL A   1      41.632  27.459  28.473  1.00  0.00    -0.248 NA
ATOM     49  C   UNL A   1      39.959  25.834  28.552  1.00  0.00     0.031 C 
ATOM     50  C   UNL A   1      44.346  24.517  26.480  1.00  0.00     0.029 A 
ATOM     51  N   UNL A   1      44.147  26.618  27.224  1.00  0.00    -0.354 N 
ATOM     52  C   UNL A   1      40.490  28.004  29.046  1.00  0.00     0.074 A 
ATOM     53  C   UNL A   1      39.478  26.969  29.039  1.00  0.00     0.031 C 
ATOM     54  C   UNL A   1      45.500  25.153  26.212  1.00  0.00     0.029 A 
ATOM     55  C   UNL A   1      45.399  26.541  26.662  1.00  0.00     0.049 A 
ATOM     56  H   UNL A   1      43.797  27.432  27.651  1.00  0.00     0.167 HD
ATOM     57  C   UNL A   1      40.303  29.246  29.554  1.00  0.00     0.034 A 
ATOM     58  C   UNL A   1      46.350  27.484  26.520  1.00  0.00     0.034 A 
ATOM     59  C   UNL A   1      41.314  30.269  29.583  1.00  0.00     0.049 A 
ATOM     60  C   UNL A   1      46.114  28.860  27.085  1.00  0.00     0.074 A 
ATOM     61  C   UNL A   1      41.238  31.540  30.123  1.00  0.00     0.029 A 
ATOM     62  N   UNL A   1      42.583  30.143  29.037  1.00  0.00    -0.354 N 
ATOM     63  N   UNL A   1      45.077  29.318  27.744  1.00  0.00    -0.248 NA
ATOM     64  C   UNL A   1      47.199  29.840  26.921  1.00  0.00     0.031 C 
ATOM     65  C   UNL A   1      42.451  32.193  29.881  1.00  0.00     0.029 A 
ATOM     66  C   UNL A   1      43.294  31.318  29.215  1.00  0.00     0.049 A 
ATOM     67  H   UNL A   1      42.927  29.337  28.589  1.00  0.00     0.167 HD
ATOM     68  C   UNL A   1      45.395  30.624  28.100  1.00  0.00     0.074 A 
ATOM     69  C   UNL A   1      46.734  30.876  27.608  1.00  0.00     0.031 C 
ATOM     70  C   UNL A   1      44.643  31.541  28.760  1.00  0.00     0.034 A 
BRANCH  57  71
ATOM     71  C   UNL A   1      38.956  29.559  30.150  1.00  0.00     0.023 A 
ATOM     72  C   UNL A   1      38.666  29.156  31.470  1.00  0.00     0.012 A 
ATOM     73  C   UNL A   1      37.996  30.294  29.426  1.00  0.00     0.148 A 
ATOM     74  C   UNL A   1      37.432  29.451  32.049  1.00  0.00     0.002 A 
ATOM     75  C   UNL A   1      36.786  30.622  30.025  1.00  0.00     0.091 A 
ATOM     76  F   UNL A   1      38.281  30.647  28.165  1.00  0.00    -0.205 F 
ATOM     77  C   UNL A   1      36.498  30.193  31.331  1.00  0.00     0.022 A 
BRANCH  75  78
ATOM     78  S   UNL A   1      35.546  31.636  29.211  1.00  0.00     0.127 S 
ATOM     79  O   UNL A   1      34.742  32.085  30.347  1.00  0.00    -0.237 OA
ATOM     80  O   UNL A   1      36.361  32.681  28.591  1.00  0.00    -0.237 OA
ATOM     81  O   UNL A   1      34.864  30.758  28.270  1.00  0.00    -0.744 OA
ENDBRANCH  75  78
ENDBRANCH  57  71
BRANCH  58  82
ATOM     82  C   UNL A   1      47.636  27.148  25.847  1.00  0.00     0.023 A 
ATOM     83  C   UNL A   1      48.677  26.552  26.585  1.00  0.00     0.012 A 
ATOM     84  C   UNL A   1      47.828  27.406  24.475  1.00  0.00     0.148 A 
ATOM     85  C   UNL A   1      49.896  26.249  25.978  1.00  0.00     0.002 A 
ATOM     86  C   UNL A   1      49.024  27.049  23.863  1.00  0.00     0.091 A 
ATOM     87  F   UNL A   1      46.832  27.990  23.793  1.00  0.00    -0.205 F 
ATOM     88  C   UNL A   1      50.065  26.487  24.617  1.00  0.00     0.022 A 
BRANCH  86  89
ATOM     89  S   UNL A   1      49.279  27.199  22.092  1.00  0.00     0.127 S 
ATOM     90  O   UNL A   1      48.783  28.547  21.832  1.00  0.00    -0.237 OA
ATOM     91  O   UNL A   1      50.730  27.042  21.983  1.00  0.00    -0.237 OA
ATOM     92  O   UNL A   1      48.514  26.114  21.493  1.00  0.00    -0.744 OA
ENDBRANCH  86  89
ENDBRANCH  58  82
BRANCH  70  93
ATOM     93  C   UNL A   1      45.255  32.895  29.011  1.00  0.00     0.023 A 
ATOM     94  C   UNL A   1      45.066  33.934  28.077  1.00  0.00     0.012 A 
ATOM     95  C   UNL A   1      45.972  33.156  30.196  1.00  0.00     0.148 A 
ATOM     96  C   UNL A   1      45.615  35.196  28.297  1.00  0.00     0.002 A 
ATOM     97  C   UNL A   1      46.474  34.432  30.432  1.00  0.00     0.091 A 
ATOM     98  F   UNL A   1      46.160  32.154  31.066  1.00  0.00    -0.205 F 
ATOM     99  C   UNL A   1      46.310  35.448  29.478  1.00  0.00     0.022 A 
BRANCH  97 100
ATOM    100  S   UNL A   1      47.297  34.868  31.969  1.00  0.00     0.127 S 
ATOM    101  O   UNL A   1      46.256  34.588  32.955  1.00  0.00    -0.237 OA
ATOM    102  O   UNL A   1      48.426  33.938  31.993  1.00  0.00    -0.237 OA
ATOM    103  O   UNL A   1      47.675  36.269  31.833  1.00  0.00    -0.744 OA
ENDBRANCH  97 100
ENDBRANCH  70  93
ENDBRANCH  44  45
ENDBRANCH  37  39
ENDBRANCH  36  37
ENDBRANCH  35  36
ENDBRANCH  34  35
ENDBRANCH  33  34
ENDBRANCH   1  33
TORSDOF 23
ENDMDL
