MODEL 1
REMARK VINA RESULT:     -11.5      0.000      0.000
REMARK SMILES C[C@@H]1Cc2ccccc2N1C(=O)CSc1ncc(C(=O)OCCOCCOC(=O)c2ccc(-c3c4nc(c(-c5cccc(S(=O)(=O)[O-])c5F)c5ccc([nH]5)c(-c5cccc(S(=O)(=O)[O-])c5F)c5nc(c(-c6cccc(S(=O)(=O)[O-])c6F)c6ccc3[nH]6)C=C5)C=C4)cc2)n1-c1ccc(F)cc1
REMARK SMILES IDX 23 1 22 2 21 3 19 4 20 5 18 6 15 7 16 8 93 9 17 10 14 11
REMARK SMILES IDX 13 12 11 13 12 14 10 15 1 16 2 17 3 18 4 19 9 20 5 21 8 22
REMARK SMILES IDX 6 23 7 24 94 25 95 26 100 27 96 28 99 29 97 30 98 31 24 32
REMARK SMILES IDX 25 33 26 34 27 35 28 36 29 37 30 38 31 39 92 40 32 41 91 42
REMARK SMILES IDX 33 43 34 44 35 45 85 46 36 47 90 48 84 49 86 50 37 51 89 52
REMARK SMILES IDX 83 53 82 54 38 56 70 57 50 58 69 59 51 60 54 61 68 62 87 63
REMARK SMILES IDX 52 64 53 65 67 67 88 68 55 69 39 70 40 71 48 72 41 73 43 74
REMARK SMILES IDX 49 75 42 76 44 77 45 78 46 79 47 80 71 81 72 82 80 83 73 84
REMARK SMILES IDX 75 85 81 86 74 87 76 88 77 89 78 90 79 91 56 92 57 93 65 94
REMARK SMILES IDX 58 95 60 96 66 97 59 98 61 99 62 100 63 101 64 102
REMARK H PARENT 86 55 54 66
REMARK Flexibility Score: inf
ROOT
ATOM      1  C   UNL A   1      34.092  31.406  27.912  1.00  0.00     0.202 C 
ENDROOT
BRANCH   1   2
ATOM      2  C   UNL A   1      34.475  29.937  27.713  1.00  0.00     0.261 C 
BRANCH   2   3
ATOM      3  O   UNL A   1      33.987  29.413  26.479  1.00  0.00    -0.459 OA
BRANCH   3   4
ATOM      4  C   UNL A   1      32.821  28.723  26.628  1.00  0.00     0.357 C 
ATOM      5  O   UNL A   1      32.311  28.405  27.679  1.00  0.00    -0.244 OA
BRANCH   4   6
ATOM      6  C   UNL A   1      32.218  28.537  25.344  1.00  0.00     0.152 A 
ATOM      7  C   UNL A   1      31.559  27.513  23.517  1.00  0.00     0.173 A 
ATOM      8  N   UNL A   1      31.315  28.778  23.275  1.00  0.00    -0.230 NA
ATOM      9  N   UNL A   1      32.018  27.293  24.789  1.00  0.00    -0.282 N 
ATOM     10  C   UNL A   1      31.707  29.425  24.421  1.00  0.00     0.148 A 
BRANCH   7  11
ATOM     11  S   UNL A   1      31.347  26.216  22.411  1.00  0.00    -0.078 SA
BRANCH  11  12
ATOM     12  C   UNL A   1      33.079  25.684  22.222  1.00  0.00     0.178 C 
BRANCH  12  13
ATOM     13  C   UNL A   1      33.238  24.272  21.690  1.00  0.00     0.237 C 
ATOM     14  O   UNL A   1      33.278  24.119  20.461  1.00  0.00    -0.274 OA
BRANCH  13  15
ATOM     15  N   UNL A   1      33.381  23.194  22.540  1.00  0.00    -0.308 N 
ATOM     16  C   UNL A   1      30.946  22.920  23.213  1.00  0.00     0.032 C 
ATOM     17  C   UNL A   1      32.252  22.255  22.761  1.00  0.00     0.092 C 
ATOM     18  C   UNL A   1      32.725  21.239  23.826  1.00  0.00     0.063 C 
ATOM     19  C   UNL A   1      34.110  21.713  24.133  1.00  0.00    -0.022 A 
ATOM     20  C   UNL A   1      34.487  22.760  23.298  1.00  0.00     0.047 A 
ATOM     21  C   UNL A   1      34.971  21.213  25.102  1.00  0.00     0.006 A 
ATOM     22  C   UNL A   1      35.801  23.205  23.316  1.00  0.00     0.026 A 
ATOM     23  C   UNL A   1      36.251  21.759  25.205  1.00  0.00     0.000 A 
ATOM     24  C   UNL A   1      36.673  22.733  24.298  1.00  0.00     0.002 A 
ENDBRANCH  13  15
ENDBRANCH  12  13
ENDBRANCH  11  12
ENDBRANCH   7  11
BRANCH   9  25
ATOM     25  C   UNL A   1      32.037  26.054  25.465  1.00  0.00     0.049 A 
ATOM     26  C   UNL A   1      30.839  25.487  25.900  1.00  0.00     0.030 A 
ATOM     27  C   UNL A   1      33.269  25.444  25.732  1.00  0.00     0.030 A 
ATOM     28  C   UNL A   1      30.881  24.281  26.599  1.00  0.00     0.041 A 
ATOM     29  C   UNL A   1      33.297  24.219  26.392  1.00  0.00     0.041 A 
ATOM     30  C   UNL A   1      32.104  23.653  26.828  1.00  0.00     0.123 A 
ATOM     31  F   UNL A   1      32.133  22.493  27.495  1.00  0.00    -0.207 F 
ENDBRANCH   9  25
ENDBRANCH   4   6
ENDBRANCH   3   4
ENDBRANCH   2   3
ENDBRANCH   1   2
BRANCH   1  32
ATOM     32  O   UNL A   1      34.968  32.445  27.496  1.00  0.00    -0.374 OA
BRANCH  32  33
ATOM     33  C   UNL A   1      35.102  33.590  28.334  1.00  0.00     0.202 C 
BRANCH  33  34
ATOM     34  C   UNL A   1      36.458  33.990  28.946  1.00  0.00     0.261 C 
BRANCH  34  35
ATOM     35  O   UNL A   1      36.479  33.840  30.367  1.00  0.00    -0.460 OA
BRANCH  35  36
ATOM     36  C   UNL A   1      36.383  32.557  30.815  1.00  0.00     0.338 C 
ATOM     37  O   UNL A   1      35.402  32.011  31.287  1.00  0.00    -0.246 OA
BRANCH  36  38
ATOM     38  C   UNL A   1      37.555  31.862  30.242  1.00  0.00     0.060 A 
ATOM     39  C   UNL A   1      37.406  30.591  29.678  1.00  0.00     0.016 A 
ATOM     40  C   UNL A   1      38.812  32.328  30.670  1.00  0.00     0.016 A 
ATOM     41  C   UNL A   1      38.504  29.742  29.651  1.00  0.00     0.010 A 
ATOM     42  C   UNL A   1      39.899  31.459  30.669  1.00  0.00     0.010 A 
ATOM     43  C   UNL A   1      39.733  30.153  30.205  1.00  0.00    -0.014 A 
BRANCH  43  44
ATOM     44  C   UNL A   1      40.883  29.263  30.035  1.00  0.00     0.031 A 
ATOM     45  C   UNL A   1      41.410  28.832  31.360  1.00  0.00     0.074 A 
ATOM     46  C   UNL A   1      41.375  28.759  28.881  1.00  0.00     0.049 A 
ATOM     47  N   UNL A   1      42.549  29.126  31.892  1.00  0.00    -0.248 NA
ATOM     48  C   UNL A   1      40.466  28.162  32.271  1.00  0.00     0.031 C 
ATOM     49  C   UNL A   1      40.823  28.853  27.530  1.00  0.00     0.029 A 
ATOM     50  N   UNL A   1      42.453  27.934  28.702  1.00  0.00    -0.354 N 
ATOM     51  C   UNL A   1      42.544  28.490  33.130  1.00  0.00     0.074 A 
ATOM     52  C   UNL A   1      41.189  28.081  33.386  1.00  0.00     0.031 C 
ATOM     53  C   UNL A   1      41.417  27.933  26.733  1.00  0.00     0.029 A 
ATOM     54  C   UNL A   1      42.465  27.260  27.477  1.00  0.00     0.049 A 
ATOM     55  H   UNL A   1      43.160  27.824  29.378  1.00  0.00     0.167 HD
ATOM     56  C   UNL A   1      43.691  28.117  33.756  1.00  0.00     0.034 A 
ATOM     57  C   UNL A   1      43.224  26.179  27.150  1.00  0.00     0.034 A 
ATOM     58  C   UNL A   1      44.846  28.778  33.221  1.00  0.00     0.049 A 
ATOM     59  C   UNL A   1      44.369  26.163  28.088  1.00  0.00     0.074 A 
ATOM     60  C   UNL A   1      45.260  30.090  33.117  1.00  0.00     0.029 A 
ATOM     61  N   UNL A   1      45.611  28.064  32.334  1.00  0.00    -0.354 N 
ATOM     62  N   UNL A   1      45.305  27.067  28.101  1.00  0.00    -0.248 NA
ATOM     63  C   UNL A   1      44.250  25.351  29.286  1.00  0.00     0.031 C 
ATOM     64  C   UNL A   1      45.905  30.171  31.850  1.00  0.00     0.029 A 
ATOM     65  C   UNL A   1      45.892  28.895  31.283  1.00  0.00     0.049 A 
ATOM     66  H   UNL A   1      45.903  27.130  32.434  1.00  0.00     0.167 HD
ATOM     67  C   UNL A   1      45.580  27.245  29.449  1.00  0.00     0.074 A 
ATOM     68  C   UNL A   1      44.971  26.100  30.122  1.00  0.00     0.031 C 
ATOM     69  C   UNL A   1      46.021  28.445  29.918  1.00  0.00     0.034 A 
BRANCH  56  70
ATOM     70  C   UNL A   1      43.794  26.881  34.603  1.00  0.00     0.023 A 
ATOM     71  C   UNL A   1      43.119  25.721  34.179  1.00  0.00     0.012 A 
ATOM     72  C   UNL A   1      44.311  26.891  35.921  1.00  0.00     0.148 A 
ATOM     73  C   UNL A   1      42.965  24.621  35.030  1.00  0.00     0.002 A 
ATOM     74  C   UNL A   1      44.225  25.769  36.733  1.00  0.00     0.091 A 
ATOM     75  F   UNL A   1      44.773  28.033  36.444  1.00  0.00    -0.205 F 
ATOM     76  C   UNL A   1      43.532  24.637  36.301  1.00  0.00     0.022 A 
BRANCH  74  77
ATOM     77  S   UNL A   1      44.963  25.735  38.369  1.00  0.00     0.127 S 
ATOM     78  O   UNL A   1      44.175  26.748  39.066  1.00  0.00    -0.237 OA
ATOM     79  O   UNL A   1      44.707  24.355  38.783  1.00  0.00    -0.237 OA
ATOM     80  O   UNL A   1      46.372  26.045  38.166  1.00  0.00    -0.744 OA
ENDBRANCH  74  77
ENDBRANCH  56  70
BRANCH  57  81
ATOM     81  C   UNL A   1      42.916  24.974  26.326  1.00  0.00     0.023 A 
ATOM     82  C   UNL A   1      43.812  24.597  25.297  1.00  0.00     0.012 A 
ATOM     83  C   UNL A   1      41.962  24.021  26.742  1.00  0.00     0.148 A 
ATOM     84  C   UNL A   1      43.811  23.300  24.764  1.00  0.00     0.002 A 
ATOM     85  C   UNL A   1      41.960  22.735  26.203  1.00  0.00     0.091 A 
ATOM     86  F   UNL A   1      41.124  24.336  27.736  1.00  0.00    -0.205 F 
ATOM     87  C   UNL A   1      42.895  22.364  25.230  1.00  0.00     0.022 A 
BRANCH  85  88
ATOM     88  S   UNL A   1      40.813  21.470  26.770  1.00  0.00     0.127 S 
ATOM     89  O   UNL A   1      41.372  20.259  26.169  1.00  0.00    -0.237 OA
ATOM     90  O   UNL A   1      40.959  21.559  28.220  1.00  0.00    -0.237 OA
ATOM     91  O   UNL A   1      39.512  21.854  26.240  1.00  0.00    -0.744 OA
ENDBRANCH  85  88
ENDBRANCH  57  81
BRANCH  69  92
ATOM     92  C   UNL A   1      46.451  29.483  28.916  1.00  0.00     0.023 A 
ATOM     93  C   UNL A   1      47.756  29.527  28.382  1.00  0.00     0.012 A 
ATOM     94  C   UNL A   1      45.454  30.300  28.362  1.00  0.00     0.148 A 
ATOM     95  C   UNL A   1      48.054  30.369  27.305  1.00  0.00     0.002 A 
ATOM     96  C   UNL A   1      45.743  31.104  27.271  1.00  0.00     0.091 A 
ATOM     97  F   UNL A   1      44.222  30.231  28.889  1.00  0.00    -0.205 F 
ATOM     98  C   UNL A   1      47.043  31.144  26.738  1.00  0.00     0.022 A 
BRANCH  96  99
ATOM     99  S   UNL A   1      44.468  32.044  26.430  1.00  0.00     0.127 S 
ATOM    100  O   UNL A   1      44.112  33.043  27.436  1.00  0.00    -0.237 OA
ATOM    101  O   UNL A   1      45.188  32.570  25.269  1.00  0.00    -0.237 OA
ATOM    102  O   UNL A   1      43.412  31.094  26.101  1.00  0.00    -0.744 OA
ENDBRANCH  96  99
ENDBRANCH  69  92
ENDBRANCH  43  44
ENDBRANCH  36  38
ENDBRANCH  35  36
ENDBRANCH  34  35
ENDBRANCH  33  34
ENDBRANCH  32  33
ENDBRANCH   1  32
TORSDOF 22
ENDMDL
MODEL 2
REMARK VINA RESULT:     -11.3      1.614      2.469
REMARK SMILES C[C@@H]1Cc2ccccc2N1C(=O)CSc1ncc(C(=O)OCCOCCOC(=O)c2ccc(-c3c4nc(c(-c5cccc(S(=O)(=O)[O-])c5F)c5ccc([nH]5)c(-c5cccc(S(=O)(=O)[O-])c5F)c5nc(c(-c6cccc(S(=O)(=O)[O-])c6F)c6ccc3[nH]6)C=C5)C=C4)cc2)n1-c1ccc(F)cc1
REMARK SMILES IDX 23 1 22 2 21 3 19 4 20 5 18 6 15 7 16 8 93 9 17 10 14 11
REMARK SMILES IDX 13 12 11 13 12 14 10 15 1 16 2 17 3 18 4 19 9 20 5 21 8 22
REMARK SMILES IDX 6 23 7 24 94 25 95 26 100 27 96 28 99 29 97 30 98 31 24 32
REMARK SMILES IDX 25 33 26 34 27 35 28 36 29 37 30 38 31 39 92 40 32 41 91 42
REMARK SMILES IDX 33 43 34 44 35 45 85 46 36 47 90 48 84 49 86 50 37 51 89 52
REMARK SMILES IDX 83 53 82 54 38 56 70 57 50 58 69 59 51 60 54 61 68 62 87 63
REMARK SMILES IDX 52 64 53 65 67 67 88 68 55 69 39 70 40 71 48 72 41 73 43 74
REMARK SMILES IDX 49 75 42 76 44 77 45 78 46 79 47 80 71 81 72 82 80 83 73 84
REMARK SMILES IDX 75 85 81 86 74 87 76 88 77 89 78 90 79 91 56 92 57 93 65 94
REMARK SMILES IDX 58 95 60 96 66 97 59 98 61 99 62 100 63 101 64 102
REMARK H PARENT 86 55 54 66
REMARK Flexibility Score: inf
ROOT
ATOM      1  C   UNL A   1      33.282  31.703  27.432  1.00  0.00     0.202 C 
ENDROOT
BRANCH   1   2
ATOM      2  C   UNL A   1      32.247  30.818  26.731  1.00  0.00     0.261 C 
BRANCH   2   3
ATOM      3  O   UNL A   1      32.853  29.761  25.988  1.00  0.00    -0.459 OA
BRANCH   3   4
ATOM      4  C   UNL A   1      32.273  28.553  26.229  1.00  0.00     0.357 C 
ATOM      5  O   UNL A   1      31.381  28.335  27.018  1.00  0.00    -0.244 OA
BRANCH   4   6
ATOM      6  C   UNL A   1      32.797  27.588  25.312  1.00  0.00     0.152 A 
ATOM      7  C   UNL A   1      32.853  26.170  23.637  1.00  0.00     0.173 A 
ATOM      8  N   UNL A   1      34.003  25.991  24.239  1.00  0.00    -0.230 NA
ATOM      9  N   UNL A   1      32.119  27.190  24.182  1.00  0.00    -0.282 N 
ATOM     10  C   UNL A   1      33.985  26.888  25.279  1.00  0.00     0.148 A 
BRANCH   7  11
ATOM     11  S   UNL A   1      32.265  25.266  22.300  1.00  0.00    -0.078 SA
BRANCH  11  12
ATOM     12  C   UNL A   1      33.006  23.643  22.673  1.00  0.00     0.178 C 
BRANCH  12  13
ATOM     13  C   UNL A   1      32.197  22.801  23.641  1.00  0.00     0.237 C 
ATOM     14  O   UNL A   1      31.021  23.131  23.851  1.00  0.00    -0.274 OA
BRANCH  13  15
ATOM     15  N   UNL A   1      32.730  21.676  24.237  1.00  0.00    -0.308 N 
ATOM     16  C   UNL A   1      34.587  22.796  25.563  1.00  0.00     0.032 C 
ATOM     17  C   UNL A   1      33.440  21.777  25.538  1.00  0.00     0.092 C 
ATOM     18  C   UNL A   1      33.980  20.365  25.857  1.00  0.00     0.063 C 
ATOM     19  C   UNL A   1      33.530  19.571  24.673  1.00  0.00    -0.022 A 
ATOM     20  C   UNL A   1      32.725  20.327  23.828  1.00  0.00     0.047 A 
ATOM     21  C   UNL A   1      33.827  18.242  24.393  1.00  0.00     0.006 A 
ATOM     22  C   UNL A   1      32.069  19.705  22.776  1.00  0.00     0.026 A 
ATOM     23  C   UNL A   1      33.270  17.658  23.255  1.00  0.00     0.000 A 
ATOM     24  C   UNL A   1      32.373  18.379  22.463  1.00  0.00     0.002 A 
ENDBRANCH  13  15
ENDBRANCH  12  13
ENDBRANCH  11  12
ENDBRANCH   7  11
BRANCH   9  25
ATOM     25  C   UNL A   1      31.033  27.854  23.571  1.00  0.00     0.049 A 
ATOM     26  C   UNL A   1      29.732  27.409  23.805  1.00  0.00     0.030 A 
ATOM     27  C   UNL A   1      31.292  28.916  22.696  1.00  0.00     0.030 A 
ATOM     28  C   UNL A   1      28.676  28.052  23.162  1.00  0.00     0.041 A 
ATOM     29  C   UNL A   1      30.227  29.580  22.092  1.00  0.00     0.041 A 
ATOM     30  C   UNL A   1      28.930  29.137  22.324  1.00  0.00     0.123 A 
ATOM     31  F   UNL A   1      27.908  29.752  21.715  1.00  0.00    -0.207 F 
ENDBRANCH   9  25
ENDBRANCH   4   6
ENDBRANCH   3   4
ENDBRANCH   2   3
ENDBRANCH   1   2
BRANCH   1  32
ATOM     32  O   UNL A   1      32.947  33.022  27.843  1.00  0.00    -0.374 OA
BRANCH  32  33
ATOM     33  C   UNL A   1      33.991  33.989  27.923  1.00  0.00     0.202 C 
BRANCH  33  34
ATOM     34  C   UNL A   1      35.472  33.574  28.003  1.00  0.00     0.261 C 
BRANCH  34  35
ATOM     35  O   UNL A   1      35.999  33.690  29.327  1.00  0.00    -0.460 OA
BRANCH  35  36
ATOM     36  C   UNL A   1      35.995  32.537  30.054  1.00  0.00     0.338 C 
ATOM     37  O   UNL A   1      35.068  32.070  30.691  1.00  0.00    -0.246 OA
BRANCH  36  38
ATOM     38  C   UNL A   1      37.176  31.783  29.584  1.00  0.00     0.060 A 
ATOM     39  C   UNL A   1      37.042  30.442  29.209  1.00  0.00     0.016 A 
ATOM     40  C   UNL A   1      38.427  32.322  29.936  1.00  0.00     0.016 A 
ATOM     41  C   UNL A   1      38.152  29.612  29.302  1.00  0.00     0.010 A 
ATOM     42  C   UNL A   1      39.526  31.477  30.056  1.00  0.00     0.010 A 
ATOM     43  C   UNL A   1      39.376  30.115  29.786  1.00  0.00    -0.014 A 
BRANCH  43  44
ATOM     44  C   UNL A   1      40.538  29.225  29.742  1.00  0.00     0.031 A 
ATOM     45  C   UNL A   1      40.970  28.862  31.121  1.00  0.00     0.074 A 
ATOM     46  C   UNL A   1      41.113  28.669  28.652  1.00  0.00     0.049 A 
ATOM     47  N   UNL A   1      42.068  29.189  31.718  1.00  0.00    -0.248 NA
ATOM     48  C   UNL A   1      39.965  28.231  31.994  1.00  0.00     0.031 C 
ATOM     49  C   UNL A   1      40.659  28.694  27.262  1.00  0.00     0.029 A 
ATOM     50  N   UNL A   1      42.203  27.843  28.591  1.00  0.00    -0.354 N 
ATOM     51  C   UNL A   1      41.976  28.614  32.981  1.00  0.00     0.074 A 
ATOM     52  C   UNL A   1      40.607  28.210  33.160  1.00  0.00     0.031 C 
ATOM     53  C   UNL A   1      41.310  27.740  26.556  1.00  0.00     0.029 A 
ATOM     54  C   UNL A   1      42.304  27.111  27.405  1.00  0.00     0.049 A 
ATOM     55  H   UNL A   1      42.860  27.771  29.321  1.00  0.00     0.167 HD
ATOM     56  C   UNL A   1      43.075  28.279  33.705  1.00  0.00     0.034 A 
ATOM     57  C   UNL A   1      43.089  26.020  27.186  1.00  0.00     0.034 A 
ATOM     58  C   UNL A   1      44.264  28.921  33.223  1.00  0.00     0.049 A 
ATOM     59  C   UNL A   1      44.163  26.056  28.202  1.00  0.00     0.074 A 
ATOM     60  C   UNL A   1      44.681  30.229  33.084  1.00  0.00     0.029 A 
ATOM     61  N   UNL A   1      45.093  28.169  32.428  1.00  0.00    -0.354 N 
ATOM     62  N   UNL A   1      45.094  26.966  28.239  1.00  0.00    -0.248 NA
ATOM     63  C   UNL A   1      43.961  25.303  29.427  1.00  0.00     0.031 C 
ATOM     64  C   UNL A   1      45.415  30.252  31.864  1.00  0.00     0.029 A 
ATOM     65  C   UNL A   1      45.446  28.950  31.361  1.00  0.00     0.049 A 
ATOM     66  H   UNL A   1      45.379  27.243  32.595  1.00  0.00     0.167 HD
ATOM     67  C   UNL A   1      45.270  27.211  29.592  1.00  0.00     0.074 A 
ATOM     68  C   UNL A   1      44.618  26.096  30.275  1.00  0.00     0.031 C 
ATOM     69  C   UNL A   1      45.674  28.435  30.032  1.00  0.00     0.034 A 
BRANCH  56  70
ATOM     70  C   UNL A   1      43.122  27.087  34.617  1.00  0.00     0.023 A 
ATOM     71  C   UNL A   1      42.170  26.066  34.432  1.00  0.00     0.012 A 
ATOM     72  C   UNL A   1      43.893  27.053  35.804  1.00  0.00     0.148 A 
ATOM     73  C   UNL A   1      41.995  25.058  35.386  1.00  0.00     0.002 A 
ATOM     74  C   UNL A   1      43.770  26.008  36.709  1.00  0.00     0.091 A 
ATOM     75  F   UNL A   1      44.656  28.103  36.129  1.00  0.00    -0.205 F 
ATOM     76  C   UNL A   1      42.806  25.018  36.516  1.00  0.00     0.022 A 
BRANCH  74  77
ATOM     77  S   UNL A   1      44.812  25.902  38.167  1.00  0.00     0.127 S 
ATOM     78  O   UNL A   1      46.121  26.241  37.616  1.00  0.00    -0.237 OA
ATOM     79  O   UNL A   1      44.219  26.923  39.032  1.00  0.00    -0.237 OA
ATOM     80  O   UNL A   1      44.654  24.540  38.659  1.00  0.00    -0.744 OA
ENDBRANCH  74  77
ENDBRANCH  56  70
BRANCH  57  81
ATOM     81  C   UNL A   1      42.843  24.774  26.402  1.00  0.00     0.023 A 
ATOM     82  C   UNL A   1      43.843  24.314  25.512  1.00  0.00     0.012 A 
ATOM     83  C   UNL A   1      41.818  23.871  26.754  1.00  0.00     0.148 A 
ATOM     84  C   UNL A   1      43.866  22.987  25.059  1.00  0.00     0.002 A 
ATOM     85  C   UNL A   1      41.840  22.555  26.295  1.00  0.00     0.091 A 
ATOM     86  F   UNL A   1      40.877  24.266  27.620  1.00  0.00    -0.205 F 
ATOM     87  C   UNL A   1      42.873  22.103  25.464  1.00  0.00     0.022 A 
BRANCH  85  88
ATOM     88  S   UNL A   1      40.596  21.355  26.792  1.00  0.00     0.127 S 
ATOM     89  O   UNL A   1      40.760  21.329  28.246  1.00  0.00    -0.237 OA
ATOM     90  O   UNL A   1      39.365  21.985  26.325  1.00  0.00    -0.237 OA
ATOM     91  O   UNL A   1      40.963  20.111  26.128  1.00  0.00    -0.744 OA
ENDBRANCH  85  88
ENDBRANCH  57  81
BRANCH  69  92
ATOM     92  C   UNL A   1      46.171  29.426  29.014  1.00  0.00     0.023 A 
ATOM     93  C   UNL A   1      47.493  29.408  28.521  1.00  0.00     0.012 A 
ATOM     94  C   UNL A   1      45.221  30.259  28.404  1.00  0.00     0.148 A 
ATOM     95  C   UNL A   1      47.854  30.205  27.430  1.00  0.00     0.002 A 
ATOM     96  C   UNL A   1      45.573  31.018  27.298  1.00  0.00     0.091 A 
ATOM     97  F   UNL A   1      43.972  30.249  28.892  1.00  0.00    -0.205 F 
ATOM     98  C   UNL A   1      46.889  30.997  26.807  1.00  0.00     0.022 A 
BRANCH  96  99
ATOM     99  S   UNL A   1      44.359  31.974  26.389  1.00  0.00     0.127 S 
ATOM    100  O   UNL A   1      43.354  30.963  26.065  1.00  0.00    -0.237 OA
ATOM    101  O   UNL A   1      43.937  32.962  27.383  1.00  0.00    -0.237 OA
ATOM    102  O   UNL A   1      45.060  32.539  25.242  1.00  0.00    -0.744 OA
ENDBRANCH  96  99
ENDBRANCH  69  92
ENDBRANCH  43  44
ENDBRANCH  36  38
ENDBRANCH  35  36
ENDBRANCH  34  35
ENDBRANCH  33  34
ENDBRANCH  32  33
ENDBRANCH   1  32
TORSDOF 22
ENDMDL
MODEL 3
REMARK VINA RESULT:     -11.1      2.262      3.168
REMARK SMILES C[C@@H]1Cc2ccccc2N1C(=O)CSc1ncc(C(=O)OCCOCCOC(=O)c2ccc(-c3c4nc(c(-c5cccc(S(=O)(=O)[O-])c5F)c5ccc([nH]5)c(-c5cccc(S(=O)(=O)[O-])c5F)c5nc(c(-c6cccc(S(=O)(=O)[O-])c6F)c6ccc3[nH]6)C=C5)C=C4)cc2)n1-c1ccc(F)cc1
REMARK SMILES IDX 23 1 22 2 21 3 19 4 20 5 18 6 15 7 16 8 93 9 17 10 14 11
REMARK SMILES IDX 13 12 11 13 12 14 10 15 1 16 2 17 3 18 4 19 9 20 5 21 8 22
REMARK SMILES IDX 6 23 7 24 94 25 95 26 100 27 96 28 99 29 97 30 98 31 24 32
REMARK SMILES IDX 25 33 26 34 27 35 28 36 29 37 30 38 31 39 92 40 32 41 91 42
REMARK SMILES IDX 33 43 34 44 35 45 85 46 36 47 90 48 84 49 86 50 37 51 89 52
REMARK SMILES IDX 83 53 82 54 38 56 70 57 50 58 69 59 51 60 54 61 68 62 87 63
REMARK SMILES IDX 52 64 53 65 67 67 88 68 55 69 39 70 40 71 48 72 41 73 43 74
REMARK SMILES IDX 49 75 42 76 44 77 45 78 46 79 47 80 71 81 72 82 80 83 73 84
REMARK SMILES IDX 75 85 81 86 74 87 76 88 77 89 78 90 79 91 56 92 57 93 65 94
REMARK SMILES IDX 58 95 60 96 66 97 59 98 61 99 62 100 63 101 64 102
REMARK H PARENT 86 55 54 66
REMARK Flexibility Score: inf
ROOT
ATOM      1  C   UNL A   1      33.755  30.802  27.302  1.00  0.00     0.202 C 
ENDROOT
BRANCH   1   2
ATOM      2  C   UNL A   1      33.567  29.296  27.093  1.00  0.00     0.261 C 
BRANCH   2   3
ATOM      3  O   UNL A   1      32.301  28.986  26.513  1.00  0.00    -0.459 OA
BRANCH   3   4
ATOM      4  C   UNL A   1      31.993  27.662  26.606  1.00  0.00     0.357 C 
ATOM      5  O   UNL A   1      31.207  27.167  27.383  1.00  0.00    -0.244 OA
BRANCH   4   6
ATOM      6  C   UNL A   1      32.651  26.951  25.554  1.00  0.00     0.152 A 
ATOM      7  C   UNL A   1      32.916  25.875  23.658  1.00  0.00     0.173 A 
ATOM      8  N   UNL A   1      34.069  25.733  24.265  1.00  0.00    -0.230 NA
ATOM      9  N   UNL A   1      32.048  26.682  24.346  1.00  0.00    -0.282 N 
ATOM     10  C   UNL A   1      33.919  26.419  25.445  1.00  0.00     0.148 A 
BRANCH   7  11
ATOM     11  S   UNL A   1      32.470  25.161  22.161  1.00  0.00    -0.078 SA
BRANCH  11  12
ATOM     12  C   UNL A   1      32.901  23.424  22.506  1.00  0.00     0.178 C 
BRANCH  12  13
ATOM     13  C   UNL A   1      32.004  22.757  23.531  1.00  0.00     0.237 C 
ATOM     14  O   UNL A   1      30.892  23.261  23.742  1.00  0.00    -0.274 OA
BRANCH  13  15
ATOM     15  N   UNL A   1      32.385  21.598  24.177  1.00  0.00    -0.308 N 
ATOM     16  C   UNL A   1      33.895  22.632  25.941  1.00  0.00     0.032 C 
ATOM     17  C   UNL A   1      32.782  21.630  25.608  1.00  0.00     0.092 C 
ATOM     18  C   UNL A   1      33.232  20.197  25.973  1.00  0.00     0.063 C 
ATOM     19  C   UNL A   1      33.061  19.464  24.681  1.00  0.00    -0.022 A 
ATOM     20  C   UNL A   1      32.471  20.270  23.713  1.00  0.00     0.047 A 
ATOM     21  C   UNL A   1      33.412  18.147  24.412  1.00  0.00     0.006 A 
ATOM     22  C   UNL A   1      32.069  19.705  22.511  1.00  0.00     0.026 A 
ATOM     23  C   UNL A   1      33.127  17.623  23.151  1.00  0.00     0.000 A 
ATOM     24  C   UNL A   1      32.434  18.392  22.212  1.00  0.00     0.002 A 
ENDBRANCH  13  15
ENDBRANCH  12  13
ENDBRANCH  11  12
ENDBRANCH   7  11
BRANCH   9  25
ATOM     25  C   UNL A   1      30.897  27.307  23.819  1.00  0.00     0.049 A 
ATOM     26  C   UNL A   1      31.022  28.511  23.126  1.00  0.00     0.030 A 
ATOM     27  C   UNL A   1      29.644  26.728  24.051  1.00  0.00     0.030 A 
ATOM     28  C   UNL A   1      29.870  29.133  22.646  1.00  0.00     0.041 A 
ATOM     29  C   UNL A   1      28.503  27.334  23.530  1.00  0.00     0.041 A 
ATOM     30  C   UNL A   1      28.626  28.535  22.840  1.00  0.00     0.123 A 
ATOM     31  F   UNL A   1      27.526  29.137  22.370  1.00  0.00    -0.207 F 
ENDBRANCH   9  25
ENDBRANCH   4   6
ENDBRANCH   3   4
ENDBRANCH   2   3
ENDBRANCH   1   2
BRANCH   1  32
ATOM     32  O   UNL A   1      35.029  31.330  27.648  1.00  0.00    -0.374 OA
BRANCH  32  33
ATOM     33  C   UNL A   1      35.112  32.706  28.011  1.00  0.00     0.202 C 
BRANCH  33  34
ATOM     34  C   UNL A   1      34.435  33.248  29.285  1.00  0.00     0.261 C 
BRANCH  34  35
ATOM     35  O   UNL A   1      35.364  33.442  30.353  1.00  0.00    -0.460 OA
BRANCH  35  36
ATOM     36  C   UNL A   1      35.082  32.756  31.496  1.00  0.00     0.338 C 
ATOM     37  O   UNL A   1      33.990  32.593  32.009  1.00  0.00    -0.246 OA
BRANCH  36  38
ATOM     38  C   UNL A   1      36.278  31.925  31.750  1.00  0.00     0.060 A 
ATOM     39  C   UNL A   1      37.533  32.530  31.876  1.00  0.00     0.016 A 
ATOM     40  C   UNL A   1      36.155  30.560  31.432  1.00  0.00     0.016 A 
ATOM     41  C   UNL A   1      38.665  31.787  31.567  1.00  0.00     0.010 A 
ATOM     42  C   UNL A   1      37.291  29.832  31.093  1.00  0.00     0.010 A 
ATOM     43  C   UNL A   1      38.539  30.458  31.114  1.00  0.00    -0.014 A 
BRANCH  43  44
ATOM     44  C   UNL A   1      39.770  29.689  30.925  1.00  0.00     0.031 A 
ATOM     45  C   UNL A   1      40.569  29.666  32.182  1.00  0.00     0.074 A 
ATOM     46  C   UNL A   1      40.138  28.971  29.841  1.00  0.00     0.049 A 
ATOM     47  N   UNL A   1      41.721  30.210  32.398  1.00  0.00    -0.248 NA
ATOM     48  C   UNL A   1      39.906  29.144  33.389  1.00  0.00     0.031 C 
ATOM     49  C   UNL A   1      39.363  28.661  28.639  1.00  0.00     0.029 A 
ATOM     50  N   UNL A   1      41.287  28.253  29.642  1.00  0.00    -0.354 N 
ATOM     51  C   UNL A   1      42.020  29.907  33.723  1.00  0.00     0.074 A 
ATOM     52  C   UNL A   1      40.806  29.427  34.328  1.00  0.00     0.031 C 
ATOM     53  C   UNL A   1      39.953  27.643  27.970  1.00  0.00     0.029 A 
ATOM     54  C   UNL A   1      41.202  27.300  28.624  1.00  0.00     0.049 A 
ATOM     55  H   UNL A   1      42.104  28.396  30.173  1.00  0.00     0.167 HD
ATOM     56  C   UNL A   1      43.298  29.835  34.177  1.00  0.00     0.034 A 
ATOM     57  C   UNL A   1      42.057  26.263  28.405  1.00  0.00     0.034 A 
ATOM     58  C   UNL A   1      44.231  30.466  33.290  1.00  0.00     0.049 A 
ATOM     59  C   UNL A   1      43.329  26.611  29.077  1.00  0.00     0.074 A 
ATOM     60  C   UNL A   1      44.412  31.748  32.812  1.00  0.00     0.029 A 
ATOM     61  N   UNL A   1      44.942  29.643  32.453  1.00  0.00    -0.354 N 
ATOM     62  N   UNL A   1      44.101  27.589  28.701  1.00  0.00    -0.248 NA
ATOM     63  C   UNL A   1      43.537  26.117  30.426  1.00  0.00     0.031 C 
ATOM     64  C   UNL A   1      44.818  31.580  31.457  1.00  0.00     0.029 A 
ATOM     65  C   UNL A   1      44.912  30.210  31.207  1.00  0.00     0.049 A 
ATOM     66  H   UNL A   1      45.388  28.802  32.701  1.00  0.00     0.167 HD
ATOM     67  C   UNL A   1      44.563  28.129  29.892  1.00  0.00     0.074 A 
ATOM     68  C   UNL A   1      44.261  27.127  30.912  1.00  0.00     0.031 C 
ATOM     69  C   UNL A   1      44.883  29.449  29.981  1.00  0.00     0.034 A 
BRANCH  56  70
ATOM     70  C   UNL A   1      43.732  28.871  35.244  1.00  0.00     0.023 A 
ATOM     71  C   UNL A   1      44.516  29.358  36.306  1.00  0.00     0.012 A 
ATOM     72  C   UNL A   1      43.620  27.466  35.107  1.00  0.00     0.148 A 
ATOM     73  C   UNL A   1      45.159  28.487  37.192  1.00  0.00     0.002 A 
ATOM     74  C   UNL A   1      44.195  26.608  36.032  1.00  0.00     0.091 A 
ATOM     75  F   UNL A   1      43.067  26.950  34.003  1.00  0.00    -0.205 F 
ATOM     76  C   UNL A   1      44.985  27.112  37.066  1.00  0.00     0.022 A 
BRANCH  74  77
ATOM     77  S   UNL A   1      43.977  24.829  35.925  1.00  0.00     0.127 S 
ATOM     78  O   UNL A   1      44.815  24.365  37.027  1.00  0.00    -0.237 OA
ATOM     79  O   UNL A   1      42.535  24.691  36.140  1.00  0.00    -0.237 OA
ATOM     80  O   UNL A   1      44.416  24.464  34.585  1.00  0.00    -0.744 OA
ENDBRANCH  74  77
ENDBRANCH  56  70
BRANCH  57  81
ATOM     81  C   UNL A   1      41.809  24.863  27.952  1.00  0.00     0.023 A 
ATOM     82  C   UNL A   1      40.487  24.357  27.978  1.00  0.00     0.012 A 
ATOM     83  C   UNL A   1      42.765  24.152  27.198  1.00  0.00     0.148 A 
ATOM     84  C   UNL A   1      40.117  23.238  27.218  1.00  0.00     0.002 A 
ATOM     85  C   UNL A   1      42.394  23.034  26.451  1.00  0.00     0.091 A 
ATOM     86  F   UNL A   1      44.015  24.624  27.127  1.00  0.00    -0.205 F 
ATOM     87  C   UNL A   1      41.068  22.587  26.441  1.00  0.00     0.022 A 
BRANCH  85  88
ATOM     88  S   UNL A   1      43.569  22.154  25.412  1.00  0.00     0.127 S 
ATOM     89  O   UNL A   1      42.968  20.823  25.330  1.00  0.00    -0.237 OA
ATOM     90  O   UNL A   1      43.517  22.928  24.174  1.00  0.00    -0.237 OA
ATOM     91  O   UNL A   1      44.836  22.194  26.131  1.00  0.00    -0.744 OA
ENDBRANCH  85  88
ENDBRANCH  57  81
BRANCH  69  92
ATOM     92  C   UNL A   1      44.973  30.245  28.706  1.00  0.00     0.023 A 
ATOM     93  C   UNL A   1      43.831  30.649  27.982  1.00  0.00     0.012 A 
ATOM     94  C   UNL A   1      46.229  30.760  28.352  1.00  0.00     0.148 A 
ATOM     95  C   UNL A   1      43.946  31.559  26.926  1.00  0.00     0.002 A 
ATOM     96  C   UNL A   1      46.334  31.692  27.330  1.00  0.00     0.091 A 
ATOM     97  F   UNL A   1      47.294  30.362  29.063  1.00  0.00    -0.205 F 
ATOM     98  C   UNL A   1      45.195  32.094  26.612  1.00  0.00     0.022 A 
BRANCH  96  99
ATOM     99  S   UNL A   1      47.890  32.496  26.946  1.00  0.00     0.127 S 
ATOM    100  O   UNL A   1      47.497  33.435  25.896  1.00  0.00    -0.237 OA
ATOM    101  O   UNL A   1      48.239  33.117  28.225  1.00  0.00    -0.237 OA
ATOM    102  O   UNL A   1      48.801  31.440  26.523  1.00  0.00    -0.744 OA
ENDBRANCH  96  99
ENDBRANCH  69  92
ENDBRANCH  43  44
ENDBRANCH  36  38
ENDBRANCH  35  36
ENDBRANCH  34  35
ENDBRANCH  33  34
ENDBRANCH  32  33
ENDBRANCH   1  32
TORSDOF 22
ENDMDL
