MODEL 1
REMARK VINA RESULT:     -11.2      0.000      0.000
REMARK SMILES Cc1ccn2c([C@@H]3CCCC[C@@H]3C(=O)OCCOCCOC(=O)c3ccc(-c4c5nc(c(-c6cccc(S(=O)(=O)[O-])c6F)c6ccc([nH]6)c(-c6cccc(S(=O)(=O)[O-])c6F)c6nc(c(-c7cccc(S(=O)(=O)[O-])c7F)c7ccc4[nH]7)C=C6)C=C5)cc3)nnc2c1
REMARK SMILES IDX 19 1 18 2 17 3 16 4 15 5 13 6 14 7 12 8 7 9 8 10 9 11 11 12
REMARK SMILES IDX 10 13 6 14 1 15 2 16 3 17 90 18 4 19 89 20 5 21 88 22 87 23
REMARK SMILES IDX 20 24 21 25 22 26 23 27 24 28 25 29 86 30 26 31 85 32 27 33
REMARK SMILES IDX 28 34 29 35 79 36 30 37 84 38 78 39 80 40 31 41 83 42 77 43
REMARK SMILES IDX 76 44 32 46 64 47 44 48 63 49 45 50 48 51 62 52 81 53 46 54
REMARK SMILES IDX 47 55 61 57 82 58 49 59 33 60 34 61 42 62 35 63 37 64 43 65
REMARK SMILES IDX 36 66 38 67 39 68 40 69 41 70 65 71 66 72 74 73 67 74 69 75
REMARK SMILES IDX 75 76 68 77 70 78 71 79 72 80 73 81 50 82 51 83 59 84 52 85
REMARK SMILES IDX 54 86 60 87 53 88 55 89 56 90 57 91 58 92
REMARK H PARENT 80 45 48 56
REMARK Flexibility Score: inf
ROOT
ATOM      1  C   UNL A   1      35.871  20.885  25.038  1.00  0.00     0.202 C 
ENDROOT
BRANCH   1   2
ATOM      2  O   UNL A   1      35.349  21.490  26.223  1.00  0.00    -0.374 OA
BRANCH   2   3
ATOM      3  C   UNL A   1      34.000  21.181  26.581  1.00  0.00     0.202 C 
BRANCH   3   4
ATOM      4  C   UNL A   1      32.911  22.252  26.397  1.00  0.00     0.261 C 
BRANCH   4   5
ATOM      5  O   UNL A   1      33.342  23.538  26.829  1.00  0.00    -0.463 OA
BRANCH   5   6
ATOM      6  C   UNL A   1      32.913  24.527  26.000  1.00  0.00     0.309 C 
ATOM      7  O   UNL A   1      31.775  24.617  25.567  1.00  0.00    -0.252 OA
BRANCH   6   8
ATOM      8  C   UNL A   1      34.059  25.466  25.683  1.00  0.00     0.110 C 
ATOM      9  C   UNL A   1      33.651  26.682  24.833  1.00  0.00     0.072 C 
ATOM     10  C   UNL A   1      33.046  26.291  23.488  1.00  0.00     0.012 C 
ATOM     11  C   UNL A   1      33.960  25.297  22.743  1.00  0.00     0.001 C 
ATOM     12  C   UNL A   1      35.113  24.649  24.929  1.00  0.00     0.016 C 
ATOM     13  C   UNL A   1      34.560  24.167  23.589  1.00  0.00     0.001 C 
BRANCH   9  14
ATOM     14  C   UNL A   1      33.013  27.826  25.587  1.00  0.00     0.141 A 
ATOM     15  C   UNL A   1      34.547  32.562  28.151  1.00  0.00     0.044 C 
ATOM     16  C   UNL A   1      34.119  31.221  27.631  1.00  0.00    -0.046 A 
ATOM     17  C   UNL A   1      35.130  30.167  27.558  1.00  0.00     0.022 A 
ATOM     18  C   UNL A   1      32.865  30.982  27.195  1.00  0.00     0.053 A 
ATOM     19  C   UNL A   1      34.838  28.999  26.953  1.00  0.00     0.095 A 
ATOM     20  C   UNL A   1      32.554  29.742  26.571  1.00  0.00     0.161 A 
ATOM     21  N   UNL A   1      33.575  28.804  26.402  1.00  0.00    -0.286 N 
ATOM     22  N   UNL A   1      31.442  29.297  26.039  1.00  0.00    -0.130 NA
ATOM     23  N   UNL A   1      31.725  28.105  25.434  1.00  0.00    -0.134 NA
ENDBRANCH   9  14
ENDBRANCH   6   8
ENDBRANCH   5   6
ENDBRANCH   4   5
ENDBRANCH   3   4
ENDBRANCH   2   3
ENDBRANCH   1   2
BRANCH   1  24
ATOM     24  C   UNL A   1      37.258  21.403  24.658  1.00  0.00     0.261 C 
BRANCH  24  25
ATOM     25  O   UNL A   1      37.744  22.212  25.739  1.00  0.00    -0.460 OA
BRANCH  25  26
ATOM     26  C   UNL A   1      39.008  21.911  26.107  1.00  0.00     0.338 C 
ATOM     27  O   UNL A   1      39.610  20.887  25.804  1.00  0.00    -0.246 OA
BRANCH  26  28
ATOM     28  C   UNL A   1      39.628  23.125  26.679  1.00  0.00     0.060 A 
ATOM     29  C   UNL A   1      40.741  23.039  27.532  1.00  0.00     0.016 A 
ATOM     30  C   UNL A   1      38.922  24.330  26.548  1.00  0.00     0.016 A 
ATOM     31  C   UNL A   1      41.079  24.135  28.313  1.00  0.00     0.010 A 
ATOM     32  C   UNL A   1      39.265  25.429  27.334  1.00  0.00     0.010 A 
ATOM     33  C   UNL A   1      40.322  25.320  28.238  1.00  0.00    -0.014 A 
BRANCH  33  34
ATOM     34  C   UNL A   1      40.867  26.495  28.917  1.00  0.00     0.031 A 
ATOM     35  C   UNL A   1      42.272  26.754  28.498  1.00  0.00     0.074 A 
ATOM     36  C   UNL A   1      40.227  27.385  29.701  1.00  0.00     0.049 A 
ATOM     37  N   UNL A   1      43.343  26.677  29.219  1.00  0.00    -0.248 NA
ATOM     38  C   UNL A   1      42.512  26.944  27.059  1.00  0.00     0.031 C 
ATOM     39  C   UNL A   1      38.799  27.486  30.001  1.00  0.00     0.029 A 
ATOM     40  N   UNL A   1      40.752  28.490  30.314  1.00  0.00    -0.354 N 
ATOM     41  C   UNL A   1      44.381  27.012  28.355  1.00  0.00     0.074 A 
ATOM     42  C   UNL A   1      43.841  26.994  27.020  1.00  0.00     0.031 C 
ATOM     43  C   UNL A   1      38.547  28.708  30.532  1.00  0.00     0.029 A 
ATOM     44  C   UNL A   1      39.799  29.425  30.713  1.00  0.00     0.049 A 
ATOM     45  H   UNL A   1      41.717  28.614  30.459  1.00  0.00     0.167 HD
ATOM     46  C   UNL A   1      45.565  27.509  28.796  1.00  0.00     0.034 A 
ATOM     47  C   UNL A   1      40.039  30.708  31.090  1.00  0.00     0.034 A 
ATOM     48  C   UNL A   1      45.769  27.311  30.199  1.00  0.00     0.049 A 
ATOM     49  C   UNL A   1      41.469  30.788  31.472  1.00  0.00     0.074 A 
ATOM     50  C   UNL A   1      45.827  26.214  31.035  1.00  0.00     0.029 A 
ATOM     51  N   UNL A   1      45.606  28.404  31.013  1.00  0.00    -0.354 N 
ATOM     52  N   UNL A   1      41.971  30.239  32.541  1.00  0.00    -0.248 NA
ATOM     53  C   UNL A   1      42.435  31.216  30.471  1.00  0.00     0.031 C 
ATOM     54  C   UNL A   1      45.234  26.650  32.253  1.00  0.00     0.029 A 
ATOM     55  C   UNL A   1      44.872  27.989  32.089  1.00  0.00     0.049 A 
ATOM     56  H   UNL A   1      45.951  29.312  30.852  1.00  0.00     0.167 HD
ATOM     57  C   UNL A   1      43.255  29.870  32.170  1.00  0.00     0.074 A 
ATOM     58  C   UNL A   1      43.524  30.599  30.935  1.00  0.00     0.031 C 
ATOM     59  C   UNL A   1      43.867  28.795  32.741  1.00  0.00     0.034 A 
BRANCH  46  60
ATOM     60  C   UNL A   1      46.381  28.491  28.009  1.00  0.00     0.023 A 
ATOM     61  C   UNL A   1      47.746  28.215  27.807  1.00  0.00     0.012 A 
ATOM     62  C   UNL A   1      45.921  29.790  27.693  1.00  0.00     0.148 A 
ATOM     63  C   UNL A   1      48.616  29.193  27.313  1.00  0.00     0.002 A 
ATOM     64  C   UNL A   1      46.768  30.726  27.121  1.00  0.00     0.091 A 
ATOM     65  F   UNL A   1      44.695  30.172  28.071  1.00  0.00    -0.205 F 
ATOM     66  C   UNL A   1      48.124  30.443  26.951  1.00  0.00     0.022 A 
BRANCH  64  67
ATOM     67  S   UNL A   1      46.149  32.326  26.592  1.00  0.00     0.127 S 
ATOM     68  O   UNL A   1      45.475  32.792  27.799  1.00  0.00    -0.237 OA
ATOM     69  O   UNL A   1      47.386  33.032  26.256  1.00  0.00    -0.237 OA
ATOM     70  O   UNL A   1      45.298  32.041  25.443  1.00  0.00    -0.744 OA
ENDBRANCH  64  67
ENDBRANCH  46  60
BRANCH  47  71
ATOM     71  C   UNL A   1      39.211  31.941  31.023  1.00  0.00     0.023 A 
ATOM     72  C   UNL A   1      38.677  32.344  29.776  1.00  0.00     0.012 A 
ATOM     73  C   UNL A   1      38.703  32.562  32.184  1.00  0.00     0.148 A 
ATOM     74  C   UNL A   1      37.643  33.284  29.692  1.00  0.00     0.002 A 
ATOM     75  C   UNL A   1      37.682  33.509  32.093  1.00  0.00     0.091 A 
ATOM     76  F   UNL A   1      39.149  32.161  33.381  1.00  0.00    -0.205 F 
ATOM     77  C   UNL A   1      37.138  33.860  30.852  1.00  0.00     0.022 A 
BRANCH  75  78
ATOM     78  S   UNL A   1      36.974  34.291  33.551  1.00  0.00     0.127 S 
ATOM     79  O   UNL A   1      36.116  35.320  32.963  1.00  0.00    -0.237 OA
ATOM     80  O   UNL A   1      36.260  33.181  34.176  1.00  0.00    -0.237 OA
ATOM     81  O   UNL A   1      38.107  34.820  34.301  1.00  0.00    -0.744 OA
ENDBRANCH  75  78
ENDBRANCH  47  71
BRANCH  59  82
ATOM     82  C   UNL A   1      43.258  28.191  33.976  1.00  0.00     0.023 A 
ATOM     83  C   UNL A   1      42.193  27.270  33.900  1.00  0.00     0.012 A 
ATOM     84  C   UNL A   1      43.939  28.362  35.193  1.00  0.00     0.148 A 
ATOM     85  C   UNL A   1      41.820  26.525  35.021  1.00  0.00     0.002 A 
ATOM     86  C   UNL A   1      43.595  27.584  36.290  1.00  0.00     0.091 A 
ATOM     87  F   UNL A   1      44.955  29.236  35.231  1.00  0.00    -0.205 F 
ATOM     88  C   UNL A   1      42.534  26.668  36.210  1.00  0.00     0.022 A 
BRANCH  86  89
ATOM     89  S   UNL A   1      44.553  27.607  37.807  1.00  0.00     0.127 S 
ATOM     90  O   UNL A   1      43.805  26.681  38.655  1.00  0.00    -0.237 OA
ATOM     91  O   UNL A   1      45.852  27.109  37.354  1.00  0.00    -0.237 OA
ATOM     92  O   UNL A   1      44.564  28.992  38.263  1.00  0.00    -0.744 OA
ENDBRANCH  86  89
ENDBRANCH  59  82
ENDBRANCH  33  34
ENDBRANCH  26  28
ENDBRANCH  25  26
ENDBRANCH  24  25
ENDBRANCH   1  24
TORSDOF 18
ENDMDL
MODEL 2
REMARK VINA RESULT:     -11.0      2.983      8.793
REMARK SMILES Cc1ccn2c([C@@H]3CCCC[C@@H]3C(=O)OCCOCCOC(=O)c3ccc(-c4c5nc(c(-c6cccc(S(=O)(=O)[O-])c6F)c6ccc([nH]6)c(-c6cccc(S(=O)(=O)[O-])c6F)c6nc(c(-c7cccc(S(=O)(=O)[O-])c7F)c7ccc4[nH]7)C=C6)C=C5)cc3)nnc2c1
REMARK SMILES IDX 19 1 18 2 17 3 16 4 15 5 13 6 14 7 12 8 7 9 8 10 9 11 11 12
REMARK SMILES IDX 10 13 6 14 1 15 2 16 3 17 90 18 4 19 89 20 5 21 88 22 87 23
REMARK SMILES IDX 20 24 21 25 22 26 23 27 24 28 25 29 86 30 26 31 85 32 27 33
REMARK SMILES IDX 28 34 29 35 79 36 30 37 84 38 78 39 80 40 31 41 83 42 77 43
REMARK SMILES IDX 76 44 32 46 64 47 44 48 63 49 45 50 48 51 62 52 81 53 46 54
REMARK SMILES IDX 47 55 61 57 82 58 49 59 33 60 34 61 42 62 35 63 37 64 43 65
REMARK SMILES IDX 36 66 38 67 39 68 40 69 41 70 65 71 66 72 74 73 67 74 69 75
REMARK SMILES IDX 75 76 68 77 70 78 71 79 72 80 73 81 50 82 51 83 59 84 52 85
REMARK SMILES IDX 54 86 60 87 53 88 55 89 56 90 57 91 58 92
REMARK H PARENT 80 45 48 56
REMARK Flexibility Score: inf
ROOT
ATOM      1  C   UNL A   1      33.490  30.280  26.841  1.00  0.00     0.202 C 
ENDROOT
BRANCH   1   2
ATOM      2  O   UNL A   1      32.502  30.309  25.809  1.00  0.00    -0.374 OA
BRANCH   2   3
ATOM      3  C   UNL A   1      31.644  29.173  25.686  1.00  0.00     0.202 C 
BRANCH   3   4
ATOM      4  C   UNL A   1      31.827  27.987  26.648  1.00  0.00     0.261 C 
BRANCH   4   5
ATOM      5  O   UNL A   1      31.108  26.833  26.224  1.00  0.00    -0.463 OA
BRANCH   5   6
ATOM      6  C   UNL A   1      31.861  26.023  25.433  1.00  0.00     0.309 C 
ATOM      7  O   UNL A   1      33.081  26.026  25.409  1.00  0.00    -0.252 OA
BRANCH   6   8
ATOM      8  C   UNL A   1      30.959  25.152  24.582  1.00  0.00     0.110 C 
ATOM      9  C   UNL A   1      31.702  24.377  23.479  1.00  0.00     0.072 C 
ATOM     10  C   UNL A   1      32.441  25.291  22.506  1.00  0.00     0.012 C 
ATOM     11  C   UNL A   1      31.504  26.389  21.963  1.00  0.00     0.001 C 
ATOM     12  C   UNL A   1      29.918  26.075  23.942  1.00  0.00     0.016 C 
ATOM     13  C   UNL A   1      30.590  27.066  22.993  1.00  0.00     0.001 C 
BRANCH   9  14
ATOM     14  C   UNL A   1      32.395  23.109  23.920  1.00  0.00     0.141 A 
ATOM     15  C   UNL A   1      37.591  21.261  24.893  1.00  0.00     0.044 C 
ATOM     16  C   UNL A   1      36.207  21.664  24.475  1.00  0.00    -0.046 A 
ATOM     17  C   UNL A   1      36.079  22.764  23.521  1.00  0.00     0.022 A 
ATOM     18  C   UNL A   1      35.101  21.080  24.982  1.00  0.00     0.053 A 
ATOM     19  C   UNL A   1      34.861  23.266  23.236  1.00  0.00     0.095 A 
ATOM     20  C   UNL A   1      33.815  21.602  24.668  1.00  0.00     0.161 A 
ATOM     21  N   UNL A   1      33.733  22.733  23.854  1.00  0.00    -0.286 N 
ATOM     22  N   UNL A   1      32.617  21.242  25.061  1.00  0.00    -0.130 NA
ATOM     23  N   UNL A   1      31.735  22.173  24.591  1.00  0.00    -0.134 NA
ENDBRANCH   9  14
ENDBRANCH   6   8
ENDBRANCH   5   6
ENDBRANCH   4   5
ENDBRANCH   3   4
ENDBRANCH   2   3
ENDBRANCH   1   2
BRANCH   1  24
ATOM     24  C   UNL A   1      33.566  31.581  27.640  1.00  0.00     0.261 C 
BRANCH  24  25
ATOM     25  O   UNL A   1      34.929  32.026  27.642  1.00  0.00    -0.460 OA
BRANCH  25  26
ATOM     26  C   UNL A   1      35.479  32.064  28.875  1.00  0.00     0.338 C 
ATOM     27  O   UNL A   1      34.896  32.395  29.901  1.00  0.00    -0.246 OA
BRANCH  26  28
ATOM     28  C   UNL A   1      36.788  31.378  28.823  1.00  0.00     0.060 A 
ATOM     29  C   UNL A   1      36.894  30.052  28.373  1.00  0.00     0.016 A 
ATOM     30  C   UNL A   1      37.866  32.001  29.469  1.00  0.00     0.016 A 
ATOM     31  C   UNL A   1      38.049  29.334  28.656  1.00  0.00     0.010 A 
ATOM     32  C   UNL A   1      39.023  31.277  29.751  1.00  0.00     0.010 A 
ATOM     33  C   UNL A   1      39.100  29.936  29.372  1.00  0.00    -0.014 A 
BRANCH  33  34
ATOM     34  C   UNL A   1      40.361  29.199  29.437  1.00  0.00     0.031 A 
ATOM     35  C   UNL A   1      40.715  28.860  30.843  1.00  0.00     0.074 A 
ATOM     36  C   UNL A   1      41.097  28.701  28.423  1.00  0.00     0.049 A 
ATOM     37  N   UNL A   1      41.713  29.297  31.538  1.00  0.00    -0.248 NA
ATOM     38  C   UNL A   1      39.727  28.082  31.607  1.00  0.00     0.031 C 
ATOM     39  C   UNL A   1      40.786  28.662  26.994  1.00  0.00     0.029 A 
ATOM     40  N   UNL A   1      42.267  27.997  28.505  1.00  0.00    -0.354 N 
ATOM     41  C   UNL A   1      41.585  28.679  32.778  1.00  0.00     0.074 A 
ATOM     42  C   UNL A   1      40.270  28.092  32.821  1.00  0.00     0.031 C 
ATOM     43  C   UNL A   1      41.614  27.776  26.388  1.00  0.00     0.029 A 
ATOM     44  C   UNL A   1      42.579  27.276  27.354  1.00  0.00     0.049 A 
ATOM     45  H   UNL A   1      42.839  28.000  29.306  1.00  0.00     0.167 HD
ATOM     46  C   UNL A   1      42.640  28.485  33.609  1.00  0.00     0.034 A 
ATOM     47  C   UNL A   1      43.513  26.295  27.247  1.00  0.00     0.034 A 
ATOM     48  C   UNL A   1      43.781  29.279  33.263  1.00  0.00     0.049 A 
ATOM     49  C   UNL A   1      44.451  26.464  28.382  1.00  0.00     0.074 A 
ATOM     50  C   UNL A   1      44.030  30.630  33.133  1.00  0.00     0.029 A 
ATOM     51  N   UNL A   1      44.822  28.635  32.642  1.00  0.00    -0.354 N 
ATOM     52  N   UNL A   1      45.301  27.446  28.487  1.00  0.00    -0.248 NA
ATOM     53  C   UNL A   1      44.219  25.699  29.598  1.00  0.00     0.031 C 
ATOM     54  C   UNL A   1      44.949  30.730  32.051  1.00  0.00     0.029 A 
ATOM     55  C   UNL A   1      45.217  29.434  31.605  1.00  0.00     0.049 A 
ATOM     56  H   UNL A   1      45.210  27.767  32.896  1.00  0.00     0.167 HD
ATOM     57  C   UNL A   1      45.384  27.687  29.849  1.00  0.00     0.074 A 
ATOM     58  C   UNL A   1      44.796  26.513  30.485  1.00  0.00     0.031 C 
ATOM     59  C   UNL A   1      45.658  28.935  30.324  1.00  0.00     0.034 A 
BRANCH  46  60
ATOM     60  C   UNL A   1      42.748  27.305  34.529  1.00  0.00     0.023 A 
ATOM     61  C   UNL A   1      42.483  27.498  35.898  1.00  0.00     0.012 A 
ATOM     62  C   UNL A   1      43.352  26.086  34.144  1.00  0.00     0.148 A 
ATOM     63  C   UNL A   1      42.809  26.519  36.842  1.00  0.00     0.002 A 
ATOM     64  C   UNL A   1      43.591  25.084  35.071  1.00  0.00     0.091 A 
ATOM     65  F   UNL A   1      43.826  25.942  32.900  1.00  0.00    -0.205 F 
ATOM     66  C   UNL A   1      43.344  25.303  36.427  1.00  0.00     0.022 A 
BRANCH  64  67
ATOM     67  S   UNL A   1      44.229  23.487  34.558  1.00  0.00     0.127 S 
ATOM     68  O   UNL A   1      43.152  23.004  33.700  1.00  0.00    -0.237 OA
ATOM     69  O   UNL A   1      45.460  23.863  33.862  1.00  0.00    -0.237 OA
ATOM     70  O   UNL A   1      44.448  22.753  35.798  1.00  0.00    -0.744 OA
ENDBRANCH  64  67
ENDBRANCH  46  60
BRANCH  47  71
ATOM     71  C   UNL A   1      43.621  25.111  26.354  1.00  0.00     0.023 A 
ATOM     72  C   UNL A   1      44.712  25.023  25.458  1.00  0.00     0.012 A 
ATOM     73  C   UNL A   1      42.848  23.949  26.561  1.00  0.00     0.148 A 
ATOM     74  C   UNL A   1      45.053  23.815  24.837  1.00  0.00     0.002 A 
ATOM     75  C   UNL A   1      43.184  22.751  25.929  1.00  0.00     0.091 A 
ATOM     76  F   UNL A   1      41.844  23.988  27.446  1.00  0.00    -0.205 F 
ATOM     77  C   UNL A   1      44.295  22.676  25.080  1.00  0.00     0.022 A 
BRANCH  75  78
ATOM     78  S   UNL A   1      42.252  21.236  26.199  1.00  0.00     0.127 S 
ATOM     79  O   UNL A   1      42.947  20.287  25.328  1.00  0.00    -0.237 OA
ATOM     80  O   UNL A   1      42.447  21.010  27.629  1.00  0.00    -0.237 OA
ATOM     81  O   UNL A   1      40.887  21.535  25.784  1.00  0.00    -0.744 OA
ENDBRANCH  75  78
ENDBRANCH  47  71
BRANCH  59  82
ATOM     82  C   UNL A   1      46.156  29.978  29.362  1.00  0.00     0.023 A 
ATOM     83  C   UNL A   1      47.519  30.070  29.013  1.00  0.00     0.012 A 
ATOM     84  C   UNL A   1      45.202  30.692  28.619  1.00  0.00     0.148 A 
ATOM     85  C   UNL A   1      47.921  30.858  27.932  1.00  0.00     0.002 A 
ATOM     86  C   UNL A   1      45.601  31.434  27.517  1.00  0.00     0.091 A 
ATOM     87  F   UNL A   1      43.912  30.575  28.968  1.00  0.00    -0.205 F 
ATOM     88  C   UNL A   1      46.960  31.524  27.173  1.00  0.00     0.022 A 
BRANCH  86  89
ATOM     89  S   UNL A   1      44.416  32.201  26.409  1.00  0.00     0.127 S 
ATOM     90  O   UNL A   1      45.270  32.643  25.307  1.00  0.00    -0.237 OA
ATOM     91  O   UNL A   1      43.532  31.081  26.087  1.00  0.00    -0.237 OA
ATOM     92  O   UNL A   1      43.782  33.272  27.167  1.00  0.00    -0.744 OA
ENDBRANCH  86  89
ENDBRANCH  59  82
ENDBRANCH  33  34
ENDBRANCH  26  28
ENDBRANCH  25  26
ENDBRANCH  24  25
ENDBRANCH   1  24
TORSDOF 18
ENDMDL
MODEL 3
REMARK VINA RESULT:     -10.9      3.153      8.562
REMARK SMILES Cc1ccn2c([C@@H]3CCCC[C@@H]3C(=O)OCCOCCOC(=O)c3ccc(-c4c5nc(c(-c6cccc(S(=O)(=O)[O-])c6F)c6ccc([nH]6)c(-c6cccc(S(=O)(=O)[O-])c6F)c6nc(c(-c7cccc(S(=O)(=O)[O-])c7F)c7ccc4[nH]7)C=C6)C=C5)cc3)nnc2c1
REMARK SMILES IDX 19 1 18 2 17 3 16 4 15 5 13 6 14 7 12 8 7 9 8 10 9 11 11 12
REMARK SMILES IDX 10 13 6 14 1 15 2 16 3 17 90 18 4 19 89 20 5 21 88 22 87 23
REMARK SMILES IDX 20 24 21 25 22 26 23 27 24 28 25 29 86 30 26 31 85 32 27 33
REMARK SMILES IDX 28 34 29 35 79 36 30 37 84 38 78 39 80 40 31 41 83 42 77 43
REMARK SMILES IDX 76 44 32 46 64 47 44 48 63 49 45 50 48 51 62 52 81 53 46 54
REMARK SMILES IDX 47 55 61 57 82 58 49 59 33 60 34 61 42 62 35 63 37 64 43 65
REMARK SMILES IDX 36 66 38 67 39 68 40 69 41 70 65 71 66 72 74 73 67 74 69 75
REMARK SMILES IDX 75 76 68 77 70 78 71 79 72 80 73 81 50 82 51 83 59 84 52 85
REMARK SMILES IDX 54 86 60 87 53 88 55 89 56 90 57 91 58 92
REMARK H PARENT 80 45 48 56
REMARK Flexibility Score: inf
ROOT
ATOM      1  C   UNL A   1      33.475  30.961  27.097  1.00  0.00     0.202 C 
ENDROOT
BRANCH   1   2
ATOM      2  O   UNL A   1      34.315  29.836  27.366  1.00  0.00    -0.374 OA
BRANCH   2   3
ATOM      3  C   UNL A   1      34.175  28.692  26.521  1.00  0.00     0.202 C 
BRANCH   3   4
ATOM      4  C   UNL A   1      33.047  27.685  26.802  1.00  0.00     0.261 C 
BRANCH   4   5
ATOM      5  O   UNL A   1      33.301  26.413  26.214  1.00  0.00    -0.463 OA
BRANCH   5   6
ATOM      6  C   UNL A   1      32.196  25.896  25.614  1.00  0.00     0.309 C 
ATOM      7  O   UNL A   1      31.325  25.270  26.197  1.00  0.00    -0.252 OA
BRANCH   6   8
ATOM      8  C   UNL A   1      32.232  26.191  24.128  1.00  0.00     0.110 C 
ATOM      9  C   UNL A   1      30.954  25.772  23.380  1.00  0.00     0.072 C 
ATOM     10  C   UNL A   1      30.655  24.281  23.503  1.00  0.00     0.012 C 
ATOM     11  C   UNL A   1      31.892  23.439  23.130  1.00  0.00     0.001 C 
ATOM     12  C   UNL A   1      33.432  25.435  23.550  1.00  0.00     0.016 C 
ATOM     13  C   UNL A   1      33.234  23.927  23.690  1.00  0.00     0.001 C 
BRANCH   9  14
ATOM     14  C   UNL A   1      29.792  26.735  23.473  1.00  0.00     0.141 A 
ATOM     15  C   UNL A   1      28.029  31.463  21.046  1.00  0.00     0.044 C 
ATOM     16  C   UNL A   1      28.553  30.300  21.837  1.00  0.00    -0.046 A 
ATOM     17  C   UNL A   1      29.996  30.064  21.821  1.00  0.00     0.022 A 
ATOM     18  C   UNL A   1      27.740  29.460  22.509  1.00  0.00     0.053 A 
ATOM     19  C   UNL A   1      30.498  28.945  22.382  1.00  0.00     0.095 A 
ATOM     20  C   UNL A   1      28.274  28.288  23.114  1.00  0.00     0.161 A 
ATOM     21  N   UNL A   1      29.637  28.024  22.973  1.00  0.00    -0.286 N 
ATOM     22  N   UNL A   1      27.694  27.315  23.774  1.00  0.00    -0.130 NA
ATOM     23  N   UNL A   1      28.637  26.354  24.003  1.00  0.00    -0.134 NA
ENDBRANCH   9  14
ENDBRANCH   6   8
ENDBRANCH   5   6
ENDBRANCH   4   5
ENDBRANCH   3   4
ENDBRANCH   2   3
ENDBRANCH   1   2
BRANCH   1  24
ATOM     24  C   UNL A   1      33.690  32.119  28.071  1.00  0.00     0.261 C 
BRANCH  24  25
ATOM     25  O   UNL A   1      35.084  32.457  28.064  1.00  0.00    -0.460 OA
BRANCH  25  26
ATOM     26  C   UNL A   1      35.659  32.386  29.284  1.00  0.00     0.338 C 
ATOM     27  O   UNL A   1      35.120  32.695  30.341  1.00  0.00    -0.246 OA
BRANCH  26  28
ATOM     28  C   UNL A   1      36.915  31.615  29.163  1.00  0.00     0.060 A 
ATOM     29  C   UNL A   1      36.903  30.260  28.795  1.00  0.00     0.016 A 
ATOM     30  C   UNL A   1      38.083  32.207  29.668  1.00  0.00     0.016 A 
ATOM     31  C   UNL A   1      38.035  29.489  29.022  1.00  0.00     0.010 A 
ATOM     32  C   UNL A   1      39.217  31.430  29.894  1.00  0.00     0.010 A 
ATOM     33  C   UNL A   1      39.181  30.065  29.601  1.00  0.00    -0.014 A 
BRANCH  33  34
ATOM     34  C   UNL A   1      40.398  29.255  29.603  1.00  0.00     0.031 A 
ATOM     35  C   UNL A   1      40.793  28.881  30.989  1.00  0.00     0.074 A 
ATOM     36  C   UNL A   1      41.057  28.725  28.553  1.00  0.00     0.049 A 
ATOM     37  N   UNL A   1      41.845  29.252  31.642  1.00  0.00    -0.248 NA
ATOM     38  C   UNL A   1      39.796  28.154  31.791  1.00  0.00     0.031 C 
ATOM     39  C   UNL A   1      40.681  28.720  27.139  1.00  0.00     0.029 A 
ATOM     40  N   UNL A   1      42.186  27.953  28.576  1.00  0.00    -0.354 N 
ATOM     41  C   UNL A   1      41.736  28.629  32.881  1.00  0.00     0.074 A 
ATOM     42  C   UNL A   1      40.392  28.120  32.979  1.00  0.00     0.031 C 
ATOM     43  C   UNL A   1      41.427  27.793  26.489  1.00  0.00     0.029 A 
ATOM     44  C   UNL A   1      42.403  27.226  27.408  1.00  0.00     0.049 A 
ATOM     45  H   UNL A   1      42.792  27.913  29.351  1.00  0.00     0.167 HD
ATOM     46  C   UNL A   1      42.814  28.365  33.663  1.00  0.00     0.034 A 
ATOM     47  C   UNL A   1      43.271  26.194  27.251  1.00  0.00     0.034 A 
ATOM     48  C   UNL A   1      43.983  29.093  33.272  1.00  0.00     0.049 A 
ATOM     49  C   UNL A   1      44.268  26.295  28.343  1.00  0.00     0.074 A 
ATOM     50  C   UNL A   1      44.305  30.429  33.141  1.00  0.00     0.029 A 
ATOM     51  N   UNL A   1      44.956  28.396  32.600  1.00  0.00    -0.354 N 
ATOM     52  N   UNL A   1      45.178  27.225  28.418  1.00  0.00    -0.248 NA
ATOM     53  C   UNL A   1      44.045  25.532  29.563  1.00  0.00     0.031 C 
ATOM     54  C   UNL A   1      45.180  30.486  32.020  1.00  0.00     0.029 A 
ATOM     55  C   UNL A   1      45.351  29.181  31.552  1.00  0.00     0.049 A 
ATOM     56  H   UNL A   1      45.302  27.504  32.829  1.00  0.00     0.167 HD
ATOM     57  C   UNL A   1      45.335  27.446  29.777  1.00  0.00     0.074 A 
ATOM     58  C   UNL A   1      44.708  26.302  30.430  1.00  0.00     0.031 C 
ATOM     59  C   UNL A   1      45.704  28.670  30.249  1.00  0.00     0.034 A 
BRANCH  46  60
ATOM     60  C   UNL A   1      42.893  27.170  34.567  1.00  0.00     0.023 A 
ATOM     61  C   UNL A   1      42.619  27.350  35.936  1.00  0.00     0.012 A 
ATOM     62  C   UNL A   1      43.478  25.946  34.171  1.00  0.00     0.148 A 
ATOM     63  C   UNL A   1      42.918  26.353  36.870  1.00  0.00     0.002 A 
ATOM     64  C   UNL A   1      43.690  24.928  35.087  1.00  0.00     0.091 A 
ATOM     65  F   UNL A   1      43.960  25.811  32.930  1.00  0.00    -0.205 F 
ATOM     66  C   UNL A   1      43.436  25.134  36.444  1.00  0.00     0.022 A 
BRANCH  64  67
ATOM     67  S   UNL A   1      44.304  23.327  34.558  1.00  0.00     0.127 S 
ATOM     68  O   UNL A   1      43.219  22.867  33.699  1.00  0.00    -0.237 OA
ATOM     69  O   UNL A   1      45.540  23.691  33.863  1.00  0.00    -0.237 OA
ATOM     70  O   UNL A   1      44.517  22.578  35.791  1.00  0.00    -0.744 OA
ENDBRANCH  64  67
ENDBRANCH  46  60
BRANCH  47  71
ATOM     71  C   UNL A   1      43.269  25.015  26.345  1.00  0.00     0.023 A 
ATOM     72  C   UNL A   1      44.219  24.950  25.299  1.00  0.00     0.012 A 
ATOM     73  C   UNL A   1      42.556  23.837  26.656  1.00  0.00     0.148 A 
ATOM     74  C   UNL A   1      44.487  23.751  24.627  1.00  0.00     0.002 A 
ATOM     75  C   UNL A   1      42.817  22.648  25.974  1.00  0.00     0.091 A 
ATOM     76  F   UNL A   1      41.691  23.855  27.678  1.00  0.00    -0.205 F 
ATOM     77  C   UNL A   1      43.794  22.597  24.971  1.00  0.00     0.022 A 
BRANCH  75  78
ATOM     78  S   UNL A   1      41.963  21.115  26.368  1.00  0.00     0.127 S 
ATOM     79  O   UNL A   1      40.566  21.464  26.110  1.00  0.00    -0.237 OA
ATOM     80  O   UNL A   1      42.549  20.184  25.407  1.00  0.00    -0.237 OA
ATOM     81  O   UNL A   1      42.260  20.850  27.771  1.00  0.00    -0.744 OA
ENDBRANCH  75  78
ENDBRANCH  47  71
BRANCH  59  82
ATOM     82  C   UNL A   1      46.220  29.692  29.274  1.00  0.00     0.023 A 
ATOM     83  C   UNL A   1      47.558  29.682  28.832  1.00  0.00     0.012 A 
ATOM     84  C   UNL A   1      45.279  30.499  28.612  1.00  0.00     0.148 A 
ATOM     85  C   UNL A   1      47.949  30.460  27.740  1.00  0.00     0.002 A 
ATOM     86  C   UNL A   1      45.662  31.232  27.498  1.00  0.00     0.091 A 
ATOM     87  F   UNL A   1      44.011  30.478  29.048  1.00  0.00    -0.205 F 
ATOM     88  C   UNL A   1      46.997  31.220  27.062  1.00  0.00     0.022 A 
BRANCH  86  89
ATOM     89  S   UNL A   1      44.472  32.119  26.490  1.00  0.00     0.127 S 
ATOM     90  O   UNL A   1      44.033  33.179  27.397  1.00  0.00    -0.237 OA
ATOM     91  O   UNL A   1      45.299  32.574  25.372  1.00  0.00    -0.237 OA
ATOM     92  O   UNL A   1      43.443  31.152  26.126  1.00  0.00    -0.744 OA
ENDBRANCH  86  89
ENDBRANCH  59  82
ENDBRANCH  33  34
ENDBRANCH  26  28
ENDBRANCH  25  26
ENDBRANCH  24  25
ENDBRANCH   1  24
TORSDOF 18
ENDMDL
