MODEL 1
REMARK VINA RESULT:     -11.0      0.000      0.000
REMARK SMILES Cc1nc(=O)[nH]c(C)c1CC(=O)N1CC[C@H](C(=O)OCCOCCOC(=O)c2ccc(-c3c4nc(c(-c5cccc(S(=O)(=O)[O-])c5F)c5ccc([nH]5)c(-c5cccc(S(=O)(=O)[O-])c5F)c5nc(c(-c6cccc(S(=O)(=O)[O-])c6F)c6ccc3[nH]6)C=C5)C=C4)cc2)[C@@H]1C
REMARK SMILES IDX 22 1 21 2 20 3 19 4 17 5 18 6 16 7 13 8 14 9 91 10 15 11
REMARK SMILES IDX 92 12 11 13 12 14 10 15 9 16 1 17 2 18 3 19 4 20 7 21 5 22
REMARK SMILES IDX 6 23 8 24 23 26 24 27 25 28 26 29 27 30 28 31 29 32 90 33
REMARK SMILES IDX 30 34 89 35 31 36 32 37 33 38 83 39 34 40 88 41 82 42 84 43
REMARK SMILES IDX 35 44 87 45 81 46 80 47 36 49 68 50 48 51 67 52 49 53 52 54
REMARK SMILES IDX 66 55 85 56 50 57 51 58 65 60 86 61 53 62 37 63 38 64 46 65
REMARK SMILES IDX 39 66 41 67 47 68 40 69 42 70 43 71 44 72 45 73 69 74 70 75
REMARK SMILES IDX 78 76 71 77 73 78 79 79 72 80 74 81 75 82 76 83 77 84 54 85
REMARK SMILES IDX 55 86 63 87 56 88 58 89 64 90 57 91 59 92 60 93 61 94 62 95
REMARK H PARENT 6 25 84 48 52 59
REMARK Flexibility Score: inf
ROOT
ATOM      1  O   UNL A   1      32.583  28.581  24.815  1.00  0.00    -0.374 OA
ENDROOT
BRANCH   1   2
ATOM      2  C   UNL A   1      33.428  28.930  23.717  1.00  0.00     0.202 C 
BRANCH   2   3
ATOM      3  C   UNL A   1      33.137  28.218  22.393  1.00  0.00     0.261 C 
BRANCH   3   4
ATOM      4  O   UNL A   1      32.430  26.987  22.629  1.00  0.00    -0.463 OA
BRANCH   4   5
ATOM      5  C   UNL A   1      32.929  25.845  22.109  1.00  0.00     0.311 C 
ATOM      6  O   UNL A   1      33.278  25.710  20.942  1.00  0.00    -0.252 OA
BRANCH   5   7
ATOM      7  C   UNL A   1      33.152  24.756  23.145  1.00  0.00     0.123 C 
ATOM      8  N   UNL A   1      32.122  23.655  24.987  1.00  0.00    -0.339 N 
ATOM      9  C   UNL A   1      32.637  24.902  25.512  1.00  0.00     0.121 C 
ATOM     10  C   UNL A   1      32.032  23.761  23.524  1.00  0.00     0.096 C 
ATOM     11  C   UNL A   1      33.683  25.298  24.485  1.00  0.00     0.039 C 
ATOM     12  C   UNL A   1      30.600  24.112  23.127  1.00  0.00     0.032 C 
BRANCH   8  13
ATOM     13  C   UNL A   1      31.642  22.691  25.847  1.00  0.00     0.227 C 
ATOM     14  O   UNL A   1      30.422  22.603  26.047  1.00  0.00    -0.275 OA
BRANCH  13  15
ATOM     15  C   UNL A   1      32.571  21.855  26.749  1.00  0.00     0.139 C 
BRANCH  15  16
ATOM     16  C   UNL A   1      33.865  21.321  26.224  1.00  0.00     0.002 A 
ATOM     17  C   UNL A   1      35.234  23.333  27.235  1.00  0.00     0.067 C 
ATOM     18  C   UNL A   1      35.151  22.081  26.379  1.00  0.00     0.049 A 
ATOM     19  N   UNL A   1      36.259  21.776  25.786  1.00  0.00    -0.198 NA
ATOM     20  C   UNL A   1      36.310  20.658  25.000  1.00  0.00     0.345 A 
ATOM     21  C   UNL A   1      34.007  20.147  25.574  1.00  0.00     0.022 A 
ATOM     22  O   UNL A   1      37.289  20.412  24.301  1.00  0.00    -0.246 OA
ATOM     23  N   UNL A   1      35.216  19.837  24.998  1.00  0.00    -0.310 N 
ATOM     24  C   UNL A   1      32.905  19.157  25.300  1.00  0.00     0.065 C 
ATOM     25  H   UNL A   1      35.300  18.962  24.552  1.00  0.00     0.171 HD
ENDBRANCH  15  16
ENDBRANCH  13  15
ENDBRANCH   8  13
ENDBRANCH   5   7
ENDBRANCH   4   5
ENDBRANCH   3   4
ENDBRANCH   2   3
ENDBRANCH   1   2
BRANCH   1  26
ATOM     26  C   UNL A   1      31.401  29.360  24.976  1.00  0.00     0.202 C 
BRANCH  26  27
ATOM     27  C   UNL A   1      31.538  30.674  25.751  1.00  0.00     0.261 C 
BRANCH  27  28
ATOM     28  O   UNL A   1      32.427  30.545  26.874  1.00  0.00    -0.460 OA
BRANCH  28  29
ATOM     29  C   UNL A   1      33.070  31.689  27.212  1.00  0.00     0.338 C 
ATOM     30  O   UNL A   1      32.597  32.812  27.261  1.00  0.00    -0.246 OA
BRANCH  29  31
ATOM     31  C   UNL A   1      34.423  31.376  27.706  1.00  0.00     0.060 A 
ATOM     32  C   UNL A   1      34.698  30.040  28.026  1.00  0.00     0.016 A 
ATOM     33  C   UNL A   1      35.375  32.372  27.928  1.00  0.00     0.016 A 
ATOM     34  C   UNL A   1      35.918  29.699  28.603  1.00  0.00     0.010 A 
ATOM     35  C   UNL A   1      36.595  32.026  28.518  1.00  0.00     0.010 A 
ATOM     36  C   UNL A   1      36.862  30.694  28.883  1.00  0.00    -0.014 A 
BRANCH  36  37
ATOM     37  C   UNL A   1      38.096  30.355  29.631  1.00  0.00     0.031 A 
ATOM     38  C   UNL A   1      39.068  29.368  29.049  1.00  0.00     0.074 A 
ATOM     39  C   UNL A   1      38.331  30.908  30.835  1.00  0.00     0.049 A 
ATOM     40  N   UNL A   1      40.152  28.866  29.580  1.00  0.00    -0.248 NA
ATOM     41  C   UNL A   1      38.780  28.877  27.691  1.00  0.00     0.031 C 
ATOM     42  C   UNL A   1      37.467  31.884  31.497  1.00  0.00     0.029 A 
ATOM     43  N   UNL A   1      39.349  30.694  31.732  1.00  0.00    -0.354 N 
ATOM     44  C   UNL A   1      40.654  27.970  28.645  1.00  0.00     0.074 A 
ATOM     45  C   UNL A   1      39.761  28.003  27.507  1.00  0.00     0.031 C 
ATOM     46  C   UNL A   1      37.964  32.148  32.717  1.00  0.00     0.029 A 
ATOM     47  C   UNL A   1      39.155  31.330  32.935  1.00  0.00     0.049 A 
ATOM     48  H   UNL A   1      40.138  30.140  31.533  1.00  0.00     0.167 HD
ATOM     49  C   UNL A   1      41.758  27.191  28.729  1.00  0.00     0.034 A 
ATOM     50  C   UNL A   1      39.831  31.226  34.097  1.00  0.00     0.034 A 
ATOM     51  C   UNL A   1      42.654  27.178  29.855  1.00  0.00     0.049 A 
ATOM     52  C   UNL A   1      41.041  30.332  34.169  1.00  0.00     0.074 A 
ATOM     53  C   UNL A   1      43.838  26.475  29.999  1.00  0.00     0.029 A 
ATOM     54  N   UNL A   1      42.458  27.875  31.035  1.00  0.00    -0.354 N 
ATOM     55  N   UNL A   1      41.576  29.589  33.231  1.00  0.00    -0.248 NA
ATOM     56  C   UNL A   1      41.758  30.283  35.452  1.00  0.00     0.031 C 
ATOM     57  C   UNL A   1      44.331  26.708  31.286  1.00  0.00     0.029 A 
ATOM     58  C   UNL A   1      43.480  27.596  31.925  1.00  0.00     0.049 A 
ATOM     59  H   UNL A   1      41.701  28.480  31.215  1.00  0.00     0.167 HD
ATOM     60  C   UNL A   1      42.707  29.012  33.801  1.00  0.00     0.074 A 
ATOM     61  C   UNL A   1      42.795  29.513  35.156  1.00  0.00     0.031 C 
ATOM     62  C   UNL A   1      43.585  28.134  33.256  1.00  0.00     0.034 A 
BRANCH  49  63
ATOM     63  C   UNL A   1      42.073  26.274  27.578  1.00  0.00     0.023 A 
ATOM     64  C   UNL A   1      42.883  26.724  26.517  1.00  0.00     0.012 A 
ATOM     65  C   UNL A   1      41.650  24.930  27.606  1.00  0.00     0.148 A 
ATOM     66  C   UNL A   1      43.254  25.854  25.493  1.00  0.00     0.002 A 
ATOM     67  C   UNL A   1      42.063  24.058  26.608  1.00  0.00     0.091 A 
ATOM     68  F   UNL A   1      40.865  24.530  28.616  1.00  0.00    -0.205 F 
ATOM     69  C   UNL A   1      42.856  24.520  25.545  1.00  0.00     0.022 A 
BRANCH  67  70
ATOM     70  S   UNL A   1      41.674  22.305  26.629  1.00  0.00     0.127 S 
ATOM     71  O   UNL A   1      40.212  22.326  26.636  1.00  0.00    -0.237 OA
ATOM     72  O   UNL A   1      42.272  21.845  25.376  1.00  0.00    -0.237 OA
ATOM     73  O   UNL A   1      42.291  21.768  27.835  1.00  0.00    -0.744 OA
ENDBRANCH  67  70
ENDBRANCH  49  63
BRANCH  50  74
ATOM     74  C   UNL A   1      39.363  31.970  35.300  1.00  0.00     0.023 A 
ATOM     75  C   UNL A   1      38.497  31.350  36.219  1.00  0.00     0.012 A 
ATOM     76  C   UNL A   1      39.772  33.299  35.529  1.00  0.00     0.148 A 
ATOM     77  C   UNL A   1      38.011  32.054  37.321  1.00  0.00     0.002 A 
ATOM     78  C   UNL A   1      39.339  33.972  36.664  1.00  0.00     0.091 A 
ATOM     79  F   UNL A   1      40.577  33.886  34.633  1.00  0.00    -0.205 F 
ATOM     80  C   UNL A   1      38.439  33.360  37.550  1.00  0.00     0.022 A 
BRANCH  78  81
ATOM     81  S   UNL A   1      39.980  35.596  37.090  1.00  0.00     0.127 S 
ATOM     82  O   UNL A   1      39.274  35.878  38.336  1.00  0.00    -0.237 OA
ATOM     83  O   UNL A   1      41.411  35.332  37.239  1.00  0.00    -0.237 OA
ATOM     84  O   UNL A   1      39.653  36.454  35.955  1.00  0.00    -0.744 OA
ENDBRANCH  78  81
ENDBRANCH  50  74
BRANCH  62  85
ATOM     85  C   UNL A   1      44.745  27.681  34.107  1.00  0.00     0.023 A 
ATOM     86  C   UNL A   1      45.961  28.393  34.080  1.00  0.00     0.012 A 
ATOM     87  C   UNL A   1      44.604  26.588  34.986  1.00  0.00     0.148 A 
ATOM     88  C   UNL A   1      47.029  28.002  34.886  1.00  0.00     0.002 A 
ATOM     89  C   UNL A   1      45.654  26.238  35.825  1.00  0.00     0.091 A 
ATOM     90  F   UNL A   1      43.444  25.915  34.988  1.00  0.00    -0.205 F 
ATOM     91  C   UNL A   1      46.872  26.933  35.765  1.00  0.00     0.022 A 
BRANCH  89  92
ATOM     92  S   UNL A   1      45.513  24.939  37.058  1.00  0.00     0.127 S 
ATOM     93  O   UNL A   1      46.538  23.996  36.616  1.00  0.00    -0.237 OA
ATOM     94  O   UNL A   1      45.833  25.653  38.295  1.00  0.00    -0.237 OA
ATOM     95  O   UNL A   1      44.143  24.453  36.978  1.00  0.00    -0.744 OA
ENDBRANCH  89  92
ENDBRANCH  62  85
ENDBRANCH  36  37
ENDBRANCH  29  31
ENDBRANCH  28  29
ENDBRANCH  27  28
ENDBRANCH  26  27
ENDBRANCH   1  26
TORSDOF 20
ENDMDL
MODEL 2
REMARK VINA RESULT:     -11.0      0.563      7.676
REMARK SMILES Cc1nc(=O)[nH]c(C)c1CC(=O)N1CC[C@H](C(=O)OCCOCCOC(=O)c2ccc(-c3c4nc(c(-c5cccc(S(=O)(=O)[O-])c5F)c5ccc([nH]5)c(-c5cccc(S(=O)(=O)[O-])c5F)c5nc(c(-c6cccc(S(=O)(=O)[O-])c6F)c6ccc3[nH]6)C=C5)C=C4)cc2)[C@@H]1C
REMARK SMILES IDX 22 1 21 2 20 3 19 4 17 5 18 6 16 7 13 8 14 9 91 10 15 11
REMARK SMILES IDX 92 12 11 13 12 14 10 15 9 16 1 17 2 18 3 19 4 20 7 21 5 22
REMARK SMILES IDX 6 23 8 24 23 26 24 27 25 28 26 29 27 30 28 31 29 32 90 33
REMARK SMILES IDX 30 34 89 35 31 36 32 37 33 38 83 39 34 40 88 41 82 42 84 43
REMARK SMILES IDX 35 44 87 45 81 46 80 47 36 49 68 50 48 51 67 52 49 53 52 54
REMARK SMILES IDX 66 55 85 56 50 57 51 58 65 60 86 61 53 62 37 63 38 64 46 65
REMARK SMILES IDX 39 66 41 67 47 68 40 69 42 70 43 71 44 72 45 73 69 74 70 75
REMARK SMILES IDX 78 76 71 77 73 78 79 79 72 80 74 81 75 82 76 83 77 84 54 85
REMARK SMILES IDX 55 86 63 87 56 88 58 89 64 90 57 91 59 92 60 93 61 94 62 95
REMARK H PARENT 6 25 84 48 52 59
REMARK Flexibility Score: inf
ROOT
ATOM      1  O   UNL A   1      32.562  28.670  24.893  1.00  0.00    -0.374 OA
ENDROOT
BRANCH   1   2
ATOM      2  C   UNL A   1      33.374  28.974  23.757  1.00  0.00     0.202 C 
BRANCH   2   3
ATOM      3  C   UNL A   1      32.888  28.416  22.416  1.00  0.00     0.261 C 
BRANCH   3   4
ATOM      4  O   UNL A   1      32.327  27.102  22.592  1.00  0.00    -0.463 OA
BRANCH   4   5
ATOM      5  C   UNL A   1      32.935  26.055  21.995  1.00  0.00     0.311 C 
ATOM      6  O   UNL A   1      33.242  26.017  20.809  1.00  0.00    -0.252 OA
BRANCH   5   7
ATOM      7  C   UNL A   1      33.336  24.955  22.964  1.00  0.00     0.123 C 
ATOM      8  N   UNL A   1      32.562  23.709  24.839  1.00  0.00    -0.339 N 
ATOM      9  C   UNL A   1      33.014  24.978  25.370  1.00  0.00     0.121 C 
ATOM     10  C   UNL A   1      32.339  23.855  23.394  1.00  0.00     0.096 C 
ATOM     11  C   UNL A   1      33.932  25.497  24.277  1.00  0.00     0.039 C 
ATOM     12  C   UNL A   1      30.855  24.094  23.130  1.00  0.00     0.032 C 
BRANCH   8  13
ATOM     13  C   UNL A   1      32.239  22.679  25.696  1.00  0.00     0.227 C 
ATOM     14  O   UNL A   1      31.050  22.445  25.949  1.00  0.00    -0.275 OA
BRANCH  13  15
ATOM     15  C   UNL A   1      33.303  21.940  26.534  1.00  0.00     0.139 C 
BRANCH  15  16
ATOM     16  C   UNL A   1      34.544  21.409  25.892  1.00  0.00     0.002 A 
ATOM     17  C   UNL A   1      33.288  19.291  24.955  1.00  0.00     0.067 C 
ATOM     18  C   UNL A   1      34.565  20.077  25.200  1.00  0.00     0.049 A 
ATOM     19  N   UNL A   1      35.637  19.475  24.799  1.00  0.00    -0.198 NA
ATOM     20  C   UNL A   1      36.847  20.094  24.952  1.00  0.00     0.345 A 
ATOM     21  C   UNL A   1      35.734  22.045  25.875  1.00  0.00     0.022 A 
ATOM     22  O   UNL A   1      37.900  19.504  24.727  1.00  0.00    -0.246 OA
ATOM     23  N   UNL A   1      36.843  21.389  25.395  1.00  0.00    -0.310 N 
ATOM     24  C   UNL A   1      36.011  23.407  26.456  1.00  0.00     0.065 C 
ATOM     25  H   UNL A   1      37.693  21.885  25.369  1.00  0.00     0.171 HD
ENDBRANCH  15  16
ENDBRANCH  13  15
ENDBRANCH   8  13
ENDBRANCH   5   7
ENDBRANCH   4   5
ENDBRANCH   3   4
ENDBRANCH   2   3
ENDBRANCH   1   2
BRANCH   1  26
ATOM     26  C   UNL A   1      31.390  29.462  25.063  1.00  0.00     0.202 C 
BRANCH  26  27
ATOM     27  C   UNL A   1      31.561  30.808  25.773  1.00  0.00     0.261 C 
BRANCH  27  28
ATOM     28  O   UNL A   1      32.307  30.681  26.995  1.00  0.00    -0.460 OA
BRANCH  28  29
ATOM     29  C   UNL A   1      33.070  31.758  27.301  1.00  0.00     0.338 C 
ATOM     30  O   UNL A   1      32.723  32.928  27.304  1.00  0.00    -0.246 OA
BRANCH  29  31
ATOM     31  C   UNL A   1      34.375  31.316  27.824  1.00  0.00     0.060 A 
ATOM     32  C   UNL A   1      34.577  29.938  27.967  1.00  0.00     0.016 A 
ATOM     33  C   UNL A   1      35.349  32.226  28.238  1.00  0.00     0.016 A 
ATOM     34  C   UNL A   1      35.744  29.462  28.559  1.00  0.00     0.010 A 
ATOM     35  C   UNL A   1      36.514  31.745  28.843  1.00  0.00     0.010 A 
ATOM     36  C   UNL A   1      36.706  30.363  29.031  1.00  0.00    -0.014 A 
BRANCH  36  37
ATOM     37  C   UNL A   1      37.875  29.866  29.794  1.00  0.00     0.031 A 
ATOM     38  C   UNL A   1      38.118  30.371  31.189  1.00  0.00     0.074 A 
ATOM     39  C   UNL A   1      38.727  28.989  29.232  1.00  0.00     0.049 A 
ATOM     40  N   UNL A   1      39.127  30.136  31.987  1.00  0.00    -0.248 NA
ATOM     41  C   UNL A   1      37.093  31.260  31.760  1.00  0.00     0.031 C 
ATOM     42  C   UNL A   1      38.591  28.422  27.892  1.00  0.00     0.029 A 
ATOM     43  N   UNL A   1      39.899  28.455  29.709  1.00  0.00    -0.354 N 
ATOM     44  C   UNL A   1      38.883  30.879  33.135  1.00  0.00     0.074 A 
ATOM     45  C   UNL A   1      37.626  31.566  32.936  1.00  0.00     0.031 C 
ATOM     46  C   UNL A   1      39.664  27.657  27.632  1.00  0.00     0.029 A 
ATOM     47  C   UNL A   1      40.579  27.714  28.770  1.00  0.00     0.049 A 
ATOM     48  H   UNL A   1      40.221  28.588  30.629  1.00  0.00     0.167 HD
ATOM     49  C   UNL A   1      39.641  30.979  34.253  1.00  0.00     0.034 A 
ATOM     50  C   UNL A   1      41.818  27.187  28.805  1.00  0.00     0.034 A 
ATOM     51  C   UNL A   1      40.881  30.277  34.455  1.00  0.00     0.049 A 
ATOM     52  C   UNL A   1      42.650  27.335  30.053  1.00  0.00     0.074 A 
ATOM     53  C   UNL A   1      41.681  30.260  35.584  1.00  0.00     0.029 A 
ATOM     54  N   UNL A   1      41.514  29.493  33.505  1.00  0.00    -0.354 N 
ATOM     55  N   UNL A   1      42.348  27.934  31.179  1.00  0.00    -0.248 NA
ATOM     56  C   UNL A   1      43.981  26.711  30.045  1.00  0.00     0.031 C 
ATOM     57  C   UNL A   1      42.824  29.507  35.299  1.00  0.00     0.029 A 
ATOM     58  C   UNL A   1      42.710  29.013  34.009  1.00  0.00     0.049 A 
ATOM     59  H   UNL A   1      41.165  29.306  32.603  1.00  0.00     0.167 HD
ATOM     60  C   UNL A   1      43.437  27.731  32.022  1.00  0.00     0.074 A 
ATOM     61  C   UNL A   1      44.392  26.931  31.286  1.00  0.00     0.031 C 
ATOM     62  C   UNL A   1      43.634  28.179  33.286  1.00  0.00     0.034 A 
BRANCH  49  63
ATOM     63  C   UNL A   1      39.165  31.883  35.358  1.00  0.00     0.023 A 
ATOM     64  C   UNL A   1      38.313  31.384  36.362  1.00  0.00     0.012 A 
ATOM     65  C   UNL A   1      39.653  33.202  35.455  1.00  0.00     0.148 A 
ATOM     66  C   UNL A   1      37.941  32.188  37.438  1.00  0.00     0.002 A 
ATOM     67  C   UNL A   1      39.315  33.981  36.553  1.00  0.00     0.091 A 
ATOM     68  F   UNL A   1      40.446  33.660  34.477  1.00  0.00    -0.205 F 
ATOM     69  C   UNL A   1      38.452  33.481  37.541  1.00  0.00     0.022 A 
BRANCH  67  70
ATOM     70  S   UNL A   1      39.988  35.625  36.819  1.00  0.00     0.127 S 
ATOM     71  O   UNL A   1      39.334  36.013  38.069  1.00  0.00    -0.237 OA
ATOM     72  O   UNL A   1      41.420  35.353  36.938  1.00  0.00    -0.237 OA
ATOM     73  O   UNL A   1      39.609  36.412  35.653  1.00  0.00    -0.744 OA
ENDBRANCH  67  70
ENDBRANCH  49  63
BRANCH  50  74
ATOM     74  C   UNL A   1      42.365  26.489  27.607  1.00  0.00     0.023 A 
ATOM     75  C   UNL A   1      43.161  27.191  26.684  1.00  0.00     0.012 A 
ATOM     76  C   UNL A   1      42.088  25.126  27.379  1.00  0.00     0.148 A 
ATOM     77  C   UNL A   1      43.634  26.562  25.532  1.00  0.00     0.002 A 
ATOM     78  C   UNL A   1      42.618  24.487  26.266  1.00  0.00     0.091 A 
ATOM     79  F   UNL A   1      41.308  24.475  28.253  1.00  0.00    -0.205 F 
ATOM     80  C   UNL A   1      43.372  25.209  25.328  1.00  0.00     0.022 A 
BRANCH  78  81
ATOM     81  S   UNL A   1      42.445  22.714  26.033  1.00  0.00     0.127 S 
ATOM     82  O   UNL A   1      40.995  22.559  25.978  1.00  0.00    -0.237 OA
ATOM     83  O   UNL A   1      43.137  22.503  24.762  1.00  0.00    -0.237 OA
ATOM     84  O   UNL A   1      43.115  22.103  27.179  1.00  0.00    -0.744 OA
ENDBRANCH  78  81
ENDBRANCH  50  74
BRANCH  62  85
ATOM     85  C   UNL A   1      44.915  27.788  33.978  1.00  0.00     0.023 A 
ATOM     86  C   UNL A   1      46.039  28.637  33.918  1.00  0.00     0.012 A 
ATOM     87  C   UNL A   1      44.982  26.608  34.746  1.00  0.00     0.148 A 
ATOM     88  C   UNL A   1      47.219  28.300  34.580  1.00  0.00     0.002 A 
ATOM     89  C   UNL A   1      46.142  26.306  35.448  1.00  0.00     0.091 A 
ATOM     90  F   UNL A   1      43.907  25.806  34.781  1.00  0.00    -0.205 F 
ATOM     91  C   UNL A   1      47.266  27.142  35.353  1.00  0.00     0.022 A 
BRANCH  89  92
ATOM     92  S   UNL A   1      46.265  24.890  36.546  1.00  0.00     0.127 S 
ATOM     93  O   UNL A   1      47.650  24.989  37.006  1.00  0.00    -0.237 OA
ATOM     94  O   UNL A   1      45.260  25.201  37.564  1.00  0.00    -0.237 OA
ATOM     95  O   UNL A   1      45.962  23.720  35.733  1.00  0.00    -0.744 OA
ENDBRANCH  89  92
ENDBRANCH  62  85
ENDBRANCH  36  37
ENDBRANCH  29  31
ENDBRANCH  28  29
ENDBRANCH  27  28
ENDBRANCH  26  27
ENDBRANCH   1  26
TORSDOF 20
ENDMDL
MODEL 3
REMARK VINA RESULT:     -10.7      1.966      2.760
REMARK SMILES Cc1nc(=O)[nH]c(C)c1CC(=O)N1CC[C@H](C(=O)OCCOCCOC(=O)c2ccc(-c3c4nc(c(-c5cccc(S(=O)(=O)[O-])c5F)c5ccc([nH]5)c(-c5cccc(S(=O)(=O)[O-])c5F)c5nc(c(-c6cccc(S(=O)(=O)[O-])c6F)c6ccc3[nH]6)C=C5)C=C4)cc2)[C@@H]1C
REMARK SMILES IDX 22 1 21 2 20 3 19 4 17 5 18 6 16 7 13 8 14 9 91 10 15 11
REMARK SMILES IDX 92 12 11 13 12 14 10 15 9 16 1 17 2 18 3 19 4 20 7 21 5 22
REMARK SMILES IDX 6 23 8 24 23 26 24 27 25 28 26 29 27 30 28 31 29 32 90 33
REMARK SMILES IDX 30 34 89 35 31 36 32 37 33 38 83 39 34 40 88 41 82 42 84 43
REMARK SMILES IDX 35 44 87 45 81 46 80 47 36 49 68 50 48 51 67 52 49 53 52 54
REMARK SMILES IDX 66 55 85 56 50 57 51 58 65 60 86 61 53 62 37 63 38 64 46 65
REMARK SMILES IDX 39 66 41 67 47 68 40 69 42 70 43 71 44 72 45 73 69 74 70 75
REMARK SMILES IDX 78 76 71 77 73 78 79 79 72 80 74 81 75 82 76 83 77 84 54 85
REMARK SMILES IDX 55 86 63 87 56 88 58 89 64 90 57 91 59 92 60 93 61 94 62 95
REMARK H PARENT 6 25 84 48 52 59
REMARK Flexibility Score: inf
ROOT
ATOM      1  O   UNL A   1      33.155  30.246  26.063  1.00  0.00    -0.374 OA
ENDROOT
BRANCH   1   2
ATOM      2  C   UNL A   1      32.305  29.226  25.537  1.00  0.00     0.202 C 
BRANCH   2   3
ATOM      3  C   UNL A   1      31.312  29.670  24.458  1.00  0.00     0.261 C 
BRANCH   3   4
ATOM      4  O   UNL A   1      31.728  29.193  23.165  1.00  0.00    -0.463 OA
BRANCH   4   5
ATOM      5  C   UNL A   1      31.010  28.213  22.576  1.00  0.00     0.311 C 
ATOM      6  O   UNL A   1      29.961  28.393  21.968  1.00  0.00    -0.252 OA
BRANCH   5   7
ATOM      7  C   UNL A   1      31.693  26.856  22.616  1.00  0.00     0.123 C 
ATOM      8  N   UNL A   1      32.545  25.208  24.107  1.00  0.00    -0.339 N 
ATOM      9  C   UNL A   1      33.564  26.234  24.030  1.00  0.00     0.121 C 
ATOM     10  C   UNL A   1      31.273  25.771  23.633  1.00  0.00     0.096 C 
ATOM     11  C   UNL A   1      33.225  26.955  22.737  1.00  0.00     0.039 C 
ATOM     12  C   UNL A   1      30.430  26.203  24.831  1.00  0.00     0.032 C 
BRANCH   8  13
ATOM     13  C   UNL A   1      32.817  24.012  24.736  1.00  0.00     0.227 C 
ATOM     14  O   UNL A   1      32.532  23.873  25.933  1.00  0.00    -0.275 OA
BRANCH  13  15
ATOM     15  C   UNL A   1      33.667  22.909  24.075  1.00  0.00     0.139 C 
BRANCH  15  16
ATOM     16  C   UNL A   1      33.489  21.475  24.460  1.00  0.00     0.002 A 
ATOM     17  C   UNL A   1      31.907  21.004  22.406  1.00  0.00     0.067 C 
ATOM     18  C   UNL A   1      32.562  20.566  23.704  1.00  0.00     0.049 A 
ATOM     19  N   UNL A   1      32.215  19.383  24.095  1.00  0.00    -0.198 NA
ATOM     20  C   UNL A   1      32.754  18.875  25.244  1.00  0.00     0.345 A 
ATOM     21  C   UNL A   1      34.113  20.872  25.492  1.00  0.00     0.022 A 
ATOM     22  O   UNL A   1      32.344  17.826  25.733  1.00  0.00    -0.246 OA
ATOM     23  N   UNL A   1      33.750  19.594  25.847  1.00  0.00    -0.310 N 
ATOM     24  C   UNL A   1      35.122  21.517  26.406  1.00  0.00     0.065 C 
ATOM     25  H   UNL A   1      34.239  19.168  26.588  1.00  0.00     0.171 HD
ENDBRANCH  15  16
ENDBRANCH  13  15
ENDBRANCH   8  13
ENDBRANCH   5   7
ENDBRANCH   4   5
ENDBRANCH   3   4
ENDBRANCH   2   3
ENDBRANCH   1   2
BRANCH   1  26
ATOM     26  C   UNL A   1      32.653  30.973  27.180  1.00  0.00     0.202 C 
BRANCH  26  27
ATOM     27  C   UNL A   1      32.271  32.437  26.940  1.00  0.00     0.261 C 
BRANCH  27  28
ATOM     28  O   UNL A   1      32.271  33.199  28.159  1.00  0.00    -0.460 OA
BRANCH  28  29
ATOM     29  C   UNL A   1      33.226  34.160  28.218  1.00  0.00     0.338 C 
ATOM     30  O   UNL A   1      33.143  35.306  27.810  1.00  0.00    -0.246 OA
BRANCH  29  31
ATOM     31  C   UNL A   1      34.363  33.686  29.028  1.00  0.00     0.060 A 
ATOM     32  C   UNL A   1      35.629  34.205  28.726  1.00  0.00     0.016 A 
ATOM     33  C   UNL A   1      34.211  32.702  30.006  1.00  0.00     0.016 A 
ATOM     34  C   UNL A   1      36.757  33.715  29.379  1.00  0.00     0.010 A 
ATOM     35  C   UNL A   1      35.348  32.205  30.652  1.00  0.00     0.010 A 
ATOM     36  C   UNL A   1      36.628  32.689  30.323  1.00  0.00    -0.014 A 
BRANCH  36  37
ATOM     37  C   UNL A   1      37.838  32.064  30.907  1.00  0.00     0.031 A 
ATOM     38  C   UNL A   1      38.563  30.993  30.140  1.00  0.00     0.074 A 
ATOM     39  C   UNL A   1      38.270  32.435  32.126  1.00  0.00     0.049 A 
ATOM     40  N   UNL A   1      39.579  30.259  30.510  1.00  0.00    -0.248 NA
ATOM     41  C   UNL A   1      38.077  30.709  28.779  1.00  0.00     0.031 C 
ATOM     42  C   UNL A   1      37.657  33.467  32.960  1.00  0.00     0.029 A 
ATOM     43  N   UNL A   1      39.304  31.953  32.890  1.00  0.00    -0.354 N 
ATOM     44  C   UNL A   1      39.829  29.397  29.450  1.00  0.00     0.074 A 
ATOM     45  C   UNL A   1      38.865  29.705  28.416  1.00  0.00     0.031 C 
ATOM     46  C   UNL A   1      38.294  33.508  34.142  1.00  0.00     0.029 A 
ATOM     47  C   UNL A   1      39.331  32.478  34.161  1.00  0.00     0.049 A 
ATOM     48  H   UNL A   1      39.960  31.296  32.562  1.00  0.00     0.167 HD
ATOM     49  C   UNL A   1      40.777  28.435  29.349  1.00  0.00     0.034 A 
ATOM     50  C   UNL A   1      40.073  32.134  35.232  1.00  0.00     0.034 A 
ATOM     51  C   UNL A   1      41.748  28.146  30.371  1.00  0.00     0.049 A 
ATOM     52  C   UNL A   1      41.103  31.043  35.099  1.00  0.00     0.074 A 
ATOM     53  C   UNL A   1      42.793  27.238  30.328  1.00  0.00     0.029 A 
ATOM     54  N   UNL A   1      41.781  28.734  31.624  1.00  0.00    -0.354 N 
ATOM     55  N   UNL A   1      41.413  30.325  34.047  1.00  0.00    -0.248 NA
ATOM     56  C   UNL A   1      41.905  30.733  36.292  1.00  0.00     0.031 C 
ATOM     57  C   UNL A   1      43.426  27.242  31.574  1.00  0.00     0.029 A 
ATOM     58  C   UNL A   1      42.808  28.188  32.375  1.00  0.00     0.049 A 
ATOM     59  H   UNL A   1      41.165  29.437  31.935  1.00  0.00     0.167 HD
ATOM     60  C   UNL A   1      42.464  29.504  34.442  1.00  0.00     0.074 A 
ATOM     61  C   UNL A   1      42.756  29.833  35.821  1.00  0.00     0.031 C 
ATOM     62  C   UNL A   1      43.120  28.553  33.732  1.00  0.00     0.034 A 
BRANCH  49  63
ATOM     63  C   UNL A   1      40.823  27.608  28.092  1.00  0.00     0.023 A 
ATOM     64  C   UNL A   1      41.526  28.073  26.964  1.00  0.00     0.012 A 
ATOM     65  C   UNL A   1      40.253  26.318  28.071  1.00  0.00     0.148 A 
ATOM     66  C   UNL A   1      41.650  27.274  25.828  1.00  0.00     0.002 A 
ATOM     67  C   UNL A   1      40.421  25.511  26.954  1.00  0.00     0.091 A 
ATOM     68  F   UNL A   1      39.572  25.905  29.149  1.00  0.00    -0.205 F 
ATOM     69  C   UNL A   1      41.109  25.990  25.828  1.00  0.00     0.022 A 
BRANCH  67  70
ATOM     70  S   UNL A   1      39.837  23.814  26.888  1.00  0.00     0.127 S 
ATOM     71  O   UNL A   1      40.202  23.323  28.217  1.00  0.00    -0.237 OA
ATOM     72  O   UNL A   1      38.401  23.993  26.677  1.00  0.00    -0.237 OA
ATOM     73  O   UNL A   1      40.544  23.185  25.780  1.00  0.00    -0.744 OA
ENDBRANCH  67  70
ENDBRANCH  49  63
BRANCH  50  74
ATOM     74  C   UNL A   1      39.850  32.813  36.540  1.00  0.00     0.023 A 
ATOM     75  C   UNL A   1      40.608  33.947  36.883  1.00  0.00     0.012 A 
ATOM     76  C   UNL A   1      38.889  32.327  37.449  1.00  0.00     0.148 A 
ATOM     77  C   UNL A   1      40.445  34.559  38.127  1.00  0.00     0.002 A 
ATOM     78  C   UNL A   1      38.683  32.980  38.656  1.00  0.00     0.091 A 
ATOM     79  F   UNL A   1      38.192  31.230  37.120  1.00  0.00    -0.205 F 
ATOM     80  C   UNL A   1      39.476  34.083  39.009  1.00  0.00     0.022 A 
BRANCH  78  81
ATOM     81  S   UNL A   1      37.347  32.508  39.761  1.00  0.00     0.127 S 
ATOM     82  O   UNL A   1      37.469  33.502  40.822  1.00  0.00    -0.237 OA
ATOM     83  O   UNL A   1      36.172  32.662  38.904  1.00  0.00    -0.237 OA
ATOM     84  O   UNL A   1      37.624  31.124  40.138  1.00  0.00    -0.744 OA
ENDBRANCH  78  81
ENDBRANCH  50  74
BRANCH  62  85
ATOM     85  C   UNL A   1      44.246  27.818  34.415  1.00  0.00     0.023 A 
ATOM     86  C   UNL A   1      45.542  28.371  34.431  1.00  0.00     0.012 A 
ATOM     87  C   UNL A   1      44.001  26.611  35.100  1.00  0.00     0.148 A 
ATOM     88  C   UNL A   1      46.584  27.716  35.086  1.00  0.00     0.002 A 
ATOM     89  C   UNL A   1      45.032  25.991  35.796  1.00  0.00     0.091 A 
ATOM     90  F   UNL A   1      42.764  26.094  35.062  1.00  0.00    -0.205 F 
ATOM     91  C   UNL A   1      46.327  26.534  35.777  1.00  0.00     0.022 A 
BRANCH  89  92
ATOM     92  S   UNL A   1      44.775  24.520  36.794  1.00  0.00     0.127 S 
ATOM     93  O   UNL A   1      43.936  25.037  37.874  1.00  0.00    -0.237 OA
ATOM     94  O   UNL A   1      44.085  23.630  35.859  1.00  0.00    -0.237 OA
ATOM     95  O   UNL A   1      46.099  24.068  37.196  1.00  0.00    -0.744 OA
ENDBRANCH  89  92
ENDBRANCH  62  85
ENDBRANCH  36  37
ENDBRANCH  29  31
ENDBRANCH  28  29
ENDBRANCH  27  28
ENDBRANCH  26  27
ENDBRANCH   1  26
TORSDOF 20
ENDMDL
