MODEL 1
REMARK VINA RESULT:     -11.1      0.000      0.000
REMARK SMILES CC(C)(NC(=O)[C@]1(C)CCCO1)C(C)(C)C(=O)OCCOCCOC(=O)c1ccc(-c2c3nc(c(-c4cccc(S(=O)(=O)[O-])c4F)c4ccc([nH]4)c(-c4cccc(S(=O)(=O)[O-])c4F)c4nc(c(-c5cccc(S(=O)(=O)[O-])c5F)c5ccc2[nH]5)C=C4)C=C3)cc1
REMARK SMILES IDX 21 1 20 2 19 3 18 4 16 5 17 6 13 7 14 8 15 9 2 10 1 11 3 12
REMARK SMILES IDX 4 13 5 14 6 16 7 17 9 18 12 19 8 20 10 21 11 22 22 23 23 24
REMARK SMILES IDX 24 25 25 26 26 27 27 28 28 29 89 30 29 31 88 32 30 33 31 34
REMARK SMILES IDX 32 35 82 36 33 37 87 38 81 39 83 40 34 41 86 42 80 43 79 44
REMARK SMILES IDX 35 46 67 47 47 48 66 49 48 50 51 51 65 52 84 53 49 54 50 55
REMARK SMILES IDX 64 57 85 58 52 59 36 60 37 61 45 62 38 63 40 64 46 65 39 66
REMARK SMILES IDX 41 67 42 68 43 69 44 70 68 71 69 72 77 73 70 74 72 75 78 76
REMARK SMILES IDX 71 77 73 78 74 79 75 80 76 81 53 82 54 83 62 84 55 85 57 86
REMARK SMILES IDX 63 87 56 88 58 89 59 90 60 91 61 92
REMARK H PARENT 4 15 83 45 51 56
REMARK Flexibility Score: inf
ROOT
ATOM      1  O   UNL A   1      33.465  30.781  27.049  1.00  0.00    -0.374 OA
ENDROOT
BRANCH   1   2
ATOM      2  C   UNL A   1      33.559  29.368  27.280  1.00  0.00     0.202 C 
BRANCH   2   3
ATOM      3  C   UNL A   1      32.315  28.278  27.561  1.00  0.00     0.261 C 
BRANCH   3   4
ATOM      4  O   UNL A   1      31.365  27.500  26.294  1.00  0.00    -0.463 OA
BRANCH   4   5
ATOM      5  C   UNL A   1      31.148  27.393  24.406  1.00  0.00     0.313 C 
ATOM      6  O   UNL A   1      30.035  27.615  23.830  1.00  0.00    -0.252 OA
BRANCH   5   7
ATOM      7  C   UNL A   1      32.218  27.063  23.216  1.00  0.00     0.085 C 
ATOM      8  C   UNL A   1      33.418  27.895  22.695  1.00  0.00     0.026 C 
ATOM      9  C   UNL A   1      31.304  26.900  21.937  1.00  0.00     0.026 C 
BRANCH   7  10
ATOM     10  C   UNL A   1      32.760  25.609  23.677  1.00  0.00     0.050 C 
ATOM     11  C   UNL A   1      34.003  25.707  24.601  1.00  0.00     0.035 C 
ATOM     12  C   UNL A   1      33.249  24.618  22.558  1.00  0.00     0.035 C 
BRANCH  10  13
ATOM     13  N   UNL A   1      31.711  24.921  24.448  1.00  0.00    -0.348 N 
ATOM     14  C   UNL A   1      31.667  23.729  25.095  1.00  0.00     0.252 C 
ATOM     15  H   UNL A   1      30.870  25.429  24.505  1.00  0.00     0.164 HD
ATOM     16  O   UNL A   1      30.629  23.542  25.744  1.00  0.00    -0.272 OA
BRANCH  14  17
ATOM     17  C   UNL A   1      32.847  22.682  25.145  1.00  0.00     0.143 C 
ATOM     18  C   UNL A   1      34.083  23.093  26.674  1.00  0.00     0.048 C 
ATOM     19  O   UNL A   1      33.908  22.471  23.623  1.00  0.00    -0.365 OA
ATOM     20  C   UNL A   1      32.202  21.252  25.156  1.00  0.00     0.053 C 
ATOM     21  C   UNL A   1      36.008  23.059  25.865  1.00  0.00     0.032 C 
ATOM     22  C   UNL A   1      35.766  22.556  23.942  1.00  0.00     0.162 C 
ENDBRANCH  14  17
ENDBRANCH  10  13
ENDBRANCH   7  10
ENDBRANCH   5   7
ENDBRANCH   4   5
ENDBRANCH   3   4
ENDBRANCH   2   3
ENDBRANCH   1   2
BRANCH   1  23
ATOM     23  C   UNL A   1      32.300  31.592  26.812  1.00  0.00     0.202 C 
BRANCH  23  24
ATOM     24  C   UNL A   1      32.112  33.127  26.959  1.00  0.00     0.261 C 
BRANCH  24  25
ATOM     25  O   UNL A   1      32.226  33.669  28.267  1.00  0.00    -0.460 OA
BRANCH  25  26
ATOM     26  C   UNL A   1      33.252  34.520  28.431  1.00  0.00     0.338 C 
ATOM     27  O   UNL A   1      33.199  35.736  28.476  1.00  0.00    -0.246 OA
BRANCH  26  28
ATOM     28  C   UNL A   1      34.429  33.727  28.815  1.00  0.00     0.060 A 
ATOM     29  C   UNL A   1      34.186  32.702  29.733  1.00  0.00     0.016 A 
ATOM     30  C   UNL A   1      35.713  33.953  28.308  1.00  0.00     0.016 A 
ATOM     31  C   UNL A   1      35.235  31.931  30.201  1.00  0.00     0.010 A 
ATOM     32  C   UNL A   1      36.777  33.191  28.804  1.00  0.00     0.010 A 
ATOM     33  C   UNL A   1      36.542  32.210  29.786  1.00  0.00    -0.014 A 
BRANCH  33  34
ATOM     34  C   UNL A   1      37.645  31.585  30.547  1.00  0.00     0.031 A 
ATOM     35  C   UNL A   1      38.500  30.556  29.861  1.00  0.00     0.074 A 
ATOM     36  C   UNL A   1      37.948  32.009  31.786  1.00  0.00     0.049 A 
ATOM     37  N   UNL A   1      39.555  29.928  30.307  1.00  0.00    -0.248 NA
ATOM     38  C   UNL A   1      38.123  30.197  28.483  1.00  0.00     0.031 C 
ATOM     39  C   UNL A   1      37.219  33.035  32.528  1.00  0.00     0.029 A 
ATOM     40  N   UNL A   1      38.952  31.623  32.636  1.00  0.00    -0.354 N 
ATOM     41  C   UNL A   1      39.951  29.079  29.282  1.00  0.00     0.074 A 
ATOM     42  C   UNL A   1      39.020  29.266  28.191  1.00  0.00     0.031 C 
ATOM     43  C   UNL A   1      37.788  33.181  33.738  1.00  0.00     0.029 A 
ATOM     44  C   UNL A   1      38.897  32.239  33.861  1.00  0.00     0.049 A 
ATOM     45  H   UNL A   1      39.645  30.968  32.390  1.00  0.00     0.167 HD
ATOM     46  C   UNL A   1      41.001  28.227  29.248  1.00  0.00     0.034 A 
ATOM     47  C   UNL A   1      39.642  32.040  34.967  1.00  0.00     0.034 A 
ATOM     48  C   UNL A   1      41.929  28.051  30.333  1.00  0.00     0.049 A 
ATOM     49  C   UNL A   1      40.767  31.039  34.924  1.00  0.00     0.074 A 
ATOM     50  C   UNL A   1      43.045  27.236  30.385  1.00  0.00     0.029 A 
ATOM     51  N   UNL A   1      41.835  28.681  31.565  1.00  0.00    -0.354 N 
ATOM     52  N   UNL A   1      41.187  30.310  33.918  1.00  0.00    -0.248 NA
ATOM     53  C   UNL A   1      41.538  30.854  36.162  1.00  0.00     0.031 C 
ATOM     54  C   UNL A   1      43.597  27.333  31.666  1.00  0.00     0.029 A 
ATOM     55  C   UNL A   1      42.858  28.252  32.394  1.00  0.00     0.049 A 
ATOM     56  H   UNL A   1      41.144  29.337  31.814  1.00  0.00     0.167 HD
ATOM     57  C   UNL A   1      42.290  29.606  34.391  1.00  0.00     0.074 A 
ATOM     58  C   UNL A   1      42.486  30.017  35.766  1.00  0.00     0.031 C 
ATOM     59  C   UNL A   1      43.064  28.696  33.750  1.00  0.00     0.034 A 
BRANCH  46  60
ATOM     60  C   UNL A   1      41.196  27.404  28.002  1.00  0.00     0.023 A 
ATOM     61  C   UNL A   1      41.744  27.991  26.843  1.00  0.00     0.012 A 
ATOM     62  C   UNL A   1      40.881  26.031  27.998  1.00  0.00     0.148 A 
ATOM     63  C   UNL A   1      41.943  27.233  25.690  1.00  0.00     0.002 A 
ATOM     64  C   UNL A   1      41.129  25.271  26.863  1.00  0.00     0.091 A 
ATOM     65  F   UNL A   1      40.340  25.498  29.102  1.00  0.00    -0.205 F 
ATOM     66  C   UNL A   1      41.646  25.872  25.704  1.00  0.00     0.022 A 
BRANCH  64  67
ATOM     67  S   UNL A   1      40.855  23.497  26.806  1.00  0.00     0.127 S 
ATOM     68  O   UNL A   1      41.342  23.082  28.121  1.00  0.00    -0.237 OA
ATOM     69  O   UNL A   1      39.403  23.417  26.640  1.00  0.00    -0.237 OA
ATOM     70  O   UNL A   1      41.627  23.005  25.673  1.00  0.00    -0.744 OA
ENDBRANCH  64  67
ENDBRANCH  46  60
BRANCH  47  71
ATOM     71  C   UNL A   1      39.340  32.797  36.213  1.00  0.00     0.023 A 
ATOM     72  C   UNL A   1      39.899  34.074  36.415  1.00  0.00     0.012 A 
ATOM     73  C   UNL A   1      38.496  32.251  37.201  1.00  0.00     0.148 A 
ATOM     74  C   UNL A   1      39.650  34.777  37.595  1.00  0.00     0.002 A 
ATOM     75  C   UNL A   1      38.205  32.982  38.344  1.00  0.00     0.091 A 
ATOM     76  F   UNL A   1      37.988  31.029  36.994  1.00  0.00    -0.205 F 
ATOM     77  C   UNL A   1      38.796  34.237  38.554  1.00  0.00     0.022 A 
BRANCH  75  78
ATOM     78  S   UNL A   1      37.022  32.419  39.571  1.00  0.00     0.127 S 
ATOM     79  O   UNL A   1      37.577  31.123  39.951  1.00  0.00    -0.237 OA
ATOM     80  O   UNL A   1      37.132  33.462  40.591  1.00  0.00    -0.237 OA
ATOM     81  O   UNL A   1      35.735  32.377  38.889  1.00  0.00    -0.744 OA
ENDBRANCH  75  78
ENDBRANCH  47  71
BRANCH  59  82
ATOM     82  C   UNL A   1      44.224  28.103  34.511  1.00  0.00     0.023 A 
ATOM     83  C   UNL A   1      45.460  28.777  34.554  1.00  0.00     0.012 A 
ATOM     84  C   UNL A   1      44.063  26.906  35.238  1.00  0.00     0.148 A 
ATOM     85  C   UNL A   1      46.531  28.247  35.274  1.00  0.00     0.002 A 
ATOM     86  C   UNL A   1      45.117  26.414  35.999  1.00  0.00     0.091 A 
ATOM     87  F   UNL A   1      42.883  26.273  35.175  1.00  0.00    -0.205 F 
ATOM     88  C   UNL A   1      46.356  27.074  36.005  1.00  0.00     0.022 A 
BRANCH  86  89
ATOM     89  S   UNL A   1      44.957  24.966  37.049  1.00  0.00     0.127 S 
ATOM     90  O   UNL A   1      46.299  24.864  37.621  1.00  0.00    -0.237 OA
ATOM     91  O   UNL A   1      43.921  25.384  37.994  1.00  0.00    -0.237 OA
ATOM     92  O   UNL A   1      44.572  23.870  36.170  1.00  0.00    -0.744 OA
ENDBRANCH  86  89
ENDBRANCH  59  82
ENDBRANCH  33  34
ENDBRANCH  26  28
ENDBRANCH  25  26
ENDBRANCH  24  25
ENDBRANCH  23  24
ENDBRANCH   1  23
TORSDOF 20
ENDMDL
MODEL 2
REMARK VINA RESULT:     -11.1      1.734      7.843
REMARK SMILES CC(C)(NC(=O)[C@]1(C)CCCO1)C(C)(C)C(=O)OCCOCCOC(=O)c1ccc(-c2c3nc(c(-c4cccc(S(=O)(=O)[O-])c4F)c4ccc([nH]4)c(-c4cccc(S(=O)(=O)[O-])c4F)c4nc(c(-c5cccc(S(=O)(=O)[O-])c5F)c5ccc2[nH]5)C=C4)C=C3)cc1
REMARK SMILES IDX 21 1 20 2 19 3 18 4 16 5 17 6 13 7 14 8 15 9 2 10 1 11 3 12
REMARK SMILES IDX 4 13 5 14 6 16 7 17 9 18 12 19 8 20 10 21 11 22 22 23 23 24
REMARK SMILES IDX 24 25 25 26 26 27 27 28 28 29 89 30 29 31 88 32 30 33 31 34
REMARK SMILES IDX 32 35 82 36 33 37 87 38 81 39 83 40 34 41 86 42 80 43 79 44
REMARK SMILES IDX 35 46 67 47 47 48 66 49 48 50 51 51 65 52 84 53 49 54 50 55
REMARK SMILES IDX 64 57 85 58 52 59 36 60 37 61 45 62 38 63 40 64 46 65 39 66
REMARK SMILES IDX 41 67 42 68 43 69 44 70 68 71 69 72 77 73 70 74 72 75 78 76
REMARK SMILES IDX 71 77 73 78 74 79 75 80 76 81 53 82 54 83 62 84 55 85 57 86
REMARK SMILES IDX 63 87 56 88 58 89 59 90 60 91 61 92
REMARK H PARENT 4 15 83 45 51 56
REMARK Flexibility Score: inf
ROOT
ATOM      1  O   UNL A   1      32.722  30.361  26.266  1.00  0.00    -0.374 OA
ENDROOT
BRANCH   1   2
ATOM      2  C   UNL A   1      32.857  29.481  25.142  1.00  0.00     0.202 C 
BRANCH   2   3
ATOM      3  C   UNL A   1      31.648  28.662  24.316  1.00  0.00     0.261 C 
BRANCH   3   4
ATOM      4  O   UNL A   1      31.906  27.714  22.851  1.00  0.00    -0.463 OA
BRANCH   4   5
ATOM      5  C   UNL A   1      32.769  26.154  22.183  1.00  0.00     0.313 C 
ATOM      6  O   UNL A   1      33.750  26.207  21.374  1.00  0.00    -0.252 OA
BRANCH   5   7
ATOM      7  C   UNL A   1      32.509  24.569  22.480  1.00  0.00     0.085 C 
ATOM      8  C   UNL A   1      32.551  23.354  21.518  1.00  0.00     0.026 C 
ATOM      9  C   UNL A   1      31.032  24.539  23.042  1.00  0.00     0.026 C 
BRANCH   7  10
ATOM     10  C   UNL A   1      33.550  24.303  23.692  1.00  0.00     0.050 C 
ATOM     11  C   UNL A   1      33.104  23.134  24.608  1.00  0.00     0.035 C 
ATOM     12  C   UNL A   1      33.788  25.467  24.723  1.00  0.00     0.035 C 
BRANCH  10  13
ATOM     13  N   UNL A   1      34.861  23.931  23.135  1.00  0.00    -0.348 N 
ATOM     14  C   UNL A   1      35.904  23.215  23.622  1.00  0.00     0.252 C 
ATOM     15  H   UNL A   1      35.010  24.272  22.224  1.00  0.00     0.164 HD
ATOM     16  O   UNL A   1      36.808  23.010  22.800  1.00  0.00    -0.272 OA
BRANCH  14  17
ATOM     17  C   UNL A   1      35.971  22.578  25.064  1.00  0.00     0.143 C 
ATOM     18  C   UNL A   1      35.021  20.808  25.093  1.00  0.00     0.048 C 
ATOM     19  O   UNL A   1      35.319  23.574  26.503  1.00  0.00    -0.365 OA
ATOM     20  C   UNL A   1      37.481  22.547  25.493  1.00  0.00     0.053 C 
ATOM     21  C   UNL A   1      33.755  20.876  26.752  1.00  0.00     0.032 C 
ATOM     22  C   UNL A   1      34.111  22.646  27.618  1.00  0.00     0.162 C 
ENDBRANCH  14  17
ENDBRANCH  10  13
ENDBRANCH   7  10
ENDBRANCH   5   7
ENDBRANCH   4   5
ENDBRANCH   3   4
ENDBRANCH   2   3
ENDBRANCH   1   2
BRANCH   1  23
ATOM     23  C   UNL A   1      31.732  31.374  26.520  1.00  0.00     0.202 C 
BRANCH  23  24
ATOM     24  C   UNL A   1      31.914  32.877  26.867  1.00  0.00     0.261 C 
BRANCH  24  25
ATOM     25  O   UNL A   1      32.327  33.190  28.189  1.00  0.00    -0.460 OA
BRANCH  25  26
ATOM     26  C   UNL A   1      33.323  34.087  28.265  1.00  0.00     0.338 C 
ATOM     27  O   UNL A   1      33.218  35.299  28.323  1.00  0.00    -0.246 OA
BRANCH  26  28
ATOM     28  C   UNL A   1      34.565  33.348  28.536  1.00  0.00     0.060 A 
ATOM     29  C   UNL A   1      34.411  32.164  29.260  1.00  0.00     0.016 A 
ATOM     30  C   UNL A   1      35.827  33.773  28.105  1.00  0.00     0.016 A 
ATOM     31  C   UNL A   1      35.524  31.421  29.614  1.00  0.00     0.010 A 
ATOM     32  C   UNL A   1      36.954  33.036  28.489  1.00  0.00     0.010 A 
ATOM     33  C   UNL A   1      36.803  31.883  29.283  1.00  0.00    -0.014 A 
BRANCH  33  34
ATOM     34  C   UNL A   1      37.953  31.239  29.952  1.00  0.00     0.031 A 
ATOM     35  C   UNL A   1      38.209  31.550  31.401  1.00  0.00     0.074 A 
ATOM     36  C   UNL A   1      38.685  30.311  29.313  1.00  0.00     0.049 A 
ATOM     37  N   UNL A   1      39.114  31.057  32.204  1.00  0.00    -0.248 NA
ATOM     38  C   UNL A   1      37.319  32.540  32.030  1.00  0.00     0.031 C 
ATOM     39  C   UNL A   1      38.495  29.895  27.925  1.00  0.00     0.029 A 
ATOM     40  N   UNL A   1      39.739  29.553  29.754  1.00  0.00    -0.354 N 
ATOM     41  C   UNL A   1      38.923  31.694  33.423  1.00  0.00     0.074 A 
ATOM     42  C   UNL A   1      37.821  32.616  33.254  1.00  0.00     0.031 C 
ATOM     43  C   UNL A   1      39.420  28.969  27.619  1.00  0.00     0.029 A 
ATOM     44  C   UNL A   1      40.283  28.754  28.779  1.00  0.00     0.049 A 
ATOM     45  H   UNL A   1      40.072  29.579  30.680  1.00  0.00     0.167 HD
ATOM     46  C   UNL A   1      39.600  31.522  34.582  1.00  0.00     0.034 A 
ATOM     47  C   UNL A   1      41.374  27.962  28.813  1.00  0.00     0.034 A 
ATOM     48  C   UNL A   1      40.689  30.597  34.746  1.00  0.00     0.049 A 
ATOM     49  C   UNL A   1      42.147  27.834  30.099  1.00  0.00     0.074 A 
ATOM     50  C   UNL A   1      41.418  30.324  35.890  1.00  0.00     0.029 A 
ATOM     51  N   UNL A   1      41.223  29.814  33.734  1.00  0.00    -0.354 N 
ATOM     52  N   UNL A   1      41.901  28.373  31.269  1.00  0.00    -0.248 NA
ATOM     53  C   UNL A   1      43.334  26.967  30.076  1.00  0.00     0.031 C 
ATOM     54  C   UNL A   1      42.427  29.415  35.557  1.00  0.00     0.029 A 
ATOM     55  C   UNL A   1      42.290  29.078  34.219  1.00  0.00     0.049 A 
ATOM     56  H   UNL A   1      40.892  29.785  32.807  1.00  0.00     0.167 HD
ATOM     57  C   UNL A   1      42.880  27.884  32.128  1.00  0.00     0.074 A 
ATOM     58  C   UNL A   1      43.707  26.988  31.348  1.00  0.00     0.031 C 
ATOM     59  C   UNL A   1      43.084  28.161  33.440  1.00  0.00     0.034 A 
BRANCH  46  60
ATOM     60  C   UNL A   1      39.191  32.361  35.764  1.00  0.00     0.023 A 
ATOM     61  C   UNL A   1      38.340  31.827  36.752  1.00  0.00     0.012 A 
ATOM     62  C   UNL A   1      39.695  33.668  35.917  1.00  0.00     0.148 A 
ATOM     63  C   UNL A   1      37.970  32.593  37.858  1.00  0.00     0.002 A 
ATOM     64  C   UNL A   1      39.363  34.405  37.046  1.00  0.00     0.091 A 
ATOM     65  F   UNL A   1      40.485  34.164  34.955  1.00  0.00    -0.205 F 
ATOM     66  C   UNL A   1      38.490  33.876  38.010  1.00  0.00     0.022 A 
BRANCH  64  67
ATOM     67  S   UNL A   1      40.043  36.035  37.372  1.00  0.00     0.127 S 
ATOM     68  O   UNL A   1      39.251  36.460  38.525  1.00  0.00    -0.237 OA
ATOM     69  O   UNL A   1      41.442  35.727  37.673  1.00  0.00    -0.237 OA
ATOM     70  O   UNL A   1      39.837  36.810  36.156  1.00  0.00    -0.744 OA
ENDBRANCH  64  67
ENDBRANCH  46  60
BRANCH  47  71
ATOM     71  C   UNL A   1      41.805  27.237  27.586  1.00  0.00     0.023 A 
ATOM     72  C   UNL A   1      42.311  27.954  26.485  1.00  0.00     0.012 A 
ATOM     73  C   UNL A   1      41.714  25.833  27.510  1.00  0.00     0.148 A 
ATOM     74  C   UNL A   1      42.685  27.287  25.317  1.00  0.00     0.002 A 
ATOM     75  C   UNL A   1      42.144  25.172  26.369  1.00  0.00     0.091 A 
ATOM     76  F   UNL A   1      41.215  25.173  28.565  1.00  0.00    -0.205 F 
ATOM     77  C   UNL A   1      42.612  25.897  25.263  1.00  0.00     0.022 A 
BRANCH  75  78
ATOM     78  S   UNL A   1      42.201  23.381  26.257  1.00  0.00     0.127 S 
ATOM     79  O   UNL A   1      42.775  23.182  24.929  1.00  0.00    -0.237 OA
ATOM     80  O   UNL A   1      43.088  23.042  27.371  1.00  0.00    -0.237 OA
ATOM     81  O   UNL A   1      40.825  22.930  26.424  1.00  0.00    -0.744 OA
ENDBRANCH  75  78
ENDBRANCH  47  71
BRANCH  59  82
ATOM     82  C   UNL A   1      44.223  27.458  34.135  1.00  0.00     0.023 A 
ATOM     83  C   UNL A   1      45.510  28.030  34.139  1.00  0.00     0.012 A 
ATOM     84  C   UNL A   1      43.998  26.258  34.841  1.00  0.00     0.148 A 
ATOM     85  C   UNL A   1      46.565  27.398  34.799  1.00  0.00     0.002 A 
ATOM     86  C   UNL A   1      45.040  25.664  35.542  1.00  0.00     0.091 A 
ATOM     87  F   UNL A   1      42.769  25.722  34.815  1.00  0.00    -0.205 F 
ATOM     88  C   UNL A   1      46.328  26.223  35.509  1.00  0.00     0.022 A 
BRANCH  86  89
ATOM     89  S   UNL A   1      44.810  24.206  36.564  1.00  0.00     0.127 S 
ATOM     90  O   UNL A   1      46.182  23.910  36.975  1.00  0.00    -0.237 OA
ATOM     91  O   UNL A   1      43.949  24.713  37.634  1.00  0.00    -0.237 OA
ATOM     92  O   UNL A   1      44.189  23.205  35.707  1.00  0.00    -0.744 OA
ENDBRANCH  86  89
ENDBRANCH  59  82
ENDBRANCH  33  34
ENDBRANCH  26  28
ENDBRANCH  25  26
ENDBRANCH  24  25
ENDBRANCH  23  24
ENDBRANCH   1  23
TORSDOF 20
ENDMDL
MODEL 3
REMARK VINA RESULT:     -11.1      1.073      7.644
REMARK SMILES CC(C)(NC(=O)[C@]1(C)CCCO1)C(C)(C)C(=O)OCCOCCOC(=O)c1ccc(-c2c3nc(c(-c4cccc(S(=O)(=O)[O-])c4F)c4ccc([nH]4)c(-c4cccc(S(=O)(=O)[O-])c4F)c4nc(c(-c5cccc(S(=O)(=O)[O-])c5F)c5ccc2[nH]5)C=C4)C=C3)cc1
REMARK SMILES IDX 21 1 20 2 19 3 18 4 16 5 17 6 13 7 14 8 15 9 2 10 1 11 3 12
REMARK SMILES IDX 4 13 5 14 6 16 7 17 9 18 12 19 8 20 10 21 11 22 22 23 23 24
REMARK SMILES IDX 24 25 25 26 26 27 27 28 28 29 89 30 29 31 88 32 30 33 31 34
REMARK SMILES IDX 32 35 82 36 33 37 87 38 81 39 83 40 34 41 86 42 80 43 79 44
REMARK SMILES IDX 35 46 67 47 47 48 66 49 48 50 51 51 65 52 84 53 49 54 50 55
REMARK SMILES IDX 64 57 85 58 52 59 36 60 37 61 45 62 38 63 40 64 46 65 39 66
REMARK SMILES IDX 41 67 42 68 43 69 44 70 68 71 69 72 77 73 70 74 72 75 78 76
REMARK SMILES IDX 71 77 73 78 74 79 75 80 76 81 53 82 54 83 62 84 55 85 57 86
REMARK SMILES IDX 63 87 56 88 58 89 59 90 60 91 61 92
REMARK H PARENT 4 15 83 45 51 56
REMARK Flexibility Score: inf
ROOT
ATOM      1  O   UNL A   1      32.611  30.319  26.508  1.00  0.00    -0.374 OA
ENDROOT
BRANCH   1   2
ATOM      2  C   UNL A   1      32.826  29.605  25.282  1.00  0.00     0.202 C 
BRANCH   2   3
ATOM      3  C   UNL A   1      31.700  28.785  24.349  1.00  0.00     0.261 C 
BRANCH   3   4
ATOM      4  O   UNL A   1      32.087  27.874  22.888  1.00  0.00    -0.463 OA
BRANCH   4   5
ATOM      5  C   UNL A   1      32.725  26.189  22.272  1.00  0.00     0.313 C 
ATOM      6  O   UNL A   1      33.401  26.063  21.200  1.00  0.00    -0.252 OA
BRANCH   5   7
ATOM      7  C   UNL A   1      32.600  24.691  22.911  1.00  0.00     0.085 C 
ATOM      8  C   UNL A   1      33.163  23.340  22.403  1.00  0.00     0.026 C 
ATOM      9  C   UNL A   1      31.040  24.442  22.960  1.00  0.00     0.026 C 
BRANCH   7  10
ATOM     10  C   UNL A   1      33.149  24.947  24.413  1.00  0.00     0.050 C 
ATOM     11  C   UNL A   1      34.234  26.055  24.465  1.00  0.00     0.035 C 
ATOM     12  C   UNL A   1      33.854  23.751  25.151  1.00  0.00     0.035 C 
BRANCH  10  13
ATOM     13  N   UNL A   1      32.039  25.400  25.267  1.00  0.00    -0.348 N 
ATOM     14  C   UNL A   1      31.221  24.760  26.140  1.00  0.00     0.252 C 
ATOM     15  H   UNL A   1      31.851  26.363  25.188  1.00  0.00     0.164 HD
ATOM     16  O   UNL A   1      30.467  25.512  26.774  1.00  0.00    -0.272 OA
BRANCH  14  17
ATOM     17  C   UNL A   1      31.256  23.212  26.446  1.00  0.00     0.143 C 
ATOM     18  C   UNL A   1      32.753  22.784  27.715  1.00  0.00     0.048 C 
ATOM     19  O   UNL A   1      31.399  22.029  25.008  1.00  0.00    -0.365 OA
ATOM     20  C   UNL A   1      29.819  22.797  26.922  1.00  0.00     0.053 C 
ATOM     21  C   UNL A   1      33.771  21.174  26.859  1.00  0.00     0.032 C 
ATOM     22  C   UNL A   1      32.753  20.728  25.194  1.00  0.00     0.162 C 
ENDBRANCH  14  17
ENDBRANCH  10  13
ENDBRANCH   7  10
ENDBRANCH   5   7
ENDBRANCH   4   5
ENDBRANCH   3   4
ENDBRANCH   2   3
ENDBRANCH   1   2
BRANCH   1  23
ATOM     23  C   UNL A   1      31.770  31.457  26.766  1.00  0.00     0.202 C 
BRANCH  23  24
ATOM     24  C   UNL A   1      32.151  32.951  26.957  1.00  0.00     0.261 C 
BRANCH  24  25
ATOM     25  O   UNL A   1      32.391  33.391  28.287  1.00  0.00    -0.460 OA
BRANCH  25  26
ATOM     26  C   UNL A   1      33.419  34.244  28.415  1.00  0.00     0.338 C 
ATOM     27  O   UNL A   1      33.360  35.456  28.525  1.00  0.00    -0.246 OA
BRANCH  26  28
ATOM     28  C   UNL A   1      34.628  33.447  28.670  1.00  0.00     0.060 A 
ATOM     29  C   UNL A   1      34.461  32.369  29.543  1.00  0.00     0.016 A 
ATOM     30  C   UNL A   1      35.870  33.718  28.087  1.00  0.00     0.016 A 
ATOM     31  C   UNL A   1      35.548  31.587  29.891  1.00  0.00     0.010 A 
ATOM     32  C   UNL A   1      36.975  32.944  28.463  1.00  0.00     0.010 A 
ATOM     33  C   UNL A   1      36.819  31.906  29.401  1.00  0.00    -0.014 A 
BRANCH  33  34
ATOM     34  C   UNL A   1      37.980  31.255  30.046  1.00  0.00     0.031 A 
ATOM     35  C   UNL A   1      38.307  31.614  31.469  1.00  0.00     0.074 A 
ATOM     36  C   UNL A   1      38.658  30.283  29.413  1.00  0.00     0.049 A 
ATOM     37  N   UNL A   1      39.231  31.126  32.252  1.00  0.00    -0.248 NA
ATOM     38  C   UNL A   1      37.472  32.653  32.096  1.00  0.00     0.031 C 
ATOM     39  C   UNL A   1      38.396  29.819  28.052  1.00  0.00     0.029 A 
ATOM     40  N   UNL A   1      39.708  29.511  29.839  1.00  0.00    -0.354 N 
ATOM     41  C   UNL A   1      39.111  31.815  33.452  1.00  0.00     0.074 A 
ATOM     42  C   UNL A   1      38.029  32.761  33.293  1.00  0.00     0.031 C 
ATOM     43  C   UNL A   1      39.282  28.856  27.744  1.00  0.00     0.029 A 
ATOM     44  C   UNL A   1      40.187  28.660  28.874  1.00  0.00     0.049 A 
ATOM     45  H   UNL A   1      40.082  29.563  30.748  1.00  0.00     0.167 HD
ATOM     46  C   UNL A   1      39.833  31.667  34.587  1.00  0.00     0.034 A 
ATOM     47  C   UNL A   1      41.257  27.839  28.894  1.00  0.00     0.034 A 
ATOM     48  C   UNL A   1      40.903  30.719  34.742  1.00  0.00     0.049 A 
ATOM     49  C   UNL A   1      42.081  27.738  30.150  1.00  0.00     0.074 A 
ATOM     50  C   UNL A   1      41.673  30.468  35.863  1.00  0.00     0.029 A 
ATOM     51  N   UNL A   1      41.370  29.882  33.740  1.00  0.00    -0.354 N 
ATOM     52  N   UNL A   1      41.901  28.328  31.307  1.00  0.00    -0.248 NA
ATOM     53  C   UNL A   1      43.242  26.837  30.111  1.00  0.00     0.031 C 
ATOM     54  C   UNL A   1      42.641  29.518  35.524  1.00  0.00     0.029 A 
ATOM     55  C   UNL A   1      42.437  29.134  34.208  1.00  0.00     0.049 A 
ATOM     56  H   UNL A   1      40.999  29.827  32.829  1.00  0.00     0.167 HD
ATOM     57  C   UNL A   1      42.903  27.845  32.143  1.00  0.00     0.074 A 
ATOM     58  C   UNL A   1      43.671  26.895  31.363  1.00  0.00     0.031 C 
ATOM     59  C   UNL A   1      43.171  28.165  33.433  1.00  0.00     0.034 A 
BRANCH  46  60
ATOM     60  C   UNL A   1      39.499  32.563  35.751  1.00  0.00     0.023 A 
ATOM     61  C   UNL A   1      40.032  33.866  35.819  1.00  0.00     0.012 A 
ATOM     62  C   UNL A   1      38.614  32.124  36.756  1.00  0.00     0.148 A 
ATOM     63  C   UNL A   1      39.714  34.707  36.885  1.00  0.00     0.002 A 
ATOM     64  C   UNL A   1      38.263  32.985  37.787  1.00  0.00     0.091 A 
ATOM     65  F   UNL A   1      38.137  30.874  36.685  1.00  0.00    -0.205 F 
ATOM     66  C   UNL A   1      38.822  34.271  37.862  1.00  0.00     0.022 A 
BRANCH  64  67
ATOM     67  S   UNL A   1      37.063  32.546  39.049  1.00  0.00     0.127 S 
ATOM     68  O   UNL A   1      35.801  32.811  38.360  1.00  0.00    -0.237 OA
ATOM     69  O   UNL A   1      37.353  31.128  39.266  1.00  0.00    -0.237 OA
ATOM     70  O   UNL A   1      37.342  33.408  40.189  1.00  0.00    -0.744 OA
ENDBRANCH  64  67
ENDBRANCH  46  60
BRANCH  47  71
ATOM     71  C   UNL A   1      41.614  27.055  27.679  1.00  0.00     0.023 A 
ATOM     72  C   UNL A   1      42.165  27.705  26.558  1.00  0.00     0.012 A 
ATOM     73  C   UNL A   1      41.408  25.663  27.635  1.00  0.00     0.148 A 
ATOM     74  C   UNL A   1      42.472  26.985  25.402  1.00  0.00     0.002 A 
ATOM     75  C   UNL A   1      41.770  24.944  26.504  1.00  0.00     0.091 A 
ATOM     76  F   UNL A   1      40.868  25.068  28.708  1.00  0.00    -0.205 F 
ATOM     77  C   UNL A   1      42.284  25.605  25.378  1.00  0.00     0.022 A 
BRANCH  75  78
ATOM     78  S   UNL A   1      41.679  23.153  26.431  1.00  0.00     0.127 S 
ATOM     79  O   UNL A   1      42.419  22.766  27.630  1.00  0.00    -0.237 OA
ATOM     80  O   UNL A   1      40.236  22.925  26.495  1.00  0.00    -0.237 OA
ATOM     81  O   UNL A   1      42.293  22.777  25.164  1.00  0.00    -0.744 OA
ENDBRANCH  75  78
ENDBRANCH  47  71
BRANCH  59  82
ATOM     82  C   UNL A   1      44.320  27.457  34.106  1.00  0.00     0.023 A 
ATOM     83  C   UNL A   1      45.628  27.968  33.996  1.00  0.00     0.012 A 
ATOM     84  C   UNL A   1      44.088  26.317  34.903  1.00  0.00     0.148 A 
ATOM     85  C   UNL A   1      46.693  27.332  34.635  1.00  0.00     0.002 A 
ATOM     86  C   UNL A   1      45.144  25.722  35.581  1.00  0.00     0.091 A 
ATOM     87  F   UNL A   1      42.838  25.838  34.985  1.00  0.00    -0.205 F 
ATOM     88  C   UNL A   1      46.450  26.217  35.435  1.00  0.00     0.022 A 
BRANCH  86  89
ATOM     89  S   UNL A   1      44.915  24.346  36.711  1.00  0.00     0.127 S 
ATOM     90  O   UNL A   1      43.865  24.855  37.592  1.00  0.00    -0.237 OA
ATOM     91  O   UNL A   1      44.489  23.275  35.809  1.00  0.00    -0.237 OA
ATOM     92  O   UNL A   1      46.207  24.125  37.348  1.00  0.00    -0.744 OA
ENDBRANCH  86  89
ENDBRANCH  59  82
ENDBRANCH  33  34
ENDBRANCH  26  28
ENDBRANCH  25  26
ENDBRANCH  24  25
ENDBRANCH  23  24
ENDBRANCH   1  23
TORSDOF 20
ENDMDL
