MODEL 1
REMARK VINA RESULT:     -11.7      0.000      0.000
REMARK SMILES COc1ccc2c(CC(=O)OCCOCCOC(=O)c3ccc(-c4c5nc(c(-c6cccc(S(=O)(=O)[O-])c6F)c6ccc([nH]6)c(-c6cccc(S(=O)(=O)[O-])c6F)c6nc(c(-c7cccc(S(=O)(=O)[O-])c7F)c7ccc4[nH]7)C=C6)C=C5)cc3)c(C(=O)c3cc(C)ccn3)[nH]c2c1
REMARK SMILES IDX 14 1 13 2 12 3 11 4 9 5 10 6 8 7 7 8 3 9 4 10 95 11 5 12
REMARK SMILES IDX 94 13 6 14 93 15 83 16 2 18 1 19 84 20 85 21 86 22 87 23
REMARK SMILES IDX 92 24 88 25 91 26 89 27 90 28 15 29 16 30 17 31 18 32 19 33
REMARK SMILES IDX 20 34 21 35 82 36 22 37 81 38 23 39 24 40 25 41 75 42 26 43
REMARK SMILES IDX 80 44 74 45 76 46 27 47 79 48 73 49 72 50 28 52 60 53 40 54
REMARK SMILES IDX 59 55 41 56 44 57 58 58 77 59 42 60 43 61 57 63 78 64 45 65
REMARK SMILES IDX 29 66 30 67 38 68 31 69 33 70 39 71 32 72 34 73 35 74 36 75
REMARK SMILES IDX 37 76 61 77 62 78 70 79 63 80 65 81 71 82 64 83 66 84 67 85
REMARK SMILES IDX 68 86 69 87 46 88 47 89 55 90 48 91 50 92 56 93 49 94 51 95
REMARK SMILES IDX 52 96 53 97 54 98
REMARK H PARENT 93 17 76 51 44 62
REMARK Flexibility Score: inf
ROOT
ATOM      1  O   UNL A   1      32.377  30.095  26.770  1.00  0.00    -0.374 OA
ENDROOT
BRANCH   1   2
ATOM      2  C   UNL A   1      32.502  29.188  25.675  1.00  0.00     0.202 C 
BRANCH   2   3
ATOM      3  C   UNL A   1      32.584  27.688  25.997  1.00  0.00     0.261 C 
BRANCH   3   4
ATOM      4  O   UNL A   1      33.485  26.946  25.144  1.00  0.00    -0.463 OA
BRANCH   4   5
ATOM      5  C   UNL A   1      33.669  25.643  25.492  1.00  0.00     0.310 C 
ATOM      6  O   UNL A   1      33.148  25.113  26.474  1.00  0.00    -0.252 OA
BRANCH   5   7
ATOM      7  C   UNL A   1      34.476  24.811  24.516  1.00  0.00     0.161 C 
BRANCH   7   8
ATOM      8  C   UNL A   1      33.770  23.778  23.679  1.00  0.00     0.000 A 
ATOM      9  C   UNL A   1      32.731  19.758  24.373  1.00  0.00     0.120 A 
ATOM     10  C   UNL A   1      33.604  20.312  25.305  1.00  0.00     0.047 A 
ATOM     11  C   UNL A   1      32.370  20.467  23.222  1.00  0.00     0.073 A 
ATOM     12  C   UNL A   1      34.066  21.629  25.153  1.00  0.00     0.014 A 
ATOM     13  C   UNL A   1      32.813  21.790  23.107  1.00  0.00     0.050 A 
ATOM     14  C   UNL A   1      33.628  22.399  24.055  1.00  0.00     0.004 A 
ATOM     15  N   UNL A   1      32.569  22.724  22.131  1.00  0.00    -0.351 N 
ATOM     16  C   UNL A   1      32.973  23.980  22.542  1.00  0.00     0.093 A 
ATOM     17  H   UNL A   1      32.162  22.527  21.257  1.00  0.00     0.167 HD
BRANCH   9  18
ATOM     18  O   UNL A   1      32.208  18.496  24.487  1.00  0.00    -0.497 OA
ATOM     19  C   UNL A   1      32.443  17.683  23.339  1.00  0.00     0.278 C 
ENDBRANCH   9  18
BRANCH  16  20
ATOM     20  C   UNL A   1      32.595  25.232  21.883  1.00  0.00     0.227 C 
ATOM     21  O   UNL A   1      33.150  25.659  20.872  1.00  0.00    -0.285 OA
BRANCH  20  22
ATOM     22  C   UNL A   1      31.459  26.039  22.427  1.00  0.00     0.113 A 
ATOM     23  C   UNL A   1      31.265  27.364  22.064  1.00  0.00     0.036 A 
ATOM     24  N   UNL A   1      30.652  25.378  23.295  1.00  0.00    -0.253 NA
ATOM     25  C   UNL A   1      30.199  28.056  22.654  1.00  0.00    -0.047 A 
ATOM     26  C   UNL A   1      29.652  26.069  23.870  1.00  0.00     0.112 A 
ATOM     27  C   UNL A   1      29.896  29.482  22.306  1.00  0.00     0.044 C 
ATOM     28  C   UNL A   1      29.391  27.394  23.584  1.00  0.00     0.023 A 
ENDBRANCH  20  22
ENDBRANCH  16  20
ENDBRANCH   7   8
ENDBRANCH   5   7
ENDBRANCH   4   5
ENDBRANCH   3   4
ENDBRANCH   2   3
ENDBRANCH   1   2
BRANCH   1  29
ATOM     29  C   UNL A   1      31.380  31.105  26.663  1.00  0.00     0.202 C 
BRANCH  29  30
ATOM     30  C   UNL A   1      31.816  32.555  26.881  1.00  0.00     0.261 C 
BRANCH  30  31
ATOM     31  O   UNL A   1      33.223  32.786  26.856  1.00  0.00    -0.460 OA
BRANCH  31  32
ATOM     32  C   UNL A   1      33.734  33.242  28.016  1.00  0.00     0.338 C 
ATOM     33  O   UNL A   1      33.229  34.024  28.814  1.00  0.00    -0.246 OA
BRANCH  32  34
ATOM     34  C   UNL A   1      35.014  32.579  28.256  1.00  0.00     0.060 A 
ATOM     35  C   UNL A   1      34.994  31.241  28.658  1.00  0.00     0.016 A 
ATOM     36  C   UNL A   1      36.205  33.306  28.198  1.00  0.00     0.016 A 
ATOM     37  C   UNL A   1      36.175  30.640  29.074  1.00  0.00     0.010 A 
ATOM     38  C   UNL A   1      37.390  32.696  28.609  1.00  0.00     0.010 A 
ATOM     39  C   UNL A   1      37.367  31.378  29.096  1.00  0.00    -0.014 A 
BRANCH  39  40
ATOM     40  C   UNL A   1      38.554  30.799  29.762  1.00  0.00     0.031 A 
ATOM     41  C   UNL A   1      38.882  31.223  31.166  1.00  0.00     0.074 A 
ATOM     42  C   UNL A   1      39.296  29.876  29.127  1.00  0.00     0.049 A 
ATOM     43  N   UNL A   1      39.813  30.776  31.966  1.00  0.00    -0.248 NA
ATOM     44  C   UNL A   1      38.053  32.292  31.749  1.00  0.00     0.031 C 
ATOM     45  C   UNL A   1      39.074  29.418  27.755  1.00  0.00     0.029 A 
ATOM     46  N   UNL A   1      40.389  29.166  29.549  1.00  0.00    -0.354 N 
ATOM     47  C   UNL A   1      39.693  31.515  33.137  1.00  0.00     0.074 A 
ATOM     48  C   UNL A   1      38.615  32.457  32.937  1.00  0.00     0.031 C 
ATOM     49  C   UNL A   1      40.011  28.505  27.446  1.00  0.00     0.029 A 
ATOM     50  C   UNL A   1      40.898  28.322  28.592  1.00  0.00     0.049 A 
ATOM     51  H   UNL A   1      40.772  29.252  30.452  1.00  0.00     0.167 HD
ATOM     52  C   UNL A   1      40.404  31.401  34.285  1.00  0.00     0.034 A 
ATOM     53  C   UNL A   1      41.959  27.494  28.643  1.00  0.00     0.034 A 
ATOM     54  C   UNL A   1      41.459  30.444  34.477  1.00  0.00     0.049 A 
ATOM     55  C   UNL A   1      42.716  27.368  29.938  1.00  0.00     0.074 A 
ATOM     56  C   UNL A   1      42.216  30.211  35.610  1.00  0.00     0.029 A 
ATOM     57  N   UNL A   1      41.910  29.564  33.503  1.00  0.00    -0.354 N 
ATOM     58  N   UNL A   1      42.504  27.977  31.080  1.00  0.00    -0.248 NA
ATOM     59  C   UNL A   1      43.829  26.409  29.966  1.00  0.00     0.031 C 
ATOM     60  C   UNL A   1      43.137  29.199  35.317  1.00  0.00     0.029 A 
ATOM     61  C   UNL A   1      42.938  28.788  34.008  1.00  0.00     0.049 A 
ATOM     62  H   UNL A   1      41.552  29.500  32.589  1.00  0.00     0.167 HD
ATOM     63  C   UNL A   1      43.432  27.452  31.973  1.00  0.00     0.074 A 
ATOM     64  C   UNL A   1      44.194  26.459  31.241  1.00  0.00     0.031 C 
ATOM     65  C   UNL A   1      43.645  27.769  33.273  1.00  0.00     0.034 A 
BRANCH  52  66
ATOM     66  C   UNL A   1      40.033  32.306  35.430  1.00  0.00     0.023 A 
ATOM     67  C   UNL A   1      40.643  33.573  35.538  1.00  0.00     0.012 A 
ATOM     68  C   UNL A   1      39.054  31.929  36.369  1.00  0.00     0.148 A 
ATOM     69  C   UNL A   1      40.304  34.439  36.577  1.00  0.00     0.002 A 
ATOM     70  C   UNL A   1      38.695  32.812  37.381  1.00  0.00     0.091 A 
ATOM     71  F   UNL A   1      38.505  30.710  36.265  1.00  0.00    -0.205 F 
ATOM     72  C   UNL A   1      39.325  34.062  37.493  1.00  0.00     0.022 A 
BRANCH  70  73
ATOM     73  S   UNL A   1      37.397  32.446  38.568  1.00  0.00     0.127 S 
ATOM     74  O   UNL A   1      37.856  33.183  39.745  1.00  0.00    -0.237 OA
ATOM     75  O   UNL A   1      36.214  33.012  37.918  1.00  0.00    -0.237 OA
ATOM     76  O   UNL A   1      37.376  30.996  38.705  1.00  0.00    -0.744 OA
ENDBRANCH  70  73
ENDBRANCH  52  66
BRANCH  53  77
ATOM     77  C   UNL A   1      42.310  26.671  27.452  1.00  0.00     0.023 A 
ATOM     78  C   UNL A   1      43.042  27.250  26.397  1.00  0.00     0.012 A 
ATOM     79  C   UNL A   1      41.963  25.309  27.380  1.00  0.00     0.148 A 
ATOM     80  C   UNL A   1      43.402  26.490  25.282  1.00  0.00     0.002 A 
ATOM     81  C   UNL A   1      42.371  24.544  26.292  1.00  0.00     0.091 A 
ATOM     82  F   UNL A   1      41.250  24.779  28.385  1.00  0.00    -0.205 F 
ATOM     83  C   UNL A   1      43.077  25.137  25.234  1.00  0.00     0.022 A 
BRANCH  81  84
ATOM     84  S   UNL A   1      42.112  22.768  26.218  1.00  0.00     0.127 S 
ATOM     85  O   UNL A   1      40.655  22.677  26.257  1.00  0.00    -0.237 OA
ATOM     86  O   UNL A   1      42.718  22.423  24.932  1.00  0.00    -0.237 OA
ATOM     87  O   UNL A   1      42.815  22.226  27.373  1.00  0.00    -0.744 OA
ENDBRANCH  81  84
ENDBRANCH  53  77
BRANCH  65  88
ATOM     88  C   UNL A   1      44.725  27.017  34.003  1.00  0.00     0.023 A 
ATOM     89  C   UNL A   1      46.053  27.485  33.959  1.00  0.00     0.012 A 
ATOM     90  C   UNL A   1      44.411  25.894  34.794  1.00  0.00     0.148 A 
ATOM     91  C   UNL A   1      47.059  26.829  34.667  1.00  0.00     0.002 A 
ATOM     92  C   UNL A   1      45.410  25.273  35.535  1.00  0.00     0.091 A 
ATOM     93  F   UNL A   1      43.145  25.452  34.807  1.00  0.00    -0.205 F 
ATOM     94  C   UNL A   1      46.736  25.732  35.463  1.00  0.00     0.022 A 
BRANCH  92  95
ATOM     95  S   UNL A   1      45.061  23.916  36.659  1.00  0.00     0.127 S 
ATOM     96  O   UNL A   1      44.185  24.558  37.637  1.00  0.00    -0.237 OA
ATOM     97  O   UNL A   1      44.396  22.949  35.786  1.00  0.00    -0.237 OA
ATOM     98  O   UNL A   1      46.355  23.477  37.164  1.00  0.00    -0.744 OA
ENDBRANCH  92  95
ENDBRANCH  65  88
ENDBRANCH  39  40
ENDBRANCH  32  34
ENDBRANCH  31  32
ENDBRANCH  30  31
ENDBRANCH  29  30
ENDBRANCH   1  29
TORSDOF 21
ENDMDL
MODEL 2
REMARK VINA RESULT:     -11.6      1.874      3.377
REMARK SMILES COc1ccc2c(CC(=O)OCCOCCOC(=O)c3ccc(-c4c5nc(c(-c6cccc(S(=O)(=O)[O-])c6F)c6ccc([nH]6)c(-c6cccc(S(=O)(=O)[O-])c6F)c6nc(c(-c7cccc(S(=O)(=O)[O-])c7F)c7ccc4[nH]7)C=C6)C=C5)cc3)c(C(=O)c3cc(C)ccn3)[nH]c2c1
REMARK SMILES IDX 14 1 13 2 12 3 11 4 9 5 10 6 8 7 7 8 3 9 4 10 95 11 5 12
REMARK SMILES IDX 94 13 6 14 93 15 83 16 2 18 1 19 84 20 85 21 86 22 87 23
REMARK SMILES IDX 92 24 88 25 91 26 89 27 90 28 15 29 16 30 17 31 18 32 19 33
REMARK SMILES IDX 20 34 21 35 82 36 22 37 81 38 23 39 24 40 25 41 75 42 26 43
REMARK SMILES IDX 80 44 74 45 76 46 27 47 79 48 73 49 72 50 28 52 60 53 40 54
REMARK SMILES IDX 59 55 41 56 44 57 58 58 77 59 42 60 43 61 57 63 78 64 45 65
REMARK SMILES IDX 29 66 30 67 38 68 31 69 33 70 39 71 32 72 34 73 35 74 36 75
REMARK SMILES IDX 37 76 61 77 62 78 70 79 63 80 65 81 71 82 64 83 66 84 67 85
REMARK SMILES IDX 68 86 69 87 46 88 47 89 55 90 48 91 50 92 56 93 49 94 51 95
REMARK SMILES IDX 52 96 53 97 54 98
REMARK H PARENT 93 17 76 51 44 62
REMARK Flexibility Score: inf
ROOT
ATOM      1  O   UNL A   1      32.486  28.138  24.973  1.00  0.00    -0.374 OA
ENDROOT
BRANCH   1   2
ATOM      2  C   UNL A   1      32.379  26.715  24.936  1.00  0.00     0.202 C 
BRANCH   2   3
ATOM      3  C   UNL A   1      31.740  26.080  23.691  1.00  0.00     0.261 C 
BRANCH   3   4
ATOM      4  O   UNL A   1      32.525  25.023  23.095  1.00  0.00    -0.463 OA
BRANCH   4   5
ATOM      5  C   UNL A   1      32.038  23.766  23.280  1.00  0.00     0.310 C 
ATOM      6  O   UNL A   1      30.874  23.520  23.599  1.00  0.00    -0.252 OA
BRANCH   5   7
ATOM      7  C   UNL A   1      32.991  22.636  22.948  1.00  0.00     0.161 C 
BRANCH   7   8
ATOM      8  C   UNL A   1      33.254  21.574  23.981  1.00  0.00     0.000 A 
ATOM      9  C   UNL A   1      32.928  17.377  23.915  1.00  0.00     0.120 A 
ATOM     10  C   UNL A   1      32.352  18.032  22.829  1.00  0.00     0.047 A 
ATOM     11  C   UNL A   1      33.431  18.101  25.001  1.00  0.00     0.073 A 
ATOM     12  C   UNL A   1      32.350  19.433  22.763  1.00  0.00     0.014 A 
ATOM     13  C   UNL A   1      33.451  19.497  24.900  1.00  0.00     0.050 A 
ATOM     14  C   UNL A   1      32.950  20.181  23.798  1.00  0.00     0.004 A 
ATOM     15  N   UNL A   1      33.931  20.442  25.772  1.00  0.00    -0.351 N 
ATOM     16  C   UNL A   1      33.999  21.681  25.165  1.00  0.00     0.093 A 
ATOM     17  H   UNL A   1      34.192  20.262  26.704  1.00  0.00     0.167 HD
BRANCH   9  18
ATOM     18  O   UNL A   1      33.004  16.013  24.019  1.00  0.00    -0.497 OA
ATOM     19  C   UNL A   1      33.025  15.550  25.368  1.00  0.00     0.278 C 
ENDBRANCH   9  18
BRANCH  16  20
ATOM     20  C   UNL A   1      34.731  22.831  25.700  1.00  0.00     0.227 C 
ATOM     21  O   UNL A   1      34.185  23.869  26.070  1.00  0.00    -0.285 OA
BRANCH  20  22
ATOM     22  C   UNL A   1      36.218  22.756  25.846  1.00  0.00     0.113 A 
ATOM     23  C   UNL A   1      36.970  23.855  26.236  1.00  0.00     0.036 A 
ATOM     24  N   UNL A   1      36.761  21.545  25.562  1.00  0.00    -0.253 NA
ATOM     25  C   UNL A   1      38.361  23.707  26.307  1.00  0.00    -0.047 A 
ATOM     26  C   UNL A   1      38.100  21.432  25.610  1.00  0.00     0.112 A 
ATOM     27  C   UNL A   1      39.253  24.829  26.743  1.00  0.00     0.044 C 
ATOM     28  C   UNL A   1      38.931  22.474  25.972  1.00  0.00     0.023 A 
ENDBRANCH  20  22
ENDBRANCH  16  20
ENDBRANCH   7   8
ENDBRANCH   5   7
ENDBRANCH   4   5
ENDBRANCH   3   4
ENDBRANCH   2   3
ENDBRANCH   1   2
BRANCH   1  29
ATOM     29  C   UNL A   1      31.475  28.845  25.682  1.00  0.00     0.202 C 
BRANCH  29  30
ATOM     30  C   UNL A   1      31.919  29.992  26.592  1.00  0.00     0.261 C 
BRANCH  30  31
ATOM     31  O   UNL A   1      33.229  30.501  26.347  1.00  0.00    -0.460 OA
BRANCH  31  32
ATOM     32  C   UNL A   1      33.657  31.398  27.256  1.00  0.00     0.338 C 
ATOM     33  O   UNL A   1      33.031  32.318  27.770  1.00  0.00    -0.246 OA
BRANCH  32  34
ATOM     34  C   UNL A   1      35.027  31.062  27.636  1.00  0.00     0.060 A 
ATOM     35  C   UNL A   1      35.363  29.710  27.750  1.00  0.00     0.016 A 
ATOM     36  C   UNL A   1      35.928  32.070  27.987  1.00  0.00     0.016 A 
ATOM     37  C   UNL A   1      36.595  29.360  28.289  1.00  0.00     0.010 A 
ATOM     38  C   UNL A   1      37.167  31.714  28.520  1.00  0.00     0.010 A 
ATOM     39  C   UNL A   1      37.481  30.358  28.719  1.00  0.00    -0.014 A 
BRANCH  39  40
ATOM     40  C   UNL A   1      38.673  29.967  29.501  1.00  0.00     0.031 A 
ATOM     41  C   UNL A   1      38.811  30.458  30.915  1.00  0.00     0.074 A 
ATOM     42  C   UNL A   1      39.592  29.149  28.961  1.00  0.00     0.049 A 
ATOM     43  N   UNL A   1      39.721  30.163  31.806  1.00  0.00    -0.248 NA
ATOM     44  C   UNL A   1      37.791  31.408  31.392  1.00  0.00     0.031 C 
ATOM     45  C   UNL A   1      39.560  28.639  27.590  1.00  0.00     0.029 A 
ATOM     46  N   UNL A   1      40.731  28.610  29.496  1.00  0.00    -0.354 N 
ATOM     47  C   UNL A   1      39.394  30.899  32.939  1.00  0.00     0.074 A 
ATOM     48  C   UNL A   1      38.216  31.673  32.618  1.00  0.00     0.031 C 
ATOM     49  C   UNL A   1      40.640  27.864  27.390  1.00  0.00     0.029 A 
ATOM     50  C   UNL A   1      41.438  27.830  28.613  1.00  0.00     0.049 A 
ATOM     51  H   UNL A   1      41.016  28.765  30.427  1.00  0.00     0.167 HD
ATOM     52  C   UNL A   1      40.008  30.908  34.146  1.00  0.00     0.034 A 
ATOM     53  C   UNL A   1      42.596  27.163  28.780  1.00  0.00     0.034 A 
ATOM     54  C   UNL A   1      41.166  30.115  34.457  1.00  0.00     0.049 A 
ATOM     55  C   UNL A   1      43.245  27.170  30.138  1.00  0.00     0.074 A 
ATOM     56  C   UNL A   1      41.844  30.013  35.658  1.00  0.00     0.029 A 
ATOM     57  N   UNL A   1      41.822  29.291  33.553  1.00  0.00    -0.354 N 
ATOM     58  N   UNL A   1      42.848  27.762  31.239  1.00  0.00    -0.248 NA
ATOM     59  C   UNL A   1      44.474  26.381  30.292  1.00  0.00     0.031 C 
ATOM     60  C   UNL A   1      42.920  29.138  35.476  1.00  0.00     0.029 A 
ATOM     61  C   UNL A   1      42.900  28.679  34.168  1.00  0.00     0.049 A 
ATOM     62  H   UNL A   1      41.560  29.161  32.614  1.00  0.00     0.167 HD
ATOM     63  C   UNL A   1      43.756  27.391  32.224  1.00  0.00     0.074 A 
ATOM     64  C   UNL A   1      44.713  26.505  31.591  1.00  0.00     0.031 C 
ATOM     65  C   UNL A   1      43.805  27.758  33.528  1.00  0.00     0.034 A 
BRANCH  52  66
ATOM     66  C   UNL A   1      39.413  31.771  35.227  1.00  0.00     0.023 A 
ATOM     67  C   UNL A   1      38.417  31.237  36.071  1.00  0.00     0.012 A 
ATOM     68  C   UNL A   1      39.867  33.087  35.441  1.00  0.00     0.148 A 
ATOM     69  C   UNL A   1      37.862  32.008  37.092  1.00  0.00     0.002 A 
ATOM     70  C   UNL A   1      39.336  33.837  36.484  1.00  0.00     0.091 A 
ATOM     71  F   UNL A   1      40.795  33.586  34.612  1.00  0.00    -0.205 F 
ATOM     72  C   UNL A   1      38.328  33.304  37.305  1.00  0.00     0.022 A 
BRANCH  70  73
ATOM     73  S   UNL A   1      39.917  35.490  36.880  1.00  0.00     0.127 S 
ATOM     74  O   UNL A   1      39.600  36.217  35.651  1.00  0.00    -0.237 OA
ATOM     75  O   UNL A   1      39.083  35.845  38.029  1.00  0.00    -0.237 OA
ATOM     76  O   UNL A   1      41.336  35.355  37.181  1.00  0.00    -0.744 OA
ENDBRANCH  70  73
ENDBRANCH  52  66
BRANCH  53  77
ATOM     77  C   UNL A   1      43.164  26.378  27.649  1.00  0.00     0.023 A 
ATOM     78  C   UNL A   1      44.029  27.005  26.731  1.00  0.00     0.012 A 
ATOM     79  C   UNL A   1      42.890  25.004  27.505  1.00  0.00     0.148 A 
ATOM     80  C   UNL A   1      44.591  26.282  25.677  1.00  0.00     0.002 A 
ATOM     81  C   UNL A   1      43.495  24.278  26.486  1.00  0.00     0.091 A 
ATOM     82  F   UNL A   1      42.050  24.428  28.378  1.00  0.00    -0.205 F 
ATOM     83  C   UNL A   1      44.334  24.918  25.562  1.00  0.00     0.022 A 
BRANCH  81  84
ATOM     84  S   UNL A   1      43.325  22.495  26.349  1.00  0.00     0.127 S 
ATOM     85  O   UNL A   1      42.488  22.365  25.159  1.00  0.00    -0.237 OA
ATOM     86  O   UNL A   1      44.713  22.067  26.176  1.00  0.00    -0.237 OA
ATOM     87  O   UNL A   1      42.721  22.065  27.603  1.00  0.00    -0.744 OA
ENDBRANCH  81  84
ENDBRANCH  53  77
BRANCH  65  88
ATOM     88  C   UNL A   1      44.911  27.181  34.370  1.00  0.00     0.023 A 
ATOM     89  C   UNL A   1      46.096  27.918  34.567  1.00  0.00     0.012 A 
ATOM     90  C   UNL A   1      44.745  25.948  35.029  1.00  0.00     0.148 A 
ATOM     91  C   UNL A   1      47.112  27.421  35.382  1.00  0.00     0.002 A 
ATOM     92  C   UNL A   1      45.742  25.480  35.878  1.00  0.00     0.091 A 
ATOM     93  F   UNL A   1      43.618  25.253  34.813  1.00  0.00    -0.205 F 
ATOM     94  C   UNL A   1      46.930  26.210  36.046  1.00  0.00     0.022 A 
BRANCH  92  95
ATOM     95  S   UNL A   1      45.546  23.979  36.844  1.00  0.00     0.127 S 
ATOM     96  O   UNL A   1      46.925  23.694  37.234  1.00  0.00    -0.237 OA
ATOM     97  O   UNL A   1      44.681  24.421  37.939  1.00  0.00    -0.237 OA
ATOM     98  O   UNL A   1      44.930  23.009  35.949  1.00  0.00    -0.744 OA
ENDBRANCH  92  95
ENDBRANCH  65  88
ENDBRANCH  39  40
ENDBRANCH  32  34
ENDBRANCH  31  32
ENDBRANCH  30  31
ENDBRANCH  29  30
ENDBRANCH   1  29
TORSDOF 21
ENDMDL
MODEL 3
REMARK VINA RESULT:     -11.4      5.140      8.471
REMARK SMILES COc1ccc2c(CC(=O)OCCOCCOC(=O)c3ccc(-c4c5nc(c(-c6cccc(S(=O)(=O)[O-])c6F)c6ccc([nH]6)c(-c6cccc(S(=O)(=O)[O-])c6F)c6nc(c(-c7cccc(S(=O)(=O)[O-])c7F)c7ccc4[nH]7)C=C6)C=C5)cc3)c(C(=O)c3cc(C)ccn3)[nH]c2c1
REMARK SMILES IDX 14 1 13 2 12 3 11 4 9 5 10 6 8 7 7 8 3 9 4 10 95 11 5 12
REMARK SMILES IDX 94 13 6 14 93 15 83 16 2 18 1 19 84 20 85 21 86 22 87 23
REMARK SMILES IDX 92 24 88 25 91 26 89 27 90 28 15 29 16 30 17 31 18 32 19 33
REMARK SMILES IDX 20 34 21 35 82 36 22 37 81 38 23 39 24 40 25 41 75 42 26 43
REMARK SMILES IDX 80 44 74 45 76 46 27 47 79 48 73 49 72 50 28 52 60 53 40 54
REMARK SMILES IDX 59 55 41 56 44 57 58 58 77 59 42 60 43 61 57 63 78 64 45 65
REMARK SMILES IDX 29 66 30 67 38 68 31 69 33 70 39 71 32 72 34 73 35 74 36 75
REMARK SMILES IDX 37 76 61 77 62 78 70 79 63 80 65 81 71 82 64 83 66 84 67 85
REMARK SMILES IDX 68 86 69 87 46 88 47 89 55 90 48 91 50 92 56 93 49 94 51 95
REMARK SMILES IDX 52 96 53 97 54 98
REMARK H PARENT 93 17 76 51 44 62
REMARK Flexibility Score: inf
ROOT
ATOM      1  O   UNL A   1      37.804  21.223  24.448  1.00  0.00    -0.374 OA
ENDROOT
BRANCH   1   2
ATOM      2  C   UNL A   1      36.553  21.788  24.839  1.00  0.00     0.202 C 
BRANCH   2   3
ATOM      3  C   UNL A   1      36.017  22.971  24.018  1.00  0.00     0.261 C 
BRANCH   3   4
ATOM      4  O   UNL A   1      35.114  22.594  22.955  1.00  0.00    -0.463 OA
BRANCH   4   5
ATOM      5  C   UNL A   1      34.004  23.374  22.834  1.00  0.00     0.310 C 
ATOM      6  O   UNL A   1      34.020  24.529  22.409  1.00  0.00    -0.252 OA
BRANCH   5   7
ATOM      7  C   UNL A   1      32.687  22.693  23.143  1.00  0.00     0.161 C 
BRANCH   7   8
ATOM      8  C   UNL A   1      32.647  21.626  24.204  1.00  0.00     0.000 A 
ATOM      9  C   UNL A   1      32.810  17.422  24.038  1.00  0.00     0.120 A 
ATOM     10  C   UNL A   1      32.625  18.055  22.811  1.00  0.00     0.047 A 
ATOM     11  C   UNL A   1      32.784  18.152  25.230  1.00  0.00     0.073 A 
ATOM     12  C   UNL A   1      32.502  19.451  22.742  1.00  0.00     0.014 A 
ATOM     13  C   UNL A   1      32.694  19.547  25.138  1.00  0.00     0.050 A 
ATOM     14  C   UNL A   1      32.582  20.217  23.925  1.00  0.00     0.004 A 
ATOM     15  N   UNL A   1      32.705  20.502  26.123  1.00  0.00    -0.351 N 
ATOM     16  C   UNL A   1      32.869  21.763  25.582  1.00  0.00     0.093 A 
ATOM     17  H   UNL A   1      32.610  20.316  27.085  1.00  0.00     0.167 HD
BRANCH   9  18
ATOM     18  O   UNL A   1      32.982  16.069  24.168  1.00  0.00    -0.497 OA
ATOM     19  C   UNL A   1      33.040  15.637  25.527  1.00  0.00     0.278 C 
ENDBRANCH   9  18
BRANCH  16  20
ATOM     20  C   UNL A   1      33.219  22.960  26.351  1.00  0.00     0.227 C 
ATOM     21  O   UNL A   1      34.191  23.021  27.102  1.00  0.00    -0.285 OA
BRANCH  20  22
ATOM     22  C   UNL A   1      32.390  24.196  26.210  1.00  0.00     0.113 A 
ATOM     23  C   UNL A   1      32.966  25.456  26.122  1.00  0.00     0.036 A 
ATOM     24  N   UNL A   1      31.049  23.987  26.184  1.00  0.00    -0.253 NA
ATOM     25  C   UNL A   1      32.112  26.563  26.034  1.00  0.00    -0.047 A 
ATOM     26  C   UNL A   1      30.247  25.065  26.127  1.00  0.00     0.112 A 
ATOM     27  C   UNL A   1      32.641  27.959  25.910  1.00  0.00     0.044 C 
ATOM     28  C   UNL A   1      30.728  26.357  26.052  1.00  0.00     0.023 A 
ENDBRANCH  20  22
ENDBRANCH  16  20
ENDBRANCH   7   8
ENDBRANCH   5   7
ENDBRANCH   4   5
ENDBRANCH   3   4
ENDBRANCH   2   3
ENDBRANCH   1   2
BRANCH   1  29
ATOM     29  C   UNL A   1      38.132  19.944  24.980  1.00  0.00     0.202 C 
BRANCH  29  30
ATOM     30  C   UNL A   1      39.231  19.881  26.042  1.00  0.00     0.261 C 
BRANCH  30  31
ATOM     31  O   UNL A   1      40.470  19.318  25.614  1.00  0.00    -0.460 OA
BRANCH  31  32
ATOM     32  C   UNL A   1      41.497  19.519  26.463  1.00  0.00     0.338 C 
ATOM     33  O   UNL A   1      42.311  18.703  26.879  1.00  0.00    -0.246 OA
BRANCH  32  34
ATOM     34  C   UNL A   1      41.571  20.944  26.778  1.00  0.00     0.060 A 
ATOM     35  C   UNL A   1      41.294  21.857  25.756  1.00  0.00     0.016 A 
ATOM     36  C   UNL A   1      42.021  21.366  28.031  1.00  0.00     0.016 A 
ATOM     37  C   UNL A   1      41.536  23.208  25.970  1.00  0.00     0.010 A 
ATOM     38  C   UNL A   1      42.256  22.723  28.243  1.00  0.00     0.010 A 
ATOM     39  C   UNL A   1      42.062  23.640  27.196  1.00  0.00    -0.014 A 
BRANCH  39  40
ATOM     40  C   UNL A   1      42.534  25.036  27.318  1.00  0.00     0.031 A 
ATOM     41  C   UNL A   1      41.637  26.056  27.961  1.00  0.00     0.074 A 
ATOM     42  C   UNL A   1      43.765  25.368  26.894  1.00  0.00     0.049 A 
ATOM     43  N   UNL A   1      41.885  27.306  28.253  1.00  0.00    -0.248 NA
ATOM     44  C   UNL A   1      40.280  25.613  28.326  1.00  0.00     0.031 C 
ATOM     45  C   UNL A   1      44.701  24.457  26.234  1.00  0.00     0.029 A 
ATOM     46  N   UNL A   1      44.437  26.560  26.949  1.00  0.00    -0.354 N 
ATOM     47  C   UNL A   1      40.717  27.801  28.819  1.00  0.00     0.074 A 
ATOM     48  C   UNL A   1      39.750  26.727  28.810  1.00  0.00     0.031 C 
ATOM     49  C   UNL A   1      45.826  25.129  25.937  1.00  0.00     0.029 A 
ATOM     50  C   UNL A   1      45.686  26.514  26.380  1.00  0.00     0.049 A 
ATOM     51  H   UNL A   1      44.060  27.373  27.359  1.00  0.00     0.167 HD
ATOM     52  C   UNL A   1      40.481  29.036  29.324  1.00  0.00     0.034 A 
ATOM     53  C   UNL A   1      46.611  27.483  26.240  1.00  0.00     0.034 A 
ATOM     54  C   UNL A   1      41.459  30.088  29.347  1.00  0.00     0.049 A 
ATOM     55  C   UNL A   1      46.333  28.839  26.832  1.00  0.00     0.074 A 
ATOM     56  C   UNL A   1      41.343  31.362  29.871  1.00  0.00     0.029 A 
ATOM     57  N   UNL A   1      42.736  29.988  28.813  1.00  0.00    -0.354 N 
ATOM     58  N   UNL A   1      45.274  29.252  27.485  1.00  0.00    -0.248 NA
ATOM     59  C   UNL A   1      47.394  29.849  26.707  1.00  0.00     0.031 C 
ATOM     60  C   UNL A   1      42.546  32.038  29.642  1.00  0.00     0.029 A 
ATOM     61  C   UNL A   1      43.418  31.178  28.992  1.00  0.00     0.049 A 
ATOM     62  H   UNL A   1      43.103  29.188  28.373  1.00  0.00     0.167 HD
ATOM     63  C   UNL A   1      45.552  30.556  27.882  1.00  0.00     0.074 A 
ATOM     64  C   UNL A   1      46.889  30.855  27.410  1.00  0.00     0.031 C 
ATOM     65  C   UNL A   1      44.770  31.431  28.560  1.00  0.00     0.034 A 
BRANCH  52  66
ATOM     66  C   UNL A   1      39.126  29.297  29.928  1.00  0.00     0.023 A 
ATOM     67  C   UNL A   1      38.842  28.825  31.226  1.00  0.00     0.012 A 
ATOM     68  C   UNL A   1      38.153  30.046  29.238  1.00  0.00     0.148 A 
ATOM     69  C   UNL A   1      37.602  29.069  31.816  1.00  0.00     0.002 A 
ATOM     70  C   UNL A   1      36.933  30.318  29.847  1.00  0.00     0.091 A 
ATOM     71  F   UNL A   1      38.431  30.464  27.994  1.00  0.00    -0.205 F 
ATOM     72  C   UNL A   1      36.652  29.822  31.131  1.00  0.00     0.022 A 
BRANCH  70  73
ATOM     73  S   UNL A   1      35.671  31.335  29.074  1.00  0.00     0.127 S 
ATOM     74  O   UNL A   1      36.480  32.357  28.411  1.00  0.00    -0.237 OA
ATOM     75  O   UNL A   1      35.023  30.389  28.165  1.00  0.00    -0.237 OA
ATOM     76  O   UNL A   1      34.822  31.812  30.157  1.00  0.00    -0.744 OA
ENDBRANCH  70  73
ENDBRANCH  52  66
BRANCH  53  77
ATOM     77  C   UNL A   1      47.909  27.174  25.576  1.00  0.00     0.023 A 
ATOM     78  C   UNL A   1      48.942  26.567  26.315  1.00  0.00     0.012 A 
ATOM     79  C   UNL A   1      48.106  27.435  24.207  1.00  0.00     0.148 A 
ATOM     80  C   UNL A   1      50.157  26.247  25.707  1.00  0.00     0.002 A 
ATOM     81  C   UNL A   1      49.298  27.066  23.594  1.00  0.00     0.091 A 
ATOM     82  F   UNL A   1      47.118  28.031  23.523  1.00  0.00    -0.205 F 
ATOM     83  C   UNL A   1      50.331  26.485  24.346  1.00  0.00     0.022 A 
BRANCH  81  84
ATOM     84  S   UNL A   1      49.550  27.213  21.822  1.00  0.00     0.127 S 
ATOM     85  O   UNL A   1      49.283  28.631  21.598  1.00  0.00    -0.237 OA
ATOM     86  O   UNL A   1      50.952  26.820  21.678  1.00  0.00    -0.237 OA
ATOM     87  O   UNL A   1      48.606  26.283  21.217  1.00  0.00    -0.744 OA
ENDBRANCH  81  84
ENDBRANCH  53  77
BRANCH  65  88
ATOM     88  C   UNL A   1      45.347  32.787  28.863  1.00  0.00     0.023 A 
ATOM     89  C   UNL A   1      46.039  32.998  30.073  1.00  0.00     0.012 A 
ATOM     90  C   UNL A   1      45.273  33.828  27.917  1.00  0.00     0.148 A 
ATOM     91  C   UNL A   1      46.622  34.233  30.350  1.00  0.00     0.002 A 
ATOM     92  C   UNL A   1      45.896  35.043  28.180  1.00  0.00     0.091 A 
ATOM     93  F   UNL A   1      44.594  33.615  26.781  1.00  0.00    -0.205 F 
ATOM     94  C   UNL A   1      46.561  35.251  29.400  1.00  0.00     0.022 A 
BRANCH  92  95
ATOM     95  S   UNL A   1      45.948  36.370  26.970  1.00  0.00     0.127 S 
ATOM     96  O   UNL A   1      44.538  36.745  26.879  1.00  0.00    -0.237 OA
ATOM     97  O   UNL A   1      46.802  37.360  27.627  1.00  0.00    -0.237 OA
ATOM     98  O   UNL A   1      46.524  35.786  25.766  1.00  0.00    -0.744 OA
ENDBRANCH  92  95
ENDBRANCH  65  88
ENDBRANCH  39  40
ENDBRANCH  32  34
ENDBRANCH  31  32
ENDBRANCH  30  31
ENDBRANCH  29  30
ENDBRANCH   1  29
TORSDOF 21
ENDMDL
