MODEL 1
REMARK VINA RESULT:     -10.0      0.000      0.000
REMARK SMILES C[C@@H](NC(=O)[C@H]1CC=CC[C@@H]1C(=O)OCCOCCOC(=O)c1ccc(-c2c3nc(c(-c4cccc(S(=O)(=O)[O-])c4F)c4ccc([nH]4)c(-c4cccc(S(=O)(=O)[O-])c4F)c4nc(c(-c5cccc(S(=O)(=O)[O-])c5F)c5ccc2[nH]5)C=C4)C=C3)cc1)c1ccc(-n2ccnc2)cc1
REMARK SMILES IDX 16 1 15 2 14 3 12 4 13 5 11 6 6 7 7 8 8 9 10 10 9 11 4 12
REMARK SMILES IDX 3 13 5 15 2 16 1 17 86 18 87 19 96 20 88 21 95 22 89 23
REMARK SMILES IDX 90 24 91 25 94 26 92 27 93 28 17 29 18 30 19 31 20 32 21 33
REMARK SMILES IDX 22 34 23 35 24 36 85 37 25 38 84 39 26 40 27 41 28 42 78 43
REMARK SMILES IDX 29 44 83 45 77 46 79 47 30 48 82 49 76 50 75 51 31 53 63 54
REMARK SMILES IDX 43 55 62 56 44 57 47 58 61 59 80 60 45 61 46 62 60 64 81 65
REMARK SMILES IDX 48 66 32 67 33 68 41 69 34 70 36 71 42 72 35 73 37 74 38 75
REMARK SMILES IDX 39 76 40 77 64 78 65 79 73 80 66 81 68 82 74 83 67 84 69 85
REMARK SMILES IDX 70 86 71 87 72 88 49 89 50 90 58 91 51 92 53 93 59 94 52 95
REMARK SMILES IDX 54 96 55 97 56 98 57 99
REMARK H PARENT 3 14 79 52 47 63
REMARK Flexibility Score: inf
ROOT
ATOM      1  C   UNL A   1      39.435  21.174  26.354  1.00  0.00     0.202 C 
ENDROOT
BRANCH   1   2
ATOM      2  C   UNL A   1      38.420  22.039  25.557  1.00  0.00     0.261 C 
BRANCH   2   3
ATOM      3  O   UNL A   1      37.038  21.879  26.000  1.00  0.00    -0.463 OA
BRANCH   3   4
ATOM      4  C   UNL A   1      36.286  20.996  25.303  1.00  0.00     0.310 C 
ATOM      5  O   UNL A   1      36.736  19.943  24.856  1.00  0.00    -0.252 OA
BRANCH   4   6
ATOM      6  C   UNL A   1      34.788  21.320  25.189  1.00  0.00     0.115 C 
ATOM      7  C   UNL A   1      34.233  22.462  24.267  1.00  0.00     0.097 C 
ATOM      8  C   UNL A   1      34.028  23.794  25.013  1.00  0.00     0.041 C 
ATOM      9  C   UNL A   1      33.669  23.743  26.457  1.00  0.00    -0.030 C 
ATOM     10  C   UNL A   1      34.220  21.321  26.633  1.00  0.00     0.043 C 
ATOM     11  C   UNL A   1      33.742  22.628  27.182  1.00  0.00    -0.030 C 
BRANCH   7  12
ATOM     12  C   UNL A   1      32.861  22.044  23.687  1.00  0.00     0.224 C 
ATOM     13  N   UNL A   1      32.109  22.708  22.773  1.00  0.00    -0.349 N 
ATOM     14  H   UNL A   1      31.274  22.205  22.636  1.00  0.00     0.164 HD
ATOM     15  O   UNL A   1      32.319  21.009  24.106  1.00  0.00    -0.275 OA
BRANCH  13  16
ATOM     16  C   UNL A   1      32.079  23.917  21.901  1.00  0.00     0.109 C 
ATOM     17  C   UNL A   1      33.242  23.816  20.906  1.00  0.00     0.036 C 
BRANCH  16  18
ATOM     18  C   UNL A   1      32.015  25.230  22.622  1.00  0.00    -0.026 A 
ATOM     19  C   UNL A   1      30.917  25.435  23.449  1.00  0.00     0.008 A 
ATOM     20  C   UNL A   1      33.010  26.220  22.574  1.00  0.00     0.008 A 
ATOM     21  C   UNL A   1      31.011  26.344  24.477  1.00  0.00     0.027 A 
ATOM     22  C   UNL A   1      33.066  27.208  23.556  1.00  0.00     0.027 A 
ATOM     23  C   UNL A   1      32.149  27.132  24.591  1.00  0.00     0.046 A 
BRANCH  23  24
ATOM     24  N   UNL A   1      32.236  27.997  25.693  1.00  0.00    -0.306 N 
ATOM     25  C   UNL A   1      33.695  27.823  26.740  1.00  0.00     0.113 A 
ATOM     26  C   UNL A   1      31.746  29.736  25.700  1.00  0.00     0.204 A 
ATOM     27  C   UNL A   1      34.172  29.603  27.466  1.00  0.00     0.131 A 
ATOM     28  N   UNL A   1      32.774  30.705  26.674  1.00  0.00    -0.245 NA
ENDBRANCH  23  24
ENDBRANCH  16  18
ENDBRANCH  13  16
ENDBRANCH   7  12
ENDBRANCH   4   6
ENDBRANCH   3   4
ENDBRANCH   2   3
ENDBRANCH   1   2
BRANCH   1  29
ATOM     29  O   UNL A   1      40.445  21.883  27.066  1.00  0.00    -0.374 OA
BRANCH  29  30
ATOM     30  C   UNL A   1      41.667  21.186  27.322  1.00  0.00     0.202 C 
BRANCH  30  31
ATOM     31  C   UNL A   1      42.744  21.171  26.226  1.00  0.00     0.261 C 
BRANCH  31  32
ATOM     32  O   UNL A   1      42.440  22.173  25.234  1.00  0.00    -0.460 OA
BRANCH  32  33
ATOM     33  C   UNL A   1      43.493  22.918  24.808  1.00  0.00     0.338 C 
ATOM     34  O   UNL A   1      44.074  22.728  23.746  1.00  0.00    -0.246 OA
BRANCH  33  35
ATOM     35  C   UNL A   1      43.981  24.062  25.878  1.00  0.00     0.060 A 
ATOM     36  C   UNL A   1      44.105  24.133  27.980  1.00  0.00     0.016 A 
ATOM     37  C   UNL A   1      43.408  25.525  25.057  1.00  0.00     0.016 A 
ATOM     38  C   UNL A   1      43.549  25.557  28.806  1.00  0.00     0.010 A 
ATOM     39  C   UNL A   1      43.008  26.864  26.043  1.00  0.00     0.010 A 
ATOM     40  C   UNL A   1      43.097  26.886  27.814  1.00  0.00    -0.014 A 
BRANCH  40  41
ATOM     41  C   UNL A   1      43.182  28.190  28.497  1.00  0.00     0.031 A 
ATOM     42  C   UNL A   1      44.518  28.821  28.608  1.00  0.00     0.074 A 
ATOM     43  C   UNL A   1      42.071  28.706  29.076  1.00  0.00     0.049 A 
ATOM     44  N   UNL A   1      44.849  29.867  29.301  1.00  0.00    -0.248 NA
ATOM     45  C   UNL A   1      45.655  28.128  27.977  1.00  0.00     0.031 C 
ATOM     46  C   UNL A   1      40.752  28.056  29.191  1.00  0.00     0.029 A 
ATOM     47  N   UNL A   1      41.841  29.928  29.643  1.00  0.00    -0.354 N 
ATOM     48  C   UNL A   1      46.229  29.888  29.265  1.00  0.00     0.074 A 
ATOM     49  C   UNL A   1      46.674  28.686  28.606  1.00  0.00     0.031 C 
ATOM     50  C   UNL A   1      39.831  28.939  29.587  1.00  0.00     0.029 A 
ATOM     51  C   UNL A   1      40.513  30.167  29.931  1.00  0.00     0.049 A 
ATOM     52  H   UNL A   1      42.558  30.579  29.830  1.00  0.00     0.167 HD
ATOM     53  C   UNL A   1      47.043  30.876  29.678  1.00  0.00     0.034 A 
ATOM     54  C   UNL A   1      39.916  31.258  30.441  1.00  0.00     0.034 A 
ATOM     55  C   UNL A   1      46.529  32.101  30.207  1.00  0.00     0.049 A 
ATOM     56  C   UNL A   1      40.830  32.389  30.789  1.00  0.00     0.074 A 
ATOM     57  C   UNL A   1      47.216  33.232  30.586  1.00  0.00     0.029 A 
ATOM     58  N   UNL A   1      45.175  32.349  30.413  1.00  0.00    -0.354 N 
ATOM     59  N   UNL A   1      42.136  32.445  30.666  1.00  0.00    -0.248 NA
ATOM     60  C   UNL A   1      40.214  33.597  31.339  1.00  0.00     0.031 C 
ATOM     61  C   UNL A   1      46.278  34.150  31.069  1.00  0.00     0.029 A 
ATOM     62  C   UNL A   1      45.004  33.615  30.925  1.00  0.00     0.049 A 
ATOM     63  H   UNL A   1      44.449  31.713  30.221  1.00  0.00     0.167 HD
ATOM     64  C   UNL A   1      42.504  33.701  31.106  1.00  0.00     0.074 A 
ATOM     65  C   UNL A   1      41.273  34.385  31.466  1.00  0.00     0.031 C 
ATOM     66  C   UNL A   1      43.740  34.240  31.225  1.00  0.00     0.034 A 
BRANCH  53  67
ATOM     67  C   UNL A   1      48.518  30.652  29.536  1.00  0.00     0.023 A 
ATOM     68  C   UNL A   1      49.247  29.976  30.540  1.00  0.00     0.012 A 
ATOM     69  C   UNL A   1      49.193  31.165  28.418  1.00  0.00     0.148 A 
ATOM     70  C   UNL A   1      50.634  29.869  30.458  1.00  0.00     0.002 A 
ATOM     71  C   UNL A   1      50.564  30.995  28.310  1.00  0.00     0.091 A 
ATOM     72  F   UNL A   1      48.485  31.837  27.499  1.00  0.00    -0.205 F 
ATOM     73  C   UNL A   1      51.291  30.370  29.337  1.00  0.00     0.022 A 
BRANCH  71  74
ATOM     74  S   UNL A   1      51.485  31.532  26.868  1.00  0.00     0.127 S 
ATOM     75  O   UNL A   1      50.686  30.969  25.780  1.00  0.00    -0.237 OA
ATOM     76  O   UNL A   1      51.412  32.987  26.992  1.00  0.00    -0.237 OA
ATOM     77  O   UNL A   1      52.821  30.967  27.006  1.00  0.00    -0.744 OA
ENDBRANCH  71  74
ENDBRANCH  53  67
BRANCH  54  78
ATOM     78  C   UNL A   1      38.436  31.324  30.630  1.00  0.00     0.023 A 
ATOM     79  C   UNL A   1      37.838  30.700  31.742  1.00  0.00     0.012 A 
ATOM     80  C   UNL A   1      37.616  32.032  29.728  1.00  0.00     0.148 A 
ATOM     81  C   UNL A   1      36.453  30.744  31.928  1.00  0.00     0.002 A 
ATOM     82  C   UNL A   1      36.246  32.125  29.952  1.00  0.00     0.091 A 
ATOM     83  F   UNL A   1      38.195  32.624  28.675  1.00  0.00    -0.205 F 
ATOM     84  C   UNL A   1      35.659  31.462  31.039  1.00  0.00     0.022 A 
BRANCH  82  85
ATOM     85  S   UNL A   1      35.174  33.144  28.932  1.00  0.00     0.127 S 
ATOM     86  O   UNL A   1      33.853  32.797  29.446  1.00  0.00    -0.237 OA
ATOM     87  O   UNL A   1      35.634  34.493  29.265  1.00  0.00    -0.237 OA
ATOM     88  O   UNL A   1      35.444  32.745  27.556  1.00  0.00    -0.744 OA
ENDBRANCH  82  85
ENDBRANCH  54  78
BRANCH  66  89
ATOM     89  C   UNL A   1      43.800  35.655  31.705  1.00  0.00     0.023 A 
ATOM     90  C   UNL A   1      43.898  35.934  33.080  1.00  0.00     0.012 A 
ATOM     91  C   UNL A   1      43.853  36.697  30.762  1.00  0.00     0.148 A 
ATOM     92  C   UNL A   1      44.014  37.249  33.515  1.00  0.00     0.002 A 
ATOM     93  C   UNL A   1      44.041  37.995  31.201  1.00  0.00     0.091 A 
ATOM     94  F   UNL A   1      43.740  36.391  29.462  1.00  0.00    -0.205 F 
ATOM     95  C   UNL A   1      44.104  38.275  32.575  1.00  0.00     0.022 A 
BRANCH  93  96
ATOM     96  S   UNL A   1      44.294  39.353  30.060  1.00  0.00     0.127 S 
ATOM     97  O   UNL A   1      43.007  39.398  29.367  1.00  0.00    -0.237 OA
ATOM     98  O   UNL A   1      44.540  40.471  30.970  1.00  0.00    -0.237 OA
ATOM     99  O   UNL A   1      45.432  38.982  29.231  1.00  0.00    -0.744 OA
ENDBRANCH  93  96
ENDBRANCH  66  89
ENDBRANCH  40  41
ENDBRANCH  33  35
ENDBRANCH  32  33
ENDBRANCH  31  32
ENDBRANCH  30  31
ENDBRANCH  29  30
ENDBRANCH   1  29
TORSDOF 21
ENDMDL
MODEL 2
REMARK VINA RESULT:     -10.0      1.693      2.661
REMARK SMILES C[C@@H](NC(=O)[C@H]1CC=CC[C@@H]1C(=O)OCCOCCOC(=O)c1ccc(-c2c3nc(c(-c4cccc(S(=O)(=O)[O-])c4F)c4ccc([nH]4)c(-c4cccc(S(=O)(=O)[O-])c4F)c4nc(c(-c5cccc(S(=O)(=O)[O-])c5F)c5ccc2[nH]5)C=C4)C=C3)cc1)c1ccc(-n2ccnc2)cc1
REMARK SMILES IDX 16 1 15 2 14 3 12 4 13 5 11 6 6 7 7 8 8 9 10 10 9 11 4 12
REMARK SMILES IDX 3 13 5 15 2 16 1 17 86 18 87 19 96 20 88 21 95 22 89 23
REMARK SMILES IDX 90 24 91 25 94 26 92 27 93 28 17 29 18 30 19 31 20 32 21 33
REMARK SMILES IDX 22 34 23 35 24 36 85 37 25 38 84 39 26 40 27 41 28 42 78 43
REMARK SMILES IDX 29 44 83 45 77 46 79 47 30 48 82 49 76 50 75 51 31 53 63 54
REMARK SMILES IDX 43 55 62 56 44 57 47 58 61 59 80 60 45 61 46 62 60 64 81 65
REMARK SMILES IDX 48 66 32 67 33 68 41 69 34 70 36 71 42 72 35 73 37 74 38 75
REMARK SMILES IDX 39 76 40 77 64 78 65 79 73 80 66 81 68 82 74 83 67 84 69 85
REMARK SMILES IDX 70 86 71 87 72 88 49 89 50 90 58 91 51 92 53 93 59 94 52 95
REMARK SMILES IDX 54 96 55 97 56 98 57 99
REMARK H PARENT 3 14 79 52 47 63
REMARK Flexibility Score: inf
ROOT
ATOM      1  C   UNL A   1      36.584  21.263  25.669  1.00  0.00     0.202 C 
ENDROOT
BRANCH   1   2
ATOM      2  C   UNL A   1      35.569  20.301  24.993  1.00  0.00     0.261 C 
BRANCH   2   3
ATOM      3  O   UNL A   1      34.212  20.414  25.522  1.00  0.00    -0.463 OA
BRANCH   3   4
ATOM      4  C   UNL A   1      33.288  20.945  24.689  1.00  0.00     0.310 C 
ATOM      5  O   UNL A   1      32.710  20.286  23.826  1.00  0.00    -0.252 OA
BRANCH   4   6
ATOM      6  C   UNL A   1      32.903  22.411  24.945  1.00  0.00     0.115 C 
ATOM      7  C   UNL A   1      31.413  22.892  25.049  1.00  0.00     0.097 C 
ATOM      8  C   UNL A   1      30.857  23.425  23.716  1.00  0.00     0.041 C 
ATOM      9  C   UNL A   1      31.803  24.083  22.772  1.00  0.00    -0.030 C 
ATOM     10  C   UNL A   1      33.801  23.276  24.022  1.00  0.00     0.043 C 
ATOM     11  C   UNL A   1      33.126  24.027  22.918  1.00  0.00    -0.030 C 
BRANCH   7  12
ATOM     12  C   UNL A   1      31.306  24.039  26.083  1.00  0.00     0.224 C 
ATOM     13  N   UNL A   1      31.897  25.259  26.035  1.00  0.00    -0.349 N 
ATOM     14  H   UNL A   1      31.664  25.748  26.857  1.00  0.00     0.164 HD
ATOM     15  O   UNL A   1      30.649  23.855  27.120  1.00  0.00    -0.275 OA
BRANCH  13  16
ATOM     16  C   UNL A   1      32.769  26.132  25.198  1.00  0.00     0.109 C 
ATOM     17  C   UNL A   1      33.763  26.842  26.124  1.00  0.00     0.036 C 
BRANCH  16  18
ATOM     18  C   UNL A   1      32.047  27.058  24.265  1.00  0.00    -0.026 A 
ATOM     19  C   UNL A   1      30.671  27.159  24.427  1.00  0.00     0.008 A 
ATOM     20  C   UNL A   1      32.668  27.870  23.302  1.00  0.00     0.008 A 
ATOM     21  C   UNL A   1      30.022  28.287  23.980  1.00  0.00     0.027 A 
ATOM     22  C   UNL A   1      31.994  28.965  22.766  1.00  0.00     0.027 A 
ATOM     23  C   UNL A   1      30.731  29.242  23.261  1.00  0.00     0.046 A 
BRANCH  23  24
ATOM     24  N   UNL A   1      30.050  30.411  22.883  1.00  0.00    -0.306 N 
ATOM     25  C   UNL A   1      29.262  30.392  21.260  1.00  0.00     0.113 A 
ATOM     26  C   UNL A   1      29.051  31.442  23.979  1.00  0.00     0.204 A 
ATOM     27  C   UNL A   1      27.622  31.502  21.338  1.00  0.00     0.131 A 
ATOM     28  N   UNL A   1      27.675  32.098  23.192  1.00  0.00    -0.245 NA
ENDBRANCH  23  24
ENDBRANCH  16  18
ENDBRANCH  13  16
ENDBRANCH   7  12
ENDBRANCH   4   6
ENDBRANCH   3   4
ENDBRANCH   2   3
ENDBRANCH   1   2
BRANCH   1  29
ATOM     29  O   UNL A   1      37.889  21.306  25.099  1.00  0.00    -0.374 OA
BRANCH  29  30
ATOM     30  C   UNL A   1      38.663  20.105  25.161  1.00  0.00     0.202 C 
BRANCH  30  31
ATOM     31  C   UNL A   1      39.936  20.099  26.020  1.00  0.00     0.261 C 
BRANCH  31  32
ATOM     32  O   UNL A   1      40.028  21.334  26.759  1.00  0.00    -0.460 OA
BRANCH  32  33
ATOM     33  C   UNL A   1      41.056  22.153  26.411  1.00  0.00     0.338 C 
ATOM     34  O   UNL A   1      42.092  21.757  25.890  1.00  0.00    -0.246 OA
BRANCH  33  35
ATOM     35  C   UNL A   1      40.827  23.725  26.817  1.00  0.00     0.060 A 
ATOM     36  C   UNL A   1      40.676  25.510  25.707  1.00  0.00     0.016 A 
ATOM     37  C   UNL A   1      41.745  23.796  28.332  1.00  0.00     0.016 A 
ATOM     38  C   UNL A   1      41.532  26.918  26.262  1.00  0.00     0.010 A 
ATOM     39  C   UNL A   1      42.426  25.306  28.760  1.00  0.00     0.010 A 
ATOM     40  C   UNL A   1      42.306  26.787  27.791  1.00  0.00    -0.014 A 
BRANCH  40  41
ATOM     41  C   UNL A   1      42.513  28.083  28.461  1.00  0.00     0.031 A 
ATOM     42  C   UNL A   1      43.899  28.601  28.543  1.00  0.00     0.074 A 
ATOM     43  C   UNL A   1      41.460  28.695  29.055  1.00  0.00     0.049 A 
ATOM     44  N   UNL A   1      44.329  29.620  29.220  1.00  0.00    -0.248 NA
ATOM     45  C   UNL A   1      44.962  27.810  27.897  1.00  0.00     0.031 C 
ATOM     46  C   UNL A   1      40.094  28.160  29.200  1.00  0.00     0.029 A 
ATOM     47  N   UNL A   1      41.344  29.937  29.615  1.00  0.00    -0.354 N 
ATOM     48  C   UNL A   1      45.706  29.525  29.159  1.00  0.00     0.074 A 
ATOM     49  C   UNL A   1      46.035  28.285  28.503  1.00  0.00     0.031 C 
ATOM     50  C   UNL A   1      39.257  29.120  29.604  1.00  0.00     0.029 A 
ATOM     51  C   UNL A   1      40.046  30.289  29.924  1.00  0.00     0.049 A 
ATOM     52  H   UNL A   1      42.116  30.526  29.783  1.00  0.00     0.167 HD
ATOM     53  C   UNL A   1      46.607  30.445  29.548  1.00  0.00     0.034 A 
ATOM     54  C   UNL A   1      39.553  31.430  30.435  1.00  0.00     0.034 A 
ATOM     55  C   UNL A   1      46.207  31.712  30.076  1.00  0.00     0.049 A 
ATOM     56  C   UNL A   1      40.565  32.482  30.757  1.00  0.00     0.074 A 
ATOM     57  C   UNL A   1      46.993  32.784  30.432  1.00  0.00     0.029 A 
ATOM     58  N   UNL A   1      44.883  32.074  30.303  1.00  0.00    -0.354 N 
ATOM     59  N   UNL A   1      41.868  32.428  30.610  1.00  0.00    -0.248 NA
ATOM     60  C   UNL A   1      40.063  33.742  31.306  1.00  0.00     0.031 C 
ATOM     61  C   UNL A   1      46.146  33.781  30.923  1.00  0.00     0.029 A 
ATOM     62  C   UNL A   1      44.828  33.354  30.807  1.00  0.00     0.049 A 
ATOM     63  H   UNL A   1      44.103  31.500  30.131  1.00  0.00     0.167 HD
ATOM     64  C   UNL A   1      42.348  33.651  31.032  1.00  0.00     0.074 A 
ATOM     65  C   UNL A   1      41.186  34.439  31.407  1.00  0.00     0.031 C 
ATOM     66  C   UNL A   1      43.627  34.086  31.124  1.00  0.00     0.034 A 
BRANCH  53  67
ATOM     67  C   UNL A   1      48.055  30.096  29.382  1.00  0.00     0.023 A 
ATOM     68  C   UNL A   1      48.797  29.556  30.456  1.00  0.00     0.012 A 
ATOM     69  C   UNL A   1      48.695  30.358  28.162  1.00  0.00     0.148 A 
ATOM     70  C   UNL A   1      50.168  29.339  30.332  1.00  0.00     0.002 A 
ATOM     71  C   UNL A   1      50.046  30.076  28.024  1.00  0.00     0.091 A 
ATOM     72  F   UNL A   1      47.979  30.908  27.171  1.00  0.00    -0.205 F 
ATOM     73  C   UNL A   1      50.790  29.589  29.111  1.00  0.00     0.022 A 
BRANCH  71  74
ATOM     74  S   UNL A   1      50.914  30.287  26.470  1.00  0.00     0.127 S 
ATOM     75  O   UNL A   1      50.603  31.679  26.144  1.00  0.00    -0.237 OA
ATOM     76  O   UNL A   1      52.300  30.047  26.868  1.00  0.00    -0.237 OA
ATOM     77  O   UNL A   1      50.356  29.302  25.554  1.00  0.00    -0.744 OA
ENDBRANCH  71  74
ENDBRANCH  53  67
BRANCH  54  78
ATOM     78  C   UNL A   1      38.087  31.621  30.650  1.00  0.00     0.023 A 
ATOM     79  C   UNL A   1      37.487  31.190  31.850  1.00  0.00     0.012 A 
ATOM     80  C   UNL A   1      37.285  32.261  29.683  1.00  0.00     0.148 A 
ATOM     81  C   UNL A   1      36.115  31.353  32.062  1.00  0.00     0.002 A 
ATOM     82  C   UNL A   1      35.933  32.476  29.926  1.00  0.00     0.091 A 
ATOM     83  F   UNL A   1      37.866  32.669  28.547  1.00  0.00    -0.205 F 
ATOM     84  C   UNL A   1      35.340  32.002  31.105  1.00  0.00     0.022 A 
BRANCH  82  85
ATOM     85  S   UNL A   1      34.895  33.425  28.806  1.00  0.00     0.127 S 
ATOM     86  O   UNL A   1      34.912  32.593  27.607  1.00  0.00    -0.237 OA
ATOM     87  O   UNL A   1      33.621  33.451  29.525  1.00  0.00    -0.237 OA
ATOM     88  O   UNL A   1      35.538  34.728  28.684  1.00  0.00    -0.744 OA
ENDBRANCH  82  85
ENDBRANCH  54  78
BRANCH  66  89
ATOM     89  C   UNL A   1      43.814  35.494  31.590  1.00  0.00     0.023 A 
ATOM     90  C   UNL A   1      44.082  35.763  32.944  1.00  0.00     0.012 A 
ATOM     91  C   UNL A   1      43.814  36.535  30.645  1.00  0.00     0.148 A 
ATOM     92  C   UNL A   1      44.315  37.069  33.359  1.00  0.00     0.002 A 
ATOM     93  C   UNL A   1      44.117  37.820  31.055  1.00  0.00     0.091 A 
ATOM     94  F   UNL A   1      43.537  36.239  29.367  1.00  0.00    -0.205 F 
ATOM     95  C   UNL A   1      44.350  38.093  32.413  1.00  0.00     0.022 A 
BRANCH  93  96
ATOM     96  S   UNL A   1      44.308  39.167  29.889  1.00  0.00     0.127 S 
ATOM     97  O   UNL A   1      44.598  40.288  30.781  1.00  0.00    -0.237 OA
ATOM     98  O   UNL A   1      45.442  38.713  29.084  1.00  0.00    -0.237 OA
ATOM     99  O   UNL A   1      43.048  39.260  29.165  1.00  0.00    -0.744 OA
ENDBRANCH  93  96
ENDBRANCH  66  89
ENDBRANCH  40  41
ENDBRANCH  33  35
ENDBRANCH  32  33
ENDBRANCH  31  32
ENDBRANCH  30  31
ENDBRANCH  29  30
ENDBRANCH   1  29
TORSDOF 21
ENDMDL
MODEL 3
REMARK VINA RESULT:      -9.8      5.545      7.571
REMARK SMILES C[C@@H](NC(=O)[C@H]1CC=CC[C@@H]1C(=O)OCCOCCOC(=O)c1ccc(-c2c3nc(c(-c4cccc(S(=O)(=O)[O-])c4F)c4ccc([nH]4)c(-c4cccc(S(=O)(=O)[O-])c4F)c4nc(c(-c5cccc(S(=O)(=O)[O-])c5F)c5ccc2[nH]5)C=C4)C=C3)cc1)c1ccc(-n2ccnc2)cc1
REMARK SMILES IDX 16 1 15 2 14 3 12 4 13 5 11 6 6 7 7 8 8 9 10 10 9 11 4 12
REMARK SMILES IDX 3 13 5 15 2 16 1 17 86 18 87 19 96 20 88 21 95 22 89 23
REMARK SMILES IDX 90 24 91 25 94 26 92 27 93 28 17 29 18 30 19 31 20 32 21 33
REMARK SMILES IDX 22 34 23 35 24 36 85 37 25 38 84 39 26 40 27 41 28 42 78 43
REMARK SMILES IDX 29 44 83 45 77 46 79 47 30 48 82 49 76 50 75 51 31 53 63 54
REMARK SMILES IDX 43 55 62 56 44 57 47 58 61 59 80 60 45 61 46 62 60 64 81 65
REMARK SMILES IDX 48 66 32 67 33 68 41 69 34 70 36 71 42 72 35 73 37 74 38 75
REMARK SMILES IDX 39 76 40 77 64 78 65 79 73 80 66 81 68 82 74 83 67 84 69 85
REMARK SMILES IDX 70 86 71 87 72 88 49 89 50 90 58 91 51 92 53 93 59 94 52 95
REMARK SMILES IDX 54 96 55 97 56 98 57 99
REMARK H PARENT 3 14 79 52 47 63
REMARK Flexibility Score: inf
ROOT
ATOM      1  C   UNL A   1      34.256  21.106  26.601  1.00  0.00     0.202 C 
ENDROOT
BRANCH   1   2
ATOM      2  C   UNL A   1      33.299  20.389  25.610  1.00  0.00     0.261 C 
BRANCH   2   3
ATOM      3  O   UNL A   1      32.187  21.224  25.163  1.00  0.00    -0.463 OA
BRANCH   3   4
ATOM      4  C   UNL A   1      32.308  21.771  23.931  1.00  0.00     0.310 C 
ATOM      5  O   UNL A   1      32.267  21.104  22.898  1.00  0.00    -0.252 OA
BRANCH   4   6
ATOM      6  C   UNL A   1      32.387  23.305  23.873  1.00  0.00     0.115 C 
ATOM      7  C   UNL A   1      33.548  24.069  23.144  1.00  0.00     0.097 C 
ATOM      8  C   UNL A   1      34.693  24.471  24.092  1.00  0.00     0.041 C 
ATOM      9  C   UNL A   1      34.357  24.776  25.510  1.00  0.00    -0.030 C 
ATOM     10  C   UNL A   1      32.066  23.823  25.300  1.00  0.00     0.043 C 
ATOM     11  C   UNL A   1      33.171  24.496  26.049  1.00  0.00    -0.030 C 
BRANCH   7  12
ATOM     12  C   UNL A   1      32.999  25.368  22.508  1.00  0.00     0.224 C 
ATOM     13  N   UNL A   1      32.067  26.212  23.015  1.00  0.00    -0.349 N 
ATOM     14  H   UNL A   1      31.906  26.927  22.358  1.00  0.00     0.164 HD
ATOM     15  O   UNL A   1      33.394  25.699  21.378  1.00  0.00    -0.275 OA
BRANCH  13  16
ATOM     16  C   UNL A   1      31.196  26.458  24.201  1.00  0.00     0.109 C 
ATOM     17  C   UNL A   1      29.740  26.497  23.723  1.00  0.00     0.036 C 
BRANCH  16  18
ATOM     18  C   UNL A   1      31.582  27.630  25.053  1.00  0.00    -0.026 A 
ATOM     19  C   UNL A   1      31.491  27.457  26.429  1.00  0.00     0.008 A 
ATOM     20  C   UNL A   1      32.088  28.844  24.563  1.00  0.00     0.008 A 
ATOM     21  C   UNL A   1      32.251  28.252  27.257  1.00  0.00     0.027 A 
ATOM     22  C   UNL A   1      32.781  29.709  25.409  1.00  0.00     0.027 A 
ATOM     23  C   UNL A   1      32.991  29.293  26.713  1.00  0.00     0.046 A 
BRANCH  23  24
ATOM     24  N   UNL A   1      33.806  30.036  27.582  1.00  0.00    -0.306 N 
ATOM     25  C   UNL A   1      35.497  29.445  27.800  1.00  0.00     0.113 A 
ATOM     26  C   UNL A   1      33.820  31.837  27.722  1.00  0.00     0.204 A 
ATOM     27  C   UNL A   1      36.682  31.006  28.098  1.00  0.00     0.131 A 
ATOM     28  N   UNL A   1      35.390  32.462  28.017  1.00  0.00    -0.245 NA
ENDBRANCH  23  24
ENDBRANCH  16  18
ENDBRANCH  13  16
ENDBRANCH   7  12
ENDBRANCH   4   6
ENDBRANCH   3   4
ENDBRANCH   2   3
ENDBRANCH   1   2
BRANCH   1  29
ATOM     29  O   UNL A   1      35.568  21.386  26.120  1.00  0.00    -0.374 OA
BRANCH  29  30
ATOM     30  C   UNL A   1      35.968  20.735  24.911  1.00  0.00     0.202 C 
BRANCH  30  31
ATOM     31  C   UNL A   1      37.360  20.086  24.855  1.00  0.00     0.261 C 
BRANCH  31  32
ATOM     32  O   UNL A   1      38.354  21.034  25.295  1.00  0.00    -0.460 OA
BRANCH  32  33
ATOM     33  C   UNL A   1      39.491  20.497  25.811  1.00  0.00     0.338 C 
ATOM     34  O   UNL A   1      39.863  19.352  25.587  1.00  0.00    -0.246 OA
BRANCH  33  35
ATOM     35  C   UNL A   1      40.299  21.495  26.832  1.00  0.00     0.060 A 
ATOM     36  C   UNL A   1      40.014  23.489  27.451  1.00  0.00     0.016 A 
ATOM     37  C   UNL A   1      41.967  20.982  26.518  1.00  0.00     0.016 A 
ATOM     38  C   UNL A   1      41.388  24.550  27.522  1.00  0.00     0.010 A 
ATOM     39  C   UNL A   1      43.196  22.149  26.748  1.00  0.00     0.010 A 
ATOM     40  C   UNL A   1      42.924  23.829  27.244  1.00  0.00    -0.014 A 
BRANCH  40  41
ATOM     41  C   UNL A   1      44.044  24.575  27.846  1.00  0.00     0.031 A 
ATOM     42  C   UNL A   1      44.873  25.413  26.949  1.00  0.00     0.074 A 
ATOM     43  C   UNL A   1      44.331  24.391  29.157  1.00  0.00     0.049 A 
ATOM     44  N   UNL A   1      45.988  26.013  27.226  1.00  0.00    -0.248 NA
ATOM     45  C   UNL A   1      44.482  25.487  25.529  1.00  0.00     0.031 C 
ATOM     46  C   UNL A   1      43.692  23.429  30.074  1.00  0.00     0.029 A 
ATOM     47  N   UNL A   1      45.206  25.039  29.984  1.00  0.00    -0.354 N 
ATOM     48  C   UNL A   1      46.470  26.440  26.003  1.00  0.00     0.074 A 
ATOM     49  C   UNL A   1      45.603  25.915  24.979  1.00  0.00     0.031 C 
ATOM     50  C   UNL A   1      44.036  23.690  31.339  1.00  0.00     0.029 A 
ATOM     51  C   UNL A   1      45.058  24.714  31.317  1.00  0.00     0.049 A 
ATOM     52  H   UNL A   1      45.880  25.680  29.658  1.00  0.00     0.167 HD
ATOM     53  C   UNL A   1      47.504  27.270  25.776  1.00  0.00     0.034 A 
ATOM     54  C   UNL A   1      45.699  25.180  32.402  1.00  0.00     0.034 A 
ATOM     55  C   UNL A   1      48.244  27.859  26.848  1.00  0.00     0.049 A 
ATOM     56  C   UNL A   1      46.771  26.187  32.133  1.00  0.00     0.074 A 
ATOM     57  C   UNL A   1      49.259  28.787  26.787  1.00  0.00     0.029 A 
ATOM     58  N   UNL A   1      48.022  27.574  28.192  1.00  0.00    -0.354 N 
ATOM     59  N   UNL A   1      47.165  26.665  30.976  1.00  0.00    -0.248 NA
ATOM     60  C   UNL A   1      47.485  26.723  33.292  1.00  0.00     0.031 C 
ATOM     61  C   UNL A   1      49.685  29.029  28.096  1.00  0.00     0.029 A 
ATOM     62  C   UNL A   1      48.889  28.302  28.975  1.00  0.00     0.049 A 
ATOM     63  H   UNL A   1      47.345  26.945  28.532  1.00  0.00     0.167 HD
ATOM     64  C   UNL A   1      48.164  27.573  31.262  1.00  0.00     0.074 A 
ATOM     65  C   UNL A   1      48.288  27.603  32.709  1.00  0.00     0.031 C 
ATOM     66  C   UNL A   1      48.927  28.305  30.415  1.00  0.00     0.034 A 
BRANCH  53  67
ATOM     67  C   UNL A   1      47.834  27.576  24.347  1.00  0.00     0.023 A 
ATOM     68  C   UNL A   1      46.887  28.199  23.503  1.00  0.00     0.012 A 
ATOM     69  C   UNL A   1      49.078  27.191  23.825  1.00  0.00     0.148 A 
ATOM     70  C   UNL A   1      47.156  28.379  22.147  1.00  0.00     0.002 A 
ATOM     71  C   UNL A   1      49.365  27.435  22.491  1.00  0.00     0.091 A 
ATOM     72  F   UNL A   1      49.943  26.565  24.636  1.00  0.00    -0.205 F 
ATOM     73  C   UNL A   1      48.400  28.006  21.644  1.00  0.00     0.022 A 
BRANCH  71  74
ATOM     74  S   UNL A   1      50.966  27.066  21.773  1.00  0.00     0.127 S 
ATOM     75  O   UNL A   1      50.633  25.980  20.851  1.00  0.00    -0.237 OA
ATOM     76  O   UNL A   1      51.302  28.334  21.128  1.00  0.00    -0.237 OA
ATOM     77  O   UNL A   1      51.832  26.688  22.881  1.00  0.00    -0.744 OA
ENDBRANCH  71  74
ENDBRANCH  53  67
BRANCH  54  78
ATOM     78  C   UNL A   1      45.345  24.719  33.777  1.00  0.00     0.023 A 
ATOM     79  C   UNL A   1      46.074  23.676  34.382  1.00  0.00     0.012 A 
ATOM     80  C   UNL A   1      44.308  25.333  34.508  1.00  0.00     0.148 A 
ATOM     81  C   UNL A   1      45.749  23.226  35.666  1.00  0.00     0.002 A 
ATOM     82  C   UNL A   1      44.030  24.924  35.808  1.00  0.00     0.091 A 
ATOM     83  F   UNL A   1      43.623  26.327  33.925  1.00  0.00    -0.205 F 
ATOM     84  C   UNL A   1      44.733  23.855  36.381  1.00  0.00     0.022 A 
BRANCH  82  85
ATOM     85  S   UNL A   1      42.832  25.771  36.845  1.00  0.00     0.127 S 
ATOM     86  O   UNL A   1      41.795  24.755  36.996  1.00  0.00    -0.237 OA
ATOM     87  O   UNL A   1      43.615  26.042  38.052  1.00  0.00    -0.237 OA
ATOM     88  O   UNL A   1      42.445  26.966  36.105  1.00  0.00    -0.744 OA
ENDBRANCH  82  85
ENDBRANCH  54  78
BRANCH  66  89
ATOM     89  C   UNL A   1      49.910  29.237  31.049  1.00  0.00     0.023 A 
ATOM     90  C   UNL A   1      49.522  30.540  31.406  1.00  0.00     0.012 A 
ATOM     91  C   UNL A   1      51.194  28.764  31.370  1.00  0.00     0.148 A 
ATOM     92  C   UNL A   1      50.422  31.381  32.050  1.00  0.00     0.002 A 
ATOM     93  C   UNL A   1      52.058  29.582  32.075  1.00  0.00     0.091 A 
ATOM     94  F   UNL A   1      51.531  27.521  30.998  1.00  0.00    -0.205 F 
ATOM     95  C   UNL A   1      51.682  30.895  32.400  1.00  0.00     0.022 A 
BRANCH  93  96
ATOM     96  S   UNL A   1      53.642  28.996  32.673  1.00  0.00     0.127 S 
ATOM     97  O   UNL A   1      54.018  28.047  31.626  1.00  0.00    -0.237 OA
ATOM     98  O   UNL A   1      54.432  30.227  32.698  1.00  0.00    -0.237 OA
ATOM     99  O   UNL A   1      53.391  28.409  33.982  1.00  0.00    -0.744 OA
ENDBRANCH  93  96
ENDBRANCH  66  89
ENDBRANCH  40  41
ENDBRANCH  33  35
ENDBRANCH  32  33
ENDBRANCH  31  32
ENDBRANCH  30  31
ENDBRANCH  29  30
ENDBRANCH   1  29
TORSDOF 21
ENDMDL
