MODEL 1
REMARK VINA RESULT:      -9.2      0.000      0.000
REMARK SMILES CN(Cc1ccncc1)C(=O)c1cccn1CC(=O)OCCOCCOC(=O)c1ccc(-c2c3nc(c(-c4cccc(S(=O)(=O)[O-])c4F)c4ccc([nH]4)c(-c4cccc(S(=O)(=O)[O-])c4F)c4nc(c(-c5cccc(S(=O)(=O)[O-])c5F)c5ccc2[nH]5)C=C4)C=C3)cc1
REMARK SMILES IDX 22 1 21 2 20 3 18 4 19 5 17 6 16 7 12 8 13 9 14 10 15 11
REMARK SMILES IDX 10 12 11 13 2 14 1 15 3 16 4 17 5 18 9 19 6 20 8 21 7 22
REMARK SMILES IDX 23 23 24 24 25 25 26 26 27 27 28 28 29 29 30 30 91 31 31 32
REMARK SMILES IDX 90 33 32 34 33 35 34 36 84 37 35 38 89 39 83 40 85 41 36 42
REMARK SMILES IDX 88 43 82 44 81 45 37 47 69 48 49 49 68 50 50 51 53 52 67 53
REMARK SMILES IDX 86 54 51 55 52 56 66 58 87 59 54 60 38 61 39 62 47 63 40 64
REMARK SMILES IDX 42 65 48 66 41 67 43 68 44 69 45 70 46 71 70 72 71 73 79 74
REMARK SMILES IDX 72 75 74 76 80 77 73 78 75 79 76 80 77 81 78 82 55 83 56 84
REMARK SMILES IDX 64 85 57 86 59 87 65 88 58 89 60 90 61 91 62 92 63 93
REMARK H PARENT 85 46 53 57
REMARK Flexibility Score: inf
ROOT
ATOM      1  C   UNL A   1      34.801  32.593  30.627  1.00  0.00     0.202 C 
ENDROOT
BRANCH   1   2
ATOM      2  C   UNL A   1      35.148  32.488  32.113  1.00  0.00     0.261 C 
BRANCH   2   3
ATOM      3  O   UNL A   1      35.241  33.776  32.747  1.00  0.00    -0.462 OA
BRANCH   3   4
ATOM      4  C   UNL A   1      35.805  33.795  33.985  1.00  0.00     0.326 C 
ATOM      5  O   UNL A   1      35.269  34.284  34.979  1.00  0.00    -0.250 OA
BRANCH   4   6
ATOM      6  C   UNL A   1      37.137  33.088  34.085  1.00  0.00     0.244 C 
BRANCH   6   7
ATOM      7  N   UNL A   1      38.317  33.943  34.187  1.00  0.00    -0.332 N 
ATOM      8  C   UNL A   1      39.330  34.125  33.242  1.00  0.00     0.107 A 
ATOM      9  C   UNL A   1      40.330  34.778  33.958  1.00  0.00     0.033 A 
ATOM     10  C   UNL A   1      39.804  35.257  35.178  1.00  0.00     0.020 A 
ATOM     11  C   UNL A   1      38.530  34.769  35.269  1.00  0.00     0.087 A 
BRANCH   8  12
ATOM     12  C   UNL A   1      39.202  33.711  31.837  1.00  0.00     0.270 C 
ATOM     13  O   UNL A   1      38.815  34.536  31.002  1.00  0.00    -0.267 OA
BRANCH  12  14
ATOM     14  N   UNL A   1      39.583  32.445  31.364  1.00  0.00    -0.336 N 
ATOM     15  C   UNL A   1      39.206  32.122  29.992  1.00  0.00     0.147 C 
BRANCH  14  16
ATOM     16  C   UNL A   1      40.319  31.409  32.090  1.00  0.00     0.155 C 
BRANCH  16  17
ATOM     17  C   UNL A   1      39.629  30.073  32.250  1.00  0.00    -0.026 A 
ATOM     18  C   UNL A   1      38.230  30.063  32.383  1.00  0.00     0.025 A 
ATOM     19  C   UNL A   1      40.312  28.866  32.429  1.00  0.00     0.025 A 
ATOM     20  C   UNL A   1      37.597  28.886  32.757  1.00  0.00     0.111 A 
ATOM     21  C   UNL A   1      39.592  27.746  32.810  1.00  0.00     0.111 A 
ATOM     22  N   UNL A   1      38.255  27.728  32.978  1.00  0.00    -0.265 NA
ENDBRANCH  16  17
ENDBRANCH  14  16
ENDBRANCH  12  14
ENDBRANCH   8  12
ENDBRANCH   6   7
ENDBRANCH   4   6
ENDBRANCH   3   4
ENDBRANCH   2   3
ENDBRANCH   1   2
BRANCH   1  23
ATOM     23  O   UNL A   1      35.363  33.686  29.901  1.00  0.00    -0.374 OA
BRANCH  23  24
ATOM     24  C   UNL A   1      35.964  33.418  28.639  1.00  0.00     0.202 C 
BRANCH  24  25
ATOM     25  C   UNL A   1      35.617  32.120  27.917  1.00  0.00     0.261 C 
BRANCH  25  26
ATOM     26  O   UNL A   1      36.728  31.266  27.680  1.00  0.00    -0.460 OA
BRANCH  26  27
ATOM     27  C   UNL A   1      36.453  29.985  28.022  1.00  0.00     0.338 C 
ATOM     28  O   UNL A   1      35.409  29.564  28.488  1.00  0.00    -0.246 OA
BRANCH  27  29
ATOM     29  C   UNL A   1      37.664  29.169  27.958  1.00  0.00     0.060 A 
ATOM     30  C   UNL A   1      37.908  28.364  29.072  1.00  0.00     0.016 A 
ATOM     31  C   UNL A   1      38.649  29.436  26.999  1.00  0.00     0.016 A 
ATOM     32  C   UNL A   1      39.194  27.938  29.309  1.00  0.00     0.010 A 
ATOM     33  C   UNL A   1      39.945  29.040  27.259  1.00  0.00     0.010 A 
ATOM     34  C   UNL A   1      40.213  28.315  28.423  1.00  0.00    -0.014 A 
BRANCH  34  35
ATOM     35  C   UNL A   1      41.519  27.678  28.630  1.00  0.00     0.031 A 
ATOM     36  C   UNL A   1      41.380  26.188  28.195  1.00  0.00     0.074 A 
ATOM     37  C   UNL A   1      42.478  28.450  29.250  1.00  0.00     0.049 A 
ATOM     38  N   UNL A   1      41.807  25.109  28.774  1.00  0.00    -0.248 NA
ATOM     39  C   UNL A   1      40.485  25.821  27.048  1.00  0.00     0.031 C 
ATOM     40  C   UNL A   1      42.385  29.913  29.508  1.00  0.00     0.029 A 
ATOM     41  N   UNL A   1      43.724  28.192  29.791  1.00  0.00    -0.354 N 
ATOM     42  C   UNL A   1      41.515  24.020  27.909  1.00  0.00     0.074 A 
ATOM     43  C   UNL A   1      40.529  24.488  26.995  1.00  0.00     0.031 C 
ATOM     44  C   UNL A   1      43.448  30.365  30.223  1.00  0.00     0.029 A 
ATOM     45  C   UNL A   1      44.361  29.265  30.490  1.00  0.00     0.049 A 
ATOM     46  H   UNL A   1      44.153  27.310  29.700  1.00  0.00     0.167 HD
ATOM     47  C   UNL A   1      42.285  22.890  27.867  1.00  0.00     0.034 A 
ATOM     48  C   UNL A   1      45.515  29.234  31.247  1.00  0.00     0.034 A 
ATOM     49  C   UNL A   1      43.358  23.057  28.793  1.00  0.00     0.049 A 
ATOM     50  C   UNL A   1      46.068  27.905  30.974  1.00  0.00     0.074 A 
ATOM     51  C   UNL A   1      43.388  23.101  30.161  1.00  0.00     0.029 A 
ATOM     52  N   UNL A   1      44.470  23.678  28.269  1.00  0.00    -0.354 N 
ATOM     53  N   UNL A   1      46.629  27.559  29.853  1.00  0.00    -0.248 NA
ATOM     54  C   UNL A   1      45.859  26.845  31.968  1.00  0.00     0.031 C 
ATOM     55  C   UNL A   1      44.234  24.200  30.396  1.00  0.00     0.029 A 
ATOM     56  C   UNL A   1      44.940  24.527  29.228  1.00  0.00     0.049 A 
ATOM     57  H   UNL A   1      44.852  23.536  27.372  1.00  0.00     0.167 HD
ATOM     58  C   UNL A   1      46.465  26.200  29.881  1.00  0.00     0.074 A 
ATOM     59  C   UNL A   1      46.359  25.825  31.279  1.00  0.00     0.031 C 
ATOM     60  C   UNL A   1      45.837  25.583  28.842  1.00  0.00     0.034 A 
BRANCH  47  61
ATOM     61  C   UNL A   1      42.455  21.744  26.897  1.00  0.00     0.023 A 
ATOM     62  C   UNL A   1      41.665  20.592  27.195  1.00  0.00     0.012 A 
ATOM     63  C   UNL A   1      43.507  21.581  25.984  1.00  0.00     0.148 A 
ATOM     64  C   UNL A   1      42.005  19.317  26.754  1.00  0.00     0.002 A 
ATOM     65  C   UNL A   1      43.805  20.305  25.492  1.00  0.00     0.091 A 
ATOM     66  F   UNL A   1      44.260  22.634  25.650  1.00  0.00    -0.205 F 
ATOM     67  C   UNL A   1      43.091  19.171  25.915  1.00  0.00     0.022 A 
BRANCH  65  68
ATOM     68  S   UNL A   1      45.121  19.991  24.310  1.00  0.00     0.127 S 
ATOM     69  O   UNL A   1      44.967  18.560  24.058  1.00  0.00    -0.237 OA
ATOM     70  O   UNL A   1      44.722  20.850  23.192  1.00  0.00    -0.237 OA
ATOM     71  O   UNL A   1      46.353  20.400  24.967  1.00  0.00    -0.744 OA
ENDBRANCH  65  68
ENDBRANCH  47  61
BRANCH  48  72
ATOM     72  C   UNL A   1      46.311  30.058  32.265  1.00  0.00     0.023 A 
ATOM     73  C   UNL A   1      47.577  30.615  32.048  1.00  0.00     0.012 A 
ATOM     74  C   UNL A   1      45.728  30.372  33.545  1.00  0.00     0.148 A 
ATOM     75  C   UNL A   1      48.167  31.491  32.998  1.00  0.00     0.002 A 
ATOM     76  C   UNL A   1      46.239  31.338  34.408  1.00  0.00     0.091 A 
ATOM     77  F   UNL A   1      44.677  29.678  33.989  1.00  0.00    -0.205 F 
ATOM     78  C   UNL A   1      47.480  31.895  34.147  1.00  0.00     0.022 A 
BRANCH  76  79
ATOM     79  S   UNL A   1      45.271  31.995  35.791  1.00  0.00     0.127 S 
ATOM     80  O   UNL A   1      43.979  32.276  35.170  1.00  0.00    -0.237 OA
ATOM     81  O   UNL A   1      45.273  30.859  36.715  1.00  0.00    -0.237 OA
ATOM     82  O   UNL A   1      45.990  33.165  36.280  1.00  0.00    -0.744 OA
ENDBRANCH  76  79
ENDBRANCH  48  72
BRANCH  60  83
ATOM     83  C   UNL A   1      45.948  26.276  27.479  1.00  0.00     0.023 A 
ATOM     84  C   UNL A   1      44.744  26.723  26.897  1.00  0.00     0.012 A 
ATOM     85  C   UNL A   1      47.124  26.442  26.704  1.00  0.00     0.148 A 
ATOM     86  C   UNL A   1      44.699  27.287  25.617  1.00  0.00     0.002 A 
ATOM     87  C   UNL A   1      47.079  26.980  25.408  1.00  0.00     0.091 A 
ATOM     88  F   UNL A   1      48.293  26.089  27.232  1.00  0.00    -0.205 F 
ATOM     89  C   UNL A   1      45.862  27.411  24.870  1.00  0.00     0.022 A 
BRANCH  87  90
ATOM     90  S   UNL A   1      48.511  27.094  24.307  1.00  0.00     0.127 S 
ATOM     91  O   UNL A   1      47.887  27.266  22.991  1.00  0.00    -0.237 OA
ATOM     92  O   UNL A   1      49.199  28.283  24.804  1.00  0.00    -0.237 OA
ATOM     93  O   UNL A   1      49.245  25.845  24.456  1.00  0.00    -0.744 OA
ENDBRANCH  87  90
ENDBRANCH  60  83
ENDBRANCH  34  35
ENDBRANCH  27  29
ENDBRANCH  26  27
ENDBRANCH  25  26
ENDBRANCH  24  25
ENDBRANCH  23  24
ENDBRANCH   1  23
TORSDOF 22
ENDMDL
MODEL 2
REMARK VINA RESULT:      -8.8      4.866     11.075
REMARK SMILES CN(Cc1ccncc1)C(=O)c1cccn1CC(=O)OCCOCCOC(=O)c1ccc(-c2c3nc(c(-c4cccc(S(=O)(=O)[O-])c4F)c4ccc([nH]4)c(-c4cccc(S(=O)(=O)[O-])c4F)c4nc(c(-c5cccc(S(=O)(=O)[O-])c5F)c5ccc2[nH]5)C=C4)C=C3)cc1
REMARK SMILES IDX 22 1 21 2 20 3 18 4 19 5 17 6 16 7 12 8 13 9 14 10 15 11
REMARK SMILES IDX 10 12 11 13 2 14 1 15 3 16 4 17 5 18 9 19 6 20 8 21 7 22
REMARK SMILES IDX 23 23 24 24 25 25 26 26 27 27 28 28 29 29 30 30 91 31 31 32
REMARK SMILES IDX 90 33 32 34 33 35 34 36 84 37 35 38 89 39 83 40 85 41 36 42
REMARK SMILES IDX 88 43 82 44 81 45 37 47 69 48 49 49 68 50 50 51 53 52 67 53
REMARK SMILES IDX 86 54 51 55 52 56 66 58 87 59 54 60 38 61 39 62 47 63 40 64
REMARK SMILES IDX 42 65 48 66 41 67 43 68 44 69 45 70 46 71 70 72 71 73 79 74
REMARK SMILES IDX 72 75 74 76 80 77 73 78 75 79 76 80 77 81 78 82 55 83 56 84
REMARK SMILES IDX 64 85 57 86 59 87 65 88 58 89 60 90 61 91 62 92 63 93
REMARK H PARENT 85 46 53 57
REMARK Flexibility Score: inf
ROOT
ATOM      1  C   UNL A   1      37.808  21.850  24.973  1.00  0.00     0.202 C 
ENDROOT
BRANCH   1   2
ATOM      2  C   UNL A   1      36.714  22.328  24.016  1.00  0.00     0.261 C 
BRANCH   2   3
ATOM      3  O   UNL A   1      36.312  23.685  24.278  1.00  0.00    -0.462 OA
BRANCH   3   4
ATOM      4  C   UNL A   1      35.512  23.873  25.362  1.00  0.00     0.326 C 
ATOM      5  O   UNL A   1      35.886  23.737  26.527  1.00  0.00    -0.250 OA
BRANCH   4   6
ATOM      6  C   UNL A   1      34.115  24.351  25.043  1.00  0.00     0.244 C 
BRANCH   6   7
ATOM      7  N   UNL A   1      33.476  23.747  23.875  1.00  0.00    -0.332 N 
ATOM      8  C   UNL A   1      32.913  22.472  23.768  1.00  0.00     0.107 A 
ATOM      9  C   UNL A   1      32.738  22.308  22.396  1.00  0.00     0.033 A 
ATOM     10  C   UNL A   1      32.879  23.555  21.748  1.00  0.00     0.020 A 
ATOM     11  C   UNL A   1      33.286  24.445  22.703  1.00  0.00     0.087 A 
BRANCH   8  12
ATOM     12  C   UNL A   1      32.593  21.635  24.933  1.00  0.00     0.270 C 
ATOM     13  O   UNL A   1      31.414  21.535  25.293  1.00  0.00    -0.267 OA
BRANCH  12  14
ATOM     14  N   UNL A   1      33.543  20.860  25.616  1.00  0.00    -0.336 N 
ATOM     15  C   UNL A   1      33.661  21.089  27.051  1.00  0.00     0.147 C 
BRANCH  14  16
ATOM     16  C   UNL A   1      34.432  19.842  25.052  1.00  0.00     0.155 C 
BRANCH  16  17
ATOM     17  C   UNL A   1      33.827  18.481  24.795  1.00  0.00    -0.026 A 
ATOM     18  C   UNL A   1      32.826  18.026  25.669  1.00  0.00     0.025 A 
ATOM     19  C   UNL A   1      34.312  17.587  23.835  1.00  0.00     0.025 A 
ATOM     20  C   UNL A   1      32.417  16.702  25.597  1.00  0.00     0.111 A 
ATOM     21  C   UNL A   1      33.848  16.282  23.848  1.00  0.00     0.111 A 
ATOM     22  N   UNL A   1      32.916  15.820  24.704  1.00  0.00    -0.265 NA
ENDBRANCH  16  17
ENDBRANCH  14  16
ENDBRANCH  12  14
ENDBRANCH   8  12
ENDBRANCH   6   7
ENDBRANCH   4   6
ENDBRANCH   3   4
ENDBRANCH   2   3
ENDBRANCH   1   2
BRANCH   1  23
ATOM     23  O   UNL A   1      38.058  20.445  25.028  1.00  0.00    -0.374 OA
BRANCH  23  24
ATOM     24  C   UNL A   1      39.061  19.974  25.921  1.00  0.00     0.202 C 
BRANCH  24  25
ATOM     25  C   UNL A   1      40.133  19.027  25.394  1.00  0.00     0.261 C 
BRANCH  25  26
ATOM     26  O   UNL A   1      41.172  18.742  26.321  1.00  0.00    -0.460 OA
BRANCH  26  27
ATOM     27  C   UNL A   1      42.325  19.366  25.985  1.00  0.00     0.338 C 
ATOM     28  O   UNL A   1      43.340  18.842  25.559  1.00  0.00    -0.246 OA
BRANCH  27  29
ATOM     29  C   UNL A   1      42.284  20.768  26.395  1.00  0.00     0.060 A 
ATOM     30  C   UNL A   1      42.571  21.698  25.394  1.00  0.00     0.016 A 
ATOM     31  C   UNL A   1      42.282  21.110  27.753  1.00  0.00     0.016 A 
ATOM     32  C   UNL A   1      43.003  22.950  25.761  1.00  0.00     0.010 A 
ATOM     33  C   UNL A   1      42.752  22.354  28.119  1.00  0.00     0.010 A 
ATOM     34  C   UNL A   1      43.133  23.257  27.123  1.00  0.00    -0.014 A 
BRANCH  34  35
ATOM     35  C   UNL A   1      43.420  24.660  27.446  1.00  0.00     0.031 A 
ATOM     36  C   UNL A   1      42.049  25.382  27.619  1.00  0.00     0.074 A 
ATOM     37  C   UNL A   1      44.744  25.035  27.394  1.00  0.00     0.049 A 
ATOM     38  N   UNL A   1      41.657  26.538  27.178  1.00  0.00    -0.248 NA
ATOM     39  C   UNL A   1      40.883  24.648  28.212  1.00  0.00     0.031 C 
ATOM     40  C   UNL A   1      45.906  24.113  27.274  1.00  0.00     0.029 A 
ATOM     41  N   UNL A   1      45.407  26.248  27.432  1.00  0.00    -0.354 N 
ATOM     42  C   UNL A   1      40.360  26.775  27.710  1.00  0.00     0.074 A 
ATOM     43  C   UNL A   1      39.866  25.511  28.140  1.00  0.00     0.031 C 
ATOM     44  C   UNL A   1      47.076  24.792  27.149  1.00  0.00     0.029 A 
ATOM     45  C   UNL A   1      46.818  26.222  27.199  1.00  0.00     0.049 A 
ATOM     46  H   UNL A   1      44.929  27.091  27.610  1.00  0.00     0.167 HD
ATOM     47  C   UNL A   1      39.893  28.034  27.969  1.00  0.00     0.034 A 
ATOM     48  C   UNL A   1      47.682  27.286  27.027  1.00  0.00     0.034 A 
ATOM     49  C   UNL A   1      40.924  28.961  27.632  1.00  0.00     0.049 A 
ATOM     50  C   UNL A   1      46.864  28.451  27.377  1.00  0.00     0.074 A 
ATOM     51  C   UNL A   1      41.457  29.340  26.429  1.00  0.00     0.029 A 
ATOM     52  N   UNL A   1      41.812  29.220  28.652  1.00  0.00    -0.354 N 
ATOM     53  N   UNL A   1      46.504  28.759  28.588  1.00  0.00    -0.248 NA
ATOM     54  C   UNL A   1      46.291  29.252  26.289  1.00  0.00     0.031 C 
ATOM     55  C   UNL A   1      42.836  29.318  26.705  1.00  0.00     0.029 A 
ATOM     56  C   UNL A   1      43.053  29.290  28.090  1.00  0.00     0.049 A 
ATOM     57  H   UNL A   1      41.592  29.334  29.605  1.00  0.00     0.167 HD
ATOM     58  C   UNL A   1      45.385  29.510  28.351  1.00  0.00     0.074 A 
ATOM     59  C   UNL A   1      45.534  30.065  27.018  1.00  0.00     0.031 C 
ATOM     60  C   UNL A   1      44.208  29.158  28.938  1.00  0.00     0.034 A 
BRANCH  47  61
ATOM     61  C   UNL A   1      38.764  28.611  28.791  1.00  0.00     0.023 A 
ATOM     62  C   UNL A   1      37.911  29.509  28.080  1.00  0.00     0.012 A 
ATOM     63  C   UNL A   1      38.678  28.619  30.191  1.00  0.00     0.148 A 
ATOM     64  C   UNL A   1      37.149  30.482  28.719  1.00  0.00     0.002 A 
ATOM     65  C   UNL A   1      37.861  29.558  30.829  1.00  0.00     0.091 A 
ATOM     66  F   UNL A   1      39.436  27.778  30.903  1.00  0.00    -0.205 F 
ATOM     67  C   UNL A   1      37.140  30.518  30.099  1.00  0.00     0.022 A 
BRANCH  65  68
ATOM     68  S   UNL A   1      37.670  29.644  32.613  1.00  0.00     0.127 S 
ATOM     69  O   UNL A   1      38.972  30.156  33.033  1.00  0.00    -0.237 OA
ATOM     70  O   UNL A   1      36.570  30.602  32.745  1.00  0.00    -0.237 OA
ATOM     71  O   UNL A   1      37.341  28.293  33.043  1.00  0.00    -0.744 OA
ENDBRANCH  65  68
ENDBRANCH  47  61
BRANCH  48  72
ATOM     72  C   UNL A   1      49.100  27.623  26.554  1.00  0.00     0.023 A 
ATOM     73  C   UNL A   1      50.226  27.736  27.378  1.00  0.00     0.012 A 
ATOM     74  C   UNL A   1      49.366  27.782  25.147  1.00  0.00     0.148 A 
ATOM     75  C   UNL A   1      51.525  27.900  26.828  1.00  0.00     0.002 A 
ATOM     76  C   UNL A   1      50.647  27.800  24.602  1.00  0.00     0.091 A 
ATOM     77  F   UNL A   1      48.358  27.988  24.295  1.00  0.00    -0.205 F 
ATOM     78  C   UNL A   1      51.743  27.878  25.446  1.00  0.00     0.022 A 
BRANCH  76  79
ATOM     79  S   UNL A   1      50.937  27.584  22.827  1.00  0.00     0.127 S 
ATOM     80  O   UNL A   1      50.861  28.953  22.324  1.00  0.00    -0.237 OA
ATOM     81  O   UNL A   1      52.280  27.002  22.820  1.00  0.00    -0.237 OA
ATOM     82  O   UNL A   1      49.893  26.689  22.344  1.00  0.00    -0.744 OA
ENDBRANCH  76  79
ENDBRANCH  48  72
BRANCH  60  83
ATOM     83  C   UNL A   1      44.317  28.415  30.275  1.00  0.00     0.023 A 
ATOM     84  C   UNL A   1      43.931  27.058  30.278  1.00  0.00     0.012 A 
ATOM     85  C   UNL A   1      44.686  28.969  31.527  1.00  0.00     0.148 A 
ATOM     86  C   UNL A   1      43.897  26.296  31.450  1.00  0.00     0.002 A 
ATOM     87  C   UNL A   1      44.625  28.216  32.709  1.00  0.00     0.091 A 
ATOM     88  F   UNL A   1      45.113  30.228  31.567  1.00  0.00    -0.205 F 
ATOM     89  C   UNL A   1      44.237  26.873  32.666  1.00  0.00     0.022 A 
BRANCH  87  90
ATOM     90  S   UNL A   1      44.945  28.889  34.359  1.00  0.00     0.127 S 
ATOM     91  O   UNL A   1      44.139  30.113  34.365  1.00  0.00    -0.237 OA
ATOM     92  O   UNL A   1      44.441  27.835  35.235  1.00  0.00    -0.237 OA
ATOM     93  O   UNL A   1      46.381  29.125  34.435  1.00  0.00    -0.744 OA
ENDBRANCH  87  90
ENDBRANCH  60  83
ENDBRANCH  34  35
ENDBRANCH  27  29
ENDBRANCH  26  27
ENDBRANCH  25  26
ENDBRANCH  24  25
ENDBRANCH  23  24
ENDBRANCH   1  23
TORSDOF 22
ENDMDL
MODEL 3
REMARK VINA RESULT:      -8.8      1.114      2.490
REMARK SMILES CN(Cc1ccncc1)C(=O)c1cccn1CC(=O)OCCOCCOC(=O)c1ccc(-c2c3nc(c(-c4cccc(S(=O)(=O)[O-])c4F)c4ccc([nH]4)c(-c4cccc(S(=O)(=O)[O-])c4F)c4nc(c(-c5cccc(S(=O)(=O)[O-])c5F)c5ccc2[nH]5)C=C4)C=C3)cc1
REMARK SMILES IDX 22 1 21 2 20 3 18 4 19 5 17 6 16 7 12 8 13 9 14 10 15 11
REMARK SMILES IDX 10 12 11 13 2 14 1 15 3 16 4 17 5 18 9 19 6 20 8 21 7 22
REMARK SMILES IDX 23 23 24 24 25 25 26 26 27 27 28 28 29 29 30 30 91 31 31 32
REMARK SMILES IDX 90 33 32 34 33 35 34 36 84 37 35 38 89 39 83 40 85 41 36 42
REMARK SMILES IDX 88 43 82 44 81 45 37 47 69 48 49 49 68 50 50 51 53 52 67 53
REMARK SMILES IDX 86 54 51 55 52 56 66 58 87 59 54 60 38 61 39 62 47 63 40 64
REMARK SMILES IDX 42 65 48 66 41 67 43 68 44 69 45 70 46 71 70 72 71 73 79 74
REMARK SMILES IDX 72 75 74 76 80 77 73 78 75 79 76 80 77 81 78 82 55 83 56 84
REMARK SMILES IDX 64 85 57 86 59 87 65 88 58 89 60 90 61 91 62 92 63 93
REMARK H PARENT 85 46 53 57
REMARK Flexibility Score: inf
ROOT
ATOM      1  C   UNL A   1      34.894  32.311  31.119  1.00  0.00     0.202 C 
ENDROOT
BRANCH   1   2
ATOM      2  C   UNL A   1      35.040  32.765  32.573  1.00  0.00     0.261 C 
BRANCH   2   3
ATOM      3  O   UNL A   1      36.399  32.686  33.038  1.00  0.00    -0.462 OA
BRANCH   3   4
ATOM      4  C   UNL A   1      37.149  31.671  32.529  1.00  0.00     0.326 C 
ATOM      5  O   UNL A   1      37.540  31.620  31.364  1.00  0.00    -0.250 OA
BRANCH   4   6
ATOM      6  C   UNL A   1      37.549  30.615  33.533  1.00  0.00     0.244 C 
BRANCH   6   7
ATOM      7  N   UNL A   1      38.932  30.147  33.462  1.00  0.00    -0.332 N 
ATOM      8  C   UNL A   1      40.063  30.715  34.056  1.00  0.00     0.107 A 
ATOM      9  C   UNL A   1      41.122  30.068  33.426  1.00  0.00     0.033 A 
ATOM     10  C   UNL A   1      40.640  28.935  32.733  1.00  0.00     0.020 A 
ATOM     11  C   UNL A   1      39.276  28.978  32.819  1.00  0.00     0.087 A 
BRANCH   8  12
ATOM     12  C   UNL A   1      39.988  31.722  35.125  1.00  0.00     0.270 C 
ATOM     13  O   UNL A   1      40.039  31.349  36.304  1.00  0.00    -0.267 OA
BRANCH  12  14
ATOM     14  N   UNL A   1      39.953  33.105  34.888  1.00  0.00    -0.336 N 
ATOM     15  C   UNL A   1      38.904  33.856  35.569  1.00  0.00     0.147 C 
BRANCH  14  16
ATOM     16  C   UNL A   1      40.851  33.883  34.033  1.00  0.00     0.155 C 
BRANCH  16  17
ATOM     17  C   UNL A   1      40.510  33.935  32.561  1.00  0.00    -0.026 A 
ATOM     18  C   UNL A   1      41.499  33.554  31.639  1.00  0.00     0.025 A 
ATOM     19  C   UNL A   1      39.327  34.487  32.061  1.00  0.00     0.025 A 
ATOM     20  C   UNL A   1      41.296  33.806  30.290  1.00  0.00     0.111 A 
ATOM     21  C   UNL A   1      39.222  34.708  30.697  1.00  0.00     0.111 A 
ATOM     22  N   UNL A   1      40.175  34.382  29.804  1.00  0.00    -0.265 NA
ENDBRANCH  16  17
ENDBRANCH  14  16
ENDBRANCH  12  14
ENDBRANCH   8  12
ENDBRANCH   6   7
ENDBRANCH   4   6
ENDBRANCH   3   4
ENDBRANCH   2   3
ENDBRANCH   1   2
BRANCH   1  23
ATOM     23  O   UNL A   1      34.657  33.324  30.140  1.00  0.00    -0.374 OA
BRANCH  23  24
ATOM     24  C   UNL A   1      35.559  33.424  29.044  1.00  0.00     0.202 C 
BRANCH  24  25
ATOM     25  C   UNL A   1      35.676  32.254  28.075  1.00  0.00     0.261 C 
BRANCH  25  26
ATOM     26  O   UNL A   1      36.776  31.389  28.328  1.00  0.00    -0.460 OA
BRANCH  26  27
ATOM     27  C   UNL A   1      36.436  30.089  28.165  1.00  0.00     0.338 C 
ATOM     28  O   UNL A   1      35.314  29.617  28.226  1.00  0.00    -0.246 OA
BRANCH  27  29
ATOM     29  C   UNL A   1      37.633  29.252  28.104  1.00  0.00     0.060 A 
ATOM     30  C   UNL A   1      37.945  28.562  29.277  1.00  0.00     0.016 A 
ATOM     31  C   UNL A   1      38.552  29.404  27.059  1.00  0.00     0.016 A 
ATOM     32  C   UNL A   1      39.240  28.143  29.470  1.00  0.00     0.010 A 
ATOM     33  C   UNL A   1      39.859  29.017  27.271  1.00  0.00     0.010 A 
ATOM     34  C   UNL A   1      40.200  28.411  28.484  1.00  0.00    -0.014 A 
BRANCH  34  35
ATOM     35  C   UNL A   1      41.512  27.779  28.668  1.00  0.00     0.031 A 
ATOM     36  C   UNL A   1      41.365  26.283  28.254  1.00  0.00     0.074 A 
ATOM     37  C   UNL A   1      42.483  28.559  29.256  1.00  0.00     0.049 A 
ATOM     38  N   UNL A   1      41.807  25.212  28.836  1.00  0.00    -0.248 NA
ATOM     39  C   UNL A   1      40.444  25.901  27.132  1.00  0.00     0.031 C 
ATOM     40  C   UNL A   1      42.394  30.024  29.499  1.00  0.00     0.029 A 
ATOM     41  N   UNL A   1      43.742  28.309  29.771  1.00  0.00    -0.354 N 
ATOM     42  C   UNL A   1      41.497  24.112  27.991  1.00  0.00     0.074 A 
ATOM     43  C   UNL A   1      40.489  24.567  27.095  1.00  0.00     0.031 C 
ATOM     44  C   UNL A   1      43.472  30.487  30.184  1.00  0.00     0.029 A 
ATOM     45  C   UNL A   1      44.393  29.392  30.442  1.00  0.00     0.049 A 
ATOM     46  H   UNL A   1      44.170  27.427  29.681  1.00  0.00     0.167 HD
ATOM     47  C   UNL A   1      42.268  22.983  27.944  1.00  0.00     0.034 A 
ATOM     48  C   UNL A   1      45.565  29.372  31.173  1.00  0.00     0.034 A 
ATOM     49  C   UNL A   1      43.361  23.162  28.842  1.00  0.00     0.049 A 
ATOM     50  C   UNL A   1      46.113  28.040  30.902  1.00  0.00     0.074 A 
ATOM     51  C   UNL A   1      43.424  23.223  30.209  1.00  0.00     0.029 A 
ATOM     52  N   UNL A   1      44.460  23.779  28.285  1.00  0.00    -0.354 N 
ATOM     53  N   UNL A   1      46.648  27.681  29.773  1.00  0.00    -0.248 NA
ATOM     54  C   UNL A   1      45.930  26.992  31.913  1.00  0.00     0.031 C 
ATOM     55  C   UNL A   1      44.273  24.326  30.410  1.00  0.00     0.029 A 
ATOM     56  C   UNL A   1      44.950  24.640  29.223  1.00  0.00     0.049 A 
ATOM     57  H   UNL A   1      44.822  23.627  27.382  1.00  0.00     0.167 HD
ATOM     58  C   UNL A   1      46.487  26.323  29.820  1.00  0.00     0.074 A 
ATOM     59  C   UNL A   1      46.415  25.964  31.224  1.00  0.00     0.031 C 
ATOM     60  C   UNL A   1      45.837  25.693  28.804  1.00  0.00     0.034 A 
BRANCH  47  61
ATOM     61  C   UNL A   1      42.417  21.825  26.984  1.00  0.00     0.023 A 
ATOM     62  C   UNL A   1      41.666  20.663  27.334  1.00  0.00     0.012 A 
ATOM     63  C   UNL A   1      43.429  21.670  26.025  1.00  0.00     0.148 A 
ATOM     64  C   UNL A   1      42.012  19.388  26.897  1.00  0.00     0.002 A 
ATOM     65  C   UNL A   1      43.731  20.393  25.539  1.00  0.00     0.091 A 
ATOM     66  F   UNL A   1      44.144  22.733  25.642  1.00  0.00    -0.205 F 
ATOM     67  C   UNL A   1      43.061  19.251  26.011  1.00  0.00     0.022 A 
BRANCH  65  68
ATOM     68  S   UNL A   1      44.997  20.087  24.302  1.00  0.00     0.127 S 
ATOM     69  O   UNL A   1      44.607  21.005  23.234  1.00  0.00    -0.237 OA
ATOM     70  O   UNL A   1      46.212  20.476  25.022  1.00  0.00    -0.237 OA
ATOM     71  O   UNL A   1      44.915  18.668  23.992  1.00  0.00    -0.744 OA
ENDBRANCH  65  68
ENDBRANCH  47  61
BRANCH  48  72
ATOM     72  C   UNL A   1      46.383  30.209  32.162  1.00  0.00     0.023 A 
ATOM     73  C   UNL A   1      47.779  30.299  32.189  1.00  0.00     0.012 A 
ATOM     74  C   UNL A   1      45.707  31.043  33.123  1.00  0.00     0.148 A 
ATOM     75  C   UNL A   1      48.439  31.220  33.045  1.00  0.00     0.002 A 
ATOM     76  C   UNL A   1      46.342  32.042  33.857  1.00  0.00     0.091 A 
ATOM     77  F   UNL A   1      44.417  30.835  33.399  1.00  0.00    -0.205 F 
ATOM     78  C   UNL A   1      47.725  32.126  33.836  1.00  0.00     0.022 A 
BRANCH  76  79
ATOM     79  S   UNL A   1      45.411  33.327  34.731  1.00  0.00     0.127 S 
ATOM     80  O   UNL A   1      44.461  33.776  33.716  1.00  0.00    -0.237 OA
ATOM     81  O   UNL A   1      44.819  32.562  35.829  1.00  0.00    -0.237 OA
ATOM     82  O   UNL A   1      46.384  34.327  35.153  1.00  0.00    -0.744 OA
ENDBRANCH  76  79
ENDBRANCH  48  72
BRANCH  60  83
ATOM     83  C   UNL A   1      45.915  26.369  27.430  1.00  0.00     0.023 A 
ATOM     84  C   UNL A   1      44.740  26.997  26.967  1.00  0.00     0.012 A 
ATOM     85  C   UNL A   1      47.019  26.360  26.540  1.00  0.00     0.148 A 
ATOM     86  C   UNL A   1      44.653  27.570  25.693  1.00  0.00     0.002 A 
ATOM     87  C   UNL A   1      46.927  26.907  25.251  1.00  0.00     0.091 A 
ATOM     88  F   UNL A   1      48.167  25.831  26.953  1.00  0.00    -0.205 F 
ATOM     89  C   UNL A   1      45.742  27.521  24.832  1.00  0.00     0.022 A 
BRANCH  87  90
ATOM     90  S   UNL A   1      48.242  26.811  24.012  1.00  0.00     0.127 S 
ATOM     91  O   UNL A   1      47.806  27.785  23.008  1.00  0.00    -0.237 OA
ATOM     92  O   UNL A   1      49.422  27.218  24.770  1.00  0.00    -0.237 OA
ATOM     93  O   UNL A   1      48.257  25.434  23.534  1.00  0.00    -0.744 OA
ENDBRANCH  87  90
ENDBRANCH  60  83
ENDBRANCH  34  35
ENDBRANCH  27  29
ENDBRANCH  26  27
ENDBRANCH  25  26
ENDBRANCH  24  25
ENDBRANCH  23  24
ENDBRANCH   1  23
TORSDOF 22
ENDMDL
