MODEL 1
REMARK VINA RESULT:     -11.5      0.000      0.000
REMARK SMILES CO[C@@]1(C(=O)OCCOCCOC(=O)c2ccc(-c3c4nc(c(-c5cccc(S(=O)(=O)[O-])c5F)c5ccc([nH]5)c(-c5cccc(S(=O)(=O)[O-])c5F)c5nc(c(-c6cccc(S(=O)(=O)[O-])c6F)c6ccc3[nH]6)C=C5)C=C4)cc2)CC(c2ccccc2)=CC=C1C
REMARK SMILES IDX 10 1 9 2 8 3 7 4 6 5 4 6 5 7 3 8 78 9 88 10 79 11 87 12
REMARK SMILES IDX 89 13 86 14 2 15 1 16 80 17 81 18 85 19 82 20 84 21 83 22
REMARK SMILES IDX 11 23 12 24 13 25 14 26 15 27 16 28 77 29 17 30 76 31 18 32
REMARK SMILES IDX 19 33 20 34 70 35 21 36 75 37 69 38 71 39 22 40 74 41 68 42
REMARK SMILES IDX 67 43 23 45 55 46 35 47 54 48 36 49 39 50 53 51 72 52 37 53
REMARK SMILES IDX 38 54 52 56 73 57 40 58 24 59 25 60 33 61 26 62 28 63 34 64
REMARK SMILES IDX 27 65 29 66 30 67 31 68 32 69 56 70 57 71 65 72 58 73 60 74
REMARK SMILES IDX 66 75 59 76 61 77 62 78 63 79 64 80 41 81 42 82 50 83 43 84
REMARK SMILES IDX 45 85 51 86 44 87 46 88 47 89 48 90 49 91
REMARK H PARENT 71 44 39 55
REMARK Flexibility Score: inf
ROOT
ATOM      1  C   UNL A   1      31.453  30.045  25.258  1.00  0.00     0.202 C 
ENDROOT
BRANCH   1   2
ATOM      2  O   UNL A   1      32.658  29.350  24.967  1.00  0.00    -0.374 OA
BRANCH   2   3
ATOM      3  C   UNL A   1      32.586  28.282  24.017  1.00  0.00     0.202 C 
BRANCH   3   4
ATOM      4  C   UNL A   1      33.387  27.008  24.319  1.00  0.00     0.261 C 
BRANCH   4   5
ATOM      5  O   UNL A   1      33.193  26.514  25.661  1.00  0.00    -0.461 OA
BRANCH   5   6
ATOM      6  C   UNL A   1      31.931  26.121  25.999  1.00  0.00     0.343 C 
ATOM      7  O   UNL A   1      31.195  26.762  26.749  1.00  0.00    -0.248 OA
BRANCH   6   8
ATOM      8  C   UNL A   1      31.509  24.752  25.353  1.00  0.00     0.190 C 
ATOM      9  C   UNL A   1      32.849  23.942  25.503  1.00  0.00     0.088 C 
ATOM     10  C   UNL A   1      31.020  24.848  23.901  1.00  0.00    -0.030 C 
ATOM     11  C   UNL A   1      33.420  23.300  24.266  1.00  0.00    -0.037 C 
ATOM     12  C   UNL A   1      31.651  24.227  22.888  1.00  0.00     0.003 C 
ATOM     13  C   UNL A   1      29.804  25.675  23.580  1.00  0.00     0.043 C 
ATOM     14  C   UNL A   1      32.839  23.435  23.066  1.00  0.00     0.004 C 
BRANCH   8  15
ATOM     15  O   UNL A   1      30.571  23.943  26.096  1.00  0.00    -0.362 OA
ATOM     16  C   UNL A   1      31.073  23.043  27.062  1.00  0.00     0.197 C 
ENDBRANCH   8  15
BRANCH  11  17
ATOM     17  C   UNL A   1      34.693  22.579  24.449  1.00  0.00    -0.022 A 
ATOM     18  C   UNL A   1      34.705  21.296  25.009  1.00  0.00     0.008 A 
ATOM     19  C   UNL A   1      35.893  23.114  23.958  1.00  0.00     0.008 A 
ATOM     20  C   UNL A   1      35.889  20.560  25.066  1.00  0.00     0.001 A 
ATOM     21  C   UNL A   1      37.076  22.376  24.013  1.00  0.00     0.001 A 
ATOM     22  C   UNL A   1      37.073  21.098  24.564  1.00  0.00     0.000 A 
ENDBRANCH  11  17
ENDBRANCH   6   8
ENDBRANCH   5   6
ENDBRANCH   4   5
ENDBRANCH   3   4
ENDBRANCH   2   3
ENDBRANCH   1   2
BRANCH   1  23
ATOM     23  C   UNL A   1      31.494  31.092  26.373  1.00  0.00     0.261 C 
BRANCH  23  24
ATOM     24  O   UNL A   1      32.593  30.876  27.269  1.00  0.00    -0.460 OA
BRANCH  24  25
ATOM     25  C   UNL A   1      33.306  31.994  27.529  1.00  0.00     0.338 C 
ATOM     26  O   UNL A   1      32.867  33.129  27.672  1.00  0.00    -0.246 OA
BRANCH  25  27
ATOM     27  C   UNL A   1      34.714  31.666  27.804  1.00  0.00     0.060 A 
ATOM     28  C   UNL A   1      35.000  30.318  28.043  1.00  0.00     0.016 A 
ATOM     29  C   UNL A   1      35.711  32.639  27.919  1.00  0.00     0.016 A 
ATOM     30  C   UNL A   1      36.261  29.947  28.489  1.00  0.00     0.010 A 
ATOM     31  C   UNL A   1      36.984  32.261  28.367  1.00  0.00     0.010 A 
ATOM     32  C   UNL A   1      37.244  30.922  28.706  1.00  0.00    -0.014 A 
BRANCH  32  33
ATOM     33  C   UNL A   1      38.475  30.511  29.424  1.00  0.00     0.031 A 
ATOM     34  C   UNL A   1      38.673  30.935  30.853  1.00  0.00     0.074 A 
ATOM     35  C   UNL A   1      39.348  29.672  28.839  1.00  0.00     0.049 A 
ATOM     36  N   UNL A   1      39.570  30.533  31.716  1.00  0.00    -0.248 NA
ATOM     37  C   UNL A   1      37.734  31.936  31.386  1.00  0.00     0.031 C 
ATOM     38  C   UNL A   1      39.268  29.202  27.457  1.00  0.00     0.029 A 
ATOM     39  N   UNL A   1      40.467  29.057  29.341  1.00  0.00    -0.354 N 
ATOM     40  C   UNL A   1      39.311  31.235  32.888  1.00  0.00     0.074 A 
ATOM     41  C   UNL A   1      38.190  32.109  32.618  1.00  0.00     0.031 C 
ATOM     42  C   UNL A   1      40.294  28.368  27.220  1.00  0.00     0.029 A 
ATOM     43  C   UNL A   1      41.103  28.248  28.431  1.00  0.00     0.049 A 
ATOM     44  H   UNL A   1      40.783  29.184  30.265  1.00  0.00     0.167 HD
ATOM     45  C   UNL A   1      39.934  31.143  34.087  1.00  0.00     0.034 A 
ATOM     46  C   UNL A   1      42.207  27.486  28.565  1.00  0.00     0.034 A 
ATOM     47  C   UNL A   1      41.038  30.262  34.357  1.00  0.00     0.049 A 
ATOM     48  C   UNL A   1      42.873  27.393  29.912  1.00  0.00     0.074 A 
ATOM     49  C   UNL A   1      41.712  30.064  35.549  1.00  0.00     0.029 A 
ATOM     50  N   UNL A   1      41.641  29.438  33.419  1.00  0.00    -0.354 N 
ATOM     51  N   UNL A   1      42.530  27.956  31.045  1.00  0.00    -0.248 NA
ATOM     52  C   UNL A   1      44.051  26.519  30.009  1.00  0.00     0.031 C 
ATOM     53  C   UNL A   1      42.738  29.138  35.325  1.00  0.00     0.029 A 
ATOM     54  C   UNL A   1      42.685  28.739  33.999  1.00  0.00     0.049 A 
ATOM     55  H   UNL A   1      41.366  29.362  32.476  1.00  0.00     0.167 HD
ATOM     56  C   UNL A   1      43.429  27.483  31.996  1.00  0.00     0.074 A 
ATOM     57  C   UNL A   1      44.312  26.562  31.309  1.00  0.00     0.031 C 
ATOM     58  C   UNL A   1      43.529  27.794  33.313  1.00  0.00     0.034 A 
BRANCH  45  59
ATOM     59  C   UNL A   1      39.411  31.998  35.212  1.00  0.00     0.023 A 
ATOM     60  C   UNL A   1      38.470  31.461  36.116  1.00  0.00     0.012 A 
ATOM     61  C   UNL A   1      39.888  33.309  35.408  1.00  0.00     0.148 A 
ATOM     62  C   UNL A   1      37.990  32.225  37.179  1.00  0.00     0.002 A 
ATOM     63  C   UNL A   1      39.436  34.050  36.495  1.00  0.00     0.091 A 
ATOM     64  F   UNL A   1      40.762  33.810  34.526  1.00  0.00    -0.205 F 
ATOM     65  C   UNL A   1      38.481  33.514  37.374  1.00  0.00     0.022 A 
BRANCH  63  66
ATOM     66  S   UNL A   1      40.061  35.690  36.874  1.00  0.00     0.127 S 
ATOM     67  O   UNL A   1      39.363  35.991  38.123  1.00  0.00    -0.237 OA
ATOM     68  O   UNL A   1      41.497  35.447  37.021  1.00  0.00    -0.237 OA
ATOM     69  O   UNL A   1      39.702  36.529  35.738  1.00  0.00    -0.744 OA
ENDBRANCH  63  66
ENDBRANCH  45  59
BRANCH  46  70
ATOM     70  C   UNL A   1      42.712  26.704  27.402  1.00  0.00     0.023 A 
ATOM     71  C   UNL A   1      43.585  27.307  26.476  1.00  0.00     0.012 A 
ATOM     72  C   UNL A   1      42.349  25.355  27.225  1.00  0.00     0.148 A 
ATOM     73  C   UNL A   1      44.064  26.589  25.380  1.00  0.00     0.002 A 
ATOM     74  C   UNL A   1      42.877  24.628  26.165  1.00  0.00     0.091 A 
ATOM     75  F   UNL A   1      41.501  24.804  28.106  1.00  0.00    -0.205 F 
ATOM     76  C   UNL A   1      43.721  25.248  25.231  1.00  0.00     0.022 A 
BRANCH  74  77
ATOM     77  S   UNL A   1      42.597  22.863  25.982  1.00  0.00     0.127 S 
ATOM     78  O   UNL A   1      41.146  22.774  26.125  1.00  0.00    -0.237 OA
ATOM     79  O   UNL A   1      43.101  22.615  24.630  1.00  0.00    -0.237 OA
ATOM     80  O   UNL A   1      43.380  22.233  27.035  1.00  0.00    -0.744 OA
ENDBRANCH  74  77
ENDBRANCH  46  70
BRANCH  58  81
ATOM     81  C   UNL A   1      44.622  27.119  34.102  1.00  0.00     0.023 A 
ATOM     82  C   UNL A   1      45.923  27.663  34.101  1.00  0.00     0.012 A 
ATOM     83  C   UNL A   1      44.355  25.972  34.873  1.00  0.00     0.148 A 
ATOM     84  C   UNL A   1      46.950  27.047  34.817  1.00  0.00     0.002 A 
ATOM     85  C   UNL A   1      45.372  25.393  35.623  1.00  0.00     0.091 A 
ATOM     86  F   UNL A   1      43.118  25.454  34.849  1.00  0.00    -0.205 F 
ATOM     87  C   UNL A   1      46.673  25.920  35.584  1.00  0.00     0.022 A 
BRANCH  85  88
ATOM     88  S   UNL A   1      45.075  23.995  36.712  1.00  0.00     0.127 S 
ATOM     89  O   UNL A   1      46.423  23.704  37.201  1.00  0.00    -0.237 OA
ATOM     90  O   UNL A   1      44.173  24.561  37.715  1.00  0.00    -0.237 OA
ATOM     91  O   UNL A   1      44.471  22.966  35.875  1.00  0.00    -0.744 OA
ENDBRANCH  85  88
ENDBRANCH  58  81
ENDBRANCH  32  33
ENDBRANCH  25  27
ENDBRANCH  24  25
ENDBRANCH  23  24
ENDBRANCH   1  23
TORSDOF 19
ENDMDL
MODEL 2
REMARK VINA RESULT:     -11.4      4.520     10.019
REMARK SMILES CO[C@@]1(C(=O)OCCOCCOC(=O)c2ccc(-c3c4nc(c(-c5cccc(S(=O)(=O)[O-])c5F)c5ccc([nH]5)c(-c5cccc(S(=O)(=O)[O-])c5F)c5nc(c(-c6cccc(S(=O)(=O)[O-])c6F)c6ccc3[nH]6)C=C5)C=C4)cc2)CC(c2ccccc2)=CC=C1C
REMARK SMILES IDX 10 1 9 2 8 3 7 4 6 5 4 6 5 7 3 8 78 9 88 10 79 11 87 12
REMARK SMILES IDX 89 13 86 14 2 15 1 16 80 17 81 18 85 19 82 20 84 21 83 22
REMARK SMILES IDX 11 23 12 24 13 25 14 26 15 27 16 28 77 29 17 30 76 31 18 32
REMARK SMILES IDX 19 33 20 34 70 35 21 36 75 37 69 38 71 39 22 40 74 41 68 42
REMARK SMILES IDX 67 43 23 45 55 46 35 47 54 48 36 49 39 50 53 51 72 52 37 53
REMARK SMILES IDX 38 54 52 56 73 57 40 58 24 59 25 60 33 61 26 62 28 63 34 64
REMARK SMILES IDX 27 65 29 66 30 67 31 68 32 69 56 70 57 71 65 72 58 73 60 74
REMARK SMILES IDX 66 75 59 76 61 77 62 78 63 79 64 80 41 81 42 82 50 83 43 84
REMARK SMILES IDX 45 85 51 86 44 87 46 88 47 89 48 90 49 91
REMARK H PARENT 71 44 39 55
REMARK Flexibility Score: inf
ROOT
ATOM      1  C   UNL A   1      35.512  21.456  25.645  1.00  0.00     0.202 C 
ENDROOT
BRANCH   1   2
ATOM      2  O   UNL A   1      34.336  21.578  24.856  1.00  0.00    -0.374 OA
BRANCH   2   3
ATOM      3  C   UNL A   1      34.373  22.502  23.764  1.00  0.00     0.202 C 
BRANCH   3   4
ATOM      4  C   UNL A   1      33.054  22.793  23.036  1.00  0.00     0.261 C 
BRANCH   4   5
ATOM      5  O   UNL A   1      32.123  23.566  23.823  1.00  0.00    -0.461 OA
BRANCH   5   6
ATOM      6  C   UNL A   1      31.917  24.860  23.443  1.00  0.00     0.343 C 
ATOM      7  O   UNL A   1      31.809  25.218  22.272  1.00  0.00    -0.248 OA
BRANCH   6   8
ATOM      8  C   UNL A   1      31.853  25.861  24.653  1.00  0.00     0.190 C 
ATOM      9  C   UNL A   1      30.695  26.812  24.175  1.00  0.00     0.088 C 
ATOM     10  C   UNL A   1      33.164  26.605  24.945  1.00  0.00    -0.030 C 
ATOM     11  C   UNL A   1      30.969  28.292  24.152  1.00  0.00    -0.037 C 
ATOM     12  C   UNL A   1      33.262  27.945  24.866  1.00  0.00     0.003 C 
ATOM     13  C   UNL A   1      34.395  25.823  25.317  1.00  0.00     0.043 C 
ATOM     14  C   UNL A   1      32.164  28.796  24.490  1.00  0.00     0.004 C 
BRANCH   8  15
ATOM     15  O   UNL A   1      31.337  25.344  25.899  1.00  0.00    -0.362 OA
ATOM     16  C   UNL A   1      29.941  25.368  26.114  1.00  0.00     0.197 C 
ENDBRANCH   8  15
BRANCH  11  17
ATOM     17  C   UNL A   1      29.866  29.141  23.667  1.00  0.00    -0.022 A 
ATOM     18  C   UNL A   1      28.728  28.562  23.093  1.00  0.00     0.008 A 
ATOM     19  C   UNL A   1      29.886  30.527  23.878  1.00  0.00     0.008 A 
ATOM     20  C   UNL A   1      27.629  29.351  22.749  1.00  0.00     0.001 A 
ATOM     21  C   UNL A   1      28.786  31.315  23.537  1.00  0.00     0.001 A 
ATOM     22  C   UNL A   1      27.656  30.726  22.976  1.00  0.00     0.000 A 
ENDBRANCH  11  17
ENDBRANCH   6   8
ENDBRANCH   5   6
ENDBRANCH   4   5
ENDBRANCH   3   4
ENDBRANCH   2   3
ENDBRANCH   1   2
BRANCH   1  23
ATOM     23  C   UNL A   1      36.717  20.758  25.012  1.00  0.00     0.261 C 
BRANCH  23  24
ATOM     24  O   UNL A   1      37.859  21.624  24.940  1.00  0.00    -0.460 OA
BRANCH  24  25
ATOM     25  C   UNL A   1      38.881  21.239  25.736  1.00  0.00     0.338 C 
ATOM     26  O   UNL A   1      39.453  20.155  25.724  1.00  0.00    -0.246 OA
BRANCH  25  27
ATOM     27  C   UNL A   1      39.371  22.367  26.542  1.00  0.00     0.060 A 
ATOM     28  C   UNL A   1      38.775  23.608  26.296  1.00  0.00     0.016 A 
ATOM     29  C   UNL A   1      40.435  22.250  27.442  1.00  0.00     0.016 A 
ATOM     30  C   UNL A   1      39.302  24.755  26.876  1.00  0.00     0.010 A 
ATOM     31  C   UNL A   1      40.961  23.410  28.028  1.00  0.00     0.010 A 
ATOM     32  C   UNL A   1      40.430  24.670  27.702  1.00  0.00    -0.014 A 
BRANCH  32  33
ATOM     33  C   UNL A   1      41.103  25.936  28.082  1.00  0.00     0.031 A 
ATOM     34  C   UNL A   1      42.495  26.211  27.583  1.00  0.00     0.074 A 
ATOM     35  C   UNL A   1      40.431  26.876  28.769  1.00  0.00     0.049 A 
ATOM     36  N   UNL A   1      43.185  27.320  27.634  1.00  0.00    -0.248 NA
ATOM     37  C   UNL A   1      43.201  25.095  26.933  1.00  0.00     0.031 C 
ATOM     38  C   UNL A   1      39.083  26.720  29.314  1.00  0.00     0.029 A 
ATOM     39  N   UNL A   1      40.788  28.155  29.112  1.00  0.00    -0.354 N 
ATOM     40  C   UNL A   1      44.406  27.036  27.034  1.00  0.00     0.074 A 
ATOM     41  C   UNL A   1      44.374  25.642  26.649  1.00  0.00     0.031 C 
ATOM     42  C   UNL A   1      38.725  27.862  29.924  1.00  0.00     0.029 A 
ATOM     43  C   UNL A   1      39.817  28.827  29.813  1.00  0.00     0.049 A 
ATOM     44  H   UNL A   1      41.659  28.553  28.880  1.00  0.00     0.167 HD
ATOM     45  C   UNL A   1      45.450  27.867  26.800  1.00  0.00     0.034 A 
ATOM     46  C   UNL A   1      39.805  30.084  30.299  1.00  0.00     0.034 A 
ATOM     47  C   UNL A   1      45.473  29.258  27.168  1.00  0.00     0.049 A 
ATOM     48  C   UNL A   1      40.973  30.990  30.016  1.00  0.00     0.074 A 
ATOM     49  C   UNL A   1      46.466  30.193  26.940  1.00  0.00     0.029 A 
ATOM     50  N   UNL A   1      44.461  29.911  27.855  1.00  0.00    -0.354 N 
ATOM     51  N   UNL A   1      42.060  30.746  29.324  1.00  0.00    -0.248 NA
ATOM     52  C   UNL A   1      40.891  32.361  30.539  1.00  0.00     0.031 C 
ATOM     53  C   UNL A   1      46.064  31.408  27.509  1.00  0.00     0.029 A 
ATOM     54  C   UNL A   1      44.808  31.234  28.068  1.00  0.00     0.049 A 
ATOM     55  H   UNL A   1      43.618  29.494  28.147  1.00  0.00     0.167 HD
ATOM     56  C   UNL A   1      42.777  31.938  29.303  1.00  0.00     0.074 A 
ATOM     57  C   UNL A   1      41.982  32.912  30.024  1.00  0.00     0.031 C 
ATOM     58  C   UNL A   1      43.989  32.202  28.753  1.00  0.00     0.034 A 
BRANCH  45  59
ATOM     59  C   UNL A   1      46.646  27.300  26.080  1.00  0.00     0.023 A 
ATOM     60  C   UNL A   1      46.721  27.389  24.675  1.00  0.00     0.012 A 
ATOM     61  C   UNL A   1      47.717  26.728  26.795  1.00  0.00     0.148 A 
ATOM     62  C   UNL A   1      47.829  26.892  23.989  1.00  0.00     0.002 A 
ATOM     63  C   UNL A   1      48.838  26.272  26.107  1.00  0.00     0.091 A 
ATOM     64  F   UNL A   1      47.617  26.629  28.127  1.00  0.00    -0.205 F 
ATOM     65  C   UNL A   1      48.890  26.345  24.705  1.00  0.00     0.022 A 
BRANCH  63  66
ATOM     66  S   UNL A   1      50.286  25.619  26.944  1.00  0.00     0.127 S 
ATOM     67  O   UNL A   1      50.622  26.714  27.851  1.00  0.00    -0.237 OA
ATOM     68  O   UNL A   1      49.750  24.425  27.601  1.00  0.00    -0.237 OA
ATOM     69  O   UNL A   1      51.264  25.348  25.899  1.00  0.00    -0.744 OA
ENDBRANCH  63  66
ENDBRANCH  45  59
BRANCH  46  70
ATOM     70  C   UNL A   1      38.617  30.575  31.052  1.00  0.00     0.023 A 
ATOM     71  C   UNL A   1      38.564  30.433  32.451  1.00  0.00     0.012 A 
ATOM     72  C   UNL A   1      37.549  31.207  30.386  1.00  0.00     0.148 A 
ATOM     73  C   UNL A   1      37.457  30.885  33.171  1.00  0.00     0.002 A 
ATOM     74  C   UNL A   1      36.477  31.709  31.114  1.00  0.00     0.091 A 
ATOM     75  F   UNL A   1      37.608  31.316  29.050  1.00  0.00    -0.205 F 
ATOM     76  C   UNL A   1      36.420  31.533  32.505  1.00  0.00     0.022 A 
BRANCH  74  77
ATOM     77  S   UNL A   1      35.172  32.678  30.350  1.00  0.00     0.127 S 
ATOM     78  O   UNL A   1      34.729  31.791  29.277  1.00  0.00    -0.237 OA
ATOM     79  O   UNL A   1      34.224  32.833  31.455  1.00  0.00    -0.237 OA
ATOM     80  O   UNL A   1      35.804  33.920  29.928  1.00  0.00    -0.744 OA
ENDBRANCH  74  77
ENDBRANCH  46  70
BRANCH  58  81
ATOM     81  C   UNL A   1      44.523  33.604  28.896  1.00  0.00     0.023 A 
ATOM     82  C   UNL A   1      44.254  34.561  27.898  1.00  0.00     0.012 A 
ATOM     83  C   UNL A   1      45.258  33.986  30.036  1.00  0.00     0.148 A 
ATOM     84  C   UNL A   1      44.748  35.861  28.008  1.00  0.00     0.002 A 
ATOM     85  C   UNL A   1      45.704  35.296  30.162  1.00  0.00     0.091 A 
ATOM     86  F   UNL A   1      45.524  33.060  30.970  1.00  0.00    -0.205 F 
ATOM     87  C   UNL A   1      45.463  36.231  29.142  1.00  0.00     0.022 A 
BRANCH  85  88
ATOM     88  S   UNL A   1      46.551  35.877  31.637  1.00  0.00     0.127 S 
ATOM     89  O   UNL A   1      47.855  35.228  31.507  1.00  0.00    -0.237 OA
ATOM     90  O   UNL A   1      46.569  37.327  31.441  1.00  0.00    -0.237 OA
ATOM     91  O   UNL A   1      45.734  35.434  32.759  1.00  0.00    -0.744 OA
ENDBRANCH  85  88
ENDBRANCH  58  81
ENDBRANCH  32  33
ENDBRANCH  25  27
ENDBRANCH  24  25
ENDBRANCH  23  24
ENDBRANCH   1  23
TORSDOF 19
ENDMDL
MODEL 3
REMARK VINA RESULT:     -11.3      1.702      2.451
REMARK SMILES CO[C@@]1(C(=O)OCCOCCOC(=O)c2ccc(-c3c4nc(c(-c5cccc(S(=O)(=O)[O-])c5F)c5ccc([nH]5)c(-c5cccc(S(=O)(=O)[O-])c5F)c5nc(c(-c6cccc(S(=O)(=O)[O-])c6F)c6ccc3[nH]6)C=C5)C=C4)cc2)CC(c2ccccc2)=CC=C1C
REMARK SMILES IDX 10 1 9 2 8 3 7 4 6 5 4 6 5 7 3 8 78 9 88 10 79 11 87 12
REMARK SMILES IDX 89 13 86 14 2 15 1 16 80 17 81 18 85 19 82 20 84 21 83 22
REMARK SMILES IDX 11 23 12 24 13 25 14 26 15 27 16 28 77 29 17 30 76 31 18 32
REMARK SMILES IDX 19 33 20 34 70 35 21 36 75 37 69 38 71 39 22 40 74 41 68 42
REMARK SMILES IDX 67 43 23 45 55 46 35 47 54 48 36 49 39 50 53 51 72 52 37 53
REMARK SMILES IDX 38 54 52 56 73 57 40 58 24 59 25 60 33 61 26 62 28 63 34 64
REMARK SMILES IDX 27 65 29 66 30 67 31 68 32 69 56 70 57 71 65 72 58 73 60 74
REMARK SMILES IDX 66 75 59 76 61 77 62 78 63 79 64 80 41 81 42 82 50 83 43 84
REMARK SMILES IDX 45 85 51 86 44 87 46 88 47 89 48 90 49 91
REMARK H PARENT 71 44 39 55
REMARK Flexibility Score: inf
ROOT
ATOM      1  C   UNL A   1      31.735  29.118  25.652  1.00  0.00     0.202 C 
ENDROOT
BRANCH   1   2
ATOM      2  O   UNL A   1      32.376  27.963  26.176  1.00  0.00    -0.374 OA
BRANCH   2   3
ATOM      3  C   UNL A   1      31.539  26.949  26.742  1.00  0.00     0.202 C 
BRANCH   3   4
ATOM      4  C   UNL A   1      30.929  25.917  25.785  1.00  0.00     0.261 C 
BRANCH   4   5
ATOM      5  O   UNL A   1      31.751  24.744  25.607  1.00  0.00    -0.461 OA
BRANCH   5   6
ATOM      6  C   UNL A   1      31.858  24.250  24.339  1.00  0.00     0.343 C 
ATOM      7  O   UNL A   1      30.912  24.164  23.559  1.00  0.00    -0.248 OA
BRANCH   6   8
ATOM      8  C   UNL A   1      33.312  23.778  23.976  1.00  0.00     0.190 C 
ATOM      9  C   UNL A   1      33.051  22.256  23.677  1.00  0.00     0.088 C 
ATOM     10  C   UNL A   1      34.359  24.007  25.075  1.00  0.00    -0.030 C 
ATOM     11  C   UNL A   1      33.894  21.245  24.408  1.00  0.00    -0.037 C 
ATOM     12  C   UNL A   1      35.027  22.993  25.654  1.00  0.00     0.003 C 
ATOM     13  C   UNL A   1      34.648  25.408  25.545  1.00  0.00     0.043 C 
ATOM     14  C   UNL A   1      34.814  21.611  25.312  1.00  0.00     0.004 C 
BRANCH   8  15
ATOM     15  O   UNL A   1      33.856  24.252  22.724  1.00  0.00    -0.362 OA
ATOM     16  C   UNL A   1      33.454  25.520  22.250  1.00  0.00     0.197 C 
ENDBRANCH   8  15
BRANCH  11  17
ATOM     17  C   UNL A   1      33.593  19.831  24.121  1.00  0.00    -0.022 A 
ATOM     18  C   UNL A   1      32.525  19.492  23.280  1.00  0.00     0.008 A 
ATOM     19  C   UNL A   1      34.437  18.813  24.586  1.00  0.00     0.008 A 
ATOM     20  C   UNL A   1      32.314  18.165  22.904  1.00  0.00     0.001 A 
ATOM     21  C   UNL A   1      34.228  17.486  24.207  1.00  0.00     0.001 A 
ATOM     22  C   UNL A   1      33.168  17.163  23.363  1.00  0.00     0.000 A 
ENDBRANCH  11  17
ENDBRANCH   6   8
ENDBRANCH   5   6
ENDBRANCH   4   5
ENDBRANCH   3   4
ENDBRANCH   2   3
ENDBRANCH   1   2
BRANCH   1  23
ATOM     23  C   UNL A   1      32.001  30.452  26.353  1.00  0.00     0.261 C 
BRANCH  23  24
ATOM     24  O   UNL A   1      32.993  30.326  27.382  1.00  0.00    -0.460 OA
BRANCH  24  25
ATOM     25  C   UNL A   1      33.684  31.465  27.609  1.00  0.00     0.338 C 
ATOM     26  O   UNL A   1      33.219  32.590  27.756  1.00  0.00    -0.246 OA
BRANCH  25  27
ATOM     27  C   UNL A   1      35.107  31.176  27.840  1.00  0.00     0.060 A 
ATOM     28  C   UNL A   1      35.464  29.825  27.894  1.00  0.00     0.016 A 
ATOM     29  C   UNL A   1      36.053  32.176  28.090  1.00  0.00     0.016 A 
ATOM     30  C   UNL A   1      36.745  29.464  28.290  1.00  0.00     0.010 A 
ATOM     31  C   UNL A   1      37.346  31.808  28.486  1.00  0.00     0.010 A 
ATOM     32  C   UNL A   1      37.677  30.450  28.641  1.00  0.00    -0.014 A 
BRANCH  32  33
ATOM     33  C   UNL A   1      38.931  30.010  29.299  1.00  0.00     0.031 A 
ATOM     34  C   UNL A   1      39.283  30.556  30.656  1.00  0.00     0.074 A 
ATOM     35  C   UNL A   1      39.684  29.048  28.740  1.00  0.00     0.049 A 
ATOM     36  N   UNL A   1      40.218  30.168  31.483  1.00  0.00    -0.248 NA
ATOM     37  C   UNL A   1      38.472  31.680  31.152  1.00  0.00     0.031 C 
ATOM     38  C   UNL A   1      39.450  28.451  27.426  1.00  0.00     0.029 A 
ATOM     39  N   UNL A   1      40.792  28.393  29.215  1.00  0.00    -0.354 N 
ATOM     40  C   UNL A   1      40.116  31.002  32.591  1.00  0.00     0.074 A 
ATOM     41  C   UNL A   1      39.045  31.935  32.320  1.00  0.00     0.031 C 
ATOM     42  C   UNL A   1      40.386  27.515  27.199  1.00  0.00     0.029 A 
ATOM     43  C   UNL A   1      41.285  27.448  28.349  1.00  0.00     0.049 A 
ATOM     44  H   UNL A   1      41.196  28.584  30.093  1.00  0.00     0.167 HD
ATOM     45  C   UNL A   1      40.831  30.977  33.741  1.00  0.00     0.034 A 
ATOM     46  C   UNL A   1      42.335  26.613  28.476  1.00  0.00     0.034 A 
ATOM     47  C   UNL A   1      41.884  30.037  34.016  1.00  0.00     0.049 A 
ATOM     48  C   UNL A   1      43.107  26.598  29.769  1.00  0.00     0.074 A 
ATOM     49  C   UNL A   1      42.642  29.903  35.166  1.00  0.00     0.029 A 
ATOM     50  N   UNL A   1      42.340  29.077  33.125  1.00  0.00    -0.354 N 
ATOM     51  N   UNL A   1      42.906  27.297  30.860  1.00  0.00    -0.248 NA
ATOM     52  C   UNL A   1      44.219  25.642  29.866  1.00  0.00     0.031 C 
ATOM     53  C   UNL A   1      43.571  28.876  34.962  1.00  0.00     0.029 A 
ATOM     54  C   UNL A   1      43.374  28.353  33.693  1.00  0.00     0.049 A 
ATOM     55  H   UNL A   1      41.980  28.931  32.221  1.00  0.00     0.167 HD
ATOM     56  C   UNL A   1      43.845  26.847  31.782  1.00  0.00     0.074 A 
ATOM     57  C   UNL A   1      44.593  25.791  31.129  1.00  0.00     0.031 C 
ATOM     58  C   UNL A   1      44.082  27.278  33.047  1.00  0.00     0.034 A 
BRANCH  45  59
ATOM     59  C   UNL A   1      40.473  31.980  34.807  1.00  0.00     0.023 A 
ATOM     60  C   UNL A   1      41.210  33.177  34.914  1.00  0.00     0.012 A 
ATOM     61  C   UNL A   1      39.378  31.764  35.667  1.00  0.00     0.148 A 
ATOM     62  C   UNL A   1      40.882  34.131  35.876  1.00  0.00     0.002 A 
ATOM     63  C   UNL A   1      39.030  32.738  36.597  1.00  0.00     0.091 A 
ATOM     64  F   UNL A   1      38.705  30.610  35.568  1.00  0.00    -0.205 F 
ATOM     65  C   UNL A   1      39.787  33.916  36.709  1.00  0.00     0.022 A 
BRANCH  63  66
ATOM     66  S   UNL A   1      37.594  32.588  37.664  1.00  0.00     0.127 S 
ATOM     67  O   UNL A   1      37.967  33.451  38.784  1.00  0.00    -0.237 OA
ATOM     68  O   UNL A   1      36.524  33.116  36.817  1.00  0.00    -0.237 OA
ATOM     69  O   UNL A   1      37.475  31.171  37.979  1.00  0.00    -0.744 OA
ENDBRANCH  63  66
ENDBRANCH  45  59
BRANCH  46  70
ATOM     70  C   UNL A   1      42.677  25.680  27.366  1.00  0.00     0.023 A 
ATOM     71  C   UNL A   1      43.556  26.093  26.347  1.00  0.00     0.012 A 
ATOM     72  C   UNL A   1      42.154  24.373  27.333  1.00  0.00     0.148 A 
ATOM     73  C   UNL A   1      43.884  25.232  25.298  1.00  0.00     0.002 A 
ATOM     74  C   UNL A   1      42.532  23.501  26.319  1.00  0.00     0.091 A 
ATOM     75  F   UNL A   1      41.303  24.004  28.302  1.00  0.00    -0.205 F 
ATOM     76  C   UNL A   1      43.382  23.934  25.291  1.00  0.00     0.022 A 
BRANCH  74  77
ATOM     77  S   UNL A   1      42.043  21.772  26.314  1.00  0.00     0.127 S 
ATOM     78  O   UNL A   1      40.623  21.863  25.983  1.00  0.00    -0.237 OA
ATOM     79  O   UNL A   1      42.890  21.221  25.254  1.00  0.00    -0.237 OA
ATOM     80  O   UNL A   1      42.354  21.274  27.647  1.00  0.00    -0.744 OA
ENDBRANCH  74  77
ENDBRANCH  46  70
BRANCH  58  81
ATOM     81  C   UNL A   1      45.186  26.595  33.815  1.00  0.00     0.023 A 
ATOM     82  C   UNL A   1      46.510  27.063  33.701  1.00  0.00     0.012 A 
ATOM     83  C   UNL A   1      44.907  25.517  34.677  1.00  0.00     0.148 A 
ATOM     84  C   UNL A   1      47.546  26.438  34.396  1.00  0.00     0.002 A 
ATOM     85  C   UNL A   1      45.937  24.932  35.404  1.00  0.00     0.091 A 
ATOM     86  F   UNL A   1      43.645  25.070  34.761  1.00  0.00    -0.205 F 
ATOM     87  C   UNL A   1      47.259  25.381  35.253  1.00  0.00     0.022 A 
BRANCH  85  88
ATOM     88  S   UNL A   1      45.635  23.627  36.602  1.00  0.00     0.127 S 
ATOM     89  O   UNL A   1      44.758  24.297  37.561  1.00  0.00    -0.237 OA
ATOM     90  O   UNL A   1      44.980  22.599  35.792  1.00  0.00    -0.237 OA
ATOM     91  O   UNL A   1      46.948  23.245  37.106  1.00  0.00    -0.744 OA
ENDBRANCH  85  88
ENDBRANCH  58  81
ENDBRANCH  32  33
ENDBRANCH  25  27
ENDBRANCH  24  25
ENDBRANCH  23  24
ENDBRANCH   1  23
TORSDOF 19
ENDMDL
