MODEL 1
REMARK VINA RESULT:     -10.9      0.000      0.000
REMARK SMILES C[C@H](Cc1ccc(N)cc1)C(=O)OCCOCCOC(=O)c1ccc(-c2c3nc(c(-c4cccc(S(=O)(=O)[O-])c4F)c4ccc([nH]4)c(-c4cccc(S(=O)(=O)[O-])c4F)c4nc(c(-c5cccc(S(=O)(=O)[O-])c5F)c5ccc2[nH]5)C=C4)C=C3)cc1
REMARK SMILES IDX 16 1 15 2 14 3 13 4 11 5 12 6 2 7 1 8 3 9 4 10 5 11 10 12
REMARK SMILES IDX 6 13 9 14 7 15 8 16 17 19 18 20 19 21 20 22 21 23 22 24
REMARK SMILES IDX 23 25 84 26 24 27 83 28 25 29 26 30 27 31 77 32 28 33 82 34
REMARK SMILES IDX 76 35 78 36 29 37 81 38 75 39 74 40 30 42 62 43 42 44 61 45
REMARK SMILES IDX 43 46 46 47 60 48 79 49 44 50 45 51 59 53 80 54 47 55 31 56
REMARK SMILES IDX 32 57 40 58 33 59 35 60 41 61 34 62 36 63 37 64 38 65 39 66
REMARK SMILES IDX 63 67 64 68 72 69 65 70 67 71 73 72 66 73 68 74 69 75 70 76
REMARK SMILES IDX 71 77 48 78 49 79 57 80 50 81 52 82 58 83 51 84 53 85 54 86
REMARK SMILES IDX 55 87 56 88
REMARK H PARENT 8 17 8 18 78 41 46 52
REMARK Flexibility Score: inf
ROOT
ATOM      1  O   UNL A   1      32.148  29.390  25.438  1.00  0.00    -0.374 OA
ENDROOT
BRANCH   1   2
ATOM      2  C   UNL A   1      32.950  29.126  24.289  1.00  0.00     0.202 C 
BRANCH   2   3
ATOM      3  C   UNL A   1      33.413  27.683  24.074  1.00  0.00     0.261 C 
BRANCH   3   4
ATOM      4  O   UNL A   1      32.465  26.854  23.376  1.00  0.00    -0.463 OA
BRANCH   4   5
ATOM      5  C   UNL A   1      33.012  25.855  22.631  1.00  0.00     0.309 C 
ATOM      6  O   UNL A   1      33.675  26.023  21.613  1.00  0.00    -0.252 OA
BRANCH   5   7
ATOM      7  C   UNL A   1      32.693  24.474  23.168  1.00  0.00     0.100 C 
ATOM      8  C   UNL A   1      32.071  24.579  24.561  1.00  0.00     0.020 C 
BRANCH   7   9
ATOM      9  C   UNL A   1      33.888  23.502  23.132  1.00  0.00     0.050 C 
BRANCH   9  10
ATOM     10  C   UNL A   1      33.699  22.228  23.943  1.00  0.00    -0.047 A 
ATOM     11  C   UNL A   1      32.771  21.267  23.517  1.00  0.00     0.006 A 
ATOM     12  C   UNL A   1      34.413  21.968  25.120  1.00  0.00     0.006 A 
ATOM     13  C   UNL A   1      32.525  20.117  24.281  1.00  0.00     0.026 A 
ATOM     14  C   UNL A   1      34.153  20.827  25.885  1.00  0.00     0.026 A 
ATOM     15  C   UNL A   1      33.217  19.885  25.469  1.00  0.00     0.031 A 
BRANCH  15  16
ATOM     16  N   UNL A   1      32.897  18.810  26.283  1.00  0.00    -0.399 N 
ATOM     17  H   UNL A   1      32.598  18.965  27.208  1.00  0.00     0.156 HD
ATOM     18  H   UNL A   1      32.971  17.891  25.937  1.00  0.00     0.156 HD
ENDBRANCH  15  16
ENDBRANCH   9  10
ENDBRANCH   7   9
ENDBRANCH   5   7
ENDBRANCH   4   5
ENDBRANCH   3   4
ENDBRANCH   2   3
ENDBRANCH   1   2
BRANCH   1  19
ATOM     19  C   UNL A   1      31.213  30.462  25.340  1.00  0.00     0.202 C 
BRANCH  19  20
ATOM     20  C   UNL A   1      31.399  31.630  26.318  1.00  0.00     0.261 C 
BRANCH  20  21
ATOM     21  O   UNL A   1      32.442  31.378  27.279  1.00  0.00    -0.460 OA
BRANCH  21  22
ATOM     22  C   UNL A   1      33.241  32.442  27.535  1.00  0.00     0.338 C 
ATOM     23  O   UNL A   1      32.894  33.611  27.642  1.00  0.00    -0.246 OA
BRANCH  22  24
ATOM     24  C   UNL A   1      34.612  32.005  27.858  1.00  0.00     0.060 A 
ATOM     25  C   UNL A   1      34.815  30.632  28.046  1.00  0.00     0.016 A 
ATOM     26  C   UNL A   1      35.650  32.912  28.082  1.00  0.00     0.016 A 
ATOM     27  C   UNL A   1      36.038  30.168  28.523  1.00  0.00     0.010 A 
ATOM     28  C   UNL A   1      36.879  32.442  28.566  1.00  0.00     0.010 A 
ATOM     29  C   UNL A   1      37.063  31.073  28.832  1.00  0.00    -0.014 A 
BRANCH  29  30
ATOM     30  C   UNL A   1      38.260  30.570  29.552  1.00  0.00     0.031 A 
ATOM     31  C   UNL A   1      38.501  30.993  30.977  1.00  0.00     0.074 A 
ATOM     32  C   UNL A   1      39.087  29.683  28.967  1.00  0.00     0.049 A 
ATOM     33  N   UNL A   1      39.413  30.579  31.819  1.00  0.00    -0.248 NA
ATOM     34  C   UNL A   1      37.595  32.014  31.527  1.00  0.00     0.031 C 
ATOM     35  C   UNL A   1      38.975  29.209  27.590  1.00  0.00     0.029 A 
ATOM     36  N   UNL A   1      40.188  29.030  29.461  1.00  0.00    -0.354 N 
ATOM     37  C   UNL A   1      39.193  31.287  32.996  1.00  0.00     0.074 A 
ATOM     38  C   UNL A   1      38.081  32.179  32.749  1.00  0.00     0.031 C 
ATOM     39  C   UNL A   1      39.980  28.351  27.342  1.00  0.00     0.029 A 
ATOM     40  C   UNL A   1      40.803  28.216  28.541  1.00  0.00     0.049 A 
ATOM     41  H   UNL A   1      40.506  29.135  30.387  1.00  0.00     0.167 HD
ATOM     42  C   UNL A   1      39.836  31.182  34.184  1.00  0.00     0.034 A 
ATOM     43  C   UNL A   1      41.906  27.448  28.654  1.00  0.00     0.034 A 
ATOM     44  C   UNL A   1      40.933  30.286  34.436  1.00  0.00     0.049 A 
ATOM     45  C   UNL A   1      42.600  27.344  29.987  1.00  0.00     0.074 A 
ATOM     46  C   UNL A   1      41.630  30.089  35.616  1.00  0.00     0.029 A 
ATOM     47  N   UNL A   1      41.498  29.441  33.494  1.00  0.00    -0.354 N 
ATOM     48  N   UNL A   1      42.292  27.916  31.126  1.00  0.00    -0.248 NA
ATOM     49  C   UNL A   1      43.766  26.451  30.062  1.00  0.00     0.031 C 
ATOM     50  C   UNL A   1      42.626  29.133  35.383  1.00  0.00     0.029 A 
ATOM     51  C   UNL A   1      42.538  28.724  34.062  1.00  0.00     0.049 A 
ATOM     52  H   UNL A   1      41.204  29.364  32.558  1.00  0.00     0.167 HD
ATOM     53  C   UNL A   1      43.208  27.437  32.056  1.00  0.00     0.074 A 
ATOM     54  C   UNL A   1      44.060  26.498  31.354  1.00  0.00     0.031 C 
ATOM     55  C   UNL A   1      43.349  27.760  33.365  1.00  0.00     0.034 A 
BRANCH  42  56
ATOM     56  C   UNL A   1      39.327  32.022  35.326  1.00  0.00     0.023 A 
ATOM     57  C   UNL A   1      38.399  31.465  36.228  1.00  0.00     0.012 A 
ATOM     58  C   UNL A   1      39.807  33.327  35.545  1.00  0.00     0.148 A 
ATOM     59  C   UNL A   1      37.935  32.202  37.318  1.00  0.00     0.002 A 
ATOM     60  C   UNL A   1      39.368  34.043  36.654  1.00  0.00     0.091 A 
ATOM     61  F   UNL A   1      40.672  33.848  34.663  1.00  0.00    -0.205 F 
ATOM     62  C   UNL A   1      38.427  33.485  37.536  1.00  0.00     0.022 A 
BRANCH  60  63
ATOM     63  S   UNL A   1      39.992  35.678  37.062  1.00  0.00     0.127 S 
ATOM     64  O   UNL A   1      41.420  35.415  37.231  1.00  0.00    -0.237 OA
ATOM     65  O   UNL A   1      39.651  36.445  35.863  1.00  0.00    -0.237 OA
ATOM     66  O   UNL A   1      39.284  36.089  38.266  1.00  0.00    -0.744 OA
ENDBRANCH  60  63
ENDBRANCH  42  56
BRANCH  43  67
ATOM     67  C   UNL A   1      42.392  26.674  27.477  1.00  0.00     0.023 A 
ATOM     68  C   UNL A   1      43.166  27.312  26.488  1.00  0.00     0.012 A 
ATOM     69  C   UNL A   1      42.108  25.302  27.346  1.00  0.00     0.148 A 
ATOM     70  C   UNL A   1      43.622  26.604  25.375  1.00  0.00     0.002 A 
ATOM     71  C   UNL A   1      42.613  24.589  26.265  1.00  0.00     0.091 A 
ATOM     72  F   UNL A   1      41.350  24.715  28.284  1.00  0.00    -0.205 F 
ATOM     73  C   UNL A   1      43.356  25.240  25.270  1.00  0.00     0.022 A 
BRANCH  71  74
ATOM     74  S   UNL A   1      42.433  22.806  26.136  1.00  0.00     0.127 S 
ATOM     75  O   UNL A   1      40.982  22.649  26.156  1.00  0.00    -0.237 OA
ATOM     76  O   UNL A   1      43.066  22.526  24.846  1.00  0.00    -0.237 OA
ATOM     77  O   UNL A   1      43.152  22.262  27.281  1.00  0.00    -0.744 OA
ENDBRANCH  71  74
ENDBRANCH  43  67
BRANCH  55  78
ATOM     78  C   UNL A   1      44.462  27.090  34.130  1.00  0.00     0.023 A 
ATOM     79  C   UNL A   1      45.755  27.652  34.108  1.00  0.00     0.012 A 
ATOM     80  C   UNL A   1      44.225  25.939  34.905  1.00  0.00     0.148 A 
ATOM     81  C   UNL A   1      46.801  27.056  34.812  1.00  0.00     0.002 A 
ATOM     82  C   UNL A   1      45.263  25.376  35.641  1.00  0.00     0.091 A 
ATOM     83  F   UNL A   1      42.995  25.403  34.901  1.00  0.00    -0.205 F 
ATOM     84  C   UNL A   1      46.553  25.926  35.586  1.00  0.00     0.022 A 
BRANCH  82  85
ATOM     85  S   UNL A   1      45.005  23.970  36.730  1.00  0.00     0.127 S 
ATOM     86  O   UNL A   1      46.340  23.781  37.296  1.00  0.00    -0.237 OA
ATOM     87  O   UNL A   1      44.010  24.479  37.675  1.00  0.00    -0.237 OA
ATOM     88  O   UNL A   1      44.522  22.894  35.875  1.00  0.00    -0.744 OA
ENDBRANCH  82  85
ENDBRANCH  55  78
ENDBRANCH  29  30
ENDBRANCH  22  24
ENDBRANCH  21  22
ENDBRANCH  20  21
ENDBRANCH  19  20
ENDBRANCH   1  19
TORSDOF 20
ENDMDL
MODEL 2
REMARK VINA RESULT:     -10.9      5.858     11.355
REMARK SMILES C[C@H](Cc1ccc(N)cc1)C(=O)OCCOCCOC(=O)c1ccc(-c2c3nc(c(-c4cccc(S(=O)(=O)[O-])c4F)c4ccc([nH]4)c(-c4cccc(S(=O)(=O)[O-])c4F)c4nc(c(-c5cccc(S(=O)(=O)[O-])c5F)c5ccc2[nH]5)C=C4)C=C3)cc1
REMARK SMILES IDX 16 1 15 2 14 3 13 4 11 5 12 6 2 7 1 8 3 9 4 10 5 11 10 12
REMARK SMILES IDX 6 13 9 14 7 15 8 16 17 19 18 20 19 21 20 22 21 23 22 24
REMARK SMILES IDX 23 25 84 26 24 27 83 28 25 29 26 30 27 31 77 32 28 33 82 34
REMARK SMILES IDX 76 35 78 36 29 37 81 38 75 39 74 40 30 42 62 43 42 44 61 45
REMARK SMILES IDX 43 46 46 47 60 48 79 49 44 50 45 51 59 53 80 54 47 55 31 56
REMARK SMILES IDX 32 57 40 58 33 59 35 60 41 61 34 62 36 63 37 64 38 65 39 66
REMARK SMILES IDX 63 67 64 68 72 69 65 70 67 71 73 72 66 73 68 74 69 75 70 76
REMARK SMILES IDX 71 77 48 78 49 79 57 80 50 81 52 82 58 83 51 84 53 85 54 86
REMARK SMILES IDX 55 87 56 88
REMARK H PARENT 8 17 8 18 78 41 46 52
REMARK Flexibility Score: inf
ROOT
ATOM      1  O   UNL A   1      43.281  18.196  26.215  1.00  0.00    -0.374 OA
ENDROOT
BRANCH   1   2
ATOM      2  C   UNL A   1      43.675  18.809  24.990  1.00  0.00     0.202 C 
BRANCH   2   3
ATOM      3  C   UNL A   1      44.807  19.838  25.052  1.00  0.00     0.261 C 
BRANCH   3   4
ATOM      4  O   UNL A   1      44.432  21.159  24.620  1.00  0.00    -0.463 OA
BRANCH   4   5
ATOM      5  C   UNL A   1      45.413  22.098  24.720  1.00  0.00     0.309 C 
ATOM      6  O   UNL A   1      46.553  21.969  24.290  1.00  0.00    -0.252 OA
BRANCH   5   7
ATOM      7  C   UNL A   1      44.965  23.342  25.461  1.00  0.00     0.100 C 
ATOM      8  C   UNL A   1      45.073  23.126  26.971  1.00  0.00     0.020 C 
BRANCH   7   9
ATOM      9  C   UNL A   1      43.573  23.849  25.039  1.00  0.00     0.050 C 
BRANCH   9  10
ATOM     10  C   UNL A   1      43.354  25.344  25.228  1.00  0.00    -0.047 A 
ATOM     11  C   UNL A   1      44.462  26.202  25.299  1.00  0.00     0.006 A 
ATOM     12  C   UNL A   1      42.080  25.914  25.343  1.00  0.00     0.006 A 
ATOM     13  C   UNL A   1      44.294  27.572  25.542  1.00  0.00     0.026 A 
ATOM     14  C   UNL A   1      41.920  27.279  25.600  1.00  0.00     0.026 A 
ATOM     15  C   UNL A   1      43.023  28.124  25.690  1.00  0.00     0.031 A 
BRANCH  15  16
ATOM     16  N   UNL A   1      42.857  29.454  26.043  1.00  0.00    -0.399 N 
ATOM     17  H   UNL A   1      43.640  30.000  26.284  1.00  0.00     0.156 HD
ATOM     18  H   UNL A   1      41.956  29.852  26.054  1.00  0.00     0.156 HD
ENDBRANCH  15  16
ENDBRANCH   9  10
ENDBRANCH   7   9
ENDBRANCH   5   7
ENDBRANCH   4   5
ENDBRANCH   3   4
ENDBRANCH   2   3
ENDBRANCH   1   2
BRANCH   1  19
ATOM     19  C   UNL A   1      42.398  18.937  27.054  1.00  0.00     0.202 C 
BRANCH  19  20
ATOM     20  C   UNL A   1      41.461  19.933  26.357  1.00  0.00     0.261 C 
BRANCH  20  21
ATOM     21  O   UNL A   1      40.722  20.737  27.297  1.00  0.00    -0.460 OA
BRANCH  21  22
ATOM     22  C   UNL A   1      40.114  21.819  26.754  1.00  0.00     0.338 C 
ATOM     23  O   UNL A   1      39.316  21.825  25.825  1.00  0.00    -0.246 OA
BRANCH  22  24
ATOM     24  C   UNL A   1      40.394  23.031  27.546  1.00  0.00     0.060 A 
ATOM     25  C   UNL A   1      39.460  24.073  27.468  1.00  0.00     0.016 A 
ATOM     26  C   UNL A   1      41.584  23.199  28.258  1.00  0.00     0.016 A 
ATOM     27  C   UNL A   1      39.743  25.306  28.047  1.00  0.00     0.010 A 
ATOM     28  C   UNL A   1      41.868  24.444  28.836  1.00  0.00     0.010 A 
ATOM     29  C   UNL A   1      40.969  25.517  28.694  1.00  0.00    -0.014 A 
BRANCH  29  30
ATOM     30  C   UNL A   1      41.333  26.901  29.091  1.00  0.00     0.031 A 
ATOM     31  C   UNL A   1      42.783  27.307  29.118  1.00  0.00     0.074 A 
ATOM     32  C   UNL A   1      40.376  27.809  29.354  1.00  0.00     0.049 A 
ATOM     33  N   UNL A   1      43.305  28.490  29.319  1.00  0.00    -0.248 NA
ATOM     34  C   UNL A   1      43.774  26.244  28.885  1.00  0.00     0.031 C 
ATOM     35  C   UNL A   1      38.941  27.538  29.380  1.00  0.00     0.029 A 
ATOM     36  N   UNL A   1      40.474  29.146  29.654  1.00  0.00    -0.354 N 
ATOM     37  C   UNL A   1      44.683  28.315  29.238  1.00  0.00     0.074 A 
ATOM     38  C   UNL A   1      44.916  26.908  29.001  1.00  0.00     0.031 C 
ATOM     39  C   UNL A   1      38.290  28.671  29.698  1.00  0.00     0.029 A 
ATOM     40  C   UNL A   1      39.261  29.745  29.896  1.00  0.00     0.049 A 
ATOM     41  H   UNL A   1      41.331  29.627  29.692  1.00  0.00     0.167 HD
ATOM     42  C   UNL A   1      45.664  29.246  29.322  1.00  0.00     0.034 A 
ATOM     43  C   UNL A   1      38.968  31.015  30.238  1.00  0.00     0.034 A 
ATOM     44  C   UNL A   1      45.435  30.649  29.544  1.00  0.00     0.049 A 
ATOM     45  C   UNL A   1      40.076  32.033  30.320  1.00  0.00     0.074 A 
ATOM     46  C   UNL A   1      46.364  31.673  29.617  1.00  0.00     0.029 A 
ATOM     47  N   UNL A   1      44.190  31.227  29.736  1.00  0.00    -0.354 N 
ATOM     48  N   UNL A   1      41.359  31.875  30.103  1.00  0.00    -0.248 NA
ATOM     49  C   UNL A   1      39.689  33.413  30.646  1.00  0.00     0.031 C 
ATOM     50  C   UNL A   1      45.680  32.869  29.865  1.00  0.00     0.029 A 
ATOM     51  C   UNL A   1      44.325  32.591  29.932  1.00  0.00     0.049 A 
ATOM     52  H   UNL A   1      43.335  30.739  29.736  1.00  0.00     0.167 HD
ATOM     53  C   UNL A   1      41.930  33.136  30.244  1.00  0.00     0.074 A 
ATOM     54  C   UNL A   1      40.844  34.053  30.528  1.00  0.00     0.031 C 
ATOM     55  C   UNL A   1      43.233  33.501  30.169  1.00  0.00     0.034 A 
BRANCH  42  56
ATOM     56  C   UNL A   1      47.081  28.782  29.113  1.00  0.00     0.023 A 
ATOM     57  C   UNL A   1      47.740  28.095  30.153  1.00  0.00     0.012 A 
ATOM     58  C   UNL A   1      47.738  28.966  27.881  1.00  0.00     0.148 A 
ATOM     59  C   UNL A   1      49.039  27.620  29.981  1.00  0.00     0.002 A 
ATOM     60  C   UNL A   1      49.021  28.456  27.704  1.00  0.00     0.091 A 
ATOM     61  F   UNL A   1      47.105  29.641  26.912  1.00  0.00    -0.205 F 
ATOM     62  C   UNL A   1      49.675  27.791  28.754  1.00  0.00     0.022 A 
BRANCH  60  63
ATOM     63  S   UNL A   1      49.900  28.565  26.141  1.00  0.00     0.127 S 
ATOM     64  O   UNL A   1      50.121  30.006  26.026  1.00  0.00    -0.237 OA
ATOM     65  O   UNL A   1      51.106  27.783  26.410  1.00  0.00    -0.237 OA
ATOM     66  O   UNL A   1      49.013  27.987  25.141  1.00  0.00    -0.744 OA
ENDBRANCH  60  63
ENDBRANCH  42  56
BRANCH  43  67
ATOM     67  C   UNL A   1      37.551  31.408  30.480  1.00  0.00     0.023 A 
ATOM     68  C   UNL A   1      37.030  31.388  31.789  1.00  0.00     0.012 A 
ATOM     69  C   UNL A   1      36.723  31.821  29.419  1.00  0.00     0.148 A 
ATOM     70  C   UNL A   1      35.703  31.745  32.031  1.00  0.00     0.002 A 
ATOM     71  C   UNL A   1      35.420  32.230  29.674  1.00  0.00     0.091 A 
ATOM     72  F   UNL A   1      37.227  31.811  28.176  1.00  0.00    -0.205 F 
ATOM     73  C   UNL A   1      34.902  32.178  30.976  1.00  0.00     0.022 A 
BRANCH  71  74
ATOM     74  S   UNL A   1      34.377  32.933  28.392  1.00  0.00     0.127 S 
ATOM     75  O   UNL A   1      33.829  31.736  27.761  1.00  0.00    -0.237 OA
ATOM     76  O   UNL A   1      33.416  33.714  29.171  1.00  0.00    -0.237 OA
ATOM     77  O   UNL A   1      35.269  33.739  27.568  1.00  0.00    -0.744 OA
ENDBRANCH  71  74
ENDBRANCH  43  67
BRANCH  55  78
ATOM     78  C   UNL A   1      43.562  34.955  30.391  1.00  0.00     0.023 A 
ATOM     79  C   UNL A   1      43.943  35.391  31.677  1.00  0.00     0.012 A 
ATOM     80  C   UNL A   1      43.542  35.878  29.329  1.00  0.00     0.148 A 
ATOM     81  C   UNL A   1      44.258  36.729  31.909  1.00  0.00     0.002 A 
ATOM     82  C   UNL A   1      43.901  37.203  29.558  1.00  0.00     0.091 A 
ATOM     83  F   UNL A   1      43.158  35.454  28.116  1.00  0.00    -0.205 F 
ATOM     84  C   UNL A   1      44.248  37.632  30.849  1.00  0.00     0.022 A 
BRANCH  82  85
ATOM     85  S   UNL A   1      43.997  38.407  28.229  1.00  0.00     0.127 S 
ATOM     86  O   UNL A   1      44.954  37.777  27.321  1.00  0.00    -0.237 OA
ATOM     87  O   UNL A   1      42.621  38.442  27.733  1.00  0.00    -0.237 OA
ATOM     88  O   UNL A   1      44.439  39.647  28.853  1.00  0.00    -0.744 OA
ENDBRANCH  82  85
ENDBRANCH  55  78
ENDBRANCH  29  30
ENDBRANCH  22  24
ENDBRANCH  21  22
ENDBRANCH  20  21
ENDBRANCH  19  20
ENDBRANCH   1  19
TORSDOF 20
ENDMDL
MODEL 3
REMARK VINA RESULT:     -10.7      5.207     10.558
REMARK SMILES C[C@H](Cc1ccc(N)cc1)C(=O)OCCOCCOC(=O)c1ccc(-c2c3nc(c(-c4cccc(S(=O)(=O)[O-])c4F)c4ccc([nH]4)c(-c4cccc(S(=O)(=O)[O-])c4F)c4nc(c(-c5cccc(S(=O)(=O)[O-])c5F)c5ccc2[nH]5)C=C4)C=C3)cc1
REMARK SMILES IDX 16 1 15 2 14 3 13 4 11 5 12 6 2 7 1 8 3 9 4 10 5 11 10 12
REMARK SMILES IDX 6 13 9 14 7 15 8 16 17 19 18 20 19 21 20 22 21 23 22 24
REMARK SMILES IDX 23 25 84 26 24 27 83 28 25 29 26 30 27 31 77 32 28 33 82 34
REMARK SMILES IDX 76 35 78 36 29 37 81 38 75 39 74 40 30 42 62 43 42 44 61 45
REMARK SMILES IDX 43 46 46 47 60 48 79 49 44 50 45 51 59 53 80 54 47 55 31 56
REMARK SMILES IDX 32 57 40 58 33 59 35 60 41 61 34 62 36 63 37 64 38 65 39 66
REMARK SMILES IDX 63 67 64 68 72 69 65 70 67 71 73 72 66 73 68 74 69 75 70 76
REMARK SMILES IDX 71 77 48 78 49 79 57 80 50 81 52 82 58 83 51 84 53 85 54 86
REMARK SMILES IDX 55 87 56 88
REMARK H PARENT 8 17 8 18 78 41 46 52
REMARK Flexibility Score: inf
ROOT
ATOM      1  O   UNL A   1      34.149  20.683  25.239  1.00  0.00    -0.374 OA
ENDROOT
BRANCH   1   2
ATOM      2  C   UNL A   1      33.270  21.591  25.901  1.00  0.00     0.202 C 
BRANCH   2   3
ATOM      3  C   UNL A   1      33.233  23.032  25.387  1.00  0.00     0.261 C 
BRANCH   3   4
ATOM      4  O   UNL A   1      33.117  24.028  26.420  1.00  0.00    -0.463 OA
BRANCH   4   5
ATOM      5  C   UNL A   1      31.858  24.504  26.622  1.00  0.00     0.309 C 
ATOM      6  O   UNL A   1      30.978  23.917  27.243  1.00  0.00    -0.252 OA
BRANCH   5   7
ATOM      7  C   UNL A   1      31.622  25.849  25.965  1.00  0.00     0.100 C 
ATOM      8  C   UNL A   1      31.646  26.962  27.013  1.00  0.00     0.020 C 
BRANCH   7   9
ATOM      9  C   UNL A   1      30.357  25.898  25.087  1.00  0.00     0.050 C 
BRANCH   9  10
ATOM     10  C   UNL A   1      30.328  27.031  24.071  1.00  0.00    -0.047 A 
ATOM     11  C   UNL A   1      31.535  27.584  23.617  1.00  0.00     0.006 A 
ATOM     12  C   UNL A   1      29.136  27.564  23.565  1.00  0.00     0.006 A 
ATOM     13  C   UNL A   1      31.539  28.674  22.736  1.00  0.00     0.026 A 
ATOM     14  C   UNL A   1      29.146  28.660  22.697  1.00  0.00     0.026 A 
ATOM     15  C   UNL A   1      30.345  29.219  22.264  1.00  0.00     0.031 A 
BRANCH  15  16
ATOM     16  N   UNL A   1      30.341  30.365  21.485  1.00  0.00    -0.399 N 
ATOM     17  H   UNL A   1      30.257  30.294  20.506  1.00  0.00     0.156 HD
ATOM     18  H   UNL A   1      30.424  31.250  21.910  1.00  0.00     0.156 HD
ENDBRANCH  15  16
ENDBRANCH   9  10
ENDBRANCH   7   9
ENDBRANCH   5   7
ENDBRANCH   4   5
ENDBRANCH   3   4
ENDBRANCH   2   3
ENDBRANCH   1   2
BRANCH   1  19
ATOM     19  C   UNL A   1      35.302  21.241  24.614  1.00  0.00     0.202 C 
BRANCH  19  20
ATOM     20  C   UNL A   1      36.665  20.784  25.151  1.00  0.00     0.261 C 
BRANCH  20  21
ATOM     21  O   UNL A   1      37.593  21.878  25.288  1.00  0.00    -0.460 OA
BRANCH  21  22
ATOM     22  C   UNL A   1      38.765  21.549  25.881  1.00  0.00     0.338 C 
ATOM     23  O   UNL A   1      39.399  20.512  25.731  1.00  0.00    -0.246 OA
BRANCH  22  24
ATOM     24  C   UNL A   1      39.315  22.694  26.631  1.00  0.00     0.060 A 
ATOM     25  C   UNL A   1      38.769  23.955  26.358  1.00  0.00     0.016 A 
ATOM     26  C   UNL A   1      40.405  22.566  27.494  1.00  0.00     0.016 A 
ATOM     27  C   UNL A   1      39.354  25.098  26.895  1.00  0.00     0.010 A 
ATOM     28  C   UNL A   1      40.995  23.720  28.030  1.00  0.00     0.010 A 
ATOM     29  C   UNL A   1      40.500  24.994  27.696  1.00  0.00    -0.014 A 
BRANCH  29  30
ATOM     30  C   UNL A   1      41.229  26.236  28.057  1.00  0.00     0.031 A 
ATOM     31  C   UNL A   1      42.662  26.406  27.630  1.00  0.00     0.074 A 
ATOM     32  C   UNL A   1      40.596  27.237  28.696  1.00  0.00     0.049 A 
ATOM     33  N   UNL A   1      43.438  27.453  27.737  1.00  0.00    -0.248 NA
ATOM     34  C   UNL A   1      43.306  25.244  26.995  1.00  0.00     0.031 C 
ATOM     35  C   UNL A   1      39.218  27.191  29.180  1.00  0.00     0.029 A 
ATOM     36  N   UNL A   1      41.038  28.488  29.052  1.00  0.00    -0.354 N 
ATOM     37  C   UNL A   1      44.660  27.080  27.186  1.00  0.00     0.074 A 
ATOM     38  C   UNL A   1      44.532  25.700  26.774  1.00  0.00     0.031 C 
ATOM     39  C   UNL A   1      38.931  28.356  29.786  1.00  0.00     0.029 A 
ATOM     40  C   UNL A   1      40.102  29.228  29.732  1.00  0.00     0.049 A 
ATOM     41  H   UNL A   1      41.939  28.821  28.839  1.00  0.00     0.167 HD
ATOM     42  C   UNL A   1      45.776  27.828  27.010  1.00  0.00     0.034 A 
ATOM     43  C   UNL A   1      40.180  30.469  30.253  1.00  0.00     0.034 A 
ATOM     44  C   UNL A   1      45.902  29.204  27.407  1.00  0.00     0.049 A 
ATOM     45  C   UNL A   1      41.431  31.282  30.039  1.00  0.00     0.074 A 
ATOM     46  C   UNL A   1      46.985  30.052  27.245  1.00  0.00     0.029 A 
ATOM     47  N   UNL A   1      44.917  29.936  28.050  1.00  0.00    -0.354 N 
ATOM     48  N   UNL A   1      42.526  30.958  29.393  1.00  0.00    -0.248 NA
ATOM     49  C   UNL A   1      41.439  32.647  30.585  1.00  0.00     0.031 C 
ATOM     50  C   UNL A   1      46.657  31.294  27.802  1.00  0.00     0.029 A 
ATOM     51  C   UNL A   1      45.365  31.223  28.297  1.00  0.00     0.049 A 
ATOM     52  H   UNL A   1      44.028  29.591  28.297  1.00  0.00     0.167 HD
ATOM     53  C   UNL A   1      43.342  32.084  29.435  1.00  0.00     0.074 A 
ATOM     54  C   UNL A   1      42.598  33.110  30.137  1.00  0.00     0.031 C 
ATOM     55  C   UNL A   1      44.599  32.249  28.957  1.00  0.00     0.034 A 
BRANCH  42  56
ATOM     56  C   UNL A   1      46.939  27.183  26.303  1.00  0.00     0.023 A 
ATOM     57  C   UNL A   1      47.011  27.251  24.896  1.00  0.00     0.012 A 
ATOM     58  C   UNL A   1      47.984  26.570  27.019  1.00  0.00     0.148 A 
ATOM     59  C   UNL A   1      48.092  26.697  24.211  1.00  0.00     0.002 A 
ATOM     60  C   UNL A   1      49.077  26.052  26.332  1.00  0.00     0.091 A 
ATOM     61  F   UNL A   1      47.887  26.494  28.354  1.00  0.00    -0.205 F 
ATOM     62  C   UNL A   1      49.129  26.108  24.929  1.00  0.00     0.022 A 
BRANCH  60  63
ATOM     63  S   UNL A   1      50.496  25.332  27.167  1.00  0.00     0.127 S 
ATOM     64  O   UNL A   1      50.920  26.434  28.030  1.00  0.00    -0.237 OA
ATOM     65  O   UNL A   1      49.895  24.201  27.875  1.00  0.00    -0.237 OA
ATOM     66  O   UNL A   1      51.434  24.961  26.118  1.00  0.00    -0.744 OA
ENDBRANCH  60  63
ENDBRANCH  42  56
BRANCH  43  67
ATOM     67  C   UNL A   1      39.015  31.040  30.985  1.00  0.00     0.023 A 
ATOM     68  C   UNL A   1      38.926  30.898  32.384  1.00  0.00     0.012 A 
ATOM     69  C   UNL A   1      38.004  31.742  30.302  1.00  0.00     0.148 A 
ATOM     70  C   UNL A   1      37.837  31.419  33.084  1.00  0.00     0.002 A 
ATOM     71  C   UNL A   1      36.951  32.308  31.012  1.00  0.00     0.091 A 
ATOM     72  F   UNL A   1      38.091  31.847  28.968  1.00  0.00    -0.205 F 
ATOM     73  C   UNL A   1      36.857  32.134  32.400  1.00  0.00     0.022 A 
BRANCH  71  74
ATOM     74  S   UNL A   1      35.731  33.361  30.220  1.00  0.00     0.127 S 
ATOM     75  O   UNL A   1      34.700  32.397  29.846  1.00  0.00    -0.237 OA
ATOM     76  O   UNL A   1      35.359  34.271  31.304  1.00  0.00    -0.237 OA
ATOM     77  O   UNL A   1      36.434  34.006  29.118  1.00  0.00    -0.744 OA
ENDBRANCH  71  74
ENDBRANCH  43  67
BRANCH  55  78
ATOM     78  C   UNL A   1      45.254  33.590  29.171  1.00  0.00     0.023 A 
ATOM     79  C   UNL A   1      45.993  33.821  30.349  1.00  0.00     0.012 A 
ATOM     80  C   UNL A   1      45.181  34.602  28.194  1.00  0.00     0.148 A 
ATOM     81  C   UNL A   1      46.614  35.050  30.570  1.00  0.00     0.002 A 
ATOM     82  C   UNL A   1      45.841  35.809  28.401  1.00  0.00     0.091 A 
ATOM     83  F   UNL A   1      44.458  34.376  27.088  1.00  0.00    -0.205 F 
ATOM     84  C   UNL A   1      46.546  36.039  29.593  1.00  0.00     0.022 A 
BRANCH  82  85
ATOM     85  S   UNL A   1      45.874  37.102  27.153  1.00  0.00     0.127 S 
ATOM     86  O   UNL A   1      46.663  38.139  27.817  1.00  0.00    -0.237 OA
ATOM     87  O   UNL A   1      46.551  36.445  26.034  1.00  0.00    -0.237 OA
ATOM     88  O   UNL A   1      44.479  37.436  26.897  1.00  0.00    -0.744 OA
ENDBRANCH  82  85
ENDBRANCH  55  78
ENDBRANCH  29  30
ENDBRANCH  22  24
ENDBRANCH  21  22
ENDBRANCH  20  21
ENDBRANCH  19  20
ENDBRANCH   1  19
TORSDOF 20
ENDMDL
