MODEL 1
REMARK VINA RESULT:     -11.0      0.000      0.000
REMARK SMILES Cc1ccc(C)c(Oc2cccc(F)c2C(=O)OCCOCCOC(=O)c2ccc(-c3c4nc(c(-c5cccc(S(=O)(=O)[O-])c5F)c5ccc([nH]5)c(-c5cccc(S(=O)(=O)[O-])c5F)c5nc(c(-c6cccc(S(=O)(=O)[O-])c6F)c6ccc3[nH]6)C=C5)C=C4)cc2)c1
REMARK SMILES IDX 22 1 21 2 20 3 19 4 18 5 16 6 17 7 15 8 9 9 10 10 11 11
REMARK SMILES IDX 13 12 12 13 14 14 8 15 7 16 1 17 2 18 3 19 90 20 4 21 5 22
REMARK SMILES IDX 6 23 23 24 24 25 25 26 26 27 27 28 28 29 89 30 29 31 88 32
REMARK SMILES IDX 30 33 31 34 32 35 82 36 33 37 87 38 81 39 83 40 34 41 86 42
REMARK SMILES IDX 80 43 79 44 35 46 67 47 47 48 66 49 48 50 51 51 65 52 84 53
REMARK SMILES IDX 49 54 50 55 64 57 85 58 52 59 36 60 37 61 45 62 38 63 40 64
REMARK SMILES IDX 46 65 39 66 41 67 42 68 43 69 44 70 68 71 69 72 77 73 70 74
REMARK SMILES IDX 72 75 78 76 71 77 73 78 74 79 75 80 76 81 53 82 54 83 62 84
REMARK SMILES IDX 55 85 57 86 63 87 56 88 58 89 59 90 60 91 61 92
REMARK H PARENT 83 45 51 56
REMARK Flexibility Score: inf
ROOT
ATOM      1  C   UNL A   1      33.941  34.867  32.403  1.00  0.00     0.202 C 
ENDROOT
BRANCH   1   2
ATOM      2  O   UNL A   1      33.039  35.069  31.330  1.00  0.00    -0.374 OA
BRANCH   2   3
ATOM      3  C   UNL A   1      33.483  35.670  30.140  1.00  0.00     0.202 C 
BRANCH   3   4
ATOM      4  C   UNL A   1      32.917  34.878  28.969  1.00  0.00     0.261 C 
BRANCH   4   5
ATOM      5  O   UNL A   1      33.580  33.606  28.870  1.00  0.00    -0.459 OA
BRANCH   5   6
ATOM      6  C   UNL A   1      34.657  33.487  28.053  1.00  0.00     0.345 C 
ATOM      7  O   UNL A   1      35.033  34.309  27.244  1.00  0.00    -0.246 OA
BRANCH   6   8
ATOM      8  C   UNL A   1      35.388  32.235  28.230  1.00  0.00     0.138 A 
ATOM      9  C   UNL A   1      34.773  30.980  27.970  1.00  0.00     0.144 A 
ATOM     10  C   UNL A   1      35.631  29.892  27.900  1.00  0.00     0.048 A 
ATOM     11  C   UNL A   1      36.987  29.983  28.271  1.00  0.00     0.007 A 
ATOM     12  C   UNL A   1      36.744  32.321  28.602  1.00  0.00     0.141 A 
ATOM     13  C   UNL A   1      37.538  31.196  28.654  1.00  0.00     0.040 A 
ATOM     14  F   UNL A   1      37.346  33.488  28.892  1.00  0.00    -0.206 F 
BRANCH   9  15
ATOM     15  O   UNL A   1      33.443  30.853  27.570  1.00  0.00    -0.456 OA
BRANCH  15  16
ATOM     16  C   UNL A   1      32.989  30.115  26.469  1.00  0.00     0.130 A 
ATOM     17  C   UNL A   1      33.824  27.309  23.951  1.00  0.00     0.044 C 
ATOM     18  C   UNL A   1      33.056  28.312  24.763  1.00  0.00    -0.047 A 
ATOM     19  C   UNL A   1      31.758  28.595  24.368  1.00  0.00     0.004 A 
ATOM     20  C   UNL A   1      33.635  29.049  25.836  1.00  0.00     0.050 A 
ATOM     21  C   UNL A   1      31.120  29.693  24.917  1.00  0.00     0.007 A 
ATOM     22  C   UNL A   1      31.748  30.488  25.908  1.00  0.00    -0.008 A 
ATOM     23  C   UNL A   1      31.101  31.815  26.175  1.00  0.00     0.048 C 
ENDBRANCH  15  16
ENDBRANCH   9  15
ENDBRANCH   6   8
ENDBRANCH   5   6
ENDBRANCH   4   5
ENDBRANCH   3   4
ENDBRANCH   2   3
ENDBRANCH   1   2
BRANCH   1  24
ATOM     24  C   UNL A   1      35.026  33.935  31.872  1.00  0.00     0.261 C 
BRANCH  24  25
ATOM     25  O   UNL A   1      35.002  32.640  32.536  1.00  0.00    -0.460 OA
BRANCH  25  26
ATOM     26  C   UNL A   1      36.134  32.303  33.237  1.00  0.00     0.338 C 
ATOM     27  O   UNL A   1      36.386  32.713  34.360  1.00  0.00    -0.246 OA
BRANCH  26  28
ATOM     28  C   UNL A   1      37.075  31.499  32.381  1.00  0.00     0.060 A 
ATOM     29  C   UNL A   1      36.825  30.137  32.108  1.00  0.00     0.016 A 
ATOM     30  C   UNL A   1      38.343  32.004  32.146  1.00  0.00     0.016 A 
ATOM     31  C   UNL A   1      37.883  29.259  31.757  1.00  0.00     0.010 A 
ATOM     32  C   UNL A   1      39.376  31.106  31.915  1.00  0.00     0.010 A 
ATOM     33  C   UNL A   1      39.201  29.717  31.770  1.00  0.00    -0.014 A 
BRANCH  33  34
ATOM     34  C   UNL A   1      40.421  28.992  31.290  1.00  0.00     0.031 A 
ATOM     35  C   UNL A   1      41.225  28.690  32.494  1.00  0.00     0.074 A 
ATOM     36  C   UNL A   1      40.825  28.513  30.071  1.00  0.00     0.049 A 
ATOM     37  N   UNL A   1      42.242  29.403  32.866  1.00  0.00    -0.248 NA
ATOM     38  C   UNL A   1      40.733  27.773  33.536  1.00  0.00     0.031 C 
ATOM     39  C   UNL A   1      40.264  28.796  28.756  1.00  0.00     0.029 A 
ATOM     40  N   UNL A   1      41.793  27.568  29.729  1.00  0.00    -0.354 N 
ATOM     41  C   UNL A   1      42.686  28.751  33.998  1.00  0.00     0.074 A 
ATOM     42  C   UNL A   1      41.561  28.051  34.544  1.00  0.00     0.031 C 
ATOM     43  C   UNL A   1      40.646  27.874  27.835  1.00  0.00     0.029 A 
ATOM     44  C   UNL A   1      41.660  27.023  28.420  1.00  0.00     0.049 A 
ATOM     45  H   UNL A   1      42.513  27.299  30.344  1.00  0.00     0.167 HD
ATOM     46  C   UNL A   1      43.997  28.427  34.100  1.00  0.00     0.034 A 
ATOM     47  C   UNL A   1      42.404  26.051  27.802  1.00  0.00     0.034 A 
ATOM     48  C   UNL A   1      44.801  29.137  33.140  1.00  0.00     0.049 A 
ATOM     49  C   UNL A   1      43.766  26.316  28.329  1.00  0.00     0.074 A 
ATOM     50  C   UNL A   1      45.157  30.455  32.945  1.00  0.00     0.029 A 
ATOM     51  N   UNL A   1      44.956  28.492  31.938  1.00  0.00    -0.354 N 
ATOM     52  N   UNL A   1      44.450  27.372  27.980  1.00  0.00    -0.248 NA
ATOM     53  C   UNL A   1      44.315  25.561  29.451  1.00  0.00     0.031 C 
ATOM     54  C   UNL A   1      45.462  30.598  31.562  1.00  0.00     0.029 A 
ATOM     55  C   UNL A   1      45.319  29.363  30.940  1.00  0.00     0.049 A 
ATOM     56  H   UNL A   1      44.822  27.525  31.809  1.00  0.00     0.167 HD
ATOM     57  C   UNL A   1      45.135  27.685  29.135  1.00  0.00     0.074 A 
ATOM     58  C   UNL A   1      45.208  26.450  29.895  1.00  0.00     0.031 C 
ATOM     59  C   UNL A   1      45.252  28.977  29.547  1.00  0.00     0.034 A 
BRANCH  46  60
ATOM     60  C   UNL A   1      44.467  27.171  34.771  1.00  0.00     0.023 A 
ATOM     61  C   UNL A   1      45.339  27.303  35.862  1.00  0.00     0.012 A 
ATOM     62  C   UNL A   1      44.234  25.862  34.282  1.00  0.00     0.148 A 
ATOM     63  C   UNL A   1      45.910  26.179  36.466  1.00  0.00     0.002 A 
ATOM     64  C   UNL A   1      44.706  24.747  34.953  1.00  0.00     0.091 A 
ATOM     65  F   UNL A   1      43.673  25.680  33.081  1.00  0.00    -0.205 F 
ATOM     66  C   UNL A   1      45.565  24.899  36.039  1.00  0.00     0.022 A 
BRANCH  64  67
ATOM     67  S   UNL A   1      44.180  23.099  34.465  1.00  0.00     0.127 S 
ATOM     68  O   UNL A   1      44.815  22.957  33.159  1.00  0.00    -0.237 OA
ATOM     69  O   UNL A   1      44.746  22.269  35.528  1.00  0.00    -0.237 OA
ATOM     70  O   UNL A   1      42.722  23.152  34.469  1.00  0.00    -0.744 OA
ENDBRANCH  64  67
ENDBRANCH  46  60
BRANCH  47  71
ATOM     71  C   UNL A   1      42.241  24.994  26.710  1.00  0.00     0.023 A 
ATOM     72  C   UNL A   1      43.286  24.848  25.761  1.00  0.00     0.012 A 
ATOM     73  C   UNL A   1      41.391  23.872  26.842  1.00  0.00     0.148 A 
ATOM     74  C   UNL A   1      43.573  23.622  25.135  1.00  0.00     0.002 A 
ATOM     75  C   UNL A   1      41.735  22.614  26.299  1.00  0.00     0.091 A 
ATOM     76  F   UNL A   1      40.246  24.032  27.508  1.00  0.00    -0.205 F 
ATOM     77  C   UNL A   1      42.837  22.493  25.453  1.00  0.00     0.022 A 
BRANCH  75  78
ATOM     78  S   UNL A   1      41.012  21.044  26.862  1.00  0.00     0.127 S 
ATOM     79  O   UNL A   1      39.865  20.885  25.973  1.00  0.00    -0.237 OA
ATOM     80  O   UNL A   1      42.096  20.085  26.647  1.00  0.00    -0.237 OA
ATOM     81  O   UNL A   1      40.697  21.250  28.263  1.00  0.00    -0.744 OA
ENDBRANCH  75  78
ENDBRANCH  47  71
BRANCH  59  82
ATOM     82  C   UNL A   1      45.149  30.051  28.502  1.00  0.00     0.023 A 
ATOM     83  C   UNL A   1      43.928  30.454  27.925  1.00  0.00     0.012 A 
ATOM     84  C   UNL A   1      46.326  30.726  28.140  1.00  0.00     0.148 A 
ATOM     85  C   UNL A   1      43.886  31.498  26.997  1.00  0.00     0.002 A 
ATOM     86  C   UNL A   1      46.275  31.794  27.255  1.00  0.00     0.091 A 
ATOM     87  F   UNL A   1      47.482  30.315  28.683  1.00  0.00    -0.205 F 
ATOM     88  C   UNL A   1      45.059  32.177  26.671  1.00  0.00     0.022 A 
BRANCH  86  89
ATOM     89  S   UNL A   1      47.731  32.773  26.880  1.00  0.00     0.127 S 
ATOM     90  O   UNL A   1      48.676  31.755  26.424  1.00  0.00    -0.237 OA
ATOM     91  O   UNL A   1      47.241  33.668  25.831  1.00  0.00    -0.237 OA
ATOM     92  O   UNL A   1      48.093  33.450  28.120  1.00  0.00    -0.744 OA
ENDBRANCH  86  89
ENDBRANCH  59  82
ENDBRANCH  33  34
ENDBRANCH  26  28
ENDBRANCH  25  26
ENDBRANCH  24  25
ENDBRANCH   1  24
TORSDOF 19
ENDMDL
MODEL 2
REMARK VINA RESULT:     -10.9      3.352      9.099
REMARK SMILES Cc1ccc(C)c(Oc2cccc(F)c2C(=O)OCCOCCOC(=O)c2ccc(-c3c4nc(c(-c5cccc(S(=O)(=O)[O-])c5F)c5ccc([nH]5)c(-c5cccc(S(=O)(=O)[O-])c5F)c5nc(c(-c6cccc(S(=O)(=O)[O-])c6F)c6ccc3[nH]6)C=C5)C=C4)cc2)c1
REMARK SMILES IDX 22 1 21 2 20 3 19 4 18 5 16 6 17 7 15 8 9 9 10 10 11 11
REMARK SMILES IDX 13 12 12 13 14 14 8 15 7 16 1 17 2 18 3 19 90 20 4 21 5 22
REMARK SMILES IDX 6 23 23 24 24 25 25 26 26 27 27 28 28 29 89 30 29 31 88 32
REMARK SMILES IDX 30 33 31 34 32 35 82 36 33 37 87 38 81 39 83 40 34 41 86 42
REMARK SMILES IDX 80 43 79 44 35 46 67 47 47 48 66 49 48 50 51 51 65 52 84 53
REMARK SMILES IDX 49 54 50 55 64 57 85 58 52 59 36 60 37 61 45 62 38 63 40 64
REMARK SMILES IDX 46 65 39 66 41 67 42 68 43 69 44 70 68 71 69 72 77 73 70 74
REMARK SMILES IDX 72 75 78 76 71 77 73 78 74 79 75 80 76 81 53 82 54 83 62 84
REMARK SMILES IDX 55 85 57 86 63 87 56 88 58 89 59 90 60 91 61 92
REMARK H PARENT 83 45 51 56
REMARK Flexibility Score: inf
ROOT
ATOM      1  C   UNL A   1      38.251  19.933  24.872  1.00  0.00     0.202 C 
ENDROOT
BRANCH   1   2
ATOM      2  O   UNL A   1      37.514  21.055  25.325  1.00  0.00    -0.374 OA
BRANCH   2   3
ATOM      3  C   UNL A   1      38.186  22.205  25.771  1.00  0.00     0.202 C 
BRANCH   3   4
ATOM      4  C   UNL A   1      37.331  23.417  25.426  1.00  0.00     0.261 C 
BRANCH   4   5
ATOM      5  O   UNL A   1      35.984  23.003  25.141  1.00  0.00    -0.459 OA
BRANCH   5   6
ATOM      6  C   UNL A   1      35.489  23.188  23.891  1.00  0.00     0.345 C 
ATOM      7  O   UNL A   1      36.141  23.299  22.875  1.00  0.00    -0.246 OA
BRANCH   6   8
ATOM      8  C   UNL A   1      34.029  23.234  23.842  1.00  0.00     0.138 A 
ATOM      9  C   UNL A   1      33.335  24.472  23.771  1.00  0.00     0.144 A 
ATOM     10  C   UNL A   1      31.988  24.388  23.448  1.00  0.00     0.048 A 
ATOM     11  C   UNL A   1      31.304  23.157  23.405  1.00  0.00     0.007 A 
ATOM     12  C   UNL A   1      33.342  22.006  23.799  1.00  0.00     0.141 A 
ATOM     13  C   UNL A   1      31.977  21.964  23.612  1.00  0.00     0.040 A 
ATOM     14  F   UNL A   1      33.965  20.818  23.902  1.00  0.00    -0.206 F 
BRANCH   9  15
ATOM     15  O   UNL A   1      33.979  25.709  23.780  1.00  0.00    -0.456 OA
BRANCH  15  16
ATOM     16  C   UNL A   1      33.530  26.858  24.445  1.00  0.00     0.130 A 
ATOM     17  C   UNL A   1      31.821  28.239  27.620  1.00  0.00     0.044 C 
ATOM     18  C   UNL A   1      32.609  28.166  26.343  1.00  0.00    -0.047 A 
ATOM     19  C   UNL A   1      32.900  29.360  25.702  1.00  0.00     0.004 A 
ATOM     20  C   UNL A   1      32.969  26.935  25.722  1.00  0.00     0.050 A 
ATOM     21  C   UNL A   1      33.381  29.319  24.406  1.00  0.00     0.007 A 
ATOM     22  C   UNL A   1      33.633  28.086  23.755  1.00  0.00    -0.008 A 
ATOM     23  C   UNL A   1      33.830  28.169  22.269  1.00  0.00     0.048 C 
ENDBRANCH  15  16
ENDBRANCH   9  15
ENDBRANCH   6   8
ENDBRANCH   5   6
ENDBRANCH   4   5
ENDBRANCH   3   4
ENDBRANCH   2   3
ENDBRANCH   1   2
BRANCH   1  24
ATOM     24  C   UNL A   1      39.231  19.593  25.989  1.00  0.00     0.261 C 
BRANCH  24  25
ATOM     25  O   UNL A   1      40.473  19.038  25.472  1.00  0.00    -0.460 OA
BRANCH  25  26
ATOM     26  C   UNL A   1      41.622  19.444  26.106  1.00  0.00     0.338 C 
ATOM     27  O   UNL A   1      42.550  18.697  26.378  1.00  0.00    -0.246 OA
BRANCH  26  28
ATOM     28  C   UNL A   1      41.512  20.878  26.548  1.00  0.00     0.060 A 
ATOM     29  C   UNL A   1      41.938  21.932  25.712  1.00  0.00     0.016 A 
ATOM     30  C   UNL A   1      41.309  21.136  27.894  1.00  0.00     0.016 A 
ATOM     31  C   UNL A   1      42.310  23.189  26.256  1.00  0.00     0.010 A 
ATOM     32  C   UNL A   1      41.786  22.331  28.414  1.00  0.00     0.010 A 
ATOM     33  C   UNL A   1      42.347  23.364  27.640  1.00  0.00    -0.014 A 
BRANCH  33  34
ATOM     34  C   UNL A   1      42.566  24.643  28.390  1.00  0.00     0.031 A 
ATOM     35  C   UNL A   1      41.401  25.503  28.093  1.00  0.00     0.074 A 
ATOM     36  C   UNL A   1      43.504  25.067  29.295  1.00  0.00     0.049 A 
ATOM     37  N   UNL A   1      41.422  26.446  27.205  1.00  0.00    -0.248 NA
ATOM     38  C   UNL A   1      40.043  25.136  28.533  1.00  0.00     0.031 C 
ATOM     39  C   UNL A   1      44.780  24.447  29.634  1.00  0.00     0.029 A 
ATOM     40  N   UNL A   1      43.491  26.121  30.208  1.00  0.00    -0.354 N 
ATOM     41  C   UNL A   1      40.154  26.984  27.285  1.00  0.00     0.074 A 
ATOM     42  C   UNL A   1      39.296  25.953  27.790  1.00  0.00     0.031 C 
ATOM     43  C   UNL A   1      45.263  24.903  30.818  1.00  0.00     0.029 A 
ATOM     44  C   UNL A   1      44.448  26.016  31.257  1.00  0.00     0.049 A 
ATOM     45  H   UNL A   1      42.868  26.880  30.133  1.00  0.00     0.167 HD
ATOM     46  C   UNL A   1      40.014  28.325  27.422  1.00  0.00     0.034 A 
ATOM     47  C   UNL A   1      44.660  26.844  32.329  1.00  0.00     0.034 A 
ATOM     48  C   UNL A   1      41.232  29.025  27.108  1.00  0.00     0.049 A 
ATOM     49  C   UNL A   1      44.379  28.183  31.751  1.00  0.00     0.074 A 
ATOM     50  C   UNL A   1      41.974  29.234  25.964  1.00  0.00     0.029 A 
ATOM     51  N   UNL A   1      42.070  29.219  28.178  1.00  0.00    -0.354 N 
ATOM     52  N   UNL A   1      45.176  28.741  30.881  1.00  0.00    -0.248 NA
ATOM     53  C   UNL A   1      43.085  28.835  31.921  1.00  0.00     0.031 C 
ATOM     54  C   UNL A   1      43.310  29.488  26.384  1.00  0.00     0.029 A 
ATOM     55  C   UNL A   1      43.359  29.463  27.773  1.00  0.00     0.049 A 
ATOM     56  H   UNL A   1      41.781  29.186  29.119  1.00  0.00     0.167 HD
ATOM     57  C   UNL A   1      44.299  29.416  30.058  1.00  0.00     0.074 A 
ATOM     58  C   UNL A   1      43.105  29.638  30.855  1.00  0.00     0.031 C 
ATOM     59  C   UNL A   1      44.463  29.405  28.707  1.00  0.00     0.034 A 
BRANCH  46  60
ATOM     60  C   UNL A   1      38.919  28.942  28.240  1.00  0.00     0.023 A 
ATOM     61  C   UNL A   1      37.945  29.691  27.564  1.00  0.00     0.012 A 
ATOM     62  C   UNL A   1      38.890  28.967  29.656  1.00  0.00     0.148 A 
ATOM     63  C   UNL A   1      36.959  30.391  28.266  1.00  0.00     0.002 A 
ATOM     64  C   UNL A   1      37.846  29.563  30.345  1.00  0.00     0.091 A 
ATOM     65  F   UNL A   1      39.943  28.541  30.362  1.00  0.00    -0.205 F 
ATOM     66  C   UNL A   1      36.885  30.297  29.654  1.00  0.00     0.022 A 
BRANCH  64  67
ATOM     67  S   UNL A   1      37.693  29.357  32.123  1.00  0.00     0.127 S 
ATOM     68  O   UNL A   1      38.823  30.139  32.614  1.00  0.00    -0.237 OA
ATOM     69  O   UNL A   1      36.374  29.933  32.386  1.00  0.00    -0.237 OA
ATOM     70  O   UNL A   1      37.764  27.917  32.344  1.00  0.00    -0.744 OA
ENDBRANCH  64  67
ENDBRANCH  46  60
BRANCH  47  71
ATOM     71  C   UNL A   1      45.208  26.769  33.754  1.00  0.00     0.023 A 
ATOM     72  C   UNL A   1      46.225  27.685  34.127  1.00  0.00     0.012 A 
ATOM     73  C   UNL A   1      44.485  26.204  34.831  1.00  0.00     0.148 A 
ATOM     74  C   UNL A   1      46.382  28.144  35.447  1.00  0.00     0.002 A 
ATOM     75  C   UNL A   1      44.567  26.735  36.137  1.00  0.00     0.091 A 
ATOM     76  F   UNL A   1      43.707  25.151  34.576  1.00  0.00    -0.205 F 
ATOM     77  C   UNL A   1      45.512  27.717  36.437  1.00  0.00     0.022 A 
BRANCH  75  78
ATOM     78  S   UNL A   1      43.312  26.448  37.420  1.00  0.00     0.127 S 
ATOM     79  O   UNL A   1      43.991  26.892  38.633  1.00  0.00    -0.237 OA
ATOM     80  O   UNL A   1      42.199  27.296  36.990  1.00  0.00    -0.237 OA
ATOM     81  O   UNL A   1      43.013  25.030  37.350  1.00  0.00    -0.744 OA
ENDBRANCH  75  78
ENDBRANCH  47  71
BRANCH  59  82
ATOM     82  C   UNL A   1      45.848  29.163  28.177  1.00  0.00     0.023 A 
ATOM     83  C   UNL A   1      46.874  30.128  28.227  1.00  0.00     0.012 A 
ATOM     84  C   UNL A   1      46.141  27.887  27.672  1.00  0.00     0.148 A 
ATOM     85  C   UNL A   1      48.160  29.829  27.769  1.00  0.00     0.002 A 
ATOM     86  C   UNL A   1      47.430  27.577  27.261  1.00  0.00     0.091 A 
ATOM     87  F   UNL A   1      45.146  26.988  27.612  1.00  0.00    -0.205 F 
ATOM     88  C   UNL A   1      48.442  28.548  27.297  1.00  0.00     0.022 A 
BRANCH  86  89
ATOM     89  S   UNL A   1      47.878  25.917  26.747  1.00  0.00     0.127 S 
ATOM     90  O   UNL A   1      46.989  25.699  25.607  1.00  0.00    -0.237 OA
ATOM     91  O   UNL A   1      49.292  26.071  26.401  1.00  0.00    -0.237 OA
ATOM     92  O   UNL A   1      47.637  25.058  27.900  1.00  0.00    -0.744 OA
ENDBRANCH  86  89
ENDBRANCH  59  82
ENDBRANCH  33  34
ENDBRANCH  26  28
ENDBRANCH  25  26
ENDBRANCH  24  25
ENDBRANCH   1  24
TORSDOF 19
ENDMDL
MODEL 3
REMARK VINA RESULT:     -10.5      3.113      9.068
REMARK SMILES Cc1ccc(C)c(Oc2cccc(F)c2C(=O)OCCOCCOC(=O)c2ccc(-c3c4nc(c(-c5cccc(S(=O)(=O)[O-])c5F)c5ccc([nH]5)c(-c5cccc(S(=O)(=O)[O-])c5F)c5nc(c(-c6cccc(S(=O)(=O)[O-])c6F)c6ccc3[nH]6)C=C5)C=C4)cc2)c1
REMARK SMILES IDX 22 1 21 2 20 3 19 4 18 5 16 6 17 7 15 8 9 9 10 10 11 11
REMARK SMILES IDX 13 12 12 13 14 14 8 15 7 16 1 17 2 18 3 19 90 20 4 21 5 22
REMARK SMILES IDX 6 23 23 24 24 25 25 26 26 27 27 28 28 29 89 30 29 31 88 32
REMARK SMILES IDX 30 33 31 34 32 35 82 36 33 37 87 38 81 39 83 40 34 41 86 42
REMARK SMILES IDX 80 43 79 44 35 46 67 47 47 48 66 49 48 50 51 51 65 52 84 53
REMARK SMILES IDX 49 54 50 55 64 57 85 58 52 59 36 60 37 61 45 62 38 63 40 64
REMARK SMILES IDX 46 65 39 66 41 67 42 68 43 69 44 70 68 71 69 72 77 73 70 74
REMARK SMILES IDX 72 75 78 76 71 77 73 78 74 79 75 80 76 81 53 82 54 83 62 84
REMARK SMILES IDX 55 85 57 86 63 87 56 88 58 89 59 90 60 91 61 92
REMARK H PARENT 83 45 51 56
REMARK Flexibility Score: inf
ROOT
ATOM      1  C   UNL A   1      38.886  19.440  25.230  1.00  0.00     0.202 C 
ENDROOT
BRANCH   1   2
ATOM      2  O   UNL A   1      38.260  20.706  25.126  1.00  0.00    -0.374 OA
BRANCH   2   3
ATOM      3  C   UNL A   1      38.664  21.762  25.961  1.00  0.00     0.202 C 
BRANCH   3   4
ATOM      4  C   UNL A   1      37.959  23.029  25.497  1.00  0.00     0.261 C 
BRANCH   4   5
ATOM      5  O   UNL A   1      36.563  22.764  25.279  1.00  0.00    -0.459 OA
BRANCH   5   6
ATOM      6  C   UNL A   1      36.102  22.671  24.007  1.00  0.00     0.345 C 
ATOM      7  O   UNL A   1      36.713  22.971  23.002  1.00  0.00    -0.246 OA
BRANCH   6   8
ATOM      8  C   UNL A   1      34.744  22.140  23.915  1.00  0.00     0.138 A 
ATOM      9  C   UNL A   1      33.746  22.801  23.149  1.00  0.00     0.144 A 
ATOM     10  C   UNL A   1      32.591  22.070  22.906  1.00  0.00     0.048 A 
ATOM     11  C   UNL A   1      32.332  20.844  23.551  1.00  0.00     0.007 A 
ATOM     12  C   UNL A   1      34.480  20.915  24.558  1.00  0.00     0.141 A 
ATOM     13  C   UNL A   1      33.267  20.280  24.404  1.00  0.00     0.040 A 
ATOM     14  F   UNL A   1      35.389  20.283  25.322  1.00  0.00    -0.206 F 
BRANCH   9  15
ATOM     15  O   UNL A   1      33.974  23.999  22.471  1.00  0.00    -0.456 OA
BRANCH  15  16
ATOM     16  C   UNL A   1      33.736  25.282  22.980  1.00  0.00     0.130 A 
ATOM     17  C   UNL A   1      33.769  27.518  26.129  1.00  0.00     0.044 C 
ATOM     18  C   UNL A   1      33.743  27.081  24.691  1.00  0.00    -0.047 A 
ATOM     19  C   UNL A   1      33.399  28.029  23.741  1.00  0.00     0.004 A 
ATOM     20  C   UNL A   1      33.948  25.730  24.287  1.00  0.00     0.050 A 
ATOM     21  C   UNL A   1      33.105  27.607  22.457  1.00  0.00     0.007 A 
ATOM     22  C   UNL A   1      33.206  26.242  22.091  1.00  0.00    -0.008 A 
ATOM     23  C   UNL A   1      32.552  25.873  20.792  1.00  0.00     0.048 C 
ENDBRANCH  15  16
ENDBRANCH   9  15
ENDBRANCH   6   8
ENDBRANCH   5   6
ENDBRANCH   4   5
ENDBRANCH   3   4
ENDBRANCH   2   3
ENDBRANCH   1   2
BRANCH   1  24
ATOM     24  C   UNL A   1      40.097  19.640  26.135  1.00  0.00     0.261 C 
BRANCH  24  25
ATOM     25  O   UNL A   1      41.277  18.962  25.621  1.00  0.00    -0.460 OA
BRANCH  25  26
ATOM     26  C   UNL A   1      42.457  19.659  25.709  1.00  0.00     0.338 C 
ATOM     27  O   UNL A   1      43.554  19.172  25.479  1.00  0.00    -0.246 OA
BRANCH  26  28
ATOM     28  C   UNL A   1      42.225  21.037  26.267  1.00  0.00     0.060 A 
ATOM     29  C   UNL A   1      42.451  22.188  25.482  1.00  0.00     0.016 A 
ATOM     30  C   UNL A   1      42.116  21.178  27.641  1.00  0.00     0.016 A 
ATOM     31  C   UNL A   1      42.725  23.441  26.089  1.00  0.00     0.010 A 
ATOM     32  C   UNL A   1      42.498  22.385  28.210  1.00  0.00     0.010 A 
ATOM     33  C   UNL A   1      42.866  23.527  27.474  1.00  0.00    -0.014 A 
BRANCH  33  34
ATOM     34  C   UNL A   1      43.004  24.770  28.300  1.00  0.00     0.031 A 
ATOM     35  C   UNL A   1      41.759  25.542  28.100  1.00  0.00     0.074 A 
ATOM     36  C   UNL A   1      43.938  25.216  29.198  1.00  0.00     0.049 A 
ATOM     37  N   UNL A   1      41.665  26.538  27.276  1.00  0.00    -0.248 NA
ATOM     38  C   UNL A   1      40.457  25.031  28.560  1.00  0.00     0.031 C 
ATOM     39  C   UNL A   1      45.274  24.691  29.452  1.00  0.00     0.029 A 
ATOM     40  N   UNL A   1      43.871  26.206  30.179  1.00  0.00    -0.354 N 
ATOM     41  C   UNL A   1      40.360  26.956  27.435  1.00  0.00     0.074 A 
ATOM     42  C   UNL A   1      39.614  25.824  27.899  1.00  0.00     0.031 C 
ATOM     43  C   UNL A   1      45.763  25.112  30.647  1.00  0.00     0.029 A 
ATOM     44  C   UNL A   1      44.875  26.119  31.186  1.00  0.00     0.049 A 
ATOM     45  H   UNL A   1      43.184  26.911  30.176  1.00  0.00     0.167 HD
ATOM     46  C   UNL A   1      40.112  28.268  27.665  1.00  0.00     0.034 A 
ATOM     47  C   UNL A   1      45.057  26.893  32.303  1.00  0.00     0.034 A 
ATOM     48  C   UNL A   1      41.253  29.091  27.357  1.00  0.00     0.049 A 
ATOM     49  C   UNL A   1      44.641  28.236  31.825  1.00  0.00     0.074 A 
ATOM     50  C   UNL A   1      41.929  29.436  26.205  1.00  0.00     0.029 A 
ATOM     51  N   UNL A   1      42.113  29.289  28.408  1.00  0.00    -0.354 N 
ATOM     52  N   UNL A   1      45.352  28.916  30.968  1.00  0.00    -0.248 NA
ATOM     53  C   UNL A   1      43.303  28.761  32.081  1.00  0.00     0.031 C 
ATOM     54  C   UNL A   1      43.254  29.779  26.595  1.00  0.00     0.029 A 
ATOM     55  C   UNL A   1      43.360  29.671  27.977  1.00  0.00     0.049 A 
ATOM     56  H   UNL A   1      41.865  29.172  29.355  1.00  0.00     0.167 HD
ATOM     57  C   UNL A   1      44.389  29.562  30.221  1.00  0.00     0.074 A 
ATOM     58  C   UNL A   1      43.213  29.628  31.070  1.00  0.00     0.031 C 
ATOM     59  C   UNL A   1      44.500  29.651  28.868  1.00  0.00     0.034 A 
BRANCH  46  60
ATOM     60  C   UNL A   1      39.001  28.734  28.558  1.00  0.00     0.023 A 
ATOM     61  C   UNL A   1      37.919  29.396  27.960  1.00  0.00     0.012 A 
ATOM     62  C   UNL A   1      39.044  28.707  29.974  1.00  0.00     0.148 A 
ATOM     63  C   UNL A   1      36.903  29.960  28.737  1.00  0.00     0.002 A 
ATOM     64  C   UNL A   1      37.979  29.162  30.735  1.00  0.00     0.091 A 
ATOM     65  F   UNL A   1      40.172  28.373  30.611  1.00  0.00    -0.205 F 
ATOM     66  C   UNL A   1      36.911  29.810  30.122  1.00  0.00     0.022 A 
BRANCH  64  67
ATOM     67  S   UNL A   1      37.942  28.879  32.509  1.00  0.00     0.127 S 
ATOM     68  O   UNL A   1      36.633  29.415  32.870  1.00  0.00    -0.237 OA
ATOM     69  O   UNL A   1      38.065  27.424  32.591  1.00  0.00    -0.237 OA
ATOM     70  O   UNL A   1      39.097  29.601  33.031  1.00  0.00    -0.744 OA
ENDBRANCH  64  67
ENDBRANCH  46  60
BRANCH  47  71
ATOM     71  C   UNL A   1      45.665  26.776  33.701  1.00  0.00     0.023 A 
ATOM     72  C   UNL A   1      45.755  27.952  34.490  1.00  0.00     0.012 A 
ATOM     73  C   UNL A   1      45.707  25.563  34.425  1.00  0.00     0.148 A 
ATOM     74  C   UNL A   1      45.699  27.925  35.895  1.00  0.00     0.002 A 
ATOM     75  C   UNL A   1      45.547  25.533  35.828  1.00  0.00     0.091 A 
ATOM     76  F   UNL A   1      45.895  24.433  33.741  1.00  0.00    -0.205 F 
ATOM     77  C   UNL A   1      45.531  26.721  36.559  1.00  0.00     0.022 A 
BRANCH  75  78
ATOM     78  S   UNL A   1      45.050  24.048  36.752  1.00  0.00     0.127 S 
ATOM     79  O   UNL A   1      44.937  24.546  38.118  1.00  0.00    -0.237 OA
ATOM     80  O   UNL A   1      43.780  23.677  36.124  1.00  0.00    -0.237 OA
ATOM     81  O   UNL A   1      46.108  23.083  36.520  1.00  0.00    -0.744 OA
ENDBRANCH  75  78
ENDBRANCH  47  71
BRANCH  59  82
ATOM     82  C   UNL A   1      45.879  29.565  28.276  1.00  0.00     0.023 A 
ATOM     83  C   UNL A   1      46.473  28.353  27.873  1.00  0.00     0.012 A 
ATOM     84  C   UNL A   1      46.572  30.766  28.057  1.00  0.00     0.148 A 
ATOM     85  C   UNL A   1      47.738  28.339  27.277  1.00  0.00     0.002 A 
ATOM     86  C   UNL A   1      47.806  30.755  27.423  1.00  0.00     0.091 A 
ATOM     87  F   UNL A   1      46.000  31.909  28.468  1.00  0.00    -0.205 F 
ATOM     88  C   UNL A   1      48.399  29.543  27.041  1.00  0.00     0.022 A 
BRANCH  86  89
ATOM     89  S   UNL A   1      48.655  32.276  26.995  1.00  0.00     0.127 S 
ATOM     90  O   UNL A   1      47.710  32.908  26.076  1.00  0.00    -0.237 OA
ATOM     91  O   UNL A   1      48.780  32.938  28.295  1.00  0.00    -0.237 OA
ATOM     92  O   UNL A   1      49.927  31.877  26.406  1.00  0.00    -0.744 OA
ENDBRANCH  86  89
ENDBRANCH  59  82
ENDBRANCH  33  34
ENDBRANCH  26  28
ENDBRANCH  25  26
ENDBRANCH  24  25
ENDBRANCH   1  24
TORSDOF 19
ENDMDL
