MODEL 1
REMARK VINA RESULT:      -9.3      0.000      0.000
REMARK SMILES COc1cc(S(=O)(=O)CCO)cc(C(=O)OCCOCCOC(=O)c2ccc(-c3c4nc(c(-c5cccc(S(=O)(=O)[O-])c5F)c5ccc([nH]5)c(-c5cccc(S(=O)(=O)[O-])c5F)c5nc(c(-c6cccc(S(=O)(=O)[O-])c6F)c6ccc3[nH]6)C=C5)C=C4)cc2)c1OC
REMARK SMILES IDX 18 1 17 2 16 3 14 4 15 5 13 6 3 7 4 8 88 9 5 10 12 11 2 12
REMARK SMILES IDX 1 13 89 14 90 15 6 16 7 17 8 18 9 19 10 20 11 21 19 23 20 24
REMARK SMILES IDX 21 25 22 26 23 27 24 28 25 29 26 30 87 31 27 32 86 33 28 34
REMARK SMILES IDX 29 35 30 36 80 37 31 38 85 39 79 40 81 41 32 42 84 43 78 44
REMARK SMILES IDX 77 45 33 47 65 48 45 49 64 50 46 51 49 52 63 53 82 54 47 55
REMARK SMILES IDX 48 56 62 58 83 59 50 60 34 61 35 62 43 63 36 64 38 65 44 66
REMARK SMILES IDX 37 67 39 68 40 69 41 70 42 71 66 72 67 73 75 74 68 75 70 76
REMARK SMILES IDX 76 77 69 78 71 79 72 80 73 81 74 82 51 83 52 84 60 85 53 86
REMARK SMILES IDX 55 87 61 88 54 89 56 90 57 91 58 92 59 93
REMARK H PARENT 11 22 81 46 49 57
REMARK Flexibility Score: inf
ROOT
ATOM      1  C   UNL A   1      32.716  30.456  26.914  1.00  0.00     0.202 C 
ENDROOT
BRANCH   1   2
ATOM      2  C   UNL A   1      31.776  29.259  27.071  1.00  0.00     0.261 C 
BRANCH   2   3
ATOM      3  O   UNL A   1      32.535  28.091  27.415  1.00  0.00    -0.460 OA
BRANCH   3   4
ATOM      4  C   UNL A   1      33.634  27.862  26.663  1.00  0.00     0.342 C 
ATOM      5  O   UNL A   1      34.778  28.221  26.903  1.00  0.00    -0.246 OA
BRANCH   4   6
ATOM      6  C   UNL A   1      33.336  26.845  25.628  1.00  0.00     0.107 A 
ATOM      7  C   UNL A   1      32.792  26.080  23.421  1.00  0.00     0.162 A 
ATOM      8  C   UNL A   1      32.869  24.748  23.872  1.00  0.00     0.070 A 
ATOM      9  C   UNL A   1      33.014  27.156  24.298  1.00  0.00     0.175 A 
ATOM     10  C   UNL A   1      33.176  24.469  25.207  1.00  0.00     0.072 A 
ATOM     11  C   UNL A   1      33.379  25.518  26.087  1.00  0.00     0.040 A 
BRANCH   7  12
ATOM     12  O   UNL A   1      32.409  26.238  22.116  1.00  0.00    -0.493 OA
ATOM     13  C   UNL A   1      32.840  25.162  21.283  1.00  0.00     0.278 C 
ENDBRANCH   7  12
BRANCH   9  14
ATOM     14  O   UNL A   1      33.008  28.486  24.001  1.00  0.00    -0.492 OA
ATOM     15  C   UNL A   1      33.636  28.963  22.819  1.00  0.00     0.278 C 
ENDBRANCH   9  14
BRANCH  10  16
ATOM     16  S   UNL A   1      33.292  22.774  25.730  1.00  0.00     0.180 S 
ATOM     17  O   UNL A   1      34.619  22.628  26.303  1.00  0.00    -0.224 OA
ATOM     18  O   UNL A   1      32.116  22.517  26.541  1.00  0.00    -0.224 OA
BRANCH  16  19
ATOM     19  C   UNL A   1      33.247  21.706  24.309  1.00  0.00     0.170 C 
BRANCH  19  20
ATOM     20  C   UNL A   1      32.975  20.247  24.629  1.00  0.00     0.172 C 
BRANCH  20  21
ATOM     21  O   UNL A   1      31.752  20.076  25.328  1.00  0.00    -0.395 OA
ATOM     22  H   UNL A   1      31.727  19.189  25.721  1.00  0.00     0.210 HD
ENDBRANCH  20  21
ENDBRANCH  19  20
ENDBRANCH  16  19
ENDBRANCH  10  16
ENDBRANCH   4   6
ENDBRANCH   3   4
ENDBRANCH   2   3
ENDBRANCH   1   2
BRANCH   1  23
ATOM     23  O   UNL A   1      32.122  31.750  27.048  1.00  0.00    -0.374 OA
BRANCH  23  24
ATOM     24  C   UNL A   1      32.969  32.823  27.455  1.00  0.00     0.202 C 
BRANCH  24  25
ATOM     25  C   UNL A   1      32.313  34.195  27.664  1.00  0.00     0.261 C 
BRANCH  25  26
ATOM     26  O   UNL A   1      33.185  35.131  28.315  1.00  0.00    -0.460 OA
BRANCH  26  27
ATOM     27  C   UNL A   1      33.255  35.005  29.660  1.00  0.00     0.338 C 
ATOM     28  O   UNL A   1      32.409  35.342  30.481  1.00  0.00    -0.246 OA
BRANCH  27  29
ATOM     29  C   UNL A   1      34.443  34.214  30.019  1.00  0.00     0.060 A 
ATOM     30  C   UNL A   1      34.311  33.243  31.022  1.00  0.00     0.016 A 
ATOM     31  C   UNL A   1      35.681  34.466  29.429  1.00  0.00     0.016 A 
ATOM     32  C   UNL A   1      35.431  32.551  31.476  1.00  0.00     0.010 A 
ATOM     33  C   UNL A   1      36.803  33.780  29.892  1.00  0.00     0.010 A 
ATOM     34  C   UNL A   1      36.689  32.850  30.942  1.00  0.00    -0.014 A 
BRANCH  34  35
ATOM     35  C   UNL A   1      37.919  32.332  31.581  1.00  0.00     0.031 A 
ATOM     36  C   UNL A   1      38.649  31.203  30.910  1.00  0.00     0.074 A 
ATOM     37  C   UNL A   1      38.340  32.810  32.764  1.00  0.00     0.049 A 
ATOM     38  N   UNL A   1      39.640  30.477  31.353  1.00  0.00    -0.248 NA
ATOM     39  C   UNL A   1      38.182  30.832  29.563  1.00  0.00     0.031 C 
ATOM     40  C   UNL A   1      37.723  33.912  33.495  1.00  0.00     0.029 A 
ATOM     41  N   UNL A   1      39.362  32.389  33.577  1.00  0.00    -0.354 N 
ATOM     42  C   UNL A   1      39.880  29.528  30.366  1.00  0.00     0.074 A 
ATOM     43  C   UNL A   1      38.933  29.774  29.300  1.00  0.00     0.031 C 
ATOM     44  C   UNL A   1      38.346  34.049  34.678  1.00  0.00     0.029 A 
ATOM     45  C   UNL A   1      39.376  33.018  34.799  1.00  0.00     0.049 A 
ATOM     46  H   UNL A   1      40.019  31.705  33.313  1.00  0.00     0.167 HD
ATOM     47  C   UNL A   1      40.807  28.542  30.350  1.00  0.00     0.034 A 
ATOM     48  C   UNL A   1      40.104  32.761  35.904  1.00  0.00     0.034 A 
ATOM     49  C   UNL A   1      41.754  28.320  31.408  1.00  0.00     0.049 A 
ATOM     50  C   UNL A   1      41.119  31.648  35.875  1.00  0.00     0.074 A 
ATOM     51  C   UNL A   1      42.774  27.388  31.465  1.00  0.00     0.029 A 
ATOM     52  N   UNL A   1      41.785  29.024  32.602  1.00  0.00    -0.354 N 
ATOM     53  N   UNL A   1      41.407  30.820  34.899  1.00  0.00    -0.248 NA
ATOM     54  C   UNL A   1      41.931  31.451  37.086  1.00  0.00     0.031 C 
ATOM     55  C   UNL A   1      43.396  27.502  32.712  1.00  0.00     0.029 A 
ATOM     56  C   UNL A   1      42.796  28.538  33.410  1.00  0.00     0.049 A 
ATOM     57  H   UNL A   1      41.176  29.761  32.838  1.00  0.00     0.167 HD
ATOM     58  C   UNL A   1      42.461  30.037  35.358  1.00  0.00     0.074 A 
ATOM     59  C   UNL A   1      42.761  30.488  36.701  1.00  0.00     0.031 C 
ATOM     60  C   UNL A   1      43.120  29.037  34.723  1.00  0.00     0.034 A 
BRANCH  47  61
ATOM     61  C   UNL A   1      40.832  27.627  29.155  1.00  0.00     0.023 A 
ATOM     62  C   UNL A   1      39.990  26.498  29.110  1.00  0.00     0.012 A 
ATOM     63  C   UNL A   1      41.669  27.908  28.058  1.00  0.00     0.148 A 
ATOM     64  C   UNL A   1      40.017  25.636  28.014  1.00  0.00     0.002 A 
ATOM     65  C   UNL A   1      41.653  27.073  26.947  1.00  0.00     0.091 A 
ATOM     66  F   UNL A   1      42.481  28.973  28.126  1.00  0.00    -0.205 F 
ATOM     67  C   UNL A   1      40.840  25.928  26.930  1.00  0.00     0.022 A 
BRANCH  65  68
ATOM     68  S   UNL A   1      42.616  27.415  25.471  1.00  0.00     0.127 S 
ATOM     69  O   UNL A   1      43.979  27.421  26.000  1.00  0.00    -0.237 OA
ATOM     70  O   UNL A   1      42.296  26.267  24.621  1.00  0.00    -0.237 OA
ATOM     71  O   UNL A   1      42.133  28.693  24.965  1.00  0.00    -0.744 OA
ENDBRANCH  65  68
ENDBRANCH  47  61
BRANCH  48  72
ATOM     72  C   UNL A   1      39.902  33.591  37.124  1.00  0.00     0.023 A 
ATOM     73  C   UNL A   1      40.461  34.881  37.189  1.00  0.00     0.012 A 
ATOM     74  C   UNL A   1      39.111  33.127  38.193  1.00  0.00     0.148 A 
ATOM     75  C   UNL A   1      40.254  35.688  38.307  1.00  0.00     0.002 A 
ATOM     76  C   UNL A   1      38.862  33.957  39.280  1.00  0.00     0.091 A 
ATOM     77  F   UNL A   1      38.596  31.892  38.113  1.00  0.00    -0.205 F 
ATOM     78  C   UNL A   1      39.445  35.232  39.346  1.00  0.00     0.022 A 
BRANCH  76  79
ATOM     79  S   UNL A   1      37.727  33.509  40.598  1.00  0.00     0.127 S 
ATOM     80  O   UNL A   1      38.494  32.501  41.323  1.00  0.00    -0.237 OA
ATOM     81  O   UNL A   1      37.566  34.784  41.298  1.00  0.00    -0.237 OA
ATOM     82  O   UNL A   1      36.520  33.028  39.938  1.00  0.00    -0.744 OA
ENDBRANCH  76  79
ENDBRANCH  48  72
BRANCH  60  83
ATOM     83  C   UNL A   1      44.287  28.393  35.425  1.00  0.00     0.023 A 
ATOM     84  C   UNL A   1      45.593  28.877  35.225  1.00  0.00     0.012 A 
ATOM     85  C   UNL A   1      44.059  27.388  36.387  1.00  0.00     0.148 A 
ATOM     86  C   UNL A   1      46.658  28.359  35.963  1.00  0.00     0.002 A 
ATOM     87  C   UNL A   1      45.115  26.914  37.154  1.00  0.00     0.091 A 
ATOM     88  F   UNL A   1      42.808  26.931  36.547  1.00  0.00    -0.205 F 
ATOM     89  C   UNL A   1      46.417  27.390  36.936  1.00  0.00     0.022 A 
BRANCH  87  90
ATOM     90  S   UNL A   1      44.883  25.748  38.500  1.00  0.00     0.127 S 
ATOM     91  O   UNL A   1      43.754  26.340  39.217  1.00  0.00    -0.237 OA
ATOM     92  O   UNL A   1      44.571  24.511  37.786  1.00  0.00    -0.237 OA
ATOM     93  O   UNL A   1      46.140  25.723  39.237  1.00  0.00    -0.744 OA
ENDBRANCH  87  90
ENDBRANCH  60  83
ENDBRANCH  34  35
ENDBRANCH  27  29
ENDBRANCH  26  27
ENDBRANCH  25  26
ENDBRANCH  24  25
ENDBRANCH  23  24
ENDBRANCH   1  23
TORSDOF 23
ENDMDL
MODEL 2
REMARK VINA RESULT:      -8.4      6.650     12.621
REMARK SMILES COc1cc(S(=O)(=O)CCO)cc(C(=O)OCCOCCOC(=O)c2ccc(-c3c4nc(c(-c5cccc(S(=O)(=O)[O-])c5F)c5ccc([nH]5)c(-c5cccc(S(=O)(=O)[O-])c5F)c5nc(c(-c6cccc(S(=O)(=O)[O-])c6F)c6ccc3[nH]6)C=C5)C=C4)cc2)c1OC
REMARK SMILES IDX 18 1 17 2 16 3 14 4 15 5 13 6 3 7 4 8 88 9 5 10 12 11 2 12
REMARK SMILES IDX 1 13 89 14 90 15 6 16 7 17 8 18 9 19 10 20 11 21 19 23 20 24
REMARK SMILES IDX 21 25 22 26 23 27 24 28 25 29 26 30 87 31 27 32 86 33 28 34
REMARK SMILES IDX 29 35 30 36 80 37 31 38 85 39 79 40 81 41 32 42 84 43 78 44
REMARK SMILES IDX 77 45 33 47 65 48 45 49 64 50 46 51 49 52 63 53 82 54 47 55
REMARK SMILES IDX 48 56 62 58 83 59 50 60 34 61 35 62 43 63 36 64 38 65 44 66
REMARK SMILES IDX 37 67 39 68 40 69 41 70 42 71 66 72 67 73 75 74 68 75 70 76
REMARK SMILES IDX 76 77 69 78 71 79 72 80 73 81 74 82 51 83 52 84 60 85 53 86
REMARK SMILES IDX 55 87 61 88 54 89 56 90 57 91 58 92 59 93
REMARK H PARENT 11 22 81 46 49 57
REMARK Flexibility Score: inf
ROOT
ATOM      1  C   UNL A   1      45.592  24.098  25.712  1.00  0.00     0.202 C 
ENDROOT
BRANCH   1   2
ATOM      2  C   UNL A   1      46.217  25.335  25.066  1.00  0.00     0.261 C 
BRANCH   2   3
ATOM      3  O   UNL A   1      47.642  25.181  25.008  1.00  0.00    -0.460 OA
BRANCH   3   4
ATOM      4  C   UNL A   1      48.354  25.972  25.840  1.00  0.00     0.342 C 
ATOM      5  O   UNL A   1      48.197  26.103  27.045  1.00  0.00    -0.246 OA
BRANCH   4   6
ATOM      6  C   UNL A   1      49.572  26.461  25.155  1.00  0.00     0.107 A 
ATOM      7  C   UNL A   1      50.821  27.893  23.690  1.00  0.00     0.162 A 
ATOM      8  C   UNL A   1      52.003  27.216  24.048  1.00  0.00     0.070 A 
ATOM      9  C   UNL A   1      49.579  27.518  24.231  1.00  0.00     0.175 A 
ATOM     10  C   UNL A   1      51.964  26.155  24.957  1.00  0.00     0.072 A 
ATOM     11  C   UNL A   1      50.746  25.762  25.485  1.00  0.00     0.040 A 
BRANCH   7  12
ATOM     12  O   UNL A   1      50.965  28.863  22.734  1.00  0.00    -0.493 OA
ATOM     13  C   UNL A   1      50.970  28.331  21.409  1.00  0.00     0.278 C 
ENDBRANCH   7  12
BRANCH   9  14
ATOM     14  O   UNL A   1      48.365  28.098  24.008  1.00  0.00    -0.492 OA
ATOM     15  C   UNL A   1      47.675  27.876  22.787  1.00  0.00     0.278 C 
ENDBRANCH   9  14
BRANCH  10  16
ATOM     16  S   UNL A   1      53.481  25.344  25.404  1.00  0.00     0.180 S 
ATOM     17  O   UNL A   1      53.466  25.251  26.853  1.00  0.00    -0.224 OA
ATOM     18  O   UNL A   1      53.553  24.140  24.596  1.00  0.00    -0.224 OA
BRANCH  16  19
ATOM     19  C   UNL A   1      54.861  26.388  24.990  1.00  0.00     0.170 C 
BRANCH  19  20
ATOM     20  C   UNL A   1      56.198  25.898  25.514  1.00  0.00     0.172 C 
BRANCH  20  21
ATOM     21  O   UNL A   1      56.984  25.305  24.492  1.00  0.00    -0.395 OA
ATOM     22  H   UNL A   1      57.622  24.693  24.890  1.00  0.00     0.210 HD
ENDBRANCH  20  21
ENDBRANCH  19  20
ENDBRANCH  16  19
ENDBRANCH  10  16
ENDBRANCH   4   6
ENDBRANCH   3   4
ENDBRANCH   2   3
ENDBRANCH   1   2
BRANCH   1  23
ATOM     23  O   UNL A   1      45.871  22.845  25.082  1.00  0.00    -0.374 OA
BRANCH  23  24
ATOM     24  C   UNL A   1      44.767  22.119  24.546  1.00  0.00     0.202 C 
BRANCH  24  25
ATOM     25  C   UNL A   1      43.716  21.604  25.539  1.00  0.00     0.261 C 
BRANCH  25  26
ATOM     26  O   UNL A   1      42.399  22.099  25.256  1.00  0.00    -0.460 OA
BRANCH  26  27
ATOM     27  C   UNL A   1      41.567  22.147  26.322  1.00  0.00     0.338 C 
ATOM     28  O   UNL A   1      41.097  21.197  26.938  1.00  0.00    -0.246 OA
BRANCH  27  29
ATOM     29  C   UNL A   1      41.434  23.539  26.782  1.00  0.00     0.060 A 
ATOM     30  C   UNL A   1      41.244  24.537  25.816  1.00  0.00     0.016 A 
ATOM     31  C   UNL A   1      41.562  23.866  28.132  1.00  0.00     0.016 A 
ATOM     32  C   UNL A   1      41.229  25.878  26.191  1.00  0.00     0.010 A 
ATOM     33  C   UNL A   1      41.557  25.210  28.505  1.00  0.00     0.010 A 
ATOM     34  C   UNL A   1      41.430  26.220  27.533  1.00  0.00    -0.014 A 
BRANCH  34  35
ATOM     35  C   UNL A   1      41.684  27.626  27.920  1.00  0.00     0.031 A 
ATOM     36  C   UNL A   1      43.108  28.100  27.991  1.00  0.00     0.074 A 
ATOM     37  C   UNL A   1      40.674  28.443  28.265  1.00  0.00     0.049 A 
ATOM     38  N   UNL A   1      43.586  29.221  28.460  1.00  0.00    -0.248 NA
ATOM     39  C   UNL A   1      44.131  27.173  27.478  1.00  0.00     0.031 C 
ATOM     40  C   UNL A   1      39.257  28.096  28.218  1.00  0.00     0.029 A 
ATOM     41  N   UNL A   1      40.698  29.717  28.771  1.00  0.00    -0.354 N 
ATOM     42  C   UNL A   1      44.967  29.113  28.352  1.00  0.00     0.074 A 
ATOM     43  C   UNL A   1      45.249  27.820  27.770  1.00  0.00     0.031 C 
ATOM     44  C   UNL A   1      38.545  29.116  28.727  1.00  0.00     0.029 A 
ATOM     45  C   UNL A   1      39.462  30.166  29.170  1.00  0.00     0.049 A 
ATOM     46  H   UNL A   1      41.519  30.257  28.842  1.00  0.00     0.167 HD
ATOM     47  C   UNL A   1      45.914  30.013  28.707  1.00  0.00     0.034 A 
ATOM     48  C   UNL A   1      39.115  31.273  29.857  1.00  0.00     0.034 A 
ATOM     49  C   UNL A   1      45.620  31.303  29.269  1.00  0.00     0.049 A 
ATOM     50  C   UNL A   1      40.184  32.255  30.259  1.00  0.00     0.074 A 
ATOM     51  C   UNL A   1      46.501  32.313  29.607  1.00  0.00     0.029 A 
ATOM     52  N   UNL A   1      44.349  31.752  29.594  1.00  0.00    -0.354 N 
ATOM     53  N   UNL A   1      41.480  32.190  30.063  1.00  0.00    -0.248 NA
ATOM     54  C   UNL A   1      39.745  33.477  30.950  1.00  0.00     0.031 C 
ATOM     55  C   UNL A   1      45.766  33.358  30.174  1.00  0.00     0.029 A 
ATOM     56  C   UNL A   1      44.423  33.018  30.143  1.00  0.00     0.049 A 
ATOM     57  H   UNL A   1      43.518  31.243  29.453  1.00  0.00     0.167 HD
ATOM     58  C   UNL A   1      42.004  33.378  30.561  1.00  0.00     0.074 A 
ATOM     59  C   UNL A   1      40.886  34.145  31.071  1.00  0.00     0.031 C 
ATOM     60  C   UNL A   1      43.294  33.794  30.592  1.00  0.00     0.034 A 
BRANCH  47  61
ATOM     61  C   UNL A   1      47.355  29.626  28.504  1.00  0.00     0.023 A 
ATOM     62  C   UNL A   1      48.024  29.985  27.317  1.00  0.00     0.012 A 
ATOM     63  C   UNL A   1      48.056  28.931  29.509  1.00  0.00     0.148 A 
ATOM     64  C   UNL A   1      49.354  29.617  27.113  1.00  0.00     0.002 A 
ATOM     65  C   UNL A   1      49.395  28.612  29.320  1.00  0.00     0.091 A 
ATOM     66  F   UNL A   1      47.398  28.576  30.622  1.00  0.00    -0.205 F 
ATOM     67  C   UNL A   1      50.042  28.940  28.117  1.00  0.00     0.022 A 
BRANCH  65  68
ATOM     68  S   UNL A   1      50.385  27.817  30.590  1.00  0.00     0.127 S 
ATOM     69  O   UNL A   1      50.297  28.785  31.682  1.00  0.00    -0.237 OA
ATOM     70  O   UNL A   1      49.650  26.572  30.818  1.00  0.00    -0.237 OA
ATOM     71  O   UNL A   1      51.710  27.639  30.013  1.00  0.00    -0.744 OA
ENDBRANCH  65  68
ENDBRANCH  47  61
BRANCH  48  72
ATOM     72  C   UNL A   1      37.683  31.510  30.189  1.00  0.00     0.023 A 
ATOM     73  C   UNL A   1      37.179  31.095  31.435  1.00  0.00     0.012 A 
ATOM     74  C   UNL A   1      36.836  32.196  29.296  1.00  0.00     0.148 A 
ATOM     75  C   UNL A   1      35.850  31.338  31.780  1.00  0.00     0.002 A 
ATOM     76  C   UNL A   1      35.528  32.485  29.667  1.00  0.00     0.091 A 
ATOM     77  F   UNL A   1      37.335  32.574  28.111  1.00  0.00    -0.205 F 
ATOM     78  C   UNL A   1      35.029  32.044  30.903  1.00  0.00     0.022 A 
BRANCH  76  79
ATOM     79  S   UNL A   1      34.440  33.502  28.663  1.00  0.00     0.127 S 
ATOM     80  O   UNL A   1      35.319  33.882  27.561  1.00  0.00    -0.237 OA
ATOM     81  O   UNL A   1      33.385  32.552  28.312  1.00  0.00    -0.237 OA
ATOM     82  O   UNL A   1      34.006  34.593  29.526  1.00  0.00    -0.744 OA
ENDBRANCH  76  79
ENDBRANCH  48  72
BRANCH  60  83
ATOM     83  C   UNL A   1      43.586  35.172  31.127  1.00  0.00     0.023 A 
ATOM     84  C   UNL A   1      43.980  35.345  32.467  1.00  0.00     0.012 A 
ATOM     85  C   UNL A   1      43.596  36.277  30.252  1.00  0.00     0.148 A 
ATOM     86  C   UNL A   1      44.364  36.604  32.932  1.00  0.00     0.002 A 
ATOM     87  C   UNL A   1      44.030  37.515  30.708  1.00  0.00     0.091 A 
ATOM     88  F   UNL A   1      43.201  36.090  28.984  1.00  0.00    -0.205 F 
ATOM     89  C   UNL A   1      44.404  37.683  32.051  1.00  0.00     0.022 A 
BRANCH  87  90
ATOM     90  S   UNL A   1      44.216  38.933  29.621  1.00  0.00     0.127 S 
ATOM     91  O   UNL A   1      44.709  39.954  30.545  1.00  0.00    -0.237 OA
ATOM     92  O   UNL A   1      45.206  38.454  28.657  1.00  0.00    -0.237 OA
ATOM     93  O   UNL A   1      42.897  39.190  29.061  1.00  0.00    -0.744 OA
ENDBRANCH  87  90
ENDBRANCH  60  83
ENDBRANCH  34  35
ENDBRANCH  27  29
ENDBRANCH  26  27
ENDBRANCH  25  26
ENDBRANCH  24  25
ENDBRANCH  23  24
ENDBRANCH   1  23
TORSDOF 23
ENDMDL
MODEL 3
REMARK VINA RESULT:      -8.4      3.845     14.784
REMARK SMILES COc1cc(S(=O)(=O)CCO)cc(C(=O)OCCOCCOC(=O)c2ccc(-c3c4nc(c(-c5cccc(S(=O)(=O)[O-])c5F)c5ccc([nH]5)c(-c5cccc(S(=O)(=O)[O-])c5F)c5nc(c(-c6cccc(S(=O)(=O)[O-])c6F)c6ccc3[nH]6)C=C5)C=C4)cc2)c1OC
REMARK SMILES IDX 18 1 17 2 16 3 14 4 15 5 13 6 3 7 4 8 88 9 5 10 12 11 2 12
REMARK SMILES IDX 1 13 89 14 90 15 6 16 7 17 8 18 9 19 10 20 11 21 19 23 20 24
REMARK SMILES IDX 21 25 22 26 23 27 24 28 25 29 26 30 87 31 27 32 86 33 28 34
REMARK SMILES IDX 29 35 30 36 80 37 31 38 85 39 79 40 81 41 32 42 84 43 78 44
REMARK SMILES IDX 77 45 33 47 65 48 45 49 64 50 46 51 49 52 63 53 82 54 47 55
REMARK SMILES IDX 48 56 62 58 83 59 50 60 34 61 35 62 43 63 36 64 38 65 44 66
REMARK SMILES IDX 37 67 39 68 40 69 41 70 42 71 66 72 67 73 75 74 68 75 70 76
REMARK SMILES IDX 76 77 69 78 71 79 72 80 73 81 74 82 51 83 52 84 60 85 53 86
REMARK SMILES IDX 55 87 61 88 54 89 56 90 57 91 58 92 59 93
REMARK H PARENT 11 22 81 46 49 57
REMARK Flexibility Score: inf
ROOT
ATOM      1  C   UNL A   1      49.755  22.161  34.337  1.00  0.00     0.202 C 
ENDROOT
BRANCH   1   2
ATOM      2  C   UNL A   1      48.266  21.908  34.581  1.00  0.00     0.261 C 
BRANCH   2   3
ATOM      3  O   UNL A   1      48.103  21.037  35.709  1.00  0.00    -0.460 OA
BRANCH   3   4
ATOM      4  C   UNL A   1      46.832  20.674  35.993  1.00  0.00     0.342 C 
ATOM      5  O   UNL A   1      46.133  19.891  35.368  1.00  0.00    -0.246 OA
BRANCH   4   6
ATOM      6  C   UNL A   1      46.469  21.128  37.355  1.00  0.00     0.107 A 
ATOM      7  C   UNL A   1      45.670  22.694  38.987  1.00  0.00     0.162 A 
ATOM      8  C   UNL A   1      45.807  21.710  39.986  1.00  0.00     0.070 A 
ATOM      9  C   UNL A   1      46.011  22.422  37.651  1.00  0.00     0.175 A 
ATOM     10  C   UNL A   1      46.282  20.436  39.665  1.00  0.00     0.072 A 
ATOM     11  C   UNL A   1      46.638  20.158  38.357  1.00  0.00     0.040 A 
BRANCH   7  12
ATOM     12  O   UNL A   1      45.271  23.928  39.427  1.00  0.00    -0.493 OA
ATOM     13  C   UNL A   1      46.372  24.776  39.757  1.00  0.00     0.278 C 
ENDBRANCH   7  12
BRANCH   9  14
ATOM     14  O   UNL A   1      45.901  23.255  36.579  1.00  0.00    -0.492 OA
ATOM     15  C   UNL A   1      44.789  23.155  35.700  1.00  0.00     0.278 C 
ENDBRANCH   9  14
BRANCH  10  16
ATOM     16  S   UNL A   1      46.412  19.214  40.949  1.00  0.00     0.180 S 
ATOM     17  O   UNL A   1      47.604  19.560  41.703  1.00  0.00    -0.224 OA
ATOM     18  O   UNL A   1      45.119  19.175  41.607  1.00  0.00    -0.224 OA
BRANCH  16  19
ATOM     19  C   UNL A   1      46.730  17.620  40.227  1.00  0.00     0.170 C 
BRANCH  19  20
ATOM     20  C   UNL A   1      45.950  16.479  40.855  1.00  0.00     0.172 C 
BRANCH  20  21
ATOM     21  O   UNL A   1      44.557  16.591  40.611  1.00  0.00    -0.395 OA
ATOM     22  H   UNL A   1      44.118  15.764  40.863  1.00  0.00     0.210 HD
ENDBRANCH  20  21
ENDBRANCH  19  20
ENDBRANCH  16  19
ENDBRANCH  10  16
ENDBRANCH   4   6
ENDBRANCH   3   4
ENDBRANCH   2   3
ENDBRANCH   1   2
BRANCH   1  23
ATOM     23  O   UNL A   1      50.077  23.135  33.340  1.00  0.00    -0.374 OA
BRANCH  23  24
ATOM     24  C   UNL A   1      49.365  24.370  33.375  1.00  0.00     0.202 C 
BRANCH  24  25
ATOM     25  C   UNL A   1      49.426  25.180  34.677  1.00  0.00     0.261 C 
BRANCH  25  26
ATOM     26  O   UNL A   1      48.672  26.399  34.606  1.00  0.00    -0.460 OA
BRANCH  26  27
ATOM     27  C   UNL A   1      47.785  26.581  35.612  1.00  0.00     0.338 C 
ATOM     28  O   UNL A   1      47.945  26.315  36.797  1.00  0.00    -0.246 OA
BRANCH  27  29
ATOM     29  C   UNL A   1      46.624  27.336  35.114  1.00  0.00     0.060 A 
ATOM     30  C   UNL A   1      45.354  26.759  35.252  1.00  0.00     0.016 A 
ATOM     31  C   UNL A   1      46.786  28.559  34.462  1.00  0.00     0.016 A 
ATOM     32  C   UNL A   1      44.239  27.382  34.695  1.00  0.00     0.010 A 
ATOM     33  C   UNL A   1      45.672  29.176  33.895  1.00  0.00     0.010 A 
ATOM     34  C   UNL A   1      44.403  28.571  33.975  1.00  0.00    -0.014 A 
BRANCH  34  35
ATOM     35  C   UNL A   1      43.296  29.111  33.154  1.00  0.00     0.031 A 
ATOM     36  C   UNL A   1      42.247  29.944  33.832  1.00  0.00     0.074 A 
ATOM     37  C   UNL A   1      43.193  28.811  31.848  1.00  0.00     0.049 A 
ATOM     38  N   UNL A   1      41.107  30.382  33.367  1.00  0.00    -0.248 NA
ATOM     39  C   UNL A   1      42.512  30.317  35.232  1.00  0.00     0.031 C 
ATOM     40  C   UNL A   1      44.159  28.028  31.084  1.00  0.00     0.029 A 
ATOM     41  N   UNL A   1      42.194  29.094  30.951  1.00  0.00    -0.354 N 
ATOM     42  C   UNL A   1      40.494  31.034  34.431  1.00  0.00     0.074 A 
ATOM     43  C   UNL A   1      41.390  30.937  35.562  1.00  0.00     0.031 C 
ATOM     44  C   UNL A   1      43.681  27.846  29.840  1.00  0.00     0.029 A 
ATOM     45  C   UNL A   1      42.361  28.466  29.739  1.00  0.00     0.049 A 
ATOM     46  H   UNL A   1      41.434  29.686  31.153  1.00  0.00     0.167 HD
ATOM     47  C   UNL A   1      39.293  31.657  34.459  1.00  0.00     0.034 A 
ATOM     48  C   UNL A   1      41.524  28.363  28.687  1.00  0.00     0.034 A 
ATOM     49  C   UNL A   1      38.420  31.762  33.322  1.00  0.00     0.049 A 
ATOM     50  C   UNL A   1      40.183  29.048  28.744  1.00  0.00     0.074 A 
ATOM     51  C   UNL A   1      37.210  32.423  33.227  1.00  0.00     0.029 A 
ATOM     52  N   UNL A   1      38.655  31.173  32.089  1.00  0.00    -0.354 N 
ATOM     53  N   UNL A   1      39.655  29.747  29.720  1.00  0.00    -0.248 NA
ATOM     54  C   UNL A   1      39.335  28.958  27.545  1.00  0.00     0.031 C 
ATOM     55  C   UNL A   1      36.693  32.200  31.947  1.00  0.00     0.029 A 
ATOM     56  C   UNL A   1      37.606  31.442  31.230  1.00  0.00     0.049 A 
ATOM     57  H   UNL A   1      39.452  30.642  31.860  1.00  0.00     0.167 HD
ATOM     58  C   UNL A   1      38.438  30.218  29.239  1.00  0.00     0.074 A 
ATOM     59  C   UNL A   1      38.305  29.724  27.884  1.00  0.00     0.031 C 
ATOM     60  C   UNL A   1      37.515  30.991  29.864  1.00  0.00     0.034 A 
BRANCH  47  61
ATOM     61  C   UNL A   1      38.854  32.264  35.765  1.00  0.00     0.023 A 
ATOM     62  C   UNL A   1      39.111  33.623  36.036  1.00  0.00     0.012 A 
ATOM     63  C   UNL A   1      38.154  31.492  36.712  1.00  0.00     0.148 A 
ATOM     64  C   UNL A   1      38.723  34.191  37.249  1.00  0.00     0.002 A 
ATOM     65  C   UNL A   1      37.725  32.078  37.897  1.00  0.00     0.091 A 
ATOM     66  F   UNL A   1      37.938  30.195  36.449  1.00  0.00    -0.205 F 
ATOM     67  C   UNL A   1      38.021  33.422  38.174  1.00  0.00     0.022 A 
BRANCH  65  68
ATOM     68  S   UNL A   1      36.743  31.189  39.110  1.00  0.00     0.127 S 
ATOM     69  O   UNL A   1      37.657  31.136  40.249  1.00  0.00    -0.237 OA
ATOM     70  O   UNL A   1      35.595  32.081  39.289  1.00  0.00    -0.237 OA
ATOM     71  O   UNL A   1      36.421  29.906  38.502  1.00  0.00    -0.744 OA
ENDBRANCH  65  68
ENDBRANCH  47  61
BRANCH  48  72
ATOM     72  C   UNL A   1      41.947  27.589  27.488  1.00  0.00     0.023 A 
ATOM     73  C   UNL A   1      42.485  28.265  26.377  1.00  0.00     0.012 A 
ATOM     74  C   UNL A   1      41.869  26.182  27.468  1.00  0.00     0.148 A 
ATOM     75  C   UNL A   1      42.919  27.556  25.257  1.00  0.00     0.002 A 
ATOM     76  C   UNL A   1      42.355  25.478  26.373  1.00  0.00     0.091 A 
ATOM     77  F   UNL A   1      41.345  25.560  28.534  1.00  0.00    -0.205 F 
ATOM     78  C   UNL A   1      42.867  26.163  25.260  1.00  0.00     0.022 A 
BRANCH  76  79
ATOM     79  S   UNL A   1      42.453  23.685  26.343  1.00  0.00     0.127 S 
ATOM     80  O   UNL A   1      42.891  23.432  24.973  1.00  0.00    -0.237 OA
ATOM     81  O   UNL A   1      43.459  23.423  27.371  1.00  0.00    -0.237 OA
ATOM     82  O   UNL A   1      41.116  23.208  26.673  1.00  0.00    -0.744 OA
ENDBRANCH  76  79
ENDBRANCH  48  72
BRANCH  60  83
ATOM     83  C   UNL A   1      36.302  31.426  29.084  1.00  0.00     0.023 A 
ATOM     84  C   UNL A   1      36.099  32.787  28.787  1.00  0.00     0.012 A 
ATOM     85  C   UNL A   1      35.436  30.459  28.537  1.00  0.00     0.148 A 
ATOM     86  C   UNL A   1      35.041  33.179  27.966  1.00  0.00     0.002 A 
ATOM     87  C   UNL A   1      34.416  30.852  27.680  1.00  0.00     0.091 A 
ATOM     88  F   UNL A   1      35.640  29.171  28.849  1.00  0.00    -0.205 F 
ATOM     89  C   UNL A   1      34.210  32.212  27.401  1.00  0.00     0.022 A 
BRANCH  87  90
ATOM     90  S   UNL A   1      33.368  29.671  26.822  1.00  0.00     0.127 S 
ATOM     91  O   UNL A   1      32.568  30.548  25.969  1.00  0.00    -0.237 OA
ATOM     92  O   UNL A   1      34.346  28.852  26.109  1.00  0.00    -0.237 OA
ATOM     93  O   UNL A   1      32.622  28.966  27.856  1.00  0.00    -0.744 OA
ENDBRANCH  87  90
ENDBRANCH  60  83
ENDBRANCH  34  35
ENDBRANCH  27  29
ENDBRANCH  26  27
ENDBRANCH  25  26
ENDBRANCH  24  25
ENDBRANCH  23  24
ENDBRANCH   1  23
TORSDOF 23
ENDMDL
