MODEL 1
REMARK VINA RESULT:     -11.7      0.000      0.000
REMARK SMILES CN1C(=O)C[C@@H](C(=O)OCCOCCOC(=O)c2ccc(-c3c4nc(c(-c5cccc(S(=O)(=O)[O-])c5F)c5ccc([nH]5)c(-c5cccc(S(=O)(=O)[O-])c5F)c5nc(c(-c6cccc(S(=O)(=O)[O-])c6F)c6ccc3[nH]6)C=C5)C=C4)cc2)C12CCN(c1ccc(Cl)cn1)CC2
REMARK SMILES IDX 13 1 12 2 11 3 10 4 9 5 7 6 8 7 6 8 1 9 2 10 3 11 81 12 4 13
REMARK SMILES IDX 5 14 82 15 93 16 83 17 92 18 84 19 85 20 86 21 91 22 87 23
REMARK SMILES IDX 90 24 88 25 89 26 14 27 15 28 16 29 17 30 18 31 19 32 80 33
REMARK SMILES IDX 20 34 79 35 21 36 22 37 23 38 73 39 24 40 78 41 72 42 74 43
REMARK SMILES IDX 25 44 77 45 71 46 70 47 26 49 58 50 38 51 57 52 39 53 42 54
REMARK SMILES IDX 56 55 75 56 40 57 41 58 55 60 76 61 43 62 27 63 28 64 36 65
REMARK SMILES IDX 29 66 31 67 37 68 30 69 32 70 33 71 34 72 35 73 59 74 60 75
REMARK SMILES IDX 68 76 61 77 63 78 69 79 62 80 64 81 65 82 66 83 67 84 44 85
REMARK SMILES IDX 45 86 53 87 46 88 48 89 54 90 47 91 49 92 50 93 51 94 52 95
REMARK H PARENT 74 48 42 59
REMARK Flexibility Score: inf
ROOT
ATOM      1  C   UNL A   1      36.460  20.013  24.998  1.00  0.00     0.202 C 
ENDROOT
BRANCH   1   2
ATOM      2  O   UNL A   1      35.963  21.281  24.580  1.00  0.00    -0.374 OA
BRANCH   2   3
ATOM      3  C   UNL A   1      36.219  22.409  25.414  1.00  0.00     0.202 C 
BRANCH   3   4
ATOM      4  C   UNL A   1      35.830  23.801  24.895  1.00  0.00     0.261 C 
BRANCH   4   5
ATOM      5  O   UNL A   1      35.278  24.719  25.868  1.00  0.00    -0.463 OA
BRANCH   5   6
ATOM      6  C   UNL A   1      34.365  25.586  25.374  1.00  0.00     0.311 C 
ATOM      7  O   UNL A   1      34.011  26.611  25.956  1.00  0.00    -0.252 OA
BRANCH   6   8
ATOM      8  C   UNL A   1      33.682  25.183  24.083  1.00  0.00     0.134 C 
ATOM      9  C   UNL A   1      29.951  25.525  23.682  1.00  0.00     0.147 C 
ATOM     10  N   UNL A   1      31.403  25.621  23.712  1.00  0.00    -0.339 N 
ATOM     11  C   UNL A   1      32.062  26.752  23.262  1.00  0.00     0.223 C 
ATOM     12  C   UNL A   1      32.303  24.483  23.965  1.00  0.00     0.060 C 
ATOM     13  O   UNL A   1      31.555  27.781  22.854  1.00  0.00    -0.275 OA
ATOM     14  C   UNL A   1      33.536  26.476  23.264  1.00  0.00     0.118 C 
ATOM     15  C   UNL A   1      31.827  23.652  25.172  1.00  0.00     0.051 C 
ATOM     16  C   UNL A   1      32.329  23.568  22.686  1.00  0.00     0.051 C 
ATOM     17  C   UNL A   1      32.557  22.330  25.313  1.00  0.00     0.120 C 
ATOM     18  C   UNL A   1      33.013  22.209  22.904  1.00  0.00     0.120 C 
ATOM     19  N   UNL A   1      32.404  21.589  24.068  1.00  0.00    -0.356 N 
BRANCH  19  20
ATOM     20  C   UNL A   1      32.457  20.210  24.204  1.00  0.00     0.128 A 
ATOM     21  C   UNL A   1      32.697  19.676  25.476  1.00  0.00     0.048 A 
ATOM     22  N   UNL A   1      32.329  19.415  23.122  1.00  0.00    -0.238 NA
ATOM     23  C   UNL A   1      32.860  18.302  25.645  1.00  0.00     0.026 A 
ATOM     24  C   UNL A   1      32.505  18.079  23.307  1.00  0.00     0.134 A 
ATOM     25  C   UNL A   1      32.778  17.487  24.530  1.00  0.00     0.059 A 
ATOM     26  Cl  UNL A   1      33.022  15.793  24.665  1.00  0.00    -0.083 Cl
ENDBRANCH  19  20
ENDBRANCH   6   8
ENDBRANCH   5   6
ENDBRANCH   4   5
ENDBRANCH   3   4
ENDBRANCH   2   3
ENDBRANCH   1   2
BRANCH   1  27
ATOM     27  C   UNL A   1      37.978  19.818  24.957  1.00  0.00     0.261 C 
BRANCH  27  28
ATOM     28  O   UNL A   1      38.570  19.912  26.262  1.00  0.00    -0.460 OA
BRANCH  28  29
ATOM     29  C   UNL A   1      39.913  20.101  26.239  1.00  0.00     0.338 C 
ATOM     30  O   UNL A   1      40.748  19.357  25.756  1.00  0.00    -0.246 OA
BRANCH  29  31
ATOM     31  C   UNL A   1      40.242  21.442  26.752  1.00  0.00     0.060 A 
ATOM     32  C   UNL A   1      39.628  22.548  26.152  1.00  0.00     0.016 A 
ATOM     33  C   UNL A   1      41.226  21.615  27.725  1.00  0.00     0.016 A 
ATOM     34  C   UNL A   1      40.025  23.839  26.503  1.00  0.00     0.010 A 
ATOM     35  C   UNL A   1      41.623  22.911  28.073  1.00  0.00     0.010 A 
ATOM     36  C   UNL A   1      41.049  24.029  27.442  1.00  0.00    -0.014 A 
BRANCH  36  37
ATOM     37  C   UNL A   1      41.580  25.393  27.689  1.00  0.00     0.031 A 
ATOM     38  C   UNL A   1      42.975  25.739  27.241  1.00  0.00     0.074 A 
ATOM     39  C   UNL A   1      40.825  26.313  28.320  1.00  0.00     0.049 A 
ATOM     40  N   UNL A   1      43.617  26.873  27.345  1.00  0.00    -0.248 NA
ATOM     41  C   UNL A   1      43.749  24.669  26.591  1.00  0.00     0.031 C 
ATOM     42  C   UNL A   1      39.470  26.092  28.820  1.00  0.00     0.029 A 
ATOM     43  N   UNL A   1      41.105  27.611  28.670  1.00  0.00    -0.354 N 
ATOM     44  C   UNL A   1      44.878  26.648  26.804  1.00  0.00     0.074 A 
ATOM     45  C   UNL A   1      44.913  25.268  26.373  1.00  0.00     0.031 C 
ATOM     46  C   UNL A   1      39.045  27.208  29.437  1.00  0.00     0.029 A 
ATOM     47  C   UNL A   1      40.103  28.216  29.392  1.00  0.00     0.049 A 
ATOM     48  H   UNL A   1      41.943  28.067  28.427  1.00  0.00     0.167 HD
ATOM     49  C   UNL A   1      45.907  27.517  26.667  1.00  0.00     0.034 A 
ATOM     50  C   UNL A   1      40.052  29.434  29.967  1.00  0.00     0.034 A 
ATOM     51  C   UNL A   1      45.858  28.898  27.064  1.00  0.00     0.049 A 
ATOM     52  C   UNL A   1      41.221  30.371  29.809  1.00  0.00     0.074 A 
ATOM     53  C   UNL A   1      46.812  29.881  26.868  1.00  0.00     0.029 A 
ATOM     54  N   UNL A   1      44.813  29.485  27.757  1.00  0.00    -0.354 N 
ATOM     55  N   UNL A   1      42.330  30.202  29.131  1.00  0.00    -0.248 NA
ATOM     56  C   UNL A   1      41.121  31.680  30.473  1.00  0.00     0.031 C 
ATOM     57  C   UNL A   1      46.358  31.056  27.476  1.00  0.00     0.029 A 
ATOM     58  C   UNL A   1      45.112  30.808  28.030  1.00  0.00     0.049 A 
ATOM     59  H   UNL A   1      43.980  29.029  28.017  1.00  0.00     0.167 HD
ATOM     60  C   UNL A   1      43.045  31.387  29.263  1.00  0.00     0.074 A 
ATOM     61  C   UNL A   1      42.233  32.279  30.065  1.00  0.00     0.031 C 
ATOM     62  C   UNL A   1      44.273  31.703  28.783  1.00  0.00     0.034 A 
BRANCH  49  63
ATOM     63  C   UNL A   1      47.178  27.019  26.034  1.00  0.00     0.023 A 
ATOM     64  C   UNL A   1      47.409  27.245  24.662  1.00  0.00     0.012 A 
ATOM     65  C   UNL A   1      48.182  26.417  26.818  1.00  0.00     0.148 A 
ATOM     66  C   UNL A   1      48.616  26.866  24.077  1.00  0.00     0.002 A 
ATOM     67  C   UNL A   1      49.396  26.075  26.235  1.00  0.00     0.091 A 
ATOM     68  F   UNL A   1      47.931  26.194  28.115  1.00  0.00    -0.205 F 
ATOM     69  C   UNL A   1      49.612  26.292  24.864  1.00  0.00     0.022 A 
BRANCH  67  70
ATOM     70  S   UNL A   1      50.768  25.394  27.174  1.00  0.00     0.127 S 
ATOM     71  O   UNL A   1      51.208  26.559  27.940  1.00  0.00    -0.237 OA
ATOM     72  O   UNL A   1      50.110  24.355  27.968  1.00  0.00    -0.237 OA
ATOM     73  O   UNL A   1      51.722  24.898  26.192  1.00  0.00    -0.744 OA
ENDBRANCH  67  70
ENDBRANCH  49  63
BRANCH  50  74
ATOM     74  C   UNL A   1      38.844  29.856  30.733  1.00  0.00     0.023 A 
ATOM     75  C   UNL A   1      38.685  29.438  32.068  1.00  0.00     0.012 A 
ATOM     76  C   UNL A   1      37.850  30.661  30.144  1.00  0.00     0.148 A 
ATOM     77  C   UNL A   1      37.542  29.785  32.792  1.00  0.00     0.002 A 
ATOM     78  C   UNL A   1      36.741  31.048  30.887  1.00  0.00     0.091 A 
ATOM     79  F   UNL A   1      38.004  31.027  28.863  1.00  0.00    -0.205 F 
ATOM     80  C   UNL A   1      36.577  30.599  32.205  1.00  0.00     0.022 A 
BRANCH  78  81
ATOM     81  S   UNL A   1      35.517  32.193  30.242  1.00  0.00     0.127 S 
ATOM     82  O   UNL A   1      34.587  32.299  31.362  1.00  0.00    -0.237 OA
ATOM     83  O   UNL A   1      36.321  33.392  29.992  1.00  0.00    -0.237 OA
ATOM     84  O   UNL A   1      34.999  31.561  29.037  1.00  0.00    -0.744 OA
ENDBRANCH  78  81
ENDBRANCH  50  74
BRANCH  62  85
ATOM     85  C   UNL A   1      44.819  33.072  29.091  1.00  0.00     0.023 A 
ATOM     86  C   UNL A   1      45.495  33.291  30.308  1.00  0.00     0.012 A 
ATOM     87  C   UNL A   1      44.748  34.110  28.142  1.00  0.00     0.148 A 
ATOM     88  C   UNL A   1      46.071  34.530  30.585  1.00  0.00     0.002 A 
ATOM     89  C   UNL A   1      45.366  35.327  28.404  1.00  0.00     0.091 A 
ATOM     90  F   UNL A   1      44.088  33.884  26.997  1.00  0.00    -0.205 F 
ATOM     91  C   UNL A   1      46.018  35.542  29.629  1.00  0.00     0.022 A 
BRANCH  89  92
ATOM     92  S   UNL A   1      45.433  36.657  27.197  1.00  0.00     0.127 S 
ATOM     93  O   UNL A   1      46.070  35.996  26.060  1.00  0.00    -0.237 OA
ATOM     94  O   UNL A   1      44.017  36.973  27.005  1.00  0.00    -0.237 OA
ATOM     95  O   UNL A   1      46.211  37.722  27.815  1.00  0.00    -0.744 OA
ENDBRANCH  89  92
ENDBRANCH  62  85
ENDBRANCH  36  37
ENDBRANCH  29  31
ENDBRANCH  28  29
ENDBRANCH  27  28
ENDBRANCH   1  27
TORSDOF 18
ENDMDL
MODEL 2
REMARK VINA RESULT:     -11.7      2.733      4.086
REMARK SMILES CN1C(=O)C[C@@H](C(=O)OCCOCCOC(=O)c2ccc(-c3c4nc(c(-c5cccc(S(=O)(=O)[O-])c5F)c5ccc([nH]5)c(-c5cccc(S(=O)(=O)[O-])c5F)c5nc(c(-c6cccc(S(=O)(=O)[O-])c6F)c6ccc3[nH]6)C=C5)C=C4)cc2)C12CCN(c1ccc(Cl)cn1)CC2
REMARK SMILES IDX 13 1 12 2 11 3 10 4 9 5 7 6 8 7 6 8 1 9 2 10 3 11 81 12 4 13
REMARK SMILES IDX 5 14 82 15 93 16 83 17 92 18 84 19 85 20 86 21 91 22 87 23
REMARK SMILES IDX 90 24 88 25 89 26 14 27 15 28 16 29 17 30 18 31 19 32 80 33
REMARK SMILES IDX 20 34 79 35 21 36 22 37 23 38 73 39 24 40 78 41 72 42 74 43
REMARK SMILES IDX 25 44 77 45 71 46 70 47 26 49 58 50 38 51 57 52 39 53 42 54
REMARK SMILES IDX 56 55 75 56 40 57 41 58 55 60 76 61 43 62 27 63 28 64 36 65
REMARK SMILES IDX 29 66 31 67 37 68 30 69 32 70 33 71 34 72 35 73 59 74 60 75
REMARK SMILES IDX 68 76 61 77 63 78 69 79 62 80 64 81 65 82 66 83 67 84 44 85
REMARK SMILES IDX 45 86 53 87 46 88 48 89 54 90 47 91 49 92 50 93 51 94 52 95
REMARK H PARENT 74 48 42 59
REMARK Flexibility Score: inf
ROOT
ATOM      1  C   UNL A   1      37.571  20.364  24.787  1.00  0.00     0.202 C 
ENDROOT
BRANCH   1   2
ATOM      2  O   UNL A   1      37.146  21.605  25.342  1.00  0.00    -0.374 OA
BRANCH   2   3
ATOM      3  C   UNL A   1      36.970  22.709  24.458  1.00  0.00     0.202 C 
BRANCH   3   4
ATOM      4  C   UNL A   1      35.722  22.734  23.562  1.00  0.00     0.261 C 
BRANCH   4   5
ATOM      5  O   UNL A   1      34.461  22.992  24.221  1.00  0.00    -0.463 OA
BRANCH   5   6
ATOM      6  C   UNL A   1      33.901  24.187  23.925  1.00  0.00     0.311 C 
ATOM      7  O   UNL A   1      34.059  24.770  22.853  1.00  0.00    -0.252 OA
BRANCH   6   8
ATOM      8  C   UNL A   1      33.133  24.866  25.041  1.00  0.00     0.134 C 
ATOM      9  C   UNL A   1      30.045  23.278  26.505  1.00  0.00     0.147 C 
ATOM     10  N   UNL A   1      31.361  23.786  26.144  1.00  0.00    -0.339 N 
ATOM     11  C   UNL A   1      32.494  23.425  26.851  1.00  0.00     0.223 C 
ATOM     12  C   UNL A   1      31.590  24.891  25.198  1.00  0.00     0.060 C 
ATOM     13  O   UNL A   1      32.559  22.642  27.781  1.00  0.00    -0.275 OA
ATOM     14  C   UNL A   1      33.649  24.238  26.346  1.00  0.00     0.118 C 
ATOM     15  C   UNL A   1      30.748  24.718  23.920  1.00  0.00     0.051 C 
ATOM     16  C   UNL A   1      31.194  26.243  25.898  1.00  0.00     0.051 C 
ATOM     17  C   UNL A   1      30.742  25.950  23.035  1.00  0.00     0.120 C 
ATOM     18  C   UNL A   1      31.128  27.446  24.943  1.00  0.00     0.120 C 
ATOM     19  N   UNL A   1      30.273  27.078  23.828  1.00  0.00    -0.356 N 
BRANCH  19  20
ATOM     20  C   UNL A   1      29.647  28.079  23.099  1.00  0.00     0.128 A 
ATOM     21  C   UNL A   1      30.446  28.975  22.378  1.00  0.00     0.048 A 
ATOM     22  N   UNL A   1      28.305  28.205  23.132  1.00  0.00    -0.238 NA
ATOM     23  C   UNL A   1      29.869  30.056  21.714  1.00  0.00     0.026 A 
ATOM     24  C   UNL A   1      27.764  29.274  22.488  1.00  0.00     0.134 A 
ATOM     25  C   UNL A   1      28.497  30.218  21.785  1.00  0.00     0.059 A 
ATOM     26  Cl  UNL A   1      27.734  31.559  21.033  1.00  0.00    -0.083 Cl
ENDBRANCH  19  20
ENDBRANCH   6   8
ENDBRANCH   5   6
ENDBRANCH   4   5
ENDBRANCH   3   4
ENDBRANCH   2   3
ENDBRANCH   1   2
BRANCH   1  27
ATOM     27  C   UNL A   1      38.838  19.741  25.379  1.00  0.00     0.261 C 
BRANCH  27  28
ATOM     28  O   UNL A   1      39.233  20.382  26.602  1.00  0.00    -0.460 OA
BRANCH  28  29
ATOM     29  C   UNL A   1      40.565  20.630  26.682  1.00  0.00     0.338 C 
ATOM     30  O   UNL A   1      41.468  19.906  26.303  1.00  0.00    -0.246 OA
BRANCH  29  31
ATOM     31  C   UNL A   1      40.793  22.004  27.160  1.00  0.00     0.060 A 
ATOM     32  C   UNL A   1      40.188  23.056  26.463  1.00  0.00     0.016 A 
ATOM     33  C   UNL A   1      41.684  22.260  28.203  1.00  0.00     0.016 A 
ATOM     34  C   UNL A   1      40.500  24.377  26.788  1.00  0.00     0.010 A 
ATOM     35  C   UNL A   1      41.996  23.587  28.525  1.00  0.00     0.010 A 
ATOM     36  C   UNL A   1      41.432  24.651  27.800  1.00  0.00    -0.014 A 
BRANCH  36  37
ATOM     37  C   UNL A   1      41.884  26.047  28.029  1.00  0.00     0.031 A 
ATOM     38  C   UNL A   1      43.275  26.452  27.621  1.00  0.00     0.074 A 
ATOM     39  C   UNL A   1      41.060  26.942  28.608  1.00  0.00     0.049 A 
ATOM     40  N   UNL A   1      43.855  27.621  27.719  1.00  0.00    -0.248 NA
ATOM     41  C   UNL A   1      44.126  25.408  27.028  1.00  0.00     0.031 C 
ATOM     42  C   UNL A   1      39.700  26.663  29.064  1.00  0.00     0.029 A 
ATOM     43  N   UNL A   1      41.261  28.260  28.932  1.00  0.00    -0.354 N 
ATOM     44  C   UNL A   1      45.145  27.447  27.229  1.00  0.00     0.074 A 
ATOM     45  C   UNL A   1      45.265  26.060  26.837  1.00  0.00     0.031 C 
ATOM     46  C   UNL A   1      39.197  27.771  29.636  1.00  0.00     0.029 A 
ATOM     47  C   UNL A   1      40.203  28.830  29.601  1.00  0.00     0.049 A 
ATOM     48  H   UNL A   1      42.083  28.753  28.707  1.00  0.00     0.167 HD
ATOM     49  C   UNL A   1      46.132  28.364  27.106  1.00  0.00     0.034 A 
ATOM     50  C   UNL A   1      40.069  30.058  30.141  1.00  0.00     0.034 A 
ATOM     51  C   UNL A   1      45.999  29.750  27.464  1.00  0.00     0.049 A 
ATOM     52  C   UNL A   1      41.195  31.050  30.001  1.00  0.00     0.074 A 
ATOM     53  C   UNL A   1      46.909  30.776  27.277  1.00  0.00     0.029 A 
ATOM     54  N   UNL A   1      44.900  30.300  28.103  1.00  0.00    -0.354 N 
ATOM     55  N   UNL A   1      42.335  30.921  29.368  1.00  0.00    -0.248 NA
ATOM     56  C   UNL A   1      41.004  32.369  30.626  1.00  0.00     0.031 C 
ATOM     57  C   UNL A   1      46.373  31.941  27.836  1.00  0.00     0.029 A 
ATOM     58  C   UNL A   1      45.122  31.643  28.351  1.00  0.00     0.049 A 
ATOM     59  H   UNL A   1      44.083  29.808  28.345  1.00  0.00     0.167 HD
ATOM     60  C   UNL A   1      42.984  32.145  29.494  1.00  0.00     0.074 A 
ATOM     61  C   UNL A   1      42.098  33.013  30.241  1.00  0.00     0.031 C 
ATOM     62  C   UNL A   1      44.211  32.512  29.050  1.00  0.00     0.034 A 
BRANCH  49  63
ATOM     63  C   UNL A   1      47.450  27.917  26.533  1.00  0.00     0.023 A 
ATOM     64  C   UNL A   1      48.457  27.435  27.393  1.00  0.00     0.012 A 
ATOM     65  C   UNL A   1      47.651  27.880  25.138  1.00  0.00     0.148 A 
ATOM     66  C   UNL A   1      49.652  26.938  26.874  1.00  0.00     0.002 A 
ATOM     67  C   UNL A   1      48.829  27.350  24.628  1.00  0.00     0.091 A 
ATOM     68  F   UNL A   1      46.686  28.362  24.342  1.00  0.00    -0.205 F 
ATOM     69  C   UNL A   1      49.833  26.885  25.494  1.00  0.00     0.022 A 
BRANCH  67  70
ATOM     70  S   UNL A   1      49.132  27.173  22.866  1.00  0.00     0.127 S 
ATOM     71  O   UNL A   1      48.324  25.998  22.544  1.00  0.00    -0.237 OA
ATOM     72  O   UNL A   1      48.611  28.434  22.337  1.00  0.00    -0.237 OA
ATOM     73  O   UNL A   1      50.570  26.998  22.720  1.00  0.00    -0.744 OA
ENDBRANCH  67  70
ENDBRANCH  49  63
BRANCH  50  74
ATOM     74  C   UNL A   1      38.814  30.436  30.852  1.00  0.00     0.023 A 
ATOM     75  C   UNL A   1      38.658  30.108  32.213  1.00  0.00     0.012 A 
ATOM     76  C   UNL A   1      37.772  31.110  30.186  1.00  0.00     0.148 A 
ATOM     77  C   UNL A   1      37.475  30.414  32.888  1.00  0.00     0.002 A 
ATOM     78  C   UNL A   1      36.619  31.460  30.878  1.00  0.00     0.091 A 
ATOM     79  F   UNL A   1      37.926  31.390  28.884  1.00  0.00    -0.205 F 
ATOM     80  C   UNL A   1      36.461  31.099  32.224  1.00  0.00     0.022 A 
BRANCH  78  81
ATOM     81  S   UNL A   1      35.322  32.449  30.126  1.00  0.00     0.127 S 
ATOM     82  O   UNL A   1      36.053  33.647  29.726  1.00  0.00    -0.237 OA
ATOM     83  O   UNL A   1      34.887  31.593  29.021  1.00  0.00    -0.237 OA
ATOM     84  O   UNL A   1      34.322  32.628  31.171  1.00  0.00    -0.744 OA
ENDBRANCH  78  81
ENDBRANCH  50  74
BRANCH  62  85
ATOM     85  C   UNL A   1      44.675  33.914  29.340  1.00  0.00     0.023 A 
ATOM     86  C   UNL A   1      45.368  34.181  30.538  1.00  0.00     0.012 A 
ATOM     87  C   UNL A   1      44.512  34.943  28.391  1.00  0.00     0.148 A 
ATOM     88  C   UNL A   1      45.870  35.456  30.797  1.00  0.00     0.002 A 
ATOM     89  C   UNL A   1      45.056  36.198  28.635  1.00  0.00     0.091 A 
ATOM     90  F   UNL A   1      43.836  34.671  27.265  1.00  0.00    -0.205 F 
ATOM     91  C   UNL A   1      45.725  36.459  29.842  1.00  0.00     0.022 A 
BRANCH  89  92
ATOM     92  S   UNL A   1      45.004  37.525  27.425  1.00  0.00     0.127 S 
ATOM     93  O   UNL A   1      45.951  37.049  26.419  1.00  0.00    -0.237 OA
ATOM     94  O   UNL A   1      43.603  37.505  27.002  1.00  0.00    -0.237 OA
ATOM     95  O   UNL A   1      45.403  38.733  28.134  1.00  0.00    -0.744 OA
ENDBRANCH  89  92
ENDBRANCH  62  85
ENDBRANCH  36  37
ENDBRANCH  29  31
ENDBRANCH  28  29
ENDBRANCH  27  28
ENDBRANCH   1  27
TORSDOF 18
ENDMDL
MODEL 3
REMARK VINA RESULT:     -11.6      0.457      7.571
REMARK SMILES CN1C(=O)C[C@@H](C(=O)OCCOCCOC(=O)c2ccc(-c3c4nc(c(-c5cccc(S(=O)(=O)[O-])c5F)c5ccc([nH]5)c(-c5cccc(S(=O)(=O)[O-])c5F)c5nc(c(-c6cccc(S(=O)(=O)[O-])c6F)c6ccc3[nH]6)C=C5)C=C4)cc2)C12CCN(c1ccc(Cl)cn1)CC2
REMARK SMILES IDX 13 1 12 2 11 3 10 4 9 5 7 6 8 7 6 8 1 9 2 10 3 11 81 12 4 13
REMARK SMILES IDX 5 14 82 15 93 16 83 17 92 18 84 19 85 20 86 21 91 22 87 23
REMARK SMILES IDX 90 24 88 25 89 26 14 27 15 28 16 29 17 30 18 31 19 32 80 33
REMARK SMILES IDX 20 34 79 35 21 36 22 37 23 38 73 39 24 40 78 41 72 42 74 43
REMARK SMILES IDX 25 44 77 45 71 46 70 47 26 49 58 50 38 51 57 52 39 53 42 54
REMARK SMILES IDX 56 55 75 56 40 57 41 58 55 60 76 61 43 62 27 63 28 64 36 65
REMARK SMILES IDX 29 66 31 67 37 68 30 69 32 70 33 71 34 72 35 73 59 74 60 75
REMARK SMILES IDX 68 76 61 77 63 78 69 79 62 80 64 81 65 82 66 83 67 84 44 85
REMARK SMILES IDX 45 86 53 87 46 88 48 89 54 90 47 91 49 92 50 93 51 94 52 95
REMARK H PARENT 74 48 42 59
REMARK Flexibility Score: inf
ROOT
ATOM      1  C   UNL A   1      36.186  20.254  24.942  1.00  0.00     0.202 C 
ENDROOT
BRANCH   1   2
ATOM      2  O   UNL A   1      36.146  21.634  24.592  1.00  0.00    -0.374 OA
BRANCH   2   3
ATOM      3  C   UNL A   1      35.871  22.579  25.622  1.00  0.00     0.202 C 
BRANCH   3   4
ATOM      4  C   UNL A   1      35.679  24.052  25.229  1.00  0.00     0.261 C 
BRANCH   4   5
ATOM      5  O   UNL A   1      34.875  24.856  26.122  1.00  0.00    -0.463 OA
BRANCH   5   6
ATOM      6  C   UNL A   1      34.127  25.805  25.511  1.00  0.00     0.311 C 
ATOM      7  O   UNL A   1      33.867  26.897  26.012  1.00  0.00    -0.252 OA
BRANCH   6   8
ATOM      8  C   UNL A   1      33.504  25.420  24.185  1.00  0.00     0.134 C 
ATOM      9  C   UNL A   1      29.784  25.692  23.648  1.00  0.00     0.147 C 
ATOM     10  N   UNL A   1      31.231  25.818  23.737  1.00  0.00    -0.339 N 
ATOM     11  C   UNL A   1      31.881  26.974  23.341  1.00  0.00     0.223 C 
ATOM     12  C   UNL A   1      32.146  24.694  23.996  1.00  0.00     0.060 C 
ATOM     13  O   UNL A   1      31.368  28.003  22.939  1.00  0.00    -0.275 OA
ATOM     14  C   UNL A   1      33.360  26.730  23.394  1.00  0.00     0.118 C 
ATOM     15  C   UNL A   1      31.644  23.822  25.162  1.00  0.00     0.051 C 
ATOM     16  C   UNL A   1      32.241  23.813  22.697  1.00  0.00     0.051 C 
ATOM     17  C   UNL A   1      32.397  22.513  25.299  1.00  0.00     0.120 C 
ATOM     18  C   UNL A   1      32.947  22.464  22.907  1.00  0.00     0.120 C 
ATOM     19  N   UNL A   1      32.309  21.801  24.030  1.00  0.00    -0.356 N 
BRANCH  19  20
ATOM     20  C   UNL A   1      32.387  20.420  24.134  1.00  0.00     0.128 A 
ATOM     21  C   UNL A   1      32.564  19.858  25.404  1.00  0.00     0.048 A 
ATOM     22  N   UNL A   1      32.344  19.652  23.027  1.00  0.00    -0.238 NA
ATOM     23  C   UNL A   1      32.751  18.484  25.547  1.00  0.00     0.026 A 
ATOM     24  C   UNL A   1      32.541  18.316  23.187  1.00  0.00     0.134 A 
ATOM     25  C   UNL A   1      32.756  17.697  24.409  1.00  0.00     0.059 A 
ATOM     26  Cl  UNL A   1      33.033  16.007  24.515  1.00  0.00    -0.083 Cl
ENDBRANCH  19  20
ENDBRANCH   6   8
ENDBRANCH   5   6
ENDBRANCH   4   5
ENDBRANCH   3   4
ENDBRANCH   2   3
ENDBRANCH   1   2
BRANCH   1  27
ATOM     27  C   UNL A   1      37.571  19.633  25.148  1.00  0.00     0.261 C 
BRANCH  27  28
ATOM     28  O   UNL A   1      38.612  20.622  25.129  1.00  0.00    -0.460 OA
BRANCH  28  29
ATOM     29  C   UNL A   1      39.554  20.440  26.089  1.00  0.00     0.338 C 
ATOM     30  O   UNL A   1      40.092  19.392  26.396  1.00  0.00    -0.246 OA
BRANCH  29  31
ATOM     31  C   UNL A   1      39.978  21.742  26.631  1.00  0.00     0.060 A 
ATOM     32  C   UNL A   1      39.435  22.903  26.065  1.00  0.00     0.016 A 
ATOM     33  C   UNL A   1      40.981  21.823  27.597  1.00  0.00     0.016 A 
ATOM     34  C   UNL A   1      39.922  24.155  26.443  1.00  0.00     0.010 A 
ATOM     35  C   UNL A   1      41.469  23.081  27.973  1.00  0.00     0.010 A 
ATOM     36  C   UNL A   1      40.966  24.250  27.376  1.00  0.00    -0.014 A 
BRANCH  36  37
ATOM     37  C   UNL A   1      41.591  25.569  27.650  1.00  0.00     0.031 A 
ATOM     38  C   UNL A   1      40.814  26.615  28.404  1.00  0.00     0.074 A 
ATOM     39  C   UNL A   1      42.839  25.833  27.219  1.00  0.00     0.049 A 
ATOM     40  N   UNL A   1      41.183  27.819  28.759  1.00  0.00    -0.248 NA
ATOM     41  C   UNL A   1      39.444  26.263  28.809  1.00  0.00     0.031 C 
ATOM     42  C   UNL A   1      43.682  24.909  26.463  1.00  0.00     0.029 A 
ATOM     43  N   UNL A   1      43.604  26.967  27.336  1.00  0.00    -0.354 N 
ATOM     44  C   UNL A   1      40.085  28.380  29.402  1.00  0.00     0.074 A 
ATOM     45  C   UNL A   1      39.034  27.386  29.386  1.00  0.00     0.031 C 
ATOM     46  C   UNL A   1      44.839  25.524  26.158  1.00  0.00     0.029 A 
ATOM     47  C   UNL A   1      44.811  26.888  26.683  1.00  0.00     0.049 A 
ATOM     48  H   UNL A   1      43.316  27.762  27.840  1.00  0.00     0.167 HD
ATOM     49  C   UNL A   1      39.969  29.605  29.964  1.00  0.00     0.034 A 
ATOM     50  C   UNL A   1      45.775  27.815  26.510  1.00  0.00     0.034 A 
ATOM     51  C   UNL A   1      41.026  30.578  30.009  1.00  0.00     0.049 A 
ATOM     52  C   UNL A   1      45.608  29.175  27.136  1.00  0.00     0.074 A 
ATOM     53  C   UNL A   1      41.037  31.804  30.650  1.00  0.00     0.029 A 
ATOM     54  N   UNL A   1      42.248  30.448  29.370  1.00  0.00    -0.354 N 
ATOM     55  N   UNL A   1      44.639  29.620  27.900  1.00  0.00    -0.248 NA
ATOM     56  C   UNL A   1      46.679  30.155  26.900  1.00  0.00     0.031 C 
ATOM     57  C   UNL A   1      42.255  32.433  30.368  1.00  0.00     0.029 A 
ATOM     58  C   UNL A   1      43.008  31.587  29.571  1.00  0.00     0.049 A 
ATOM     59  H   UNL A   1      42.534  29.662  28.851  1.00  0.00     0.167 HD
ATOM     60  C   UNL A   1      44.996  30.916  28.256  1.00  0.00     0.074 A 
ATOM     61  C   UNL A   1      46.284  31.177  27.648  1.00  0.00     0.031 C 
ATOM     62  C   UNL A   1      44.311  31.816  29.003  1.00  0.00     0.034 A 
BRANCH  49  63
ATOM     63  C   UNL A   1      38.660  29.969  30.611  1.00  0.00     0.023 A 
ATOM     64  C   UNL A   1      38.409  29.585  31.944  1.00  0.00     0.012 A 
ATOM     65  C   UNL A   1      37.723  30.774  29.932  1.00  0.00     0.148 A 
ATOM     66  C   UNL A   1      37.239  29.985  32.587  1.00  0.00     0.002 A 
ATOM     67  C   UNL A   1      36.576  31.199  30.592  1.00  0.00     0.091 A 
ATOM     68  F   UNL A   1      37.975  31.109  28.659  1.00  0.00    -0.205 F 
ATOM     69  C   UNL A   1      36.330  30.799  31.916  1.00  0.00     0.022 A 
BRANCH  67  70
ATOM     70  S   UNL A   1      35.377  32.304  29.840  1.00  0.00     0.127 S 
ATOM     71  O   UNL A   1      34.880  31.491  28.732  1.00  0.00    -0.237 OA
ATOM     72  O   UNL A   1      34.418  32.503  30.928  1.00  0.00    -0.237 OA
ATOM     73  O   UNL A   1      36.116  33.498  29.454  1.00  0.00    -0.744 OA
ENDBRANCH  67  70
ENDBRANCH  49  63
BRANCH  50  74
ATOM     74  C   UNL A   1      47.001  27.490  25.725  1.00  0.00     0.023 A 
ATOM     75  C   UNL A   1      47.028  27.741  24.340  1.00  0.00     0.012 A 
ATOM     76  C   UNL A   1      48.135  26.928  26.343  1.00  0.00     0.148 A 
ATOM     77  C   UNL A   1      48.149  27.407  23.578  1.00  0.00     0.002 A 
ATOM     78  C   UNL A   1      49.267  26.648  25.588  1.00  0.00     0.091 A 
ATOM     79  F   UNL A   1      48.082  26.670  27.657  1.00  0.00    -0.205 F 
ATOM     80  C   UNL A   1      49.272  26.871  24.203  1.00  0.00     0.022 A 
BRANCH  78  81
ATOM     81  S   UNL A   1      50.793  26.071  26.339  1.00  0.00     0.127 S 
ATOM     82  O   UNL A   1      51.670  25.946  25.179  1.00  0.00    -0.237 OA
ATOM     83  O   UNL A   1      51.123  27.173  27.246  1.00  0.00    -0.237 OA
ATOM     84  O   UNL A   1      50.442  24.829  27.014  1.00  0.00    -0.744 OA
ENDBRANCH  78  81
ENDBRANCH  50  74
BRANCH  62  85
ATOM     85  C   UNL A   1      44.936  33.168  29.224  1.00  0.00     0.023 A 
ATOM     86  C   UNL A   1      45.743  33.381  30.360  1.00  0.00     0.012 A 
ATOM     87  C   UNL A   1      44.806  34.192  28.266  1.00  0.00     0.148 A 
ATOM     88  C   UNL A   1      46.390  34.601  30.551  1.00  0.00     0.002 A 
ATOM     89  C   UNL A   1      45.492  35.388  28.439  1.00  0.00     0.091 A 
ATOM     90  F   UNL A   1      44.022  33.973  27.200  1.00  0.00    -0.205 F 
ATOM     91  C   UNL A   1      46.275  35.598  29.585  1.00  0.00     0.022 A 
BRANCH  89  92
ATOM     92  S   UNL A   1      45.483  36.694  27.204  1.00  0.00     0.127 S 
ATOM     93  O   UNL A   1      46.131  36.038  26.070  1.00  0.00    -0.237 OA
ATOM     94  O   UNL A   1      44.052  36.945  27.028  1.00  0.00    -0.237 OA
ATOM     95  O   UNL A   1      46.224  37.805  27.787  1.00  0.00    -0.744 OA
ENDBRANCH  89  92
ENDBRANCH  62  85
ENDBRANCH  36  37
ENDBRANCH  29  31
ENDBRANCH  28  29
ENDBRANCH  27  28
ENDBRANCH   1  27
TORSDOF 18
ENDMDL
