MODEL 1
REMARK VINA RESULT:     -10.2      0.000      0.000
REMARK SMILES COc1ccc(CCN2C(=O)C[C@@H](C(=O)OCCOCCOC(=O)c3ccc(-c4c5nc(c(-c6cccc(S(=O)(=O)[O-])c6F)c6ccc([nH]6)c(-c6cccc(S(=O)(=O)[O-])c6F)c6nc(c(-c7cccc(S(=O)(=O)[O-])c7F)c7ccc4[nH]7)C=C6)C=C5)cc3)S/C2=[NH+]\c2ccc(F)cc2)cc1OC
REMARK SMILES IDX 18 1 17 2 16 3 14 4 15 5 13 6 9 7 10 8 89 9 11 10 12 11
REMARK SMILES IDX 88 12 90 13 8 15 7 16 6 17 3 18 4 19 99 20 5 21 98 22 2 23
REMARK SMILES IDX 1 24 100 25 101 26 91 27 92 28 97 29 93 30 96 31 94 32 95 33
REMARK SMILES IDX 19 34 20 35 21 36 22 37 23 38 24 39 25 40 26 41 87 42 27 43
REMARK SMILES IDX 86 44 28 45 29 46 30 47 80 48 31 49 85 50 79 51 81 52 32 53
REMARK SMILES IDX 84 54 78 55 77 56 33 58 65 59 45 60 64 61 46 62 49 63 63 64
REMARK SMILES IDX 82 65 47 66 48 67 62 69 83 70 50 71 34 72 35 73 43 74 36 75
REMARK SMILES IDX 38 76 44 77 37 78 39 79 40 80 41 81 42 82 66 83 67 84 75 85
REMARK SMILES IDX 68 86 70 87 76 88 69 89 71 90 72 91 73 92 74 93 51 94 52 95
REMARK SMILES IDX 60 96 53 97 55 98 61 99 54 100 56 101 57 102 58 103 59 104
REMARK H PARENT 90 14 81 57 49 68
REMARK Flexibility Score: inf
ROOT
ATOM      1  C   UNL A   1      35.381  31.445  27.584  1.00  0.00     0.202 C 
ENDROOT
BRANCH   1   2
ATOM      2  C   UNL A   1      34.960  30.206  28.381  1.00  0.00     0.261 C 
BRANCH   2   3
ATOM      3  O   UNL A   1      34.058  29.379  27.620  1.00  0.00    -0.462 OA
BRANCH   3   4
ATOM      4  C   UNL A   1      32.922  29.967  27.152  1.00  0.00     0.320 C 
ATOM      5  O   UNL A   1      32.693  31.171  27.170  1.00  0.00    -0.251 OA
BRANCH   4   6
ATOM      6  C   UNL A   1      31.951  28.956  26.572  1.00  0.00     0.180 C 
ATOM      7  N   UNL A   1      30.653  26.822  25.110  1.00  0.00    -0.191 N 
ATOM      8  C   UNL A   1      31.540  26.574  26.167  1.00  0.00     0.311 C 
ATOM      9  C   UNL A   1      30.404  28.073  24.498  1.00  0.00     0.319 C 
ATOM     10  O   UNL A   1      31.506  25.580  26.889  1.00  0.00    -0.247 OA
ATOM     11  C   UNL A   1      32.589  27.605  26.460  1.00  0.00     0.155 C 
ATOM     12  S   UNL A   1      31.402  29.432  24.938  1.00  0.00    -0.022 SA
ATOM     13  N   UNL A   1      29.448  28.181  23.624  1.00  0.00    -0.235 N 
ATOM     14  H   UNL A   1      28.933  27.377  23.383  1.00  0.00     0.313 HD
BRANCH   7  15
ATOM     15  C   UNL A   1      29.919  25.685  24.511  1.00  0.00     0.251 C 
BRANCH  15  16
ATOM     16  C   UNL A   1      30.394  24.232  24.658  1.00  0.00     0.082 C 
BRANCH  16  17
ATOM     17  C   UNL A   1      31.729  23.858  24.051  1.00  0.00    -0.040 A 
ATOM     18  C   UNL A   1      34.251  23.362  22.906  1.00  0.00     0.160 A 
ATOM     19  C   UNL A   1      33.641  22.401  23.719  1.00  0.00     0.051 A 
ATOM     20  C   UNL A   1      33.593  24.561  22.616  1.00  0.00     0.160 A 
ATOM     21  C   UNL A   1      32.388  22.648  24.287  1.00  0.00     0.008 A 
ATOM     22  C   UNL A   1      32.353  24.804  23.219  1.00  0.00     0.054 A 
BRANCH  18  23
ATOM     23  O   UNL A   1      35.491  23.067  22.404  1.00  0.00    -0.493 OA
ATOM     24  C   UNL A   1      36.475  23.174  23.435  1.00  0.00     0.278 C 
ENDBRANCH  18  23
BRANCH  20  25
ATOM     25  O   UNL A   1      34.025  25.588  21.825  1.00  0.00    -0.493 OA
ATOM     26  C   UNL A   1      33.310  26.813  21.894  1.00  0.00     0.278 C 
ENDBRANCH  20  25
ENDBRANCH  16  17
ENDBRANCH  15  16
ENDBRANCH   7  15
BRANCH  13  27
ATOM     27  C   UNL A   1      29.122  29.400  23.011  1.00  0.00     0.125 A 
ATOM     28  C   UNL A   1      28.168  30.240  23.600  1.00  0.00     0.055 A 
ATOM     29  C   UNL A   1      29.690  29.766  21.785  1.00  0.00     0.055 A 
ATOM     30  C   UNL A   1      27.816  31.450  22.993  1.00  0.00     0.043 A 
ATOM     31  C   UNL A   1      29.345  30.977  21.179  1.00  0.00     0.043 A 
ATOM     32  C   UNL A   1      28.413  31.808  21.790  1.00  0.00     0.123 A 
ATOM     33  F   UNL A   1      28.079  32.968  21.211  1.00  0.00    -0.207 F 
ENDBRANCH  13  27
ENDBRANCH   4   6
ENDBRANCH   3   4
ENDBRANCH   2   3
ENDBRANCH   1   2
BRANCH   1  34
ATOM     34  O   UNL A   1      35.717  32.604  28.349  1.00  0.00    -0.374 OA
BRANCH  34  35
ATOM     35  C   UNL A   1      35.137  33.839  27.934  1.00  0.00     0.202 C 
BRANCH  35  36
ATOM     36  C   UNL A   1      33.638  34.028  28.213  1.00  0.00     0.261 C 
BRANCH  36  37
ATOM     37  O   UNL A   1      33.298  33.837  29.598  1.00  0.00    -0.460 OA
BRANCH  37  38
ATOM     38  C   UNL A   1      33.798  34.780  30.435  1.00  0.00     0.338 C 
ATOM     39  O   UNL A   1      33.369  35.907  30.614  1.00  0.00    -0.246 OA
BRANCH  38  40
ATOM     40  C   UNL A   1      34.866  34.206  31.276  1.00  0.00     0.060 A 
ATOM     41  C   UNL A   1      36.085  34.896  31.323  1.00  0.00     0.016 A 
ATOM     42  C   UNL A   1      34.724  32.973  31.915  1.00  0.00     0.016 A 
ATOM     43  C   UNL A   1      37.183  34.331  31.963  1.00  0.00     0.010 A 
ATOM     44  C   UNL A   1      35.834  32.402  32.551  1.00  0.00     0.010 A 
ATOM     45  C   UNL A   1      37.079  33.059  32.540  1.00  0.00    -0.014 A 
BRANCH  45  46
ATOM     46  C   UNL A   1      38.311  32.364  32.989  1.00  0.00     0.031 A 
ATOM     47  C   UNL A   1      38.890  31.273  32.127  1.00  0.00     0.074 A 
ATOM     48  C   UNL A   1      38.923  32.713  34.135  1.00  0.00     0.049 A 
ATOM     49  N   UNL A   1      39.957  30.544  32.322  1.00  0.00    -0.248 NA
ATOM     50  C   UNL A   1      38.171  30.966  30.879  1.00  0.00     0.031 C 
ATOM     51  C   UNL A   1      38.466  33.757  35.052  1.00  0.00     0.029 A 
ATOM     52  N   UNL A   1      40.052  32.210  34.731  1.00  0.00    -0.354 N 
ATOM     53  C   UNL A   1      40.023  29.673  31.241  1.00  0.00     0.074 A 
ATOM     54  C   UNL A   1      38.883  29.958  30.397  1.00  0.00     0.031 C 
ATOM     55  C   UNL A   1      39.294  33.799  36.109  1.00  0.00     0.029 A 
ATOM     56  C   UNL A   1      40.326  32.774  35.955  1.00  0.00     0.049 A 
ATOM     57  H   UNL A   1      40.613  31.512  34.322  1.00  0.00     0.167 HD
ATOM     58  C   UNL A   1      40.957  28.731  30.965  1.00  0.00     0.034 A 
ATOM     59  C   UNL A   1      41.287  32.482  36.854  1.00  0.00     0.034 A 
ATOM     60  C   UNL A   1      42.105  28.467  31.788  1.00  0.00     0.049 A 
ATOM     61  C   UNL A   1      42.301  31.415  36.533  1.00  0.00     0.074 A 
ATOM     62  C   UNL A   1      43.138  27.574  31.561  1.00  0.00     0.029 A 
ATOM     63  N   UNL A   1      42.370  29.084  33.000  1.00  0.00    -0.354 N 
ATOM     64  N   UNL A   1      42.424  30.692  35.446  1.00  0.00    -0.248 NA
ATOM     65  C   UNL A   1      43.330  31.145  37.549  1.00  0.00     0.031 C 
ATOM     66  C   UNL A   1      44.013  27.632  32.650  1.00  0.00     0.029 A 
ATOM     67  C   UNL A   1      43.539  28.579  33.543  1.00  0.00     0.049 A 
ATOM     68  H   UNL A   1      41.807  29.778  33.415  1.00  0.00     0.167 HD
ATOM     69  C   UNL A   1      43.561  29.912  35.631  1.00  0.00     0.074 A 
ATOM     70  C   UNL A   1      44.102  30.264  36.927  1.00  0.00     0.031 C 
ATOM     71  C   UNL A   1      44.100  28.979  34.808  1.00  0.00     0.034 A 
BRANCH  58  72
ATOM     72  C   UNL A   1      40.790  27.929  29.703  1.00  0.00     0.023 A 
ATOM     73  C   UNL A   1      39.759  26.972  29.616  1.00  0.00     0.012 A 
ATOM     74  C   UNL A   1      41.612  28.166  28.584  1.00  0.00     0.148 A 
ATOM     75  C   UNL A   1      39.565  26.245  28.441  1.00  0.00     0.002 A 
ATOM     76  C   UNL A   1      41.387  27.466  27.405  1.00  0.00     0.091 A 
ATOM     77  F   UNL A   1      42.602  29.062  28.697  1.00  0.00    -0.205 F 
ATOM     78  C   UNL A   1      40.370  26.499  27.334  1.00  0.00     0.022 A 
BRANCH  76  79
ATOM     79  S   UNL A   1      42.323  27.777  25.903  1.00  0.00     0.127 S 
ATOM     80  O   UNL A   1      41.742  26.796  24.987  1.00  0.00    -0.237 OA
ATOM     81  O   UNL A   1      41.980  29.168  25.606  1.00  0.00    -0.237 OA
ATOM     82  O   UNL A   1      43.720  27.558  26.250  1.00  0.00    -0.744 OA
ENDBRANCH  76  79
ENDBRANCH  58  72
BRANCH  59  83
ATOM     83  C   UNL A   1      41.357  33.236  38.139  1.00  0.00     0.023 A 
ATOM     84  C   UNL A   1      40.682  32.746  39.272  1.00  0.00     0.012 A 
ATOM     85  C   UNL A   1      42.102  34.426  38.245  1.00  0.00     0.148 A 
ATOM     86  C   UNL A   1      40.721  33.443  40.481  1.00  0.00     0.002 A 
ATOM     87  C   UNL A   1      42.184  35.085  39.465  1.00  0.00     0.091 A 
ATOM     88  F   UNL A   1      42.721  34.889  37.150  1.00  0.00    -0.205 F 
ATOM     89  C   UNL A   1      41.480  34.606  40.580  1.00  0.00     0.022 A 
BRANCH  87  90
ATOM     90  S   UNL A   1      43.246  36.513  39.713  1.00  0.00     0.127 S 
ATOM     91  O   UNL A   1      42.667  37.114  40.910  1.00  0.00    -0.237 OA
ATOM     92  O   UNL A   1      44.555  35.887  39.906  1.00  0.00    -0.237 OA
ATOM     93  O   UNL A   1      43.136  37.298  38.489  1.00  0.00    -0.744 OA
ENDBRANCH  87  90
ENDBRANCH  59  83
BRANCH  71  94
ATOM     94  C   UNL A   1      45.360  28.288  35.259  1.00  0.00     0.023 A 
ATOM     95  C   UNL A   1      46.614  28.863  34.972  1.00  0.00     0.012 A 
ATOM     96  C   UNL A   1      45.301  27.115  36.038  1.00  0.00     0.148 A 
ATOM     97  C   UNL A   1      47.790  28.266  35.428  1.00  0.00     0.002 A 
ATOM     98  C   UNL A   1      46.472  26.552  36.529  1.00  0.00     0.091 A 
ATOM     99  F   UNL A   1      44.099  26.573  36.286  1.00  0.00    -0.205 F 
ATOM    100  C   UNL A   1      47.718  27.119  36.215  1.00  0.00     0.022 A 
BRANCH  98 101
ATOM    101  S   UNL A   1      46.469  25.132  37.630  1.00  0.00     0.127 S 
ATOM    102  O   UNL A   1      45.653  25.619  38.742  1.00  0.00    -0.237 OA
ATOM    103  O   UNL A   1      45.830  24.103  36.810  1.00  0.00    -0.237 OA
ATOM    104  O   UNL A   1      47.866  24.869  37.947  1.00  0.00    -0.744 OA
ENDBRANCH  98 101
ENDBRANCH  71  94
ENDBRANCH  45  46
ENDBRANCH  38  40
ENDBRANCH  37  38
ENDBRANCH  36  37
ENDBRANCH  35  36
ENDBRANCH  34  35
ENDBRANCH   1  34
TORSDOF 23
ENDMDL
MODEL 2
REMARK VINA RESULT:      -9.7      5.539      8.821
REMARK SMILES COc1ccc(CCN2C(=O)C[C@@H](C(=O)OCCOCCOC(=O)c3ccc(-c4c5nc(c(-c6cccc(S(=O)(=O)[O-])c6F)c6ccc([nH]6)c(-c6cccc(S(=O)(=O)[O-])c6F)c6nc(c(-c7cccc(S(=O)(=O)[O-])c7F)c7ccc4[nH]7)C=C6)C=C5)cc3)S/C2=[NH+]\c2ccc(F)cc2)cc1OC
REMARK SMILES IDX 18 1 17 2 16 3 14 4 15 5 13 6 9 7 10 8 89 9 11 10 12 11
REMARK SMILES IDX 88 12 90 13 8 15 7 16 6 17 3 18 4 19 99 20 5 21 98 22 2 23
REMARK SMILES IDX 1 24 100 25 101 26 91 27 92 28 97 29 93 30 96 31 94 32 95 33
REMARK SMILES IDX 19 34 20 35 21 36 22 37 23 38 24 39 25 40 26 41 87 42 27 43
REMARK SMILES IDX 86 44 28 45 29 46 30 47 80 48 31 49 85 50 79 51 81 52 32 53
REMARK SMILES IDX 84 54 78 55 77 56 33 58 65 59 45 60 64 61 46 62 49 63 63 64
REMARK SMILES IDX 82 65 47 66 48 67 62 69 83 70 50 71 34 72 35 73 43 74 36 75
REMARK SMILES IDX 38 76 44 77 37 78 39 79 40 80 41 81 42 82 66 83 67 84 75 85
REMARK SMILES IDX 68 86 70 87 76 88 69 89 71 90 72 91 73 92 74 93 51 94 52 95
REMARK SMILES IDX 60 96 53 97 55 98 61 99 54 100 56 101 57 102 58 103 59 104
REMARK H PARENT 90 14 81 57 49 68
REMARK Flexibility Score: inf
ROOT
ATOM      1  C   UNL A   1      32.587  33.199  27.873  1.00  0.00     0.202 C 
ENDROOT
BRANCH   1   2
ATOM      2  C   UNL A   1      32.372  32.187  26.744  1.00  0.00     0.261 C 
BRANCH   2   3
ATOM      3  O   UNL A   1      32.138  30.865  27.267  1.00  0.00    -0.462 OA
BRANCH   3   4
ATOM      4  C   UNL A   1      33.137  29.952  27.118  1.00  0.00     0.320 C 
ATOM      5  O   UNL A   1      34.274  30.075  27.559  1.00  0.00    -0.251 OA
BRANCH   4   6
ATOM      6  C   UNL A   1      32.683  28.726  26.349  1.00  0.00     0.180 C 
ATOM      7  N   UNL A   1      32.389  26.505  24.517  1.00  0.00    -0.191 N 
ATOM      8  C   UNL A   1      33.338  26.504  25.549  1.00  0.00     0.311 C 
ATOM      9  C   UNL A   1      31.594  27.601  24.108  1.00  0.00     0.319 C 
ATOM     10  O   UNL A   1      33.771  25.494  26.099  1.00  0.00    -0.247 OA
ATOM     11  C   UNL A   1      33.842  27.828  26.041  1.00  0.00     0.155 C 
ATOM     12  S   UNL A   1      31.914  29.170  24.797  1.00  0.00    -0.022 SA
ATOM     13  N   UNL A   1      30.651  27.419  23.232  1.00  0.00    -0.235 N 
ATOM     14  H   UNL A   1      30.530  26.521  22.846  1.00  0.00     0.313 HD
BRANCH   7  15
ATOM     15  C   UNL A   1      32.202  25.275  23.717  1.00  0.00     0.251 C 
BRANCH  15  16
ATOM     16  C   UNL A   1      31.315  24.114  24.191  1.00  0.00     0.082 C 
BRANCH  16  17
ATOM     17  C   UNL A   1      31.933  22.734  24.263  1.00  0.00    -0.040 A 
ATOM     18  C   UNL A   1      33.048  20.173  24.600  1.00  0.00     0.160 A 
ATOM     19  C   UNL A   1      32.517  20.558  23.365  1.00  0.00     0.051 A 
ATOM     20  C   UNL A   1      33.072  21.074  25.668  1.00  0.00     0.160 A 
ATOM     21  C   UNL A   1      31.964  21.830  23.198  1.00  0.00     0.008 A 
ATOM     22  C   UNL A   1      32.485  22.333  25.493  1.00  0.00     0.054 A 
BRANCH  18  23
ATOM     23  O   UNL A   1      33.549  18.902  24.702  1.00  0.00    -0.493 OA
ATOM     24  C   UNL A   1      32.487  17.972  24.922  1.00  0.00     0.278 C 
ENDBRANCH  18  23
BRANCH  20  25
ATOM     25  O   UNL A   1      33.574  20.878  26.924  1.00  0.00    -0.493 OA
ATOM     26  C   UNL A   1      33.976  22.026  27.655  1.00  0.00     0.278 C 
ENDBRANCH  20  25
ENDBRANCH  16  17
ENDBRANCH  15  16
ENDBRANCH   7  15
BRANCH  13  27
ATOM     27  C   UNL A   1      29.800  28.454  22.814  1.00  0.00     0.125 A 
ATOM     28  C   UNL A   1      28.457  28.453  23.216  1.00  0.00     0.055 A 
ATOM     29  C   UNL A   1      30.254  29.458  21.952  1.00  0.00     0.055 A 
ATOM     30  C   UNL A   1      27.590  29.464  22.793  1.00  0.00     0.043 A 
ATOM     31  C   UNL A   1      29.391  30.474  21.533  1.00  0.00     0.043 A 
ATOM     32  C   UNL A   1      28.068  30.468  21.959  1.00  0.00     0.123 A 
ATOM     33  F   UNL A   1      27.238  31.440  21.558  1.00  0.00    -0.207 F 
ENDBRANCH  13  27
ENDBRANCH   4   6
ENDBRANCH   3   4
ENDBRANCH   2   3
ENDBRANCH   1   2
BRANCH   1  34
ATOM     34  O   UNL A   1      33.844  33.879  27.881  1.00  0.00    -0.374 OA
BRANCH  34  35
ATOM     35  C   UNL A   1      34.772  33.503  28.896  1.00  0.00     0.202 C 
BRANCH  35  36
ATOM     36  C   UNL A   1      34.557  34.111  30.290  1.00  0.00     0.261 C 
BRANCH  36  37
ATOM     37  O   UNL A   1      34.239  33.126  31.289  1.00  0.00    -0.460 OA
BRANCH  37  38
ATOM     38  C   UNL A   1      35.177  32.158  31.444  1.00  0.00     0.338 C 
ATOM     39  O   UNL A   1      35.454  31.269  30.657  1.00  0.00    -0.246 OA
BRANCH  38  40
ATOM     40  C   UNL A   1      35.983  32.414  32.653  1.00  0.00     0.060 A 
ATOM     41  C   UNL A   1      35.866  33.678  33.245  1.00  0.00     0.016 A 
ATOM     42  C   UNL A   1      36.910  31.488  33.135  1.00  0.00     0.016 A 
ATOM     43  C   UNL A   1      36.713  34.043  34.287  1.00  0.00     0.010 A 
ATOM     44  C   UNL A   1      37.768  31.861  34.178  1.00  0.00     0.010 A 
ATOM     45  C   UNL A   1      37.700  33.154  34.729  1.00  0.00    -0.014 A 
BRANCH  45  46
ATOM     46  C   UNL A   1      38.753  33.643  35.654  1.00  0.00     0.031 A 
ATOM     47  C   UNL A   1      38.590  33.416  37.134  1.00  0.00     0.074 A 
ATOM     48  C   UNL A   1      39.853  34.259  35.184  1.00  0.00     0.049 A 
ATOM     49  N   UNL A   1      39.386  33.751  38.114  1.00  0.00    -0.248 NA
ATOM     50  C   UNL A   1      37.367  32.718  37.564  1.00  0.00     0.031 C 
ATOM     51  C   UNL A   1      40.132  34.530  33.774  1.00  0.00     0.029 A 
ATOM     52  N   UNL A   1      40.933  34.785  35.849  1.00  0.00    -0.354 N 
ATOM     53  C   UNL A   1      38.751  33.333  39.278  1.00  0.00     0.074 A 
ATOM     54  C   UNL A   1      37.499  32.727  38.882  1.00  0.00     0.031 C 
ATOM     55  C   UNL A   1      41.295  35.197  33.682  1.00  0.00     0.029 A 
ATOM     56  C   UNL A   1      41.833  35.416  35.024  1.00  0.00     0.049 A 
ATOM     57  H   UNL A   1      41.052  34.715  36.824  1.00  0.00     0.167 HD
ATOM     58  C   UNL A   1      39.179  33.429  40.560  1.00  0.00     0.034 A 
ATOM     59  C   UNL A   1      42.951  36.108  35.320  1.00  0.00     0.034 A 
ATOM     60  C   UNL A   1      40.436  34.004  40.951  1.00  0.00     0.049 A 
ATOM     61  C   UNL A   1      43.394  36.218  36.756  1.00  0.00     0.074 A 
ATOM     62  C   UNL A   1      40.983  34.092  42.220  1.00  0.00     0.029 A 
ATOM     63  N   UNL A   1      41.339  34.600  40.085  1.00  0.00    -0.354 N 
ATOM     64  N   UNL A   1      42.848  35.702  37.831  1.00  0.00    -0.248 NA
ATOM     65  C   UNL A   1      44.625  36.979  37.019  1.00  0.00     0.031 C 
ATOM     66  C   UNL A   1      42.204  34.766  42.123  1.00  0.00     0.029 A 
ATOM     67  C   UNL A   1      42.430  35.074  40.792  1.00  0.00     0.049 A 
ATOM     68  H   UNL A   1      41.220  34.676  39.110  1.00  0.00     0.167 HD
ATOM     69  C   UNL A   1      43.686  36.042  38.888  1.00  0.00     0.074 A 
ATOM     70  C   UNL A   1      44.787  36.793  38.323  1.00  0.00     0.031 C 
ATOM     71  C   UNL A   1      43.549  35.770  40.209  1.00  0.00     0.034 A 
BRANCH  58  72
ATOM     72  C   UNL A   1      38.287  32.874  41.637  1.00  0.00     0.023 A 
ATOM     73  C   UNL A   1      38.404  31.520  42.011  1.00  0.00     0.012 A 
ATOM     74  C   UNL A   1      37.380  33.706  42.322  1.00  0.00     0.148 A 
ATOM     75  C   UNL A   1      37.612  30.996  43.033  1.00  0.00     0.002 A 
ATOM     76  C   UNL A   1      36.624  33.186  43.366  1.00  0.00     0.091 A 
ATOM     77  F   UNL A   1      37.267  34.984  41.935  1.00  0.00    -0.205 F 
ATOM     78  C   UNL A   1      36.731  31.830  43.717  1.00  0.00     0.022 A 
BRANCH  76  79
ATOM     79  S   UNL A   1      35.517  34.199  44.355  1.00  0.00     0.127 S 
ATOM     80  O   UNL A   1      34.367  34.335  43.463  1.00  0.00    -0.237 OA
ATOM     81  O   UNL A   1      35.285  33.352  45.525  1.00  0.00    -0.237 OA
ATOM     82  O   UNL A   1      36.243  35.431  44.633  1.00  0.00    -0.744 OA
ENDBRANCH  76  79
ENDBRANCH  58  72
BRANCH  59  83
ATOM     83  C   UNL A   1      43.755  36.728  34.228  1.00  0.00     0.023 A 
ATOM     84  C   UNL A   1      44.682  35.945  33.514  1.00  0.00     0.012 A 
ATOM     85  C   UNL A   1      43.594  38.084  33.886  1.00  0.00     0.148 A 
ATOM     86  C   UNL A   1      45.456  36.508  32.499  1.00  0.00     0.002 A 
ATOM     87  C   UNL A   1      44.327  38.625  32.837  1.00  0.00     0.091 A 
ATOM     88  F   UNL A   1      42.723  38.820  34.591  1.00  0.00    -0.205 F 
ATOM     89  C   UNL A   1      45.271  37.844  32.153  1.00  0.00     0.022 A 
BRANCH  87  90
ATOM     90  S   UNL A   1      44.054  40.298  32.240  1.00  0.00     0.127 S 
ATOM     91  O   UNL A   1      45.030  40.393  31.159  1.00  0.00    -0.237 OA
ATOM     92  O   UNL A   1      42.657  40.241  31.808  1.00  0.00    -0.237 OA
ATOM     93  O   UNL A   1      44.289  41.164  33.388  1.00  0.00    -0.744 OA
ENDBRANCH  87  90
ENDBRANCH  59  83
BRANCH  71  94
ATOM     94  C   UNL A   1      44.630  36.252  41.142  1.00  0.00     0.023 A 
ATOM     95  C   UNL A   1      45.750  35.437  41.397  1.00  0.00     0.012 A 
ATOM     96  C   UNL A   1      44.576  37.546  41.700  1.00  0.00     0.148 A 
ATOM     97  C   UNL A   1      46.785  35.889  42.215  1.00  0.00     0.002 A 
ATOM     98  C   UNL A   1      45.632  38.007  42.475  1.00  0.00     0.091 A 
ATOM     99  F   UNL A   1      43.493  38.300  41.461  1.00  0.00    -0.205 F 
ATOM    100  C   UNL A   1      46.732  37.176  42.744  1.00  0.00     0.022 A 
BRANCH  98 101
ATOM    101  S   UNL A   1      45.694  39.685  43.116  1.00  0.00     0.127 S 
ATOM    102  O   UNL A   1      47.066  40.077  42.796  1.00  0.00    -0.237 OA
ATOM    103  O   UNL A   1      44.666  40.360  42.323  1.00  0.00    -0.237 OA
ATOM    104  O   UNL A   1      45.387  39.582  44.536  1.00  0.00    -0.744 OA
ENDBRANCH  98 101
ENDBRANCH  71  94
ENDBRANCH  45  46
ENDBRANCH  38  40
ENDBRANCH  37  38
ENDBRANCH  36  37
ENDBRANCH  35  36
ENDBRANCH  34  35
ENDBRANCH   1  34
TORSDOF 23
ENDMDL
MODEL 3
REMARK VINA RESULT:      -9.7      5.089      8.251
REMARK SMILES COc1ccc(CCN2C(=O)C[C@@H](C(=O)OCCOCCOC(=O)c3ccc(-c4c5nc(c(-c6cccc(S(=O)(=O)[O-])c6F)c6ccc([nH]6)c(-c6cccc(S(=O)(=O)[O-])c6F)c6nc(c(-c7cccc(S(=O)(=O)[O-])c7F)c7ccc4[nH]7)C=C6)C=C5)cc3)S/C2=[NH+]\c2ccc(F)cc2)cc1OC
REMARK SMILES IDX 18 1 17 2 16 3 14 4 15 5 13 6 9 7 10 8 89 9 11 10 12 11
REMARK SMILES IDX 88 12 90 13 8 15 7 16 6 17 3 18 4 19 99 20 5 21 98 22 2 23
REMARK SMILES IDX 1 24 100 25 101 26 91 27 92 28 97 29 93 30 96 31 94 32 95 33
REMARK SMILES IDX 19 34 20 35 21 36 22 37 23 38 24 39 25 40 26 41 87 42 27 43
REMARK SMILES IDX 86 44 28 45 29 46 30 47 80 48 31 49 85 50 79 51 81 52 32 53
REMARK SMILES IDX 84 54 78 55 77 56 33 58 65 59 45 60 64 61 46 62 49 63 63 64
REMARK SMILES IDX 82 65 47 66 48 67 62 69 83 70 50 71 34 72 35 73 43 74 36 75
REMARK SMILES IDX 38 76 44 77 37 78 39 79 40 80 41 81 42 82 66 83 67 84 75 85
REMARK SMILES IDX 68 86 70 87 76 88 69 89 71 90 72 91 73 92 74 93 51 94 52 95
REMARK SMILES IDX 60 96 53 97 55 98 61 99 54 100 56 101 57 102 58 103 59 104
REMARK H PARENT 90 14 81 57 49 68
REMARK Flexibility Score: inf
ROOT
ATOM      1  C   UNL A   1      32.670  32.952  27.537  1.00  0.00     0.202 C 
ENDROOT
BRANCH   1   2
ATOM      2  C   UNL A   1      32.209  31.761  26.691  1.00  0.00     0.261 C 
BRANCH   2   3
ATOM      3  O   UNL A   1      32.399  30.518  27.394  1.00  0.00    -0.462 OA
BRANCH   3   4
ATOM      4  C   UNL A   1      33.398  29.702  26.956  1.00  0.00     0.320 C 
ATOM      5  O   UNL A   1      34.596  29.922  27.090  1.00  0.00    -0.251 OA
BRANCH   4   6
ATOM      6  C   UNL A   1      32.863  28.452  26.286  1.00  0.00     0.180 C 
ATOM      7  N   UNL A   1      32.399  26.138  24.609  1.00  0.00    -0.191 N 
ATOM      8  C   UNL A   1      33.396  26.162  25.593  1.00  0.00     0.311 C 
ATOM      9  C   UNL A   1      31.623  27.238  24.172  1.00  0.00     0.319 C 
ATOM     10  O   UNL A   1      33.820  25.170  26.182  1.00  0.00    -0.247 OA
ATOM     11  C   UNL A   1      33.971  27.493  25.978  1.00  0.00     0.155 C 
ATOM     12  S   UNL A   1      32.033  28.831  24.747  1.00  0.00    -0.022 SA
ATOM     13  N   UNL A   1      30.632  27.041  23.354  1.00  0.00    -0.235 N 
ATOM     14  H   UNL A   1      30.460  26.126  23.030  1.00  0.00     0.313 HD
BRANCH   7  15
ATOM     15  C   UNL A   1      32.128  24.871  23.895  1.00  0.00     0.251 C 
BRANCH  15  16
ATOM     16  C   UNL A   1      31.571  23.630  24.608  1.00  0.00     0.082 C 
BRANCH  16  17
ATOM     17  C   UNL A   1      32.421  22.378  24.620  1.00  0.00    -0.040 A 
ATOM     18  C   UNL A   1      34.161  20.168  24.691  1.00  0.00     0.160 A 
ATOM     19  C   UNL A   1      32.787  19.994  24.887  1.00  0.00     0.051 A 
ATOM     20  C   UNL A   1      34.678  21.436  24.412  1.00  0.00     0.160 A 
ATOM     21  C   UNL A   1      31.924  21.092  24.852  1.00  0.00     0.008 A 
ATOM     22  C   UNL A   1      33.803  22.528  24.411  1.00  0.00     0.054 A 
BRANCH  18  23
ATOM     23  O   UNL A   1      34.954  19.054  24.767  1.00  0.00    -0.493 OA
ATOM     24  C   UNL A   1      34.223  17.901  24.344  1.00  0.00     0.278 C 
ENDBRANCH  18  23
BRANCH  20  25
ATOM     25  O   UNL A   1      35.978  21.780  24.168  1.00  0.00    -0.493 OA
ATOM     26  C   UNL A   1      36.244  23.130  23.817  1.00  0.00     0.278 C 
ENDBRANCH  20  25
ENDBRANCH  16  17
ENDBRANCH  15  16
ENDBRANCH   7  15
BRANCH  13  27
ATOM     27  C   UNL A   1      29.799  28.081  22.914  1.00  0.00     0.125 A 
ATOM     28  C   UNL A   1      30.333  29.113  22.132  1.00  0.00     0.055 A 
ATOM     29  C   UNL A   1      28.453  28.137  23.294  1.00  0.00     0.055 A 
ATOM     30  C   UNL A   1      29.522  30.167  21.701  1.00  0.00     0.043 A 
ATOM     31  C   UNL A   1      27.639  29.186  22.860  1.00  0.00     0.043 A 
ATOM     32  C   UNL A   1      28.181  30.191  22.066  1.00  0.00     0.123 A 
ATOM     33  F   UNL A   1      27.404  31.198  21.650  1.00  0.00    -0.207 F 
ENDBRANCH  13  27
ENDBRANCH   4   6
ENDBRANCH   3   4
ENDBRANCH   2   3
ENDBRANCH   1   2
BRANCH   1  34
ATOM     34  O   UNL A   1      34.029  32.925  27.979  1.00  0.00    -0.374 OA
BRANCH  34  35
ATOM     35  C   UNL A   1      34.247  32.919  29.388  1.00  0.00     0.202 C 
BRANCH  35  36
ATOM     36  C   UNL A   1      35.370  32.011  29.910  1.00  0.00     0.261 C 
BRANCH  36  37
ATOM     37  O   UNL A   1      35.800  32.359  31.239  1.00  0.00    -0.460 OA
BRANCH  37  38
ATOM     38  C   UNL A   1      36.133  31.300  32.018  1.00  0.00     0.338 C 
ATOM     39  O   UNL A   1      36.121  30.122  31.703  1.00  0.00    -0.246 OA
BRANCH  38  40
ATOM     40  C   UNL A   1      36.704  31.763  33.298  1.00  0.00     0.060 A 
ATOM     41  C   UNL A   1      36.240  32.985  33.800  1.00  0.00     0.016 A 
ATOM     42  C   UNL A   1      37.741  31.081  33.936  1.00  0.00     0.016 A 
ATOM     43  C   UNL A   1      36.848  33.559  34.913  1.00  0.00     0.010 A 
ATOM     44  C   UNL A   1      38.358  31.665  35.050  1.00  0.00     0.010 A 
ATOM     45  C   UNL A   1      37.941  32.926  35.517  1.00  0.00    -0.014 A 
BRANCH  45  46
ATOM     46  C   UNL A   1      38.736  33.663  36.530  1.00  0.00     0.031 A 
ATOM     47  C   UNL A   1      39.881  34.527  36.074  1.00  0.00     0.074 A 
ATOM     48  C   UNL A   1      38.429  33.586  37.838  1.00  0.00     0.049 A 
ATOM     49  N   UNL A   1      40.698  35.260  36.784  1.00  0.00    -0.248 NA
ATOM     50  C   UNL A   1      40.139  34.572  34.625  1.00  0.00     0.031 C 
ATOM     51  C   UNL A   1      37.340  32.791  38.405  1.00  0.00     0.029 A 
ATOM     52  N   UNL A   1      39.022  34.173  38.929  1.00  0.00    -0.354 N 
ATOM     53  C   UNL A   1      41.583  35.830  35.876  1.00  0.00     0.074 A 
ATOM     54  C   UNL A   1      41.210  35.351  34.564  1.00  0.00     0.031 C 
ATOM     55  C   UNL A   1      37.359  32.919  39.742  1.00  0.00     0.029 A 
ATOM     56  C   UNL A   1      38.471  33.787  40.128  1.00  0.00     0.049 A 
ATOM     57  H   UNL A   1      39.770  34.809  38.859  1.00  0.00     0.167 HD
ATOM     58  C   UNL A   1      42.605  36.687  36.111  1.00  0.00     0.034 A 
ATOM     59  C   UNL A   1      38.836  34.085  41.391  1.00  0.00     0.034 A 
ATOM     60  C   UNL A   1      42.959  37.186  37.411  1.00  0.00     0.049 A 
ATOM     61  C   UNL A   1      39.990  35.025  41.625  1.00  0.00     0.074 A 
ATOM     62  C   UNL A   1      43.940  38.105  37.741  1.00  0.00     0.029 A 
ATOM     63  N   UNL A   1      42.355  36.803  38.598  1.00  0.00    -0.354 N 
ATOM     64  N   UNL A   1      40.732  35.658  40.748  1.00  0.00    -0.248 NA
ATOM     65  C   UNL A   1      40.337  35.320  43.024  1.00  0.00     0.031 C 
ATOM     66  C   UNL A   1      43.947  38.257  39.131  1.00  0.00     0.029 A 
ATOM     67  C   UNL A   1      42.953  37.453  39.664  1.00  0.00     0.049 A 
ATOM     68  H   UNL A   1      41.610  36.163  38.672  1.00  0.00     0.167 HD
ATOM     69  C   UNL A   1      41.605  36.450  41.485  1.00  0.00     0.074 A 
ATOM     70  C   UNL A   1      41.288  36.234  42.881  1.00  0.00     0.031 C 
ATOM     71  C   UNL A   1      42.590  37.272  41.047  1.00  0.00     0.034 A 
BRANCH  58  72
ATOM     72  C   UNL A   1      43.403  37.164  34.927  1.00  0.00     0.023 A 
ATOM     73  C   UNL A   1      43.026  38.349  34.263  1.00  0.00     0.012 A 
ATOM     74  C   UNL A   1      44.560  36.476  34.513  1.00  0.00     0.148 A 
ATOM     75  C   UNL A   1      43.774  38.826  33.187  1.00  0.00     0.002 A 
ATOM     76  C   UNL A   1      45.323  36.981  33.467  1.00  0.00     0.091 A 
ATOM     77  F   UNL A   1      44.887  35.339  35.143  1.00  0.00    -0.205 F 
ATOM     78  C   UNL A   1      44.927  38.150  32.797  1.00  0.00     0.022 A 
BRANCH  76  79
ATOM     79  S   UNL A   1      46.864  36.221  32.940  1.00  0.00     0.127 S 
ATOM     80  O   UNL A   1      47.617  36.186  34.193  1.00  0.00    -0.237 OA
ATOM     81  O   UNL A   1      46.417  34.914  32.460  1.00  0.00    -0.237 OA
ATOM     82  O   UNL A   1      47.407  37.093  31.908  1.00  0.00    -0.744 OA
ENDBRANCH  76  79
ENDBRANCH  58  72
BRANCH  59  83
ATOM     83  C   UNL A   1      38.078  33.512  42.540  1.00  0.00     0.023 A 
ATOM     84  C   UNL A   1      36.949  34.189  43.037  1.00  0.00     0.012 A 
ATOM     85  C   UNL A   1      38.463  32.293  43.130  1.00  0.00     0.148 A 
ATOM     86  C   UNL A   1      36.233  33.678  44.122  1.00  0.00     0.002 A 
ATOM     87  C   UNL A   1      37.715  31.762  44.173  1.00  0.00     0.091 A 
ATOM     88  F   UNL A   1      39.554  31.674  42.658  1.00  0.00    -0.205 F 
ATOM     89  C   UNL A   1      36.610  32.460  44.682  1.00  0.00     0.022 A 
BRANCH  87  90
ATOM     90  S   UNL A   1      38.050  30.136  44.862  1.00  0.00     0.127 S 
ATOM     91  O   UNL A   1      36.950  29.979  45.809  1.00  0.00    -0.237 OA
ATOM     92  O   UNL A   1      37.973  29.282  43.676  1.00  0.00    -0.237 OA
ATOM     93  O   UNL A   1      39.383  30.228  45.445  1.00  0.00    -0.744 OA
ENDBRANCH  87  90
ENDBRANCH  59  83
BRANCH  71  94
ATOM     94  C   UNL A   1      43.383  38.033  42.078  1.00  0.00     0.023 A 
ATOM     95  C   UNL A   1      44.571  37.480  42.595  1.00  0.00     0.012 A 
ATOM     96  C   UNL A   1      42.995  39.329  42.473  1.00  0.00     0.148 A 
ATOM     97  C   UNL A   1      45.346  38.193  43.510  1.00  0.00     0.002 A 
ATOM     98  C   UNL A   1      43.797  40.052  43.347  1.00  0.00     0.091 A 
ATOM     99  F   UNL A   1      41.852  39.831  41.984  1.00  0.00    -0.205 F 
ATOM    100  C   UNL A   1      44.966  39.482  43.876  1.00  0.00     0.022 A 
BRANCH  98 101
ATOM    101  S   UNL A   1      43.435  41.754  43.799  1.00  0.00     0.127 S 
ATOM    102  O   UNL A   1      43.852  42.476  42.598  1.00  0.00    -0.237 OA
ATOM    103  O   UNL A   1      41.989  41.718  44.018  1.00  0.00    -0.237 OA
ATOM    104  O   UNL A   1      44.219  42.025  44.996  1.00  0.00    -0.744 OA
ENDBRANCH  98 101
ENDBRANCH  71  94
ENDBRANCH  45  46
ENDBRANCH  38  40
ENDBRANCH  37  38
ENDBRANCH  36  37
ENDBRANCH  35  36
ENDBRANCH  34  35
ENDBRANCH   1  34
TORSDOF 23
ENDMDL
