MODEL 1
REMARK VINA RESULT:     -10.8      0.000      0.000
REMARK SMILES C[C@@H](CCO)Sc1cc(C(=O)OCCOCCOC(=O)c2ccc(-c3c4nc(c(-c5cccc(S(=O)(=O)[O-])c5F)c5ccc([nH]5)c(-c5cccc(S(=O)(=O)[O-])c5F)c5nc(c(-c6cccc(S(=O)(=O)[O-])c6F)c6ccc3[nH]6)C=C5)C=C4)cc2)c2ccccc2n1
REMARK SMILES IDX 14 1 13 2 12 3 10 4 11 5 9 6 7 7 8 8 90 9 89 10 84 11 88 12
REMARK SMILES IDX 85 13 87 14 86 15 6 16 2 17 1 18 3 19 4 20 5 21 15 23 16 24
REMARK SMILES IDX 17 25 18 26 19 27 20 28 21 29 22 30 83 31 23 32 82 33 24 34
REMARK SMILES IDX 25 35 26 36 76 37 27 38 81 39 75 40 77 41 28 42 80 43 74 44
REMARK SMILES IDX 73 45 29 47 61 48 41 49 60 50 42 51 45 52 59 53 78 54 43 55
REMARK SMILES IDX 44 56 58 58 79 59 46 60 30 61 31 62 39 63 32 64 34 65 40 66
REMARK SMILES IDX 33 67 35 68 36 69 37 70 38 71 62 72 63 73 71 74 64 75 66 76
REMARK SMILES IDX 72 77 65 78 67 79 68 80 69 81 70 82 47 83 48 84 56 85 49 86
REMARK SMILES IDX 51 87 57 88 50 89 52 90 53 91 54 92 55 93
REMARK H PARENT 5 22 77 46 45 57
REMARK Flexibility Score: inf
ROOT
ATOM      1  C   UNL A   1      33.626  22.945  24.450  1.00  0.00     0.202 C 
ENDROOT
BRANCH   1   2
ATOM      2  C   UNL A   1      32.675  24.007  25.005  1.00  0.00     0.261 C 
BRANCH   2   3
ATOM      3  O   UNL A   1      32.033  24.701  23.922  1.00  0.00    -0.460 OA
BRANCH   3   4
ATOM      4  C   UNL A   1      32.686  25.784  23.450  1.00  0.00     0.338 C 
ATOM      5  O   UNL A   1      33.539  25.800  22.572  1.00  0.00    -0.246 OA
BRANCH   4   6
ATOM      6  C   UNL A   1      32.063  27.023  23.962  1.00  0.00     0.072 A 
ATOM      7  C   UNL A   1      30.197  28.500  23.739  1.00  0.00     0.098 A 
ATOM      8  C   UNL A   1      30.836  27.341  23.365  1.00  0.00     0.052 A 
ATOM      9  N   UNL A   1      30.714  29.327  24.661  1.00  0.00    -0.241 NA
ATOM     10  C   UNL A   1      31.882  29.019  25.258  1.00  0.00     0.072 A 
ATOM     11  C   UNL A   1      32.623  27.860  24.952  1.00  0.00     0.015 A 
ATOM     12  C   UNL A   1      32.387  29.919  26.187  1.00  0.00     0.029 A 
ATOM     13  C   UNL A   1      33.856  27.649  25.622  1.00  0.00     0.011 A 
ATOM     14  C   UNL A   1      33.605  29.709  26.833  1.00  0.00     0.002 A 
ATOM     15  C   UNL A   1      34.338  28.566  26.556  1.00  0.00     0.001 A 
BRANCH   7  16
ATOM     16  S   UNL A   1      28.677  28.922  22.919  1.00  0.00    -0.103 SA
BRANCH  16  17
ATOM     17  C   UNL A   1      28.920  30.600  22.194  1.00  0.00     0.052 C 
ATOM     18  C   UNL A   1      28.154  30.837  20.895  1.00  0.00     0.020 C 
BRANCH  17  19
ATOM     19  C   UNL A   1      28.930  31.792  23.172  1.00  0.00     0.043 C 
BRANCH  19  20
ATOM     20  C   UNL A   1      28.608  33.180  22.637  1.00  0.00     0.157 C 
BRANCH  20  21
ATOM     21  O   UNL A   1      29.314  34.171  23.365  1.00  0.00    -0.396 OA
ATOM     22  H   UNL A   1      28.800  34.993  23.375  1.00  0.00     0.210 HD
ENDBRANCH  20  21
ENDBRANCH  19  20
ENDBRANCH  17  19
ENDBRANCH  16  17
ENDBRANCH   7  16
ENDBRANCH   4   6
ENDBRANCH   3   4
ENDBRANCH   2   3
ENDBRANCH   1   2
BRANCH   1  23
ATOM     23  O   UNL A   1      34.152  22.018  25.403  1.00  0.00    -0.374 OA
BRANCH  23  24
ATOM     24  C   UNL A   1      35.511  22.189  25.805  1.00  0.00     0.202 C 
BRANCH  24  25
ATOM     25  C   UNL A   1      36.497  21.082  25.409  1.00  0.00     0.261 C 
BRANCH  25  26
ATOM     26  O   UNL A   1      37.773  21.595  24.993  1.00  0.00    -0.460 OA
BRANCH  26  27
ATOM     27  C   UNL A   1      38.798  21.305  25.830  1.00  0.00     0.338 C 
ATOM     28  O   UNL A   1      39.362  20.226  25.960  1.00  0.00    -0.246 OA
BRANCH  27  29
ATOM     29  C   UNL A   1      39.295  22.537  26.466  1.00  0.00     0.060 A 
ATOM     30  C   UNL A   1      38.619  23.730  26.184  1.00  0.00     0.016 A 
ATOM     31  C   UNL A   1      40.441  22.541  27.264  1.00  0.00     0.016 A 
ATOM     32  C   UNL A   1      39.111  24.941  26.663  1.00  0.00     0.010 A 
ATOM     33  C   UNL A   1      40.939  23.760  27.736  1.00  0.00     0.010 A 
ATOM     34  C   UNL A   1      40.296  24.968  27.409  1.00  0.00    -0.014 A 
BRANCH  34  35
ATOM     35  C   UNL A   1      40.924  26.270  27.738  1.00  0.00     0.031 A 
ATOM     36  C   UNL A   1      42.337  26.536  27.293  1.00  0.00     0.074 A 
ATOM     37  C   UNL A   1      40.242  27.207  28.420  1.00  0.00     0.049 A 
ATOM     38  N   UNL A   1      43.078  27.596  27.485  1.00  0.00    -0.248 NA
ATOM     39  C   UNL A   1      43.002  25.466  26.533  1.00  0.00     0.031 C 
ATOM     40  C   UNL A   1      38.870  27.065  28.904  1.00  0.00     0.029 A 
ATOM     41  N   UNL A   1      40.624  28.455  28.845  1.00  0.00    -0.354 N 
ATOM     42  C   UNL A   1      44.304  27.314  26.895  1.00  0.00     0.074 A 
ATOM     43  C   UNL A   1      44.212  25.976  26.349  1.00  0.00     0.031 C 
ATOM     44  C   UNL A   1      38.533  28.175  29.584  1.00  0.00     0.029 A 
ATOM     45  C   UNL A   1      39.671  29.092  29.604  1.00  0.00     0.049 A 
ATOM     46  H   UNL A   1      41.497  28.855  28.627  1.00  0.00     0.167 HD
ATOM     47  C   UNL A   1      45.401  28.101  26.801  1.00  0.00     0.034 A 
ATOM     48  C   UNL A   1      39.720  30.270  30.256  1.00  0.00     0.034 A 
ATOM     49  C   UNL A   1      45.483  29.438  27.324  1.00  0.00     0.049 A 
ATOM     50  C   UNL A   1      40.962  31.116  30.157  1.00  0.00     0.074 A 
ATOM     51  C   UNL A   1      46.532  30.335  27.229  1.00  0.00     0.029 A 
ATOM     52  N   UNL A   1      44.486  30.064  28.055  1.00  0.00    -0.354 N 
ATOM     53  N   UNL A   1      42.066  30.889  29.486  1.00  0.00    -0.248 NA
ATOM     54  C   UNL A   1      40.954  32.397  30.879  1.00  0.00     0.031 C 
ATOM     55  C   UNL A   1      46.180  31.495  27.927  1.00  0.00     0.029 A 
ATOM     56  C   UNL A   1      44.900  31.330  28.433  1.00  0.00     0.049 A 
ATOM     57  H   UNL A   1      43.612  29.667  28.273  1.00  0.00     0.167 HD
ATOM     58  C   UNL A   1      42.868  32.009  29.678  1.00  0.00     0.074 A 
ATOM     59  C   UNL A   1      42.115  32.923  30.510  1.00  0.00     0.031 C 
ATOM     60  C   UNL A   1      44.122  32.252  29.221  1.00  0.00     0.034 A 
BRANCH  47  61
ATOM     61  C   UNL A   1      46.600  27.544  26.079  1.00  0.00     0.023 A 
ATOM     62  C   UNL A   1      46.751  27.776  24.697  1.00  0.00     0.012 A 
ATOM     63  C   UNL A   1      47.603  26.843  26.777  1.00  0.00     0.148 A 
ATOM     64  C   UNL A   1      47.867  27.293  24.014  1.00  0.00     0.002 A 
ATOM     65  C   UNL A   1      48.733  26.402  26.098  1.00  0.00     0.091 A 
ATOM     66  F   UNL A   1      47.429  26.614  28.086  1.00  0.00    -0.205 F 
ATOM     67  C   UNL A   1      48.861  26.616  24.716  1.00  0.00     0.022 A 
BRANCH  65  68
ATOM     68  S   UNL A   1      50.102  25.586  26.925  1.00  0.00     0.127 S 
ATOM     69  O   UNL A   1      51.038  25.389  25.821  1.00  0.00    -0.237 OA
ATOM     70  O   UNL A   1      50.515  26.591  27.903  1.00  0.00    -0.237 OA
ATOM     71  O   UNL A   1      49.552  24.367  27.503  1.00  0.00    -0.744 OA
ENDBRANCH  65  68
ENDBRANCH  47  61
BRANCH  48  72
ATOM     72  C   UNL A   1      38.542  30.733  31.041  1.00  0.00     0.023 A 
ATOM     73  C   UNL A   1      38.495  30.503  32.430  1.00  0.00     0.012 A 
ATOM     74  C   UNL A   1      37.477  31.416  30.422  1.00  0.00     0.148 A 
ATOM     75  C   UNL A   1      37.395  30.918  33.182  1.00  0.00     0.002 A 
ATOM     76  C   UNL A   1      36.411  31.877  31.185  1.00  0.00     0.091 A 
ATOM     77  F   UNL A   1      37.531  31.608  29.096  1.00  0.00    -0.205 F 
ATOM     78  C   UNL A   1      36.360  31.614  32.563  1.00  0.00     0.022 A 
BRANCH  76  79
ATOM     79  S   UNL A   1      35.104  32.895  30.493  1.00  0.00     0.127 S 
ATOM     80  O   UNL A   1      34.557  32.020  29.461  1.00  0.00    -0.237 OA
ATOM     81  O   UNL A   1      34.235  33.100  31.653  1.00  0.00    -0.237 OA
ATOM     82  O   UNL A   1      35.760  34.106  30.017  1.00  0.00    -0.744 OA
ENDBRANCH  76  79
ENDBRANCH  48  72
BRANCH  60  83
ATOM     83  C   UNL A   1      44.757  33.570  29.583  1.00  0.00     0.023 A 
ATOM     84  C   UNL A   1      45.572  33.662  30.729  1.00  0.00     0.012 A 
ATOM     85  C   UNL A   1      44.612  34.695  28.747  1.00  0.00     0.148 A 
ATOM     86  C   UNL A   1      46.205  34.861  31.054  1.00  0.00     0.002 A 
ATOM     87  C   UNL A   1      45.285  35.872  29.050  1.00  0.00     0.091 A 
ATOM     88  F   UNL A   1      43.820  34.592  27.669  1.00  0.00    -0.205 F 
ATOM     89  C   UNL A   1      46.072  35.961  30.210  1.00  0.00     0.022 A 
BRANCH  87  90
ATOM     90  S   UNL A   1      45.249  37.309  27.972  1.00  0.00     0.127 S 
ATOM     91  O   UNL A   1      45.533  38.393  28.911  1.00  0.00    -0.237 OA
ATOM     92  O   UNL A   1      46.332  37.018  27.031  1.00  0.00    -0.237 OA
ATOM     93  O   UNL A   1      43.921  37.330  27.375  1.00  0.00    -0.744 OA
ENDBRANCH  87  90
ENDBRANCH  60  83
ENDBRANCH  34  35
ENDBRANCH  27  29
ENDBRANCH  26  27
ENDBRANCH  25  26
ENDBRANCH  24  25
ENDBRANCH  23  24
ENDBRANCH   1  23
TORSDOF 22
ENDMDL
MODEL 2
REMARK VINA RESULT:     -10.6      4.674     10.242
REMARK SMILES C[C@@H](CCO)Sc1cc(C(=O)OCCOCCOC(=O)c2ccc(-c3c4nc(c(-c5cccc(S(=O)(=O)[O-])c5F)c5ccc([nH]5)c(-c5cccc(S(=O)(=O)[O-])c5F)c5nc(c(-c6cccc(S(=O)(=O)[O-])c6F)c6ccc3[nH]6)C=C5)C=C4)cc2)c2ccccc2n1
REMARK SMILES IDX 14 1 13 2 12 3 10 4 11 5 9 6 7 7 8 8 90 9 89 10 84 11 88 12
REMARK SMILES IDX 85 13 87 14 86 15 6 16 2 17 1 18 3 19 4 20 5 21 15 23 16 24
REMARK SMILES IDX 17 25 18 26 19 27 20 28 21 29 22 30 83 31 23 32 82 33 24 34
REMARK SMILES IDX 25 35 26 36 76 37 27 38 81 39 75 40 77 41 28 42 80 43 74 44
REMARK SMILES IDX 73 45 29 47 61 48 41 49 60 50 42 51 45 52 59 53 78 54 43 55
REMARK SMILES IDX 44 56 58 58 79 59 46 60 30 61 31 62 39 63 32 64 34 65 40 66
REMARK SMILES IDX 33 67 35 68 36 69 37 70 38 71 62 72 63 73 71 74 64 75 66 76
REMARK SMILES IDX 72 77 65 78 67 79 68 80 69 81 70 82 47 83 48 84 56 85 49 86
REMARK SMILES IDX 51 87 57 88 50 89 52 90 53 91 54 92 55 93
REMARK H PARENT 5 22 77 46 45 57
REMARK Flexibility Score: inf
ROOT
ATOM      1  C   UNL A   1      31.863  26.571  25.254  1.00  0.00     0.202 C 
ENDROOT
BRANCH   1   2
ATOM      2  C   UNL A   1      30.971  25.544  25.952  1.00  0.00     0.261 C 
BRANCH   2   3
ATOM      3  O   UNL A   1      31.247  24.228  25.442  1.00  0.00    -0.460 OA
BRANCH   3   4
ATOM      4  C   UNL A   1      31.826  23.372  26.310  1.00  0.00     0.338 C 
ATOM      5  O   UNL A   1      31.481  23.156  27.465  1.00  0.00    -0.246 OA
BRANCH   4   6
ATOM      6  C   UNL A   1      32.808  22.518  25.610  1.00  0.00     0.072 A 
ATOM      7  C   UNL A   1      33.140  20.409  24.535  1.00  0.00     0.098 A 
ATOM      8  C   UNL A   1      32.294  21.297  25.158  1.00  0.00     0.052 A 
ATOM      9  N   UNL A   1      34.440  20.686  24.345  1.00  0.00    -0.241 NA
ATOM     10  C   UNL A   1      34.940  21.867  24.756  1.00  0.00     0.072 A 
ATOM     11  C   UNL A   1      34.167  22.850  25.405  1.00  0.00     0.015 A 
ATOM     12  C   UNL A   1      36.296  22.095  24.557  1.00  0.00     0.029 A 
ATOM     13  C   UNL A   1      34.804  24.048  25.820  1.00  0.00     0.011 A 
ATOM     14  C   UNL A   1      36.917  23.271  24.979  1.00  0.00     0.002 A 
ATOM     15  C   UNL A   1      36.166  24.254  25.605  1.00  0.00     0.001 A 
BRANCH   7  16
ATOM     16  S   UNL A   1      32.483  18.835  24.033  1.00  0.00    -0.103 SA
BRANCH  16  17
ATOM     17  C   UNL A   1      33.321  17.562  25.071  1.00  0.00     0.052 C 
ATOM     18  C   UNL A   1      32.365  16.597  25.768  1.00  0.00     0.020 C 
BRANCH  17  19
ATOM     19  C   UNL A   1      34.596  16.915  24.495  1.00  0.00     0.043 C 
BRANCH  19  20
ATOM     20  C   UNL A   1      35.249  15.775  25.263  1.00  0.00     0.157 C 
BRANCH  20  21
ATOM     21  O   UNL A   1      36.347  16.250  26.025  1.00  0.00    -0.396 OA
ATOM     22  H   UNL A   1      36.317  15.862  26.913  1.00  0.00     0.210 HD
ENDBRANCH  20  21
ENDBRANCH  19  20
ENDBRANCH  17  19
ENDBRANCH  16  17
ENDBRANCH   7  16
ENDBRANCH   4   6
ENDBRANCH   3   4
ENDBRANCH   2   3
ENDBRANCH   1   2
BRANCH   1  23
ATOM     23  O   UNL A   1      31.300  27.874  25.083  1.00  0.00    -0.374 OA
BRANCH  23  24
ATOM     24  C   UNL A   1      32.133  28.994  25.384  1.00  0.00     0.202 C 
BRANCH  24  25
ATOM     25  C   UNL A   1      32.444  29.251  26.864  1.00  0.00     0.261 C 
BRANCH  25  26
ATOM     26  O   UNL A   1      33.843  29.134  27.168  1.00  0.00    -0.460 OA
BRANCH  26  27
ATOM     27  C   UNL A   1      34.441  30.294  27.533  1.00  0.00     0.338 C 
ATOM     28  O   UNL A   1      33.963  31.420  27.478  1.00  0.00    -0.246 OA
BRANCH  27  29
ATOM     29  C   UNL A   1      35.725  30.013  28.198  1.00  0.00     0.060 A 
ATOM     30  C   UNL A   1      36.895  30.197  27.450  1.00  0.00     0.016 A 
ATOM     31  C   UNL A   1      35.786  29.512  29.500  1.00  0.00     0.016 A 
ATOM     32  C   UNL A   1      38.129  29.837  27.985  1.00  0.00     0.010 A 
ATOM     33  C   UNL A   1      37.026  29.143  30.031  1.00  0.00     0.010 A 
ATOM     34  C   UNL A   1      38.198  29.272  29.264  1.00  0.00    -0.014 A 
BRANCH  34  35
ATOM     35  C   UNL A   1      39.480  28.702  29.744  1.00  0.00     0.031 A 
ATOM     36  C   UNL A   1      40.159  29.324  30.934  1.00  0.00     0.074 A 
ATOM     37  C   UNL A   1      40.030  27.640  29.131  1.00  0.00     0.049 A 
ATOM     38  N   UNL A   1      41.286  28.995  31.508  1.00  0.00    -0.248 NA
ATOM     39  C   UNL A   1      39.478  30.470  31.559  1.00  0.00     0.031 C 
ATOM     40  C   UNL A   1      39.467  26.952  27.970  1.00  0.00     0.029 A 
ATOM     41  N   UNL A   1      41.200  26.970  29.386  1.00  0.00    -0.354 N 
ATOM     42  C   UNL A   1      41.466  29.905  32.542  1.00  0.00     0.074 A 
ATOM     43  C   UNL A   1      40.337  30.810  32.510  1.00  0.00     0.031 C 
ATOM     44  C   UNL A   1      40.307  25.972  27.597  1.00  0.00     0.029 A 
ATOM     45  C   UNL A   1      41.476  25.979  28.475  1.00  0.00     0.049 A 
ATOM     46  H   UNL A   1      41.786  27.180  30.149  1.00  0.00     0.167 HD
ATOM     47  C   UNL A   1      42.470  29.973  33.448  1.00  0.00     0.034 A 
ATOM     48  C   UNL A   1      42.557  25.183  28.352  1.00  0.00     0.034 A 
ATOM     49  C   UNL A   1      43.580  29.059  33.493  1.00  0.00     0.049 A 
ATOM     50  C   UNL A   1      43.673  25.295  29.357  1.00  0.00     0.074 A 
ATOM     51  C   UNL A   1      44.617  29.011  34.407  1.00  0.00     0.029 A 
ATOM     52  N   UNL A   1      43.807  28.044  32.577  1.00  0.00    -0.354 N 
ATOM     53  N   UNL A   1      43.764  26.076  30.407  1.00  0.00    -0.248 NA
ATOM     54  C   UNL A   1      44.821  24.393  29.180  1.00  0.00     0.031 C 
ATOM     55  C   UNL A   1      45.488  27.985  34.027  1.00  0.00     0.029 A 
ATOM     56  C   UNL A   1      44.977  27.375  32.892  1.00  0.00     0.049 A 
ATOM     57  H   UNL A   1      43.223  27.831  31.814  1.00  0.00     0.167 HD
ATOM     58  C   UNL A   1      44.960  25.738  31.032  1.00  0.00     0.074 A 
ATOM     59  C   UNL A   1      45.548  24.667  30.256  1.00  0.00     0.031 C 
ATOM     60  C   UNL A   1      45.529  26.277  32.140  1.00  0.00     0.034 A 
BRANCH  47  61
ATOM     61  C   UNL A   1      42.401  31.060  34.487  1.00  0.00     0.023 A 
ATOM     62  C   UNL A   1      41.800  30.795  35.735  1.00  0.00     0.012 A 
ATOM     63  C   UNL A   1      42.980  32.323  34.253  1.00  0.00     0.148 A 
ATOM     64  C   UNL A   1      41.749  31.779  36.721  1.00  0.00     0.002 A 
ATOM     65  C   UNL A   1      42.963  33.284  35.256  1.00  0.00     0.091 A 
ATOM     66  F   UNL A   1      43.526  32.562  33.051  1.00  0.00    -0.205 F 
ATOM     67  C   UNL A   1      42.339  33.019  36.486  1.00  0.00     0.022 A 
BRANCH  65  68
ATOM     68  S   UNL A   1      43.760  34.884  35.077  1.00  0.00     0.127 S 
ATOM     69  O   UNL A   1      42.843  35.570  34.169  1.00  0.00    -0.237 OA
ATOM     70  O   UNL A   1      43.751  35.388  36.449  1.00  0.00    -0.237 OA
ATOM     71  O   UNL A   1      45.086  34.613  34.538  1.00  0.00    -0.744 OA
ENDBRANCH  65  68
ENDBRANCH  47  61
BRANCH  48  72
ATOM     72  C   UNL A   1      42.624  24.188  27.245  1.00  0.00     0.023 A 
ATOM     73  C   UNL A   1      43.308  24.511  26.058  1.00  0.00     0.012 A 
ATOM     74  C   UNL A   1      42.028  22.918  27.371  1.00  0.00     0.148 A 
ATOM     75  C   UNL A   1      43.374  23.598  25.004  1.00  0.00     0.002 A 
ATOM     76  C   UNL A   1      42.144  21.993  26.341  1.00  0.00     0.091 A 
ATOM     77  F   UNL A   1      41.363  22.637  28.501  1.00  0.00    -0.205 F 
ATOM     78  C   UNL A   1      42.802  22.337  25.150  1.00  0.00     0.022 A 
BRANCH  76  79
ATOM     79  S   UNL A   1      41.554  20.303  26.497  1.00  0.00     0.127 S 
ATOM     80  O   UNL A   1      40.110  20.480  26.392  1.00  0.00    -0.237 OA
ATOM     81  O   UNL A   1      42.183  19.657  25.344  1.00  0.00    -0.237 OA
ATOM     82  O   UNL A   1      42.045  19.834  27.786  1.00  0.00    -0.744 OA
ENDBRANCH  76  79
ENDBRANCH  48  72
BRANCH  60  83
ATOM     83  C   UNL A   1      46.844  25.704  32.602  1.00  0.00     0.023 A 
ATOM     84  C   UNL A   1      48.051  26.237  32.109  1.00  0.00     0.012 A 
ATOM     85  C   UNL A   1      46.885  24.693  33.583  1.00  0.00     0.148 A 
ATOM     86  C   UNL A   1      49.278  25.750  32.560  1.00  0.00     0.002 A 
ATOM     87  C   UNL A   1      48.110  24.248  34.064  1.00  0.00     0.091 A 
ATOM     88  F   UNL A   1      45.725  24.187  34.029  1.00  0.00    -0.205 F 
ATOM     89  C   UNL A   1      49.308  24.766  33.545  1.00  0.00     0.022 A 
BRANCH  87  90
ATOM     90  S   UNL A   1      48.245  23.052  35.398  1.00  0.00     0.127 S 
ATOM     91  O   UNL A   1      47.489  21.922  34.864  1.00  0.00    -0.237 OA
ATOM     92  O   UNL A   1      49.691  22.837  35.477  1.00  0.00    -0.237 OA
ATOM     93  O   UNL A   1      47.667  23.692  36.572  1.00  0.00    -0.744 OA
ENDBRANCH  87  90
ENDBRANCH  60  83
ENDBRANCH  34  35
ENDBRANCH  27  29
ENDBRANCH  26  27
ENDBRANCH  25  26
ENDBRANCH  24  25
ENDBRANCH  23  24
ENDBRANCH   1  23
TORSDOF 22
ENDMDL
MODEL 3
REMARK VINA RESULT:     -10.4      1.489      7.624
REMARK SMILES C[C@@H](CCO)Sc1cc(C(=O)OCCOCCOC(=O)c2ccc(-c3c4nc(c(-c5cccc(S(=O)(=O)[O-])c5F)c5ccc([nH]5)c(-c5cccc(S(=O)(=O)[O-])c5F)c5nc(c(-c6cccc(S(=O)(=O)[O-])c6F)c6ccc3[nH]6)C=C5)C=C4)cc2)c2ccccc2n1
REMARK SMILES IDX 14 1 13 2 12 3 10 4 11 5 9 6 7 7 8 8 90 9 89 10 84 11 88 12
REMARK SMILES IDX 85 13 87 14 86 15 6 16 2 17 1 18 3 19 4 20 5 21 15 23 16 24
REMARK SMILES IDX 17 25 18 26 19 27 20 28 21 29 22 30 83 31 23 32 82 33 24 34
REMARK SMILES IDX 25 35 26 36 76 37 27 38 81 39 75 40 77 41 28 42 80 43 74 44
REMARK SMILES IDX 73 45 29 47 61 48 41 49 60 50 42 51 45 52 59 53 78 54 43 55
REMARK SMILES IDX 44 56 58 58 79 59 46 60 30 61 31 62 39 63 32 64 34 65 40 66
REMARK SMILES IDX 33 67 35 68 36 69 37 70 38 71 62 72 63 73 71 74 64 75 66 76
REMARK SMILES IDX 72 77 65 78 67 79 68 80 69 81 70 82 47 83 48 84 56 85 49 86
REMARK SMILES IDX 51 87 57 88 50 89 52 90 53 91 54 92 55 93
REMARK H PARENT 5 22 77 46 45 57
REMARK Flexibility Score: inf
ROOT
ATOM      1  C   UNL A   1      33.352  23.444  24.506  1.00  0.00     0.202 C 
ENDROOT
BRANCH   1   2
ATOM      2  C   UNL A   1      32.206  24.443  24.676  1.00  0.00     0.261 C 
BRANCH   2   3
ATOM      3  O   UNL A   1      31.835  24.983  23.396  1.00  0.00    -0.460 OA
BRANCH   3   4
ATOM      4  C   UNL A   1      32.480  26.109  23.026  1.00  0.00     0.338 C 
ATOM      5  O   UNL A   1      33.405  26.194  22.228  1.00  0.00    -0.246 OA
BRANCH   4   6
ATOM      6  C   UNL A   1      31.762  27.300  23.526  1.00  0.00     0.072 A 
ATOM      7  C   UNL A   1      29.797  28.637  23.277  1.00  0.00     0.098 A 
ATOM      8  C   UNL A   1      30.523  27.527  22.914  1.00  0.00     0.052 A 
ATOM      9  N   UNL A   1      30.241  29.501  24.203  1.00  0.00    -0.241 NA
ATOM     10  C   UNL A   1      31.421  29.280  24.815  1.00  0.00     0.072 A 
ATOM     11  C   UNL A   1      32.247  28.177  24.522  1.00  0.00     0.015 A 
ATOM     12  C   UNL A   1      31.847  30.216  25.749  1.00  0.00     0.029 A 
ATOM     13  C   UNL A   1      33.484  28.057  25.208  1.00  0.00     0.011 A 
ATOM     14  C   UNL A   1      33.069  30.096  26.411  1.00  0.00     0.002 A 
ATOM     15  C   UNL A   1      33.886  29.008  26.145  1.00  0.00     0.001 A 
BRANCH   7  16
ATOM     16  S   UNL A   1      28.261  28.947  22.436  1.00  0.00    -0.103 SA
BRANCH  16  17
ATOM     17  C   UNL A   1      28.003  30.772  22.469  1.00  0.00     0.052 C 
ATOM     18  C   UNL A   1      27.711  31.337  23.857  1.00  0.00     0.020 C 
BRANCH  17  19
ATOM     19  C   UNL A   1      28.945  31.630  21.601  1.00  0.00     0.043 C 
BRANCH  19  20
ATOM     20  C   UNL A   1      28.403  32.242  20.318  1.00  0.00     0.157 C 
BRANCH  20  21
ATOM     21  O   UNL A   1      27.370  33.171  20.605  1.00  0.00    -0.396 OA
ATOM     22  H   UNL A   1      27.757  34.048  20.753  1.00  0.00     0.210 HD
ENDBRANCH  20  21
ENDBRANCH  19  20
ENDBRANCH  17  19
ENDBRANCH  16  17
ENDBRANCH   7  16
ENDBRANCH   4   6
ENDBRANCH   3   4
ENDBRANCH   2   3
ENDBRANCH   1   2
BRANCH   1  23
ATOM     23  O   UNL A   1      33.814  22.813  25.704  1.00  0.00    -0.374 OA
BRANCH  23  24
ATOM     24  C   UNL A   1      35.225  22.756  25.914  1.00  0.00     0.202 C 
BRANCH  24  25
ATOM     25  C   UNL A   1      35.965  21.547  25.327  1.00  0.00     0.261 C 
BRANCH  25  26
ATOM     26  O   UNL A   1      37.259  21.886  24.804  1.00  0.00    -0.460 OA
BRANCH  26  27
ATOM     27  C   UNL A   1      38.303  21.406  25.522  1.00  0.00     0.338 C 
ATOM     28  O   UNL A   1      38.759  20.270  25.492  1.00  0.00    -0.246 OA
BRANCH  27  29
ATOM     29  C   UNL A   1      38.966  22.504  26.246  1.00  0.00     0.060 A 
ATOM     30  C   UNL A   1      38.468  23.799  26.058  1.00  0.00     0.016 A 
ATOM     31  C   UNL A   1      40.097  22.286  27.037  1.00  0.00     0.016 A 
ATOM     32  C   UNL A   1      39.124  24.889  26.623  1.00  0.00     0.010 A 
ATOM     33  C   UNL A   1      40.760  23.383  27.595  1.00  0.00     0.010 A 
ATOM     34  C   UNL A   1      40.297  24.691  27.363  1.00  0.00    -0.014 A 
BRANCH  34  35
ATOM     35  C   UNL A   1      41.102  25.862  27.785  1.00  0.00     0.031 A 
ATOM     36  C   UNL A   1      40.452  26.943  28.605  1.00  0.00     0.074 A 
ATOM     37  C   UNL A   1      42.400  25.958  27.446  1.00  0.00     0.049 A 
ATOM     38  N   UNL A   1      40.966  28.053  29.066  1.00  0.00    -0.248 NA
ATOM     39  C   UNL A   1      39.035  26.748  28.950  1.00  0.00     0.031 C 
ATOM     40  C   UNL A   1      43.140  24.977  26.656  1.00  0.00     0.029 A 
ATOM     41  N   UNL A   1      43.318  26.945  27.705  1.00  0.00    -0.354 N 
ATOM     42  C   UNL A   1      39.933  28.702  29.731  1.00  0.00     0.074 A 
ATOM     43  C   UNL A   1      38.758  27.868  29.603  1.00  0.00     0.031 C 
ATOM     44  C   UNL A   1      44.394  25.424  26.471  1.00  0.00     0.029 A 
ATOM     45  C   UNL A   1      44.537  26.732  27.108  1.00  0.00     0.049 A 
ATOM     46  H   UNL A   1      43.121  27.731  28.265  1.00  0.00     0.167 HD
ATOM     47  C   UNL A   1      39.963  29.878  30.402  1.00  0.00     0.034 A 
ATOM     48  C   UNL A   1      45.635  27.511  27.064  1.00  0.00     0.034 A 
ATOM     49  C   UNL A   1      41.137  30.695  30.547  1.00  0.00     0.049 A 
ATOM     50  C   UNL A   1      45.636  28.827  27.798  1.00  0.00     0.074 A 
ATOM     51  C   UNL A   1      41.281  31.874  31.256  1.00  0.00     0.029 A 
ATOM     52  N   UNL A   1      42.364  30.429  29.961  1.00  0.00    -0.354 N 
ATOM     53  N   UNL A   1      44.690  29.364  28.531  1.00  0.00    -0.248 NA
ATOM     54  C   UNL A   1      46.865  29.630  27.725  1.00  0.00     0.031 C 
ATOM     55  C   UNL A   1      42.589  32.337  31.075  1.00  0.00     0.029 A 
ATOM     56  C   UNL A   1      43.267  31.430  30.275  1.00  0.00     0.049 A 
ATOM     57  H   UNL A   1      42.564  29.644  29.402  1.00  0.00     0.167 HD
ATOM     58  C   UNL A   1      45.220  30.549  29.031  1.00  0.00     0.074 A 
ATOM     59  C   UNL A   1      46.578  30.639  28.536  1.00  0.00     0.031 C 
ATOM     60  C   UNL A   1      44.632  31.486  29.817  1.00  0.00     0.034 A 
BRANCH  47  61
ATOM     61  C   UNL A   1      38.688  30.341  31.057  1.00  0.00     0.023 A 
ATOM     62  C   UNL A   1      38.475  30.083  32.426  1.00  0.00     0.012 A 
ATOM     63  C   UNL A   1      37.730  31.078  30.334  1.00  0.00     0.148 A 
ATOM     64  C   UNL A   1      37.314  30.527  33.059  1.00  0.00     0.002 A 
ATOM     65  C   UNL A   1      36.596  31.553  30.981  1.00  0.00     0.091 A 
ATOM     66  F   UNL A   1      37.941  31.292  29.027  1.00  0.00    -0.205 F 
ATOM     67  C   UNL A   1      36.381  31.269  32.340  1.00  0.00     0.022 A 
BRANCH  65  68
ATOM     68  S   UNL A   1      35.372  32.580  30.162  1.00  0.00     0.127 S 
ATOM     69  O   UNL A   1      34.947  31.713  29.065  1.00  0.00    -0.237 OA
ATOM     70  O   UNL A   1      34.373  32.768  31.213  1.00  0.00    -0.237 OA
ATOM     71  O   UNL A   1      36.070  33.795  29.764  1.00  0.00    -0.744 OA
ENDBRANCH  65  68
ENDBRANCH  47  61
BRANCH  48  72
ATOM     72  C   UNL A   1      46.841  27.054  26.318  1.00  0.00     0.023 A 
ATOM     73  C   UNL A   1      47.718  26.127  26.913  1.00  0.00     0.012 A 
ATOM     74  C   UNL A   1      47.113  27.520  25.017  1.00  0.00     0.148 A 
ATOM     75  C   UNL A   1      48.860  25.694  26.237  1.00  0.00     0.002 A 
ATOM     76  C   UNL A   1      48.220  27.042  24.327  1.00  0.00     0.091 A 
ATOM     77  F   UNL A   1      46.276  28.418  24.476  1.00  0.00    -0.205 F 
ATOM     78  C   UNL A   1      49.104  26.142  24.941  1.00  0.00     0.022 A 
BRANCH  76  79
ATOM     79  S   UNL A   1      48.537  27.464  22.610  1.00  0.00     0.127 S 
ATOM     80  O   UNL A   1      48.572  26.148  21.980  1.00  0.00    -0.237 OA
ATOM     81  O   UNL A   1      47.366  28.277  22.278  1.00  0.00    -0.237 OA
ATOM     82  O   UNL A   1      49.795  28.200  22.613  1.00  0.00    -0.744 OA
ENDBRANCH  76  79
ENDBRANCH  48  72
BRANCH  60  83
ATOM     83  C   UNL A   1      45.456  32.683  30.218  1.00  0.00     0.023 A 
ATOM     84  C   UNL A   1      46.229  32.636  31.395  1.00  0.00     0.012 A 
ATOM     85  C   UNL A   1      45.525  33.821  29.390  1.00  0.00     0.148 A 
ATOM     86  C   UNL A   1      47.033  33.716  31.758  1.00  0.00     0.002 A 
ATOM     87  C   UNL A   1      46.366  34.872  29.733  1.00  0.00     0.091 A 
ATOM     88  F   UNL A   1      44.770  33.853  28.283  1.00  0.00    -0.205 F 
ATOM     89  C   UNL A   1      47.111  34.827  30.923  1.00  0.00     0.022 A 
BRANCH  87  90
ATOM     90  S   UNL A   1      46.604  36.302  28.671  1.00  0.00     0.127 S 
ATOM     91  O   UNL A   1      45.234  36.785  28.511  1.00  0.00    -0.237 OA
ATOM     92  O   UNL A   1      47.461  37.159  29.492  1.00  0.00    -0.237 OA
ATOM     93  O   UNL A   1      47.236  35.801  27.458  1.00  0.00    -0.744 OA
ENDBRANCH  87  90
ENDBRANCH  60  83
ENDBRANCH  34  35
ENDBRANCH  27  29
ENDBRANCH  26  27
ENDBRANCH  25  26
ENDBRANCH  24  25
ENDBRANCH  23  24
ENDBRANCH   1  23
TORSDOF 22
ENDMDL
