MODEL 1
REMARK VINA RESULT:      -9.8      0.000      0.000
REMARK SMILES C[C@H](/N=C(\Cc1ccccc1)C(=O)OC(C)(C)C)C(=O)OCCOCCOC(=O)c1ccc(-c2c3nc(c(-c4cccc(S(=O)(=O)[O-])c4F)c4ccc([nH]4)c(-c4cccc(S(=O)(=O)[O-])c4F)c4nc(c(-c5cccc(S(=O)(=O)[O-])c5F)c5ccc2[nH]5)C=C4)C=C3)cc1
REMARK SMILES IDX 23 1 22 2 21 3 19 4 20 5 2 6 1 7 3 8 4 9 5 10 6 11 7 12
REMARK SMILES IDX 11 13 8 14 10 15 9 16 12 17 13 18 14 19 15 20 16 21 17 22
REMARK SMILES IDX 18 23 24 24 25 25 26 26 27 27 28 28 29 29 30 30 31 31 92 32
REMARK SMILES IDX 32 33 91 34 33 35 34 36 35 37 85 38 36 39 90 40 84 41 86 42
REMARK SMILES IDX 37 43 89 44 83 45 82 46 38 48 70 49 50 50 69 51 51 52 54 53
REMARK SMILES IDX 68 54 87 55 52 56 53 57 67 59 88 60 55 61 39 62 40 63 48 64
REMARK SMILES IDX 41 65 43 66 49 67 42 68 44 69 45 70 46 71 47 72 71 73 72 74
REMARK SMILES IDX 80 75 73 76 75 77 81 78 74 79 76 80 77 81 78 82 79 83 56 84
REMARK SMILES IDX 57 85 65 86 58 87 60 88 66 89 59 90 61 91 62 92 63 93 64 94
REMARK H PARENT 86 47 54 58
REMARK Flexibility Score: inf
ROOT
ATOM      1  C   UNL A   1      37.034  22.063  24.236  1.00  0.00     0.202 C 
ENDROOT
BRANCH   1   2
ATOM      2  C   UNL A   1      36.676  23.352  24.980  1.00  0.00     0.261 C 
BRANCH   2   3
ATOM      3  O   UNL A   1      36.316  23.077  26.344  1.00  0.00    -0.462 OA
BRANCH   3   4
ATOM      4  C   UNL A   1      35.144  22.409  26.513  1.00  0.00     0.330 C 
ATOM      5  O   UNL A   1      34.975  21.221  26.251  1.00  0.00    -0.250 OA
BRANCH   4   6
ATOM      6  C   UNL A   1      34.043  23.265  27.138  1.00  0.00     0.212 C 
ATOM      7  C   UNL A   1      33.097  22.425  27.975  1.00  0.00     0.046 C 
BRANCH   6   8
ATOM      8  N   UNL A   1      33.395  24.231  26.233  1.00  0.00    -0.267 NA
ATOM      9  C   UNL A   1      32.302  24.084  25.564  1.00  0.00     0.125 C 
BRANCH   9  10
ATOM     10  C   UNL A   1      31.394  22.876  25.565  1.00  0.00     0.099 C 
BRANCH  10  11
ATOM     11  C   UNL A   1      31.709  21.843  24.495  1.00  0.00    -0.042 A 
ATOM     12  C   UNL A   1      32.063  20.550  24.908  1.00  0.00     0.004 A 
ATOM     13  C   UNL A   1      31.689  22.118  23.117  1.00  0.00     0.004 A 
ATOM     14  C   UNL A   1      32.397  19.568  23.973  1.00  0.00     0.000 A 
ATOM     15  C   UNL A   1      32.032  21.138  22.184  1.00  0.00     0.000 A 
ATOM     16  C   UNL A   1      32.385  19.863  22.612  1.00  0.00     0.000 A 
ENDBRANCH  10  11
ENDBRANCH   9  10
BRANCH   9  17
ATOM     17  C   UNL A   1      31.811  25.311  24.748  1.00  0.00     0.353 C 
ATOM     18  O   UNL A   1      30.733  25.329  24.174  1.00  0.00    -0.245 OA
BRANCH  17  19
ATOM     19  O   UNL A   1      32.773  26.247  24.690  1.00  0.00    -0.455 OA
BRANCH  19  20
ATOM     20  C   UNL A   1      32.608  27.574  25.253  1.00  0.00     0.104 C 
ATOM     21  C   UNL A   1      32.517  28.632  24.148  1.00  0.00     0.056 C 
ATOM     22  C   UNL A   1      31.410  27.645  26.203  1.00  0.00     0.056 C 
ATOM     23  C   UNL A   1      33.894  27.818  26.059  1.00  0.00     0.056 C 
ENDBRANCH  19  20
ENDBRANCH  17  19
ENDBRANCH   9  17
ENDBRANCH   6   8
ENDBRANCH   4   6
ENDBRANCH   3   4
ENDBRANCH   2   3
ENDBRANCH   1   2
BRANCH   1  24
ATOM     24  O   UNL A   1      38.243  21.409  24.623  1.00  0.00    -0.374 OA
BRANCH  24  25
ATOM     25  C   UNL A   1      38.168  20.021  24.954  1.00  0.00     0.202 C 
BRANCH  25  26
ATOM     26  C   UNL A   1      39.217  19.467  25.930  1.00  0.00     0.261 C 
BRANCH  26  27
ATOM     27  O   UNL A   1      40.546  19.437  25.381  1.00  0.00    -0.460 OA
BRANCH  27  28
ATOM     28  C   UNL A   1      41.539  19.603  26.287  1.00  0.00     0.338 C 
ATOM     29  O   UNL A   1      42.348  18.766  26.664  1.00  0.00    -0.246 OA
BRANCH  28  30
ATOM     30  C   UNL A   1      41.648  21.026  26.652  1.00  0.00     0.060 A 
ATOM     31  C   UNL A   1      41.664  21.966  25.614  1.00  0.00     0.016 A 
ATOM     32  C   UNL A   1      41.799  21.431  27.979  1.00  0.00     0.016 A 
ATOM     33  C   UNL A   1      41.864  23.315  25.897  1.00  0.00     0.010 A 
ATOM     34  C   UNL A   1      42.009  22.785  28.262  1.00  0.00     0.010 A 
ATOM     35  C   UNL A   1      42.071  23.729  27.220  1.00  0.00    -0.014 A 
BRANCH  35  36
ATOM     36  C   UNL A   1      42.457  25.134  27.498  1.00  0.00     0.031 A 
ATOM     37  C   UNL A   1      43.820  25.621  27.089  1.00  0.00     0.074 A 
ATOM     38  C   UNL A   1      41.597  25.969  28.110  1.00  0.00     0.049 A 
ATOM     39  N   UNL A   1      44.361  26.800  27.256  1.00  0.00    -0.248 NA
ATOM     40  C   UNL A   1      44.691  24.651  26.404  1.00  0.00     0.031 C 
ATOM     41  C   UNL A   1      40.249  25.615  28.553  1.00  0.00     0.029 A 
ATOM     42  N   UNL A   1      41.742  27.280  28.487  1.00  0.00    -0.354 N 
ATOM     43  C   UNL A   1      45.641  26.709  26.722  1.00  0.00     0.074 A 
ATOM     44  C   UNL A   1      45.801  25.357  26.233  1.00  0.00     0.031 C 
ATOM     45  C   UNL A   1      39.702  26.675  29.173  1.00  0.00     0.029 A 
ATOM     46  C   UNL A   1      40.666  27.773  29.187  1.00  0.00     0.049 A 
ATOM     47  H   UNL A   1      42.539  27.817  28.276  1.00  0.00     0.167 HD
ATOM     48  C   UNL A   1      46.590  27.670  26.634  1.00  0.00     0.034 A 
ATOM     49  C   UNL A   1      40.490  28.966  29.791  1.00  0.00     0.034 A 
ATOM     50  C   UNL A   1      46.421  29.022  27.096  1.00  0.00     0.049 A 
ATOM     51  C   UNL A   1      41.572  30.010  29.692  1.00  0.00     0.074 A 
ATOM     52  C   UNL A   1      47.306  30.080  26.996  1.00  0.00     0.029 A 
ATOM     53  N   UNL A   1      45.300  29.498  27.758  1.00  0.00    -0.354 N 
ATOM     54  N   UNL A   1      42.722  29.951  29.064  1.00  0.00    -0.248 NA
ATOM     55  C   UNL A   1      41.318  31.298  30.354  1.00  0.00     0.031 C 
ATOM     56  C   UNL A   1      46.730  31.192  27.620  1.00  0.00     0.029 A 
ATOM     57  C   UNL A   1      45.476  30.831  28.086  1.00  0.00     0.049 A 
ATOM     58  H   UNL A   1      44.498  28.967  27.963  1.00  0.00     0.167 HD
ATOM     59  C   UNL A   1      43.311  31.200  29.228  1.00  0.00     0.074 A 
ATOM     60  C   UNL A   1      42.381  32.004  29.993  1.00  0.00     0.031 C 
ATOM     61  C   UNL A   1      44.520  31.638  28.799  1.00  0.00     0.034 A 
BRANCH  48  62
ATOM     62  C   UNL A   1      47.897  27.309  25.981  1.00  0.00     0.023 A 
ATOM     63  C   UNL A   1      48.896  26.659  26.735  1.00  0.00     0.012 A 
ATOM     64  C   UNL A   1      48.105  27.537  24.607  1.00  0.00     0.148 A 
ATOM     65  C   UNL A   1      50.089  26.259  26.134  1.00  0.00     0.002 A 
ATOM     66  C   UNL A   1      49.279  27.099  24.007  1.00  0.00     0.091 A 
ATOM     67  F   UNL A   1      47.151  28.176  23.915  1.00  0.00    -0.205 F 
ATOM     68  C   UNL A   1      50.275  26.468  24.771  1.00  0.00     0.022 A 
BRANCH  66  69
ATOM     69  S   UNL A   1      49.584  27.255  22.244  1.00  0.00     0.127 S 
ATOM     70  O   UNL A   1      48.401  26.604  21.682  1.00  0.00    -0.237 OA
ATOM     71  O   UNL A   1      49.626  28.706  22.065  1.00  0.00    -0.237 OA
ATOM     72  O   UNL A   1      50.846  26.574  21.992  1.00  0.00    -0.744 OA
ENDBRANCH  66  69
ENDBRANCH  48  62
BRANCH  49  73
ATOM     73  C   UNL A   1      39.224  29.250  30.526  1.00  0.00     0.023 A 
ATOM     74  C   UNL A   1      38.939  28.556  31.717  1.00  0.00     0.012 A 
ATOM     75  C   UNL A   1      38.307  30.208  30.053  1.00  0.00     0.148 A 
ATOM     76  C   UNL A   1      37.747  28.788  32.406  1.00  0.00     0.002 A 
ATOM     77  C   UNL A   1      37.149  30.476  30.776  1.00  0.00     0.091 A 
ATOM     78  F   UNL A   1      38.583  30.843  28.906  1.00  0.00    -0.205 F 
ATOM     79  C   UNL A   1      36.858  29.754  31.943  1.00  0.00     0.022 A 
BRANCH  77  80
ATOM     80  S   UNL A   1      36.027  31.802  30.319  1.00  0.00     0.127 S 
ATOM     81  O   UNL A   1      35.446  31.292  29.080  1.00  0.00    -0.237 OA
ATOM     82  O   UNL A   1      35.114  31.838  31.461  1.00  0.00    -0.237 OA
ATOM     83  O   UNL A   1      36.863  32.990  30.191  1.00  0.00    -0.744 OA
ENDBRANCH  77  80
ENDBRANCH  49  73
BRANCH  61  84
ATOM     84  C   UNL A   1      44.904  33.060  29.113  1.00  0.00     0.023 A 
ATOM     85  C   UNL A   1      45.451  33.374  30.373  1.00  0.00     0.012 A 
ATOM     86  C   UNL A   1      44.794  34.070  28.137  1.00  0.00     0.148 A 
ATOM     87  C   UNL A   1      45.853  34.677  30.668  1.00  0.00     0.002 A 
ATOM     88  C   UNL A   1      45.241  35.356  28.421  1.00  0.00     0.091 A 
ATOM     89  F   UNL A   1      44.255  33.757  26.950  1.00  0.00    -0.205 F 
ATOM     90  C   UNL A   1      45.759  35.664  29.689  1.00  0.00     0.022 A 
BRANCH  88  91
ATOM     91  S   UNL A   1      45.246  36.667  27.192  1.00  0.00     0.127 S 
ATOM     92  O   UNL A   1      46.099  36.095  26.151  1.00  0.00    -0.237 OA
ATOM     93  O   UNL A   1      43.831  36.765  26.835  1.00  0.00    -0.237 OA
ATOM     94  O   UNL A   1      45.781  37.843  27.865  1.00  0.00    -0.744 OA
ENDBRANCH  88  91
ENDBRANCH  61  84
ENDBRANCH  35  36
ENDBRANCH  28  30
ENDBRANCH  27  28
ENDBRANCH  26  27
ENDBRANCH  25  26
ENDBRANCH  24  25
ENDBRANCH   1  24
TORSDOF 23
ENDMDL
MODEL 2
REMARK VINA RESULT:      -9.1      5.081     10.577
REMARK SMILES C[C@H](/N=C(\Cc1ccccc1)C(=O)OC(C)(C)C)C(=O)OCCOCCOC(=O)c1ccc(-c2c3nc(c(-c4cccc(S(=O)(=O)[O-])c4F)c4ccc([nH]4)c(-c4cccc(S(=O)(=O)[O-])c4F)c4nc(c(-c5cccc(S(=O)(=O)[O-])c5F)c5ccc2[nH]5)C=C4)C=C3)cc1
REMARK SMILES IDX 23 1 22 2 21 3 19 4 20 5 2 6 1 7 3 8 4 9 5 10 6 11 7 12
REMARK SMILES IDX 11 13 8 14 10 15 9 16 12 17 13 18 14 19 15 20 16 21 17 22
REMARK SMILES IDX 18 23 24 24 25 25 26 26 27 27 28 28 29 29 30 30 31 31 92 32
REMARK SMILES IDX 32 33 91 34 33 35 34 36 35 37 85 38 36 39 90 40 84 41 86 42
REMARK SMILES IDX 37 43 89 44 83 45 82 46 38 48 70 49 50 50 69 51 51 52 54 53
REMARK SMILES IDX 68 54 87 55 52 56 53 57 67 59 88 60 55 61 39 62 40 63 48 64
REMARK SMILES IDX 41 65 43 66 49 67 42 68 44 69 45 70 46 71 47 72 71 73 72 74
REMARK SMILES IDX 80 75 73 76 75 77 81 78 74 79 76 80 77 81 78 82 79 83 56 84
REMARK SMILES IDX 57 85 65 86 58 87 60 88 66 89 59 90 61 91 62 92 63 93 64 94
REMARK H PARENT 86 47 54 58
REMARK Flexibility Score: inf
ROOT
ATOM      1  C   UNL A   1      36.300  33.904  30.867  1.00  0.00     0.202 C 
ENDROOT
BRANCH   1   2
ATOM      2  C   UNL A   1      37.816  34.105  30.802  1.00  0.00     0.261 C 
BRANCH   2   3
ATOM      3  O   UNL A   1      38.450  33.635  32.003  1.00  0.00    -0.462 OA
BRANCH   3   4
ATOM      4  C   UNL A   1      38.209  34.378  33.117  1.00  0.00     0.330 C 
ATOM      5  O   UNL A   1      37.198  35.050  33.300  1.00  0.00    -0.250 OA
BRANCH   4   6
ATOM      6  C   UNL A   1      39.300  34.250  34.179  1.00  0.00     0.212 C 
ATOM      7  C   UNL A   1      40.562  33.634  33.606  1.00  0.00     0.046 C 
BRANCH   6   8
ATOM      8  N   UNL A   1      38.865  33.705  35.477  1.00  0.00    -0.267 NA
ATOM      9  C   UNL A   1      38.197  32.625  35.702  1.00  0.00     0.125 C 
BRANCH   9  10
ATOM     10  C   UNL A   1      37.712  31.629  34.675  1.00  0.00     0.099 C 
BRANCH  10  11
ATOM     11  C   UNL A   1      38.729  30.566  34.292  1.00  0.00    -0.042 A 
ATOM     12  C   UNL A   1      38.413  29.699  33.235  1.00  0.00     0.004 A 
ATOM     13  C   UNL A   1      39.956  30.388  34.952  1.00  0.00     0.004 A 
ATOM     14  C   UNL A   1      39.292  28.681  32.859  1.00  0.00     0.000 A 
ATOM     15  C   UNL A   1      40.830  29.364  34.582  1.00  0.00     0.000 A 
ATOM     16  C   UNL A   1      40.497  28.510  33.535  1.00  0.00     0.000 A 
ENDBRANCH  10  11
ENDBRANCH   9  10
BRANCH   9  17
ATOM     17  C   UNL A   1      37.949  32.252  37.190  1.00  0.00     0.353 C 
ATOM     18  O   UNL A   1      37.665  31.118  37.545  1.00  0.00    -0.245 OA
BRANCH  17  19
ATOM     19  O   UNL A   1      37.982  33.355  37.957  1.00  0.00    -0.455 OA
BRANCH  19  20
ATOM     20  C   UNL A   1      39.000  33.573  38.969  1.00  0.00     0.104 C 
ATOM     21  C   UNL A   1      38.551  33.020  40.326  1.00  0.00     0.056 C 
ATOM     22  C   UNL A   1      40.355  33.001  38.546  1.00  0.00     0.056 C 
ATOM     23  C   UNL A   1      39.119  35.101  39.078  1.00  0.00     0.056 C 
ENDBRANCH  19  20
ENDBRANCH  17  19
ENDBRANCH   9  17
ENDBRANCH   6   8
ENDBRANCH   4   6
ENDBRANCH   3   4
ENDBRANCH   2   3
ENDBRANCH   1   2
BRANCH   1  24
ATOM     24  O   UNL A   1      35.780  32.713  30.274  1.00  0.00    -0.374 OA
BRANCH  24  25
ATOM     25  C   UNL A   1      34.431  32.742  29.802  1.00  0.00     0.202 C 
BRANCH  25  26
ATOM     26  C   UNL A   1      34.202  32.548  28.296  1.00  0.00     0.261 C 
BRANCH  26  27
ATOM     27  O   UNL A   1      35.255  31.812  27.650  1.00  0.00    -0.460 OA
BRANCH  27  28
ATOM     28  C   UNL A   1      35.184  30.467  27.800  1.00  0.00     0.338 C 
ATOM     29  O   UNL A   1      34.201  29.755  27.661  1.00  0.00    -0.246 OA
BRANCH  28  30
ATOM     30  C   UNL A   1      36.538  29.916  27.986  1.00  0.00     0.060 A 
ATOM     31  C   UNL A   1      36.831  29.304  29.212  1.00  0.00     0.016 A 
ATOM     32  C   UNL A   1      37.524  30.055  27.009  1.00  0.00     0.016 A 
ATOM     33  C   UNL A   1      38.123  28.857  29.477  1.00  0.00     0.010 A 
ATOM     34  C   UNL A   1      38.824  29.612  27.279  1.00  0.00     0.010 A 
ATOM     35  C   UNL A   1      39.135  29.037  28.524  1.00  0.00    -0.014 A 
BRANCH  35  36
ATOM     36  C   UNL A   1      40.541  28.719  28.878  1.00  0.00     0.031 A 
ATOM     37  C   UNL A   1      41.211  27.530  28.246  1.00  0.00     0.074 A 
ATOM     38  C   UNL A   1      41.212  29.486  29.756  1.00  0.00     0.049 A 
ATOM     39  N   UNL A   1      42.420  27.068  28.431  1.00  0.00    -0.248 NA
ATOM     40  C   UNL A   1      40.414  26.758  27.278  1.00  0.00     0.031 C 
ATOM     41  C   UNL A   1      40.672  30.664  30.434  1.00  0.00     0.029 A 
ATOM     42  N   UNL A   1      42.489  29.372  30.246  1.00  0.00    -0.354 N 
ATOM     43  C   UNL A   1      42.523  25.939  27.628  1.00  0.00     0.074 A 
ATOM     44  C   UNL A   1      41.250  25.779  26.958  1.00  0.00     0.031 C 
ATOM     45  C   UNL A   1      41.600  31.145  31.278  1.00  0.00     0.029 A 
ATOM     46  C   UNL A   1      42.791  30.299  31.216  1.00  0.00     0.049 A 
ATOM     47  H   UNL A   1      43.128  28.691  29.934  1.00  0.00     0.167 HD
ATOM     48  C   UNL A   1      43.585  25.120  27.452  1.00  0.00     0.034 A 
ATOM     49  C   UNL A   1      43.893  30.435  31.981  1.00  0.00     0.034 A 
ATOM     50  C   UNL A   1      44.859  25.295  28.097  1.00  0.00     0.049 A 
ATOM     51  C   UNL A   1      45.054  29.497  31.776  1.00  0.00     0.074 A 
ATOM     52  C   UNL A   1      46.013  24.548  27.936  1.00  0.00     0.029 A 
ATOM     53  N   UNL A   1      45.144  26.272  29.037  1.00  0.00    -0.354 N 
ATOM     54  N   UNL A   1      45.182  28.518  30.913  1.00  0.00    -0.248 NA
ATOM     55  C   UNL A   1      46.236  29.703  32.626  1.00  0.00     0.031 C 
ATOM     56  C   UNL A   1      46.989  25.060  28.797  1.00  0.00     0.029 A 
ATOM     57  C   UNL A   1      46.450  26.141  29.476  1.00  0.00     0.049 A 
ATOM     58  H   UNL A   1      44.510  26.960  29.346  1.00  0.00     0.167 HD
ATOM     59  C   UNL A   1      46.466  28.015  31.094  1.00  0.00     0.074 A 
ATOM     60  C   UNL A   1      47.085  28.813  32.131  1.00  0.00     0.031 C 
ATOM     61  C   UNL A   1      47.074  26.976  30.469  1.00  0.00     0.034 A 
BRANCH  48  62
ATOM     62  C   UNL A   1      43.435  23.968  26.495  1.00  0.00     0.023 A 
ATOM     63  C   UNL A   1      44.094  24.007  25.249  1.00  0.00     0.012 A 
ATOM     64  C   UNL A   1      42.713  22.815  26.861  1.00  0.00     0.148 A 
ATOM     65  C   UNL A   1      44.020  22.924  24.375  1.00  0.00     0.002 A 
ATOM     66  C   UNL A   1      42.678  21.725  26.001  1.00  0.00     0.091 A 
ATOM     67  F   UNL A   1      42.077  22.809  28.041  1.00  0.00    -0.205 F 
ATOM     68  C   UNL A   1      43.324  21.780  24.754  1.00  0.00     0.022 A 
BRANCH  66  69
ATOM     69  S   UNL A   1      41.870  20.178  26.428  1.00  0.00     0.127 S 
ATOM     70  O   UNL A   1      40.461  20.571  26.424  1.00  0.00    -0.237 OA
ATOM     71  O   UNL A   1      42.265  19.308  25.321  1.00  0.00    -0.237 OA
ATOM     72  O   UNL A   1      42.403  19.791  27.727  1.00  0.00    -0.744 OA
ENDBRANCH  66  69
ENDBRANCH  48  62
BRANCH  49  73
ATOM     73  C   UNL A   1      43.964  31.521  32.999  1.00  0.00     0.023 A 
ATOM     74  C   UNL A   1      43.653  31.238  34.344  1.00  0.00     0.012 A 
ATOM     75  C   UNL A   1      44.343  32.830  32.644  1.00  0.00     0.148 A 
ATOM     76  C   UNL A   1      43.688  32.246  35.308  1.00  0.00     0.002 A 
ATOM     77  C   UNL A   1      44.432  33.816  33.620  1.00  0.00     0.091 A 
ATOM     78  F   UNL A   1      44.612  33.088  31.357  1.00  0.00    -0.205 F 
ATOM     79  C   UNL A   1      44.087  33.531  34.950  1.00  0.00     0.022 A 
BRANCH  77  80
ATOM     80  S   UNL A   1      45.072  35.455  33.262  1.00  0.00     0.127 S 
ATOM     81  O   UNL A   1      46.389  35.151  32.709  1.00  0.00    -0.237 OA
ATOM     82  O   UNL A   1      44.097  35.960  32.295  1.00  0.00    -0.237 OA
ATOM     83  O   UNL A   1      45.062  36.162  34.538  1.00  0.00    -0.744 OA
ENDBRANCH  77  80
ENDBRANCH  49  73
BRANCH  61  84
ATOM     84  C   UNL A   1      48.492  26.654  30.861  1.00  0.00     0.023 A 
ATOM     85  C   UNL A   1      48.738  25.799  31.954  1.00  0.00     0.012 A 
ATOM     86  C   UNL A   1      49.578  27.134  30.102  1.00  0.00     0.148 A 
ATOM     87  C   UNL A   1      50.043  25.454  32.305  1.00  0.00     0.002 A 
ATOM     88  C   UNL A   1      50.873  26.748  30.429  1.00  0.00     0.091 A 
ATOM     89  F   UNL A   1      49.325  27.961  29.077  1.00  0.00    -0.205 F 
ATOM     90  C   UNL A   1      51.108  25.918  31.537  1.00  0.00     0.022 A 
BRANCH  88  91
ATOM     91  S   UNL A   1      52.296  27.221  29.440  1.00  0.00     0.127 S 
ATOM     92  O   UNL A   1      52.308  28.673  29.609  1.00  0.00    -0.237 OA
ATOM     93  O   UNL A   1      53.390  26.520  30.113  1.00  0.00    -0.237 OA
ATOM     94  O   UNL A   1      52.019  26.749  28.090  1.00  0.00    -0.744 OA
ENDBRANCH  88  91
ENDBRANCH  61  84
ENDBRANCH  35  36
ENDBRANCH  28  30
ENDBRANCH  27  28
ENDBRANCH  26  27
ENDBRANCH  25  26
ENDBRANCH  24  25
ENDBRANCH   1  24
TORSDOF 23
ENDMDL
MODEL 3
REMARK VINA RESULT:      -9.1      2.215      8.107
REMARK SMILES C[C@H](/N=C(\Cc1ccccc1)C(=O)OC(C)(C)C)C(=O)OCCOCCOC(=O)c1ccc(-c2c3nc(c(-c4cccc(S(=O)(=O)[O-])c4F)c4ccc([nH]4)c(-c4cccc(S(=O)(=O)[O-])c4F)c4nc(c(-c5cccc(S(=O)(=O)[O-])c5F)c5ccc2[nH]5)C=C4)C=C3)cc1
REMARK SMILES IDX 23 1 22 2 21 3 19 4 20 5 2 6 1 7 3 8 4 9 5 10 6 11 7 12
REMARK SMILES IDX 11 13 8 14 10 15 9 16 12 17 13 18 14 19 15 20 16 21 17 22
REMARK SMILES IDX 18 23 24 24 25 25 26 26 27 27 28 28 29 29 30 30 31 31 92 32
REMARK SMILES IDX 32 33 91 34 33 35 34 36 35 37 85 38 36 39 90 40 84 41 86 42
REMARK SMILES IDX 37 43 89 44 83 45 82 46 38 48 70 49 50 50 69 51 51 52 54 53
REMARK SMILES IDX 68 54 87 55 52 56 53 57 67 59 88 60 55 61 39 62 40 63 48 64
REMARK SMILES IDX 41 65 43 66 49 67 42 68 44 69 45 70 46 71 47 72 71 73 72 74
REMARK SMILES IDX 80 75 73 76 75 77 81 78 74 79 76 80 77 81 78 82 79 83 56 84
REMARK SMILES IDX 57 85 65 86 58 87 60 88 66 89 59 90 61 91 62 92 63 93 64 94
REMARK H PARENT 86 47 54 58
REMARK Flexibility Score: inf
ROOT
ATOM      1  C   UNL A   1      36.164  22.666  24.499  1.00  0.00     0.202 C 
ENDROOT
BRANCH   1   2
ATOM      2  C   UNL A   1      35.180  23.645  25.147  1.00  0.00     0.261 C 
BRANCH   2   3
ATOM      3  O   UNL A   1      33.834  23.384  24.718  1.00  0.00    -0.462 OA
BRANCH   3   4
ATOM      4  C   UNL A   1      33.015  22.852  25.663  1.00  0.00     0.330 C 
ATOM      5  O   UNL A   1      33.233  21.803  26.264  1.00  0.00    -0.250 OA
BRANCH   4   6
ATOM      6  C   UNL A   1      31.800  23.725  25.974  1.00  0.00     0.212 C 
ATOM      7  C   UNL A   1      30.679  22.913  26.596  1.00  0.00     0.046 C 
BRANCH   6   8
ATOM      8  N   UNL A   1      31.389  24.650  24.904  1.00  0.00    -0.267 NA
ATOM      9  C   UNL A   1      30.978  25.868  25.020  1.00  0.00     0.125 C 
BRANCH   9  10
ATOM     10  C   UNL A   1      30.841  26.660  26.299  1.00  0.00     0.099 C 
BRANCH  10  11
ATOM     11  C   UNL A   1      31.994  27.609  26.586  1.00  0.00    -0.042 A 
ATOM     12  C   UNL A   1      31.693  28.881  27.094  1.00  0.00     0.004 A 
ATOM     13  C   UNL A   1      33.342  27.291  26.347  1.00  0.00     0.004 A 
ATOM     14  C   UNL A   1      32.706  29.808  27.345  1.00  0.00     0.000 A 
ATOM     15  C   UNL A   1      34.353  28.222  26.590  1.00  0.00     0.000 A 
ATOM     16  C   UNL A   1      34.035  29.481  27.089  1.00  0.00     0.000 A 
ENDBRANCH  10  11
ENDBRANCH   9  10
BRANCH   9  17
ATOM     17  C   UNL A   1      30.689  26.638  23.702  1.00  0.00     0.353 C 
ATOM     18  O   UNL A   1      30.980  26.191  22.602  1.00  0.00    -0.245 OA
BRANCH  17  19
ATOM     19  O   UNL A   1      30.202  27.860  23.974  1.00  0.00    -0.455 OA
BRANCH  19  20
ATOM     20  C   UNL A   1      30.765  29.070  23.404  1.00  0.00     0.104 C 
ATOM     21  C   UNL A   1      30.375  30.300  24.231  1.00  0.00     0.056 C 
ATOM     22  C   UNL A   1      32.281  28.965  23.228  1.00  0.00     0.056 C 
ATOM     23  C   UNL A   1      30.112  29.186  22.017  1.00  0.00     0.056 C 
ENDBRANCH  19  20
ENDBRANCH  17  19
ENDBRANCH   9  17
ENDBRANCH   6   8
ENDBRANCH   4   6
ENDBRANCH   3   4
ENDBRANCH   2   3
ENDBRANCH   1   2
BRANCH   1  24
ATOM     24  O   UNL A   1      37.506  22.682  24.986  1.00  0.00    -0.374 OA
BRANCH  24  25
ATOM     25  C   UNL A   1      38.039  21.460  25.498  1.00  0.00     0.202 C 
BRANCH  25  26
ATOM     26  C   UNL A   1      39.421  21.513  26.166  1.00  0.00     0.261 C 
BRANCH  26  27
ATOM     27  O   UNL A   1      40.140  20.270  26.088  1.00  0.00    -0.460 OA
BRANCH  27  28
ATOM     28  C   UNL A   1      41.476  20.371  26.294  1.00  0.00     0.338 C 
ATOM     29  O   UNL A   1      42.325  19.517  26.089  1.00  0.00    -0.246 OA
BRANCH  28  30
ATOM     30  C   UNL A   1      41.821  21.760  26.642  1.00  0.00     0.060 A 
ATOM     31  C   UNL A   1      41.978  22.677  25.593  1.00  0.00     0.016 A 
ATOM     32  C   UNL A   1      42.053  22.147  27.962  1.00  0.00     0.016 A 
ATOM     33  C   UNL A   1      42.400  23.976  25.860  1.00  0.00     0.010 A 
ATOM     34  C   UNL A   1      42.486  23.451  28.229  1.00  0.00     0.010 A 
ATOM     35  C   UNL A   1      42.689  24.362  27.177  1.00  0.00    -0.014 A 
BRANCH  35  36
ATOM     36  C   UNL A   1      43.304  25.688  27.435  1.00  0.00     0.031 A 
ATOM     37  C   UNL A   1      42.477  26.776  28.066  1.00  0.00     0.074 A 
ATOM     38  C   UNL A   1      44.588  25.918  27.109  1.00  0.00     0.049 A 
ATOM     39  N   UNL A   1      42.814  28.005  28.357  1.00  0.00    -0.248 NA
ATOM     40  C   UNL A   1      41.088  26.434  28.413  1.00  0.00     0.031 C 
ATOM     41  C   UNL A   1      45.490  24.944  26.494  1.00  0.00     0.029 A 
ATOM     42  N   UNL A   1      45.350  27.053  27.229  1.00  0.00    -0.354 N 
ATOM     43  C   UNL A   1      41.676  28.593  28.895  1.00  0.00     0.074 A 
ATOM     44  C   UNL A   1      40.635  27.588  28.884  1.00  0.00     0.031 C 
ATOM     45  C   UNL A   1      46.674  25.535  26.259  1.00  0.00     0.029 A 
ATOM     46  C   UNL A   1      46.608  26.931  26.687  1.00  0.00     0.049 A 
ATOM     47  H   UNL A   1      45.026  27.877  27.660  1.00  0.00     0.167 HD
ATOM     48  C   UNL A   1      41.518  29.850  29.371  1.00  0.00     0.034 A 
ATOM     49  C   UNL A   1      47.585  27.848  26.535  1.00  0.00     0.034 A 
ATOM     50  C   UNL A   1      42.561  30.840  29.407  1.00  0.00     0.049 A 
ATOM     51  C   UNL A   1      47.374  29.245  27.057  1.00  0.00     0.074 A 
ATOM     52  C   UNL A   1      42.510  32.123  29.924  1.00  0.00     0.029 A 
ATOM     53  N   UNL A   1      43.836  30.666  28.893  1.00  0.00    -0.354 N 
ATOM     54  N   UNL A   1      46.337  29.744  27.687  1.00  0.00    -0.248 NA
ATOM     55  C   UNL A   1      48.480  30.198  26.878  1.00  0.00     0.031 C 
ATOM     56  C   UNL A   1      43.748  32.733  29.701  1.00  0.00     0.029 A 
ATOM     57  C   UNL A   1      44.578  31.822  29.067  1.00  0.00     0.049 A 
ATOM     58  H   UNL A   1      44.166  29.842  28.468  1.00  0.00     0.167 HD
ATOM     59  C   UNL A   1      46.679  31.053  28.008  1.00  0.00     0.074 A 
ATOM     60  C   UNL A   1      48.028  31.264  27.525  1.00  0.00     0.031 C 
ATOM     61  C   UNL A   1      45.939  32.002  28.632  1.00  0.00     0.034 A 
BRANCH  48  62
ATOM     62  C   UNL A   1      40.171  30.228  29.927  1.00  0.00     0.023 A 
ATOM     63  C   UNL A   1      39.197  30.784  29.074  1.00  0.00     0.012 A 
ATOM     64  C   UNL A   1      39.843  29.956  31.270  1.00  0.00     0.148 A 
ATOM     65  C   UNL A   1      37.922  31.082  29.554  1.00  0.00     0.002 A 
ATOM     66  C   UNL A   1      38.559  30.219  31.730  1.00  0.00     0.091 A 
ATOM     67  F   UNL A   1      40.793  29.448  32.068  1.00  0.00    -0.205 F 
ATOM     68  C   UNL A   1      37.600  30.789  30.876  1.00  0.00     0.022 A 
BRANCH  66  69
ATOM     69  S   UNL A   1      38.023  29.810  33.395  1.00  0.00     0.127 S 
ATOM     70  O   UNL A   1      39.302  29.642  34.083  1.00  0.00    -0.237 OA
ATOM     71  O   UNL A   1      37.274  31.006  33.780  1.00  0.00    -0.237 OA
ATOM     72  O   UNL A   1      37.219  28.601  33.273  1.00  0.00    -0.744 OA
ENDBRANCH  66  69
ENDBRANCH  48  62
BRANCH  49  73
ATOM     73  C   UNL A   1      48.868  27.468  25.877  1.00  0.00     0.023 A 
ATOM     74  C   UNL A   1      48.939  27.406  24.472  1.00  0.00     0.012 A 
ATOM     75  C   UNL A   1      50.017  27.174  26.636  1.00  0.00     0.148 A 
ATOM     76  C   UNL A   1      50.123  27.026  23.837  1.00  0.00     0.002 A 
ATOM     77  C   UNL A   1      51.208  26.854  25.996  1.00  0.00     0.091 A 
ATOM     78  F   UNL A   1      49.925  27.215  27.973  1.00  0.00    -0.205 F 
ATOM     79  C   UNL A   1      51.260  26.760  24.597  1.00  0.00     0.022 A 
BRANCH  77  80
ATOM     80  S   UNL A   1      52.746  26.637  26.898  1.00  0.00     0.127 S 
ATOM     81  O   UNL A   1      52.453  25.463  27.715  1.00  0.00    -0.237 OA
ATOM     82  O   UNL A   1      53.706  26.413  25.818  1.00  0.00    -0.237 OA
ATOM     83  O   UNL A   1      52.949  27.885  27.623  1.00  0.00    -0.744 OA
ENDBRANCH  77  80
ENDBRANCH  49  73
BRANCH  61  84
ATOM     84  C   UNL A   1      46.572  33.349  28.862  1.00  0.00     0.023 A 
ATOM     85  C   UNL A   1      47.278  33.595  30.056  1.00  0.00     0.012 A 
ATOM     86  C   UNL A   1      46.534  34.344  27.864  1.00  0.00     0.148 A 
ATOM     87  C   UNL A   1      47.909  34.821  30.268  1.00  0.00     0.002 A 
ATOM     88  C   UNL A   1      47.205  35.546  28.063  1.00  0.00     0.091 A 
ATOM     89  F   UNL A   1      45.842  34.099  26.742  1.00  0.00    -0.205 F 
ATOM     90  C   UNL A   1      47.882  35.791  29.268  1.00  0.00     0.022 A 
BRANCH  88  91
ATOM     91  S   UNL A   1      47.303  36.814  26.794  1.00  0.00     0.127 S 
ATOM     92  O   UNL A   1      48.387  36.310  25.952  1.00  0.00    -0.237 OA
ATOM     93  O   UNL A   1      45.975  36.747  26.183  1.00  0.00    -0.237 OA
ATOM     94  O   UNL A   1      47.581  38.060  27.495  1.00  0.00    -0.744 OA
ENDBRANCH  88  91
ENDBRANCH  61  84
ENDBRANCH  35  36
ENDBRANCH  28  30
ENDBRANCH  27  28
ENDBRANCH  26  27
ENDBRANCH  25  26
ENDBRANCH  24  25
ENDBRANCH   1  24
TORSDOF 23
ENDMDL
