MODEL 1
REMARK VINA RESULT:     -10.5      0.000      0.000
REMARK SMILES [NH3+][C@H](C(=O)OCCOCCOC(=O)c1ccc(-c2c3nc(c(-c4cccc(S(=O)(=O)[O-])c4F)c4ccc([nH]4)c(-c4cccc(S(=O)(=O)[O-])c4F)c4nc(c(-c5cccc(S(=O)(=O)[O-])c5F)c5ccc2[nH]5)C=C4)C=C3)cc1)c1ccc(OCC(=O)N2CCCC2)cc1
REMARK SMILES IDX 7 1 6 2 5 3 3 4 4 5 2 6 1 7 77 11 78 12 91 13 79 14 90 15
REMARK SMILES IDX 80 16 81 17 82 18 83 19 84 20 85 21 86 22 89 23 87 24 88 25
REMARK SMILES IDX 8 26 9 27 10 28 11 29 12 30 13 31 14 32 15 33 76 34 16 35
REMARK SMILES IDX 75 36 17 37 18 38 19 39 69 40 20 41 74 42 68 43 70 44 21 45
REMARK SMILES IDX 73 46 67 47 66 48 22 50 54 51 34 52 53 53 35 54 38 55 52 56
REMARK SMILES IDX 71 57 36 58 37 59 51 61 72 62 39 63 23 64 24 65 32 66 25 67
REMARK SMILES IDX 27 68 33 69 26 70 28 71 29 72 30 73 31 74 55 75 56 76 64 77
REMARK SMILES IDX 57 78 59 79 65 80 58 81 60 82 61 83 62 84 63 85 40 86 41 87
REMARK SMILES IDX 49 88 42 89 44 90 50 91 43 92 45 93 46 94 47 95 48 96
REMARK H PARENT 1 8 1 9 1 10 70 49 38 60
REMARK Flexibility Score: inf
ROOT
ATOM      1  C   UNL A   1      36.041  18.386  24.873  1.00  0.00     0.202 C 
ENDROOT
BRANCH   1   2
ATOM      2  C   UNL A   1      34.829  17.692  24.242  1.00  0.00     0.261 C 
BRANCH   2   3
ATOM      3  O   UNL A   1      33.604  17.975  24.941  1.00  0.00    -0.459 OA
BRANCH   3   4
ATOM      4  C   UNL A   1      32.735  18.803  24.297  1.00  0.00     0.369 C 
ATOM      5  O   UNL A   1      32.282  18.597  23.172  1.00  0.00    -0.245 OA
BRANCH   4   6
ATOM      6  C   UNL A   1      32.389  20.083  25.104  1.00  0.00     0.323 C 
BRANCH   6   7
ATOM      7  N   UNL A   1      33.252  20.094  26.325  1.00  0.00    -0.342 N 
ATOM      8  H   UNL A   1      34.089  19.536  26.154  1.00  0.00     0.345 HD
ATOM      9  H   UNL A   1      32.736  19.699  27.110  1.00  0.00     0.345 HD
ATOM     10  H   UNL A   1      33.521  21.053  26.543  1.00  0.00     0.345 HD
ENDBRANCH   6   7
BRANCH   6  11
ATOM     11  C   UNL A   1      32.479  21.399  24.334  1.00  0.00     0.021 A 
ATOM     12  C   UNL A   1      33.720  21.829  23.838  1.00  0.00     0.014 A 
ATOM     13  C   UNL A   1      31.359  22.211  24.070  1.00  0.00     0.014 A 
ATOM     14  C   UNL A   1      33.828  23.014  23.102  1.00  0.00     0.047 A 
ATOM     15  C   UNL A   1      31.468  23.394  23.326  1.00  0.00     0.047 A 
ATOM     16  C   UNL A   1      32.704  23.794  22.829  1.00  0.00     0.120 A 
BRANCH  16  17
ATOM     17  O   UNL A   1      32.952  24.896  22.067  1.00  0.00    -0.484 OA
BRANCH  17  18
ATOM     18  C   UNL A   1      33.716  25.947  22.626  1.00  0.00     0.329 C 
BRANCH  18  19
ATOM     19  C   UNL A   1      33.299  27.412  22.393  1.00  0.00     0.260 C 
ATOM     20  O   UNL A   1      34.017  28.158  21.720  1.00  0.00    -0.271 OA
ATOM     21  N   UNL A   1      32.073  27.826  22.863  1.00  0.00    -0.340 N 
ATOM     22  C   UNL A   1      31.166  27.098  23.732  1.00  0.00     0.119 C 
ATOM     23  C   UNL A   1      31.542  29.134  22.526  1.00  0.00     0.119 C 
ATOM     24  C   UNL A   1      29.821  27.763  23.492  1.00  0.00     0.023 C 
ATOM     25  C   UNL A   1      30.192  29.218  23.229  1.00  0.00     0.023 C 
ENDBRANCH  18  19
ENDBRANCH  17  18
ENDBRANCH  16  17
ENDBRANCH   6  11
ENDBRANCH   4   6
ENDBRANCH   3   4
ENDBRANCH   2   3
ENDBRANCH   1   2
BRANCH   1  26
ATOM     26  O   UNL A   1      36.043  19.812  24.863  1.00  0.00    -0.374 OA
BRANCH  26  27
ATOM     27  C   UNL A   1      37.300  20.466  25.041  1.00  0.00     0.202 C 
BRANCH  27  28
ATOM     28  C   UNL A   1      38.542  19.571  25.123  1.00  0.00     0.261 C 
BRANCH  28  29
ATOM     29  O   UNL A   1      39.219  19.700  26.387  1.00  0.00    -0.460 OA
BRANCH  29  30
ATOM     30  C   UNL A   1      40.542  19.960  26.299  1.00  0.00     0.338 C 
ATOM     31  O   UNL A   1      41.394  19.274  25.744  1.00  0.00    -0.246 OA
BRANCH  30  32
ATOM     32  C   UNL A   1      40.836  21.311  26.807  1.00  0.00     0.060 A 
ATOM     33  C   UNL A   1      40.351  22.395  26.064  1.00  0.00     0.016 A 
ATOM     34  C   UNL A   1      41.641  21.524  27.929  1.00  0.00     0.016 A 
ATOM     35  C   UNL A   1      40.723  23.694  26.399  1.00  0.00     0.010 A 
ATOM     36  C   UNL A   1      42.018  22.831  28.261  1.00  0.00     0.010 A 
ATOM     37  C   UNL A   1      41.598  23.917  27.471  1.00  0.00    -0.014 A 
BRANCH  37  38
ATOM     38  C   UNL A   1      42.181  25.270  27.656  1.00  0.00     0.031 A 
ATOM     39  C   UNL A   1      41.352  26.341  28.316  1.00  0.00     0.074 A 
ATOM     40  C   UNL A   1      43.443  25.536  27.275  1.00  0.00     0.049 A 
ATOM     41  N   UNL A   1      41.674  27.574  28.606  1.00  0.00    -0.248 NA
ATOM     42  C   UNL A   1      39.981  25.971  28.703  1.00  0.00     0.031 C 
ATOM     43  C   UNL A   1      44.348  24.587  26.631  1.00  0.00     0.029 A 
ATOM     44  N   UNL A   1      44.176  26.694  27.363  1.00  0.00    -0.354 N 
ATOM     45  C   UNL A   1      40.542  28.137  29.183  1.00  0.00     0.074 A 
ATOM     46  C   UNL A   1      39.519  27.114  29.192  1.00  0.00     0.031 C 
ATOM     47  C   UNL A   1      45.511  25.206  26.365  1.00  0.00     0.029 A 
ATOM     48  C   UNL A   1      45.427  26.598  26.803  1.00  0.00     0.049 A 
ATOM     49  H   UNL A   1      43.837  27.515  27.789  1.00  0.00     0.167 HD
ATOM     50  C   UNL A   1      40.372  29.385  29.680  1.00  0.00     0.034 A 
ATOM     51  C   UNL A   1      46.390  27.530  26.650  1.00  0.00     0.034 A 
ATOM     52  C   UNL A   1      41.397  30.394  29.700  1.00  0.00     0.049 A 
ATOM     53  C   UNL A   1      46.168  28.918  27.194  1.00  0.00     0.074 A 
ATOM     54  C   UNL A   1      41.336  31.669  30.237  1.00  0.00     0.029 A 
ATOM     55  N   UNL A   1      42.661  30.250  29.151  1.00  0.00    -0.354 N 
ATOM     56  N   UNL A   1      45.140  29.391  27.856  1.00  0.00    -0.248 NA
ATOM     57  C   UNL A   1      47.254  29.890  27.000  1.00  0.00     0.031 C 
ATOM     58  C   UNL A   1      42.558  32.305  29.989  1.00  0.00     0.029 A 
ATOM     59  C   UNL A   1      43.385  31.418  29.320  1.00  0.00     0.049 A 
ATOM     60  H   UNL A   1      42.993  29.438  28.707  1.00  0.00     0.167 HD
ATOM     61  C   UNL A   1      45.469  30.701  28.189  1.00  0.00     0.074 A 
ATOM     62  C   UNL A   1      46.800  30.941  27.671  1.00  0.00     0.031 C 
ATOM     63  C   UNL A   1      44.731  31.627  28.849  1.00  0.00     0.034 A 
BRANCH  50  64
ATOM     64  C   UNL A   1      39.032  29.724  30.274  1.00  0.00     0.023 A 
ATOM     65  C   UNL A   1      38.708  29.270  31.568  1.00  0.00     0.012 A 
ATOM     66  C   UNL A   1      38.117  30.537  29.577  1.00  0.00     0.148 A 
ATOM     67  C   UNL A   1      37.483  29.597  32.150  1.00  0.00     0.002 A 
ATOM     68  C   UNL A   1      36.914  30.892  30.179  1.00  0.00     0.091 A 
ATOM     69  F   UNL A   1      38.433  30.938  28.337  1.00  0.00    -0.205 F 
ATOM     70  C   UNL A   1      36.592  30.416  31.460  1.00  0.00     0.022 A 
BRANCH  68  71
ATOM     71  S   UNL A   1      35.737  32.002  29.398  1.00  0.00     0.127 S 
ATOM     72  O   UNL A   1      36.532  33.220  29.253  1.00  0.00    -0.237 OA
ATOM     73  O   UNL A   1      35.446  31.310  28.141  1.00  0.00    -0.237 OA
ATOM     74  O   UNL A   1      34.608  32.095  30.313  1.00  0.00    -0.744 OA
ENDBRANCH  68  71
ENDBRANCH  50  64
BRANCH  51  75
ATOM     75  C   UNL A   1      47.674  27.169  25.987  1.00  0.00     0.023 A 
ATOM     76  C   UNL A   1      48.699  26.565  26.741  1.00  0.00     0.012 A 
ATOM     77  C   UNL A   1      47.878  27.403  24.613  1.00  0.00     0.148 A 
ATOM     78  C   UNL A   1      49.913  26.224  26.143  1.00  0.00     0.002 A 
ATOM     79  C   UNL A   1      49.068  27.010  24.013  1.00  0.00     0.091 A 
ATOM     80  F   UNL A   1      46.898  27.999  23.919  1.00  0.00    -0.205 F 
ATOM     81  C   UNL A   1      50.094  26.436  24.779  1.00  0.00     0.022 A 
BRANCH  79  82
ATOM     82  S   UNL A   1      49.332  27.126  22.240  1.00  0.00     0.127 S 
ATOM     83  O   UNL A   1      48.918  28.500  21.965  1.00  0.00    -0.237 OA
ATOM     84  O   UNL A   1      50.771  26.883  22.131  1.00  0.00    -0.237 OA
ATOM     85  O   UNL A   1      48.503  26.083  21.652  1.00  0.00    -0.744 OA
ENDBRANCH  79  82
ENDBRANCH  51  75
BRANCH  63  86
ATOM     86  C   UNL A   1      45.348  32.982  29.085  1.00  0.00     0.023 A 
ATOM     87  C   UNL A   1      46.192  33.181  30.195  1.00  0.00     0.012 A 
ATOM     88  C   UNL A   1      45.157  34.031  28.163  1.00  0.00     0.148 A 
ATOM     89  C   UNL A   1      46.815  34.412  30.400  1.00  0.00     0.002 A 
ATOM     90  C   UNL A   1      45.818  35.240  28.349  1.00  0.00     0.091 A 
ATOM     91  F   UNL A   1      44.335  33.829  27.123  1.00  0.00    -0.205 F 
ATOM     92  C   UNL A   1      46.637  35.437  29.472  1.00  0.00     0.022 A 
BRANCH  90  93
ATOM     93  S   UNL A   1      45.722  36.581  27.156  1.00  0.00     0.127 S 
ATOM     94  O   UNL A   1      46.677  36.145  26.139  1.00  0.00    -0.237 OA
ATOM     95  O   UNL A   1      44.320  36.529  26.739  1.00  0.00    -0.237 OA
ATOM     96  O   UNL A   1      46.088  37.790  27.884  1.00  0.00    -0.744 OA
ENDBRANCH  90  93
ENDBRANCH  63  86
ENDBRANCH  37  38
ENDBRANCH  30  32
ENDBRANCH  29  30
ENDBRANCH  28  29
ENDBRANCH  27  28
ENDBRANCH  26  27
ENDBRANCH   1  26
TORSDOF 22
ENDMDL
MODEL 2
REMARK VINA RESULT:     -10.4      4.794     10.586
REMARK SMILES [NH3+][C@H](C(=O)OCCOCCOC(=O)c1ccc(-c2c3nc(c(-c4cccc(S(=O)(=O)[O-])c4F)c4ccc([nH]4)c(-c4cccc(S(=O)(=O)[O-])c4F)c4nc(c(-c5cccc(S(=O)(=O)[O-])c5F)c5ccc2[nH]5)C=C4)C=C3)cc1)c1ccc(OCC(=O)N2CCCC2)cc1
REMARK SMILES IDX 7 1 6 2 5 3 3 4 4 5 2 6 1 7 77 11 78 12 91 13 79 14 90 15
REMARK SMILES IDX 80 16 81 17 82 18 83 19 84 20 85 21 86 22 89 23 87 24 88 25
REMARK SMILES IDX 8 26 9 27 10 28 11 29 12 30 13 31 14 32 15 33 76 34 16 35
REMARK SMILES IDX 75 36 17 37 18 38 19 39 69 40 20 41 74 42 68 43 70 44 21 45
REMARK SMILES IDX 73 46 67 47 66 48 22 50 54 51 34 52 53 53 35 54 38 55 52 56
REMARK SMILES IDX 71 57 36 58 37 59 51 61 72 62 39 63 23 64 24 65 32 66 25 67
REMARK SMILES IDX 27 68 33 69 26 70 28 71 29 72 30 73 31 74 55 75 56 76 64 77
REMARK SMILES IDX 57 78 59 79 65 80 58 81 60 82 61 83 62 84 63 85 40 86 41 87
REMARK SMILES IDX 49 88 42 89 44 90 50 91 43 92 45 93 46 94 47 95 48 96
REMARK H PARENT 1 8 1 9 1 10 70 49 38 60
REMARK Flexibility Score: inf
ROOT
ATOM      1  C   UNL A   1      43.260  18.610  25.463  1.00  0.00     0.202 C 
ENDROOT
BRANCH   1   2
ATOM      2  C   UNL A   1      44.554  18.855  24.680  1.00  0.00     0.261 C 
BRANCH   2   3
ATOM      3  O   UNL A   1      44.735  20.238  24.328  1.00  0.00    -0.459 OA
BRANCH   3   4
ATOM      4  C   UNL A   1      45.959  20.763  24.610  1.00  0.00     0.369 C 
ATOM      5  O   UNL A   1      46.924  20.108  25.000  1.00  0.00    -0.245 OA
BRANCH   4   6
ATOM      6  C   UNL A   1      46.025  22.304  24.434  1.00  0.00     0.323 C 
BRANCH   6   7
ATOM      7  N   UNL A   1      44.976  22.690  23.442  1.00  0.00    -0.342 N 
ATOM      8  H   UNL A   1      44.099  22.877  23.929  1.00  0.00     0.345 HD
ATOM      9  H   UNL A   1      44.839  21.929  22.778  1.00  0.00     0.345 HD
ATOM     10  H   UNL A   1      45.272  23.528  22.942  1.00  0.00     0.345 HD
ENDBRANCH   6   7
BRANCH   6  11
ATOM     11  C   UNL A   1      45.920  23.125  25.718  1.00  0.00     0.021 A 
ATOM     12  C   UNL A   1      45.240  22.595  26.827  1.00  0.00     0.014 A 
ATOM     13  C   UNL A   1      46.500  24.400  25.863  1.00  0.00     0.014 A 
ATOM     14  C   UNL A   1      45.155  23.310  28.026  1.00  0.00     0.047 A 
ATOM     15  C   UNL A   1      46.420  25.112  27.068  1.00  0.00     0.047 A 
ATOM     16  C   UNL A   1      45.756  24.562  28.159  1.00  0.00     0.120 A 
BRANCH  16  17
ATOM     17  O   UNL A   1      45.628  25.122  29.395  1.00  0.00    -0.484 OA
BRANCH  17  18
ATOM     18  C   UNL A   1      44.446  24.874  30.131  1.00  0.00     0.329 C 
BRANCH  18  19
ATOM     19  C   UNL A   1      44.471  24.927  31.670  1.00  0.00     0.260 C 
ATOM     20  O   UNL A   1      44.894  23.961  32.314  1.00  0.00    -0.271 OA
ATOM     21  N   UNL A   1      44.109  26.101  32.291  1.00  0.00    -0.340 N 
ATOM     22  C   UNL A   1      43.518  27.280  31.682  1.00  0.00     0.119 C 
ATOM     23  C   UNL A   1      44.280  26.279  33.721  1.00  0.00     0.119 C 
ATOM     24  C   UNL A   1      43.821  28.391  32.672  1.00  0.00     0.023 C 
ATOM     25  C   UNL A   1      43.768  27.683  34.021  1.00  0.00     0.023 C 
ENDBRANCH  18  19
ENDBRANCH  17  18
ENDBRANCH  16  17
ENDBRANCH   6  11
ENDBRANCH   4   6
ENDBRANCH   3   4
ENDBRANCH   2   3
ENDBRANCH   1   2
BRANCH   1  26
ATOM     26  O   UNL A   1      43.039  19.428  26.612  1.00  0.00    -0.374 OA
BRANCH  26  27
ATOM     27  C   UNL A   1      41.711  19.906  26.829  1.00  0.00     0.202 C 
BRANCH  27  28
ATOM     28  C   UNL A   1      41.505  21.424  26.791  1.00  0.00     0.261 C 
BRANCH  28  29
ATOM     29  O   UNL A   1      40.272  21.818  27.420  1.00  0.00    -0.460 OA
BRANCH  29  30
ATOM     30  C   UNL A   1      39.458  22.574  26.649  1.00  0.00     0.338 C 
ATOM     31  O   UNL A   1      38.667  22.176  25.800  1.00  0.00    -0.246 OA
BRANCH  30  32
ATOM     32  C   UNL A   1      39.491  23.979  27.088  1.00  0.00     0.060 A 
ATOM     33  C   UNL A   1      39.952  24.927  26.165  1.00  0.00     0.016 A 
ATOM     34  C   UNL A   1      39.170  24.358  28.393  1.00  0.00     0.016 A 
ATOM     35  C   UNL A   1      40.157  26.246  26.562  1.00  0.00     0.010 A 
ATOM     36  C   UNL A   1      39.382  25.684  28.791  1.00  0.00     0.010 A 
ATOM     37  C   UNL A   1      39.919  26.623  27.890  1.00  0.00    -0.014 A 
BRANCH  37  38
ATOM     38  C   UNL A   1      40.379  27.955  28.356  1.00  0.00     0.031 A 
ATOM     39  C   UNL A   1      41.850  28.277  28.317  1.00  0.00     0.074 A 
ATOM     40  C   UNL A   1      39.499  28.881  28.776  1.00  0.00     0.049 A 
ATOM     41  N   UNL A   1      42.463  29.385  28.643  1.00  0.00    -0.248 NA
ATOM     42  C   UNL A   1      42.748  27.209  27.847  1.00  0.00     0.031 C 
ATOM     43  C   UNL A   1      38.052  28.696  28.855  1.00  0.00     0.029 A 
ATOM     44  N   UNL A   1      39.700  30.162  29.229  1.00  0.00    -0.354 N 
ATOM     45  C   UNL A   1      43.817  29.143  28.445  1.00  0.00     0.074 A 
ATOM     46  C   UNL A   1      43.938  27.777  27.981  1.00  0.00     0.031 C 
ATOM     47  C   UNL A   1      37.495  29.817  29.346  1.00  0.00     0.029 A 
ATOM     48  C   UNL A   1      38.547  30.791  29.632  1.00  0.00     0.049 A 
ATOM     49  H   UNL A   1      40.587  30.589  29.260  1.00  0.00     0.167 HD
ATOM     50  C   UNL A   1      44.864  29.984  28.612  1.00  0.00     0.034 A 
ATOM     51  C   UNL A   1      38.362  32.009  30.181  1.00  0.00     0.034 A 
ATOM     52  C   UNL A   1      44.743  31.351  29.044  1.00  0.00     0.049 A 
ATOM     53  C   UNL A   1      39.548  32.919  30.376  1.00  0.00     0.074 A 
ATOM     54  C   UNL A   1      45.742  32.298  29.186  1.00  0.00     0.029 A 
ATOM     55  N   UNL A   1      43.556  31.962  29.415  1.00  0.00    -0.354 N 
ATOM     56  N   UNL A   1      40.803  32.720  30.056  1.00  0.00    -0.248 NA
ATOM     57  C   UNL A   1      39.284  34.236  30.975  1.00  0.00     0.031 C 
ATOM     58  C   UNL A   1      45.161  33.476  29.668  1.00  0.00     0.029 A 
ATOM     59  C   UNL A   1      43.797  33.269  29.802  1.00  0.00     0.049 A 
ATOM     60  H   UNL A   1      42.672  31.530  29.404  1.00  0.00     0.167 HD
ATOM     61  C   UNL A   1      41.472  33.896  30.381  1.00  0.00     0.074 A 
ATOM     62  C   UNL A   1      40.478  34.809  30.906  1.00  0.00     0.031 C 
ATOM     63  C   UNL A   1      42.792  34.188  30.270  1.00  0.00     0.034 A 
BRANCH  50  64
ATOM     64  C   UNL A   1      46.239  29.459  28.299  1.00  0.00     0.023 A 
ATOM     65  C   UNL A   1      46.803  29.697  27.029  1.00  0.00     0.012 A 
ATOM     66  C   UNL A   1      46.994  28.782  29.276  1.00  0.00     0.148 A 
ATOM     67  C   UNL A   1      48.087  29.245  26.727  1.00  0.00     0.002 A 
ATOM     68  C   UNL A   1      48.290  28.370  28.980  1.00  0.00     0.091 A 
ATOM     69  F   UNL A   1      46.431  28.544  30.469  1.00  0.00    -0.205 F 
ATOM     70  C   UNL A   1      48.834  28.592  27.705  1.00  0.00     0.022 A 
BRANCH  68  71
ATOM     71  S   UNL A   1      49.353  27.586  30.198  1.00  0.00     0.127 S 
ATOM     72  O   UNL A   1      50.577  27.377  29.428  1.00  0.00    -0.237 OA
ATOM     73  O   UNL A   1      49.451  28.617  31.232  1.00  0.00    -0.237 OA
ATOM     74  O   UNL A   1      48.658  26.375  30.615  1.00  0.00    -0.744 OA
ENDBRANCH  68  71
ENDBRANCH  50  64
BRANCH  51  75
ATOM     75  C   UNL A   1      36.990  32.459  30.546  1.00  0.00     0.023 A 
ATOM     76  C   UNL A   1      36.540  32.309  31.873  1.00  0.00     0.012 A 
ATOM     77  C   UNL A   1      36.136  33.048  29.594  1.00  0.00     0.148 A 
ATOM     78  C   UNL A   1      35.256  32.716  32.237  1.00  0.00     0.002 A 
ATOM     79  C   UNL A   1      34.879  33.502  29.976  1.00  0.00     0.091 A 
ATOM     80  F   UNL A   1      36.575  33.161  28.332  1.00  0.00    -0.205 F 
ATOM     81  C   UNL A   1      34.430  33.321  31.293  1.00  0.00     0.022 A 
BRANCH  79  82
ATOM     82  S   UNL A   1      33.805  34.409  28.858  1.00  0.00     0.127 S 
ATOM     83  O   UNL A   1      32.764  34.886  29.765  1.00  0.00    -0.237 OA
ATOM     84  O   UNL A   1      34.704  35.447  28.351  1.00  0.00    -0.237 OA
ATOM     85  O   UNL A   1      33.380  33.443  27.854  1.00  0.00    -0.744 OA
ENDBRANCH  79  82
ENDBRANCH  51  75
BRANCH  63  86
ATOM     86  C   UNL A   1      43.247  35.562  30.692  1.00  0.00     0.023 A 
ATOM     87  C   UNL A   1      43.690  35.775  32.012  1.00  0.00     0.012 A 
ATOM     88  C   UNL A   1      43.312  36.617  29.761  1.00  0.00     0.148 A 
ATOM     89  C   UNL A   1      44.165  37.026  32.407  1.00  0.00     0.002 A 
ATOM     90  C   UNL A   1      43.830  37.848  30.149  1.00  0.00     0.091 A 
ATOM     91  F   UNL A   1      42.869  36.400  28.514  1.00  0.00    -0.205 F 
ATOM     92  C   UNL A   1      44.246  38.058  31.474  1.00  0.00     0.022 A 
BRANCH  90  93
ATOM     93  S   UNL A   1      44.060  39.203  28.992  1.00  0.00     0.127 S 
ATOM     94  O   UNL A   1      42.681  39.517  28.622  1.00  0.00    -0.237 OA
ATOM     95  O   UNL A   1      44.715  40.216  29.821  1.00  0.00    -0.237 OA
ATOM     96  O   UNL A   1      44.892  38.674  27.918  1.00  0.00    -0.744 OA
ENDBRANCH  90  93
ENDBRANCH  63  86
ENDBRANCH  37  38
ENDBRANCH  30  32
ENDBRANCH  29  30
ENDBRANCH  28  29
ENDBRANCH  27  28
ENDBRANCH  26  27
ENDBRANCH   1  26
TORSDOF 22
ENDMDL
MODEL 3
REMARK VINA RESULT:     -10.3      4.846     10.553
REMARK SMILES [NH3+][C@H](C(=O)OCCOCCOC(=O)c1ccc(-c2c3nc(c(-c4cccc(S(=O)(=O)[O-])c4F)c4ccc([nH]4)c(-c4cccc(S(=O)(=O)[O-])c4F)c4nc(c(-c5cccc(S(=O)(=O)[O-])c5F)c5ccc2[nH]5)C=C4)C=C3)cc1)c1ccc(OCC(=O)N2CCCC2)cc1
REMARK SMILES IDX 7 1 6 2 5 3 3 4 4 5 2 6 1 7 77 11 78 12 91 13 79 14 90 15
REMARK SMILES IDX 80 16 81 17 82 18 83 19 84 20 85 21 86 22 89 23 87 24 88 25
REMARK SMILES IDX 8 26 9 27 10 28 11 29 12 30 13 31 14 32 15 33 76 34 16 35
REMARK SMILES IDX 75 36 17 37 18 38 19 39 69 40 20 41 74 42 68 43 70 44 21 45
REMARK SMILES IDX 73 46 67 47 66 48 22 50 54 51 34 52 53 53 35 54 38 55 52 56
REMARK SMILES IDX 71 57 36 58 37 59 51 61 72 62 39 63 23 64 24 65 32 66 25 67
REMARK SMILES IDX 27 68 33 69 26 70 28 71 29 72 30 73 31 74 55 75 56 76 64 77
REMARK SMILES IDX 57 78 59 79 65 80 58 81 60 82 61 83 62 84 63 85 40 86 41 87
REMARK SMILES IDX 49 88 42 89 44 90 50 91 43 92 45 93 46 94 47 95 48 96
REMARK H PARENT 1 8 1 9 1 10 70 49 38 60
REMARK Flexibility Score: inf
ROOT
ATOM      1  C   UNL A   1      42.853  18.841  25.559  1.00  0.00     0.202 C 
ENDROOT
BRANCH   1   2
ATOM      2  C   UNL A   1      44.270  19.342  25.261  1.00  0.00     0.261 C 
BRANCH   2   3
ATOM      3  O   UNL A   1      44.276  20.555  24.486  1.00  0.00    -0.459 OA
BRANCH   3   4
ATOM      4  C   UNL A   1      45.145  21.517  24.903  1.00  0.00     0.369 C 
ATOM      5  O   UNL A   1      46.358  21.355  25.020  1.00  0.00    -0.245 OA
BRANCH   4   6
ATOM      6  C   UNL A   1      44.451  22.857  25.269  1.00  0.00     0.323 C 
BRANCH   6   7
ATOM      7  N   UNL A   1      43.127  22.884  24.578  1.00  0.00    -0.342 N 
ATOM      8  H   UNL A   1      42.380  22.864  25.272  1.00  0.00     0.345 HD
ATOM      9  H   UNL A   1      43.045  22.070  23.969  1.00  0.00     0.345 HD
ATOM     10  H   UNL A   1      43.051  23.734  24.020  1.00  0.00     0.345 HD
ENDBRANCH   6   7
BRANCH   6  11
ATOM     11  C   UNL A   1      44.317  23.149  26.763  1.00  0.00     0.021 A 
ATOM     12  C   UNL A   1      45.402  23.703  27.462  1.00  0.00     0.014 A 
ATOM     13  C   UNL A   1      43.134  22.911  27.487  1.00  0.00     0.014 A 
ATOM     14  C   UNL A   1      45.298  24.010  28.823  1.00  0.00     0.047 A 
ATOM     15  C   UNL A   1      43.029  23.226  28.849  1.00  0.00     0.047 A 
ATOM     16  C   UNL A   1      44.110  23.789  29.519  1.00  0.00     0.120 A 
BRANCH  16  17
ATOM     17  O   UNL A   1      44.141  24.176  30.826  1.00  0.00    -0.484 OA
BRANCH  17  18
ATOM     18  C   UNL A   1      44.643  25.460  31.140  1.00  0.00     0.329 C 
BRANCH  18  19
ATOM     19  C   UNL A   1      44.636  25.955  32.599  1.00  0.00     0.260 C 
ATOM     20  O   UNL A   1      44.949  25.184  33.512  1.00  0.00    -0.271 OA
ATOM     21  N   UNL A   1      44.375  27.285  32.839  1.00  0.00    -0.340 N 
ATOM     22  C   UNL A   1      43.914  28.282  31.888  1.00  0.00     0.119 C 
ATOM     23  C   UNL A   1      44.527  27.854  34.165  1.00  0.00     0.119 C 
ATOM     24  C   UNL A   1      44.299  29.602  32.533  1.00  0.00     0.023 C 
ATOM     25  C   UNL A   1      44.146  29.323  34.023  1.00  0.00     0.023 C 
ENDBRANCH  18  19
ENDBRANCH  17  18
ENDBRANCH  16  17
ENDBRANCH   6  11
ENDBRANCH   4   6
ENDBRANCH   3   4
ENDBRANCH   2   3
ENDBRANCH   1   2
BRANCH   1  26
ATOM     26  O   UNL A   1      42.131  19.528  26.581  1.00  0.00    -0.374 OA
BRANCH  26  27
ATOM     27  C   UNL A   1      40.789  19.918  26.283  1.00  0.00     0.202 C 
BRANCH  27  28
ATOM     28  C   UNL A   1      40.508  21.422  26.193  1.00  0.00     0.261 C 
BRANCH  28  29
ATOM     29  O   UNL A   1      39.201  21.758  26.693  1.00  0.00    -0.460 OA
BRANCH  29  30
ATOM     30  C   UNL A   1      38.685  22.909  26.206  1.00  0.00     0.338 C 
ATOM     31  O   UNL A   1      37.639  23.042  25.578  1.00  0.00    -0.246 OA
BRANCH  30  32
ATOM     32  C   UNL A   1      39.458  24.065  26.690  1.00  0.00     0.060 A 
ATOM     33  C   UNL A   1      39.486  24.283  28.073  1.00  0.00     0.016 A 
ATOM     34  C   UNL A   1      40.067  24.970  25.816  1.00  0.00     0.016 A 
ATOM     35  C   UNL A   1      40.065  25.441  28.586  1.00  0.00     0.010 A 
ATOM     36  C   UNL A   1      40.644  26.136  26.335  1.00  0.00     0.010 A 
ATOM     37  C   UNL A   1      40.605  26.398  27.717  1.00  0.00    -0.014 A 
BRANCH  37  38
ATOM     38  C   UNL A   1      40.985  27.728  28.255  1.00  0.00     0.031 A 
ATOM     39  C   UNL A   1      42.440  28.118  28.284  1.00  0.00     0.074 A 
ATOM     40  C   UNL A   1      40.049  28.594  28.681  1.00  0.00     0.049 A 
ATOM     41  N   UNL A   1      42.989  29.238  28.679  1.00  0.00    -0.248 NA
ATOM     42  C   UNL A   1      43.403  27.115  27.802  1.00  0.00     0.031 C 
ATOM     43  C   UNL A   1      38.610  28.340  28.700  1.00  0.00     0.029 A 
ATOM     44  N   UNL A   1      40.174  29.862  29.195  1.00  0.00    -0.354 N 
ATOM     45  C   UNL A   1      44.358  29.067  28.519  1.00  0.00     0.074 A 
ATOM     46  C   UNL A   1      44.560  27.730  28.004  1.00  0.00     0.031 C 
ATOM     47  C   UNL A   1      37.985  29.411  29.218  1.00  0.00     0.029 A 
ATOM     48  C   UNL A   1      38.979  30.419  29.583  1.00  0.00     0.049 A 
ATOM     49  H   UNL A   1      41.038  30.327  29.277  1.00  0.00     0.167 HD
ATOM     50  C   UNL A   1      45.358  29.947  28.761  1.00  0.00     0.034 A 
ATOM     51  C   UNL A   1      38.718  31.603  30.175  1.00  0.00     0.034 A 
ATOM     52  C   UNL A   1      45.158  31.287  29.245  1.00  0.00     0.049 A 
ATOM     53  C   UNL A   1      39.852  32.556  30.451  1.00  0.00     0.074 A 
ATOM     54  C   UNL A   1      46.106  32.271  29.463  1.00  0.00     0.029 A 
ATOM     55  N   UNL A   1      43.931  31.826  29.597  1.00  0.00    -0.354 N 
ATOM     56  N   UNL A   1      41.126  32.429  30.169  1.00  0.00    -0.248 NA
ATOM     57  C   UNL A   1      39.506  33.832  31.096  1.00  0.00     0.031 C 
ATOM     58  C   UNL A   1      45.453  33.400  29.972  1.00  0.00     0.029 A 
ATOM     59  C   UNL A   1      44.098  33.124  30.048  1.00  0.00     0.049 A 
ATOM     60  H   UNL A   1      43.070  31.355  29.536  1.00  0.00     0.167 HD
ATOM     61  C   UNL A   1      41.727  33.619  30.568  1.00  0.00     0.074 A 
ATOM     62  C   UNL A   1      40.674  34.462  31.094  1.00  0.00     0.031 C 
ATOM     63  C   UNL A   1      43.034  33.975  30.517  1.00  0.00     0.034 A 
BRANCH  50  64
ATOM     64  C   UNL A   1      46.767  29.500  28.475  1.00  0.00     0.023 A 
ATOM     65  C   UNL A   1      47.352  29.793  27.227  1.00  0.00     0.012 A 
ATOM     66  C   UNL A   1      47.529  28.841  29.459  1.00  0.00     0.148 A 
ATOM     67  C   UNL A   1      48.666  29.414  26.952  1.00  0.00     0.002 A 
ATOM     68  C   UNL A   1      48.851  28.501  29.192  1.00  0.00     0.091 A 
ATOM     69  F   UNL A   1      46.946  28.548  30.631  1.00  0.00    -0.205 F 
ATOM     70  C   UNL A   1      49.418  28.778  27.937  1.00  0.00     0.022 A 
BRANCH  68  71
ATOM     71  S   UNL A   1      49.919  27.746  30.423  1.00  0.00     0.127 S 
ATOM     72  O   UNL A   1      49.819  28.700  31.525  1.00  0.00    -0.237 OA
ATOM     73  O   UNL A   1      49.256  26.464  30.665  1.00  0.00    -0.237 OA
ATOM     74  O   UNL A   1      51.233  27.640  29.802  1.00  0.00    -0.744 OA
ENDBRANCH  68  71
ENDBRANCH  50  64
BRANCH  51  75
ATOM     75  C   UNL A   1      37.314  31.972  30.509  1.00  0.00     0.023 A 
ATOM     76  C   UNL A   1      36.809  31.692  31.793  1.00  0.00     0.012 A 
ATOM     77  C   UNL A   1      36.484  32.615  29.569  1.00  0.00     0.148 A 
ATOM     78  C   UNL A   1      35.495  32.022  32.127  1.00  0.00     0.002 A 
ATOM     79  C   UNL A   1      35.195  32.991  29.926  1.00  0.00     0.091 A 
ATOM     80  F   UNL A   1      36.978  32.852  28.345  1.00  0.00    -0.205 F 
ATOM     81  C   UNL A   1      34.692  32.681  31.199  1.00  0.00     0.022 A 
BRANCH  79  82
ATOM     82  S   UNL A   1      34.142  33.957  28.838  1.00  0.00     0.127 S 
ATOM     83  O   UNL A   1      35.064  34.986  28.364  1.00  0.00    -0.237 OA
ATOM     84  O   UNL A   1      33.754  32.966  27.833  1.00  0.00    -0.237 OA
ATOM     85  O   UNL A   1      33.042  34.424  29.672  1.00  0.00    -0.744 OA
ENDBRANCH  79  82
ENDBRANCH  51  75
BRANCH  63  86
ATOM     86  C   UNL A   1      43.409  35.349  31.013  1.00  0.00     0.023 A 
ATOM     87  C   UNL A   1      43.631  36.388  30.089  1.00  0.00     0.012 A 
ATOM     88  C   UNL A   1      43.460  35.627  32.394  1.00  0.00     0.148 A 
ATOM     89  C   UNL A   1      43.926  37.678  30.530  1.00  0.00     0.002 A 
ATOM     90  C   UNL A   1      43.709  36.925  32.826  1.00  0.00     0.091 A 
ATOM     91  F   UNL A   1      43.264  34.621  33.258  1.00  0.00    -0.205 F 
ATOM     92  C   UNL A   1      43.954  37.949  31.897  1.00  0.00     0.022 A 
BRANCH  90  93
ATOM     93  S   UNL A   1      43.670  37.384  34.563  1.00  0.00     0.127 S 
ATOM     94  O   UNL A   1      43.921  38.823  34.498  1.00  0.00    -0.237 OA
ATOM     95  O   UNL A   1      42.307  37.020  34.952  1.00  0.00    -0.237 OA
ATOM     96  O   UNL A   1      44.711  36.594  35.208  1.00  0.00    -0.744 OA
ENDBRANCH  90  93
ENDBRANCH  63  86
ENDBRANCH  37  38
ENDBRANCH  30  32
ENDBRANCH  29  30
ENDBRANCH  28  29
ENDBRANCH  27  28
ENDBRANCH  26  27
ENDBRANCH   1  26
TORSDOF 22
ENDMDL
