MODEL 1
REMARK VINA RESULT:     -11.2      0.000      0.000
REMARK SMILES O=C(OCCOCCOC(=O)[C@@]1(c2ccccc2)CCCC[NH2+]1)c1ccc(-c2c3nc(c(-c4cccc(S(=O)(=O)[O-])c4F)c4ccc([nH]4)c(-c4cccc(S(=O)(=O)[O-])c4F)c4nc(c(-c5cccc(S(=O)(=O)[O-])c5F)c5ccc2[nH]5)C=C4)C=C3)cc1
REMARK SMILES IDX 5 1 4 2 3 3 2 4 1 5 24 6 25 7 86 8 26 9 85 10 27 11 28 12
REMARK SMILES IDX 29 13 79 14 30 15 84 16 78 17 80 18 31 19 83 20 77 21 76 22
REMARK SMILES IDX 32 24 64 25 44 26 63 27 45 28 48 29 62 30 81 31 46 32 47 33
REMARK SMILES IDX 61 35 82 36 49 37 33 38 34 39 42 40 35 41 37 42 43 43 36 44
REMARK SMILES IDX 38 45 39 46 40 47 41 48 65 49 66 50 74 51 67 52 69 53 75 54
REMARK SMILES IDX 68 55 70 56 71 57 72 58 73 59 50 60 51 61 59 62 52 63 54 64
REMARK SMILES IDX 60 65 53 66 55 67 56 68 57 69 58 70 6 71 7 72 8 73 9 74
REMARK SMILES IDX 10 75 11 76 12 77 19 78 23 79 20 80 22 81 21 84 13 85 14 86
REMARK SMILES IDX 18 87 15 88 17 89 16 90
REMARK H PARENT 80 23 48 34 23 82 23 83
REMARK Flexibility Score: inf
ROOT
ATOM      1  C   UNL A   1      31.800  29.254  24.557  1.00  0.00     0.202 C 
ENDROOT
BRANCH   1   2
ATOM      2  C   UNL A   1      33.096  29.309  25.364  1.00  0.00     0.261 C 
BRANCH   2   3
ATOM      3  O   UNL A   1      32.832  29.854  26.674  1.00  0.00    -0.460 OA
BRANCH   3   4
ATOM      4  C   UNL A   1      33.414  30.953  27.225  1.00  0.00     0.338 C 
ATOM      5  O   UNL A   1      32.817  32.018  27.270  1.00  0.00    -0.246 OA
BRANCH   4   6
ATOM      6  C   UNL A   1      34.759  30.834  27.824  1.00  0.00     0.060 A 
ATOM      7  C   UNL A   1      35.192  29.642  28.388  1.00  0.00     0.016 A 
ATOM      8  C   UNL A   1      35.630  31.919  27.802  1.00  0.00     0.016 A 
ATOM      9  C   UNL A   1      36.349  29.536  29.100  1.00  0.00     0.010 A 
ATOM     10  C   UNL A   1      36.887  31.786  28.393  1.00  0.00     0.010 A 
ATOM     11  C   UNL A   1      37.226  30.593  29.054  1.00  0.00    -0.014 A 
BRANCH  11  12
ATOM     12  C   UNL A   1      38.469  30.412  29.792  1.00  0.00     0.031 A 
ATOM     13  C   UNL A   1      39.506  29.565  29.159  1.00  0.00     0.074 A 
ATOM     14  C   UNL A   1      38.651  31.088  30.938  1.00  0.00     0.049 A 
ATOM     15  N   UNL A   1      40.548  29.014  29.698  1.00  0.00    -0.248 NA
ATOM     16  C   UNL A   1      39.334  29.282  27.721  1.00  0.00     0.031 C 
ATOM     17  C   UNL A   1      37.727  32.088  31.495  1.00  0.00     0.029 A 
ATOM     18  N   UNL A   1      39.665  31.034  31.849  1.00  0.00    -0.354 N 
ATOM     19  C   UNL A   1      41.085  28.212  28.705  1.00  0.00     0.074 A 
ATOM     20  C   UNL A   1      40.297  28.402  27.509  1.00  0.00     0.031 C 
ATOM     21  C   UNL A   1      38.206  32.531  32.663  1.00  0.00     0.029 A 
ATOM     22  C   UNL A   1      39.385  31.749  32.989  1.00  0.00     0.049 A 
ATOM     23  H   UNL A   1      40.503  30.538  31.705  1.00  0.00     0.167 HD
ATOM     24  C   UNL A   1      42.119  27.357  28.836  1.00  0.00     0.034 A 
ATOM     25  C   UNL A   1      39.960  31.675  34.201  1.00  0.00     0.034 A 
ATOM     26  C   UNL A   1      42.841  27.240  30.071  1.00  0.00     0.049 A 
ATOM     27  C   UNL A   1      41.083  30.691  34.344  1.00  0.00     0.074 A 
ATOM     28  C   UNL A   1      43.888  26.404  30.393  1.00  0.00     0.029 A 
ATOM     29  N   UNL A   1      42.562  28.001  31.206  1.00  0.00    -0.354 N 
ATOM     30  N   UNL A   1      41.574  29.876  33.438  1.00  0.00    -0.248 NA
ATOM     31  C   UNL A   1      41.735  30.610  35.652  1.00  0.00     0.031 C 
ATOM     32  C   UNL A   1      44.218  26.637  31.733  1.00  0.00     0.029 A 
ATOM     33  C   UNL A   1      43.412  27.654  32.233  1.00  0.00     0.049 A 
ATOM     34  H   UNL A   1      41.859  28.687  31.264  1.00  0.00     0.167 HD
ATOM     35  C   UNL A   1      42.618  29.205  34.049  1.00  0.00     0.074 A 
ATOM     36  C   UNL A   1      42.686  29.715  35.410  1.00  0.00     0.031 C 
ATOM     37  C   UNL A   1      43.445  28.253  33.548  1.00  0.00     0.034 A 
BRANCH  24  38
ATOM     38  C   UNL A   1      42.406  26.454  27.671  1.00  0.00     0.023 A 
ATOM     39  C   UNL A   1      43.049  26.946  26.517  1.00  0.00     0.012 A 
ATOM     40  C   UNL A   1      41.944  25.123  27.687  1.00  0.00     0.148 A 
ATOM     41  C   UNL A   1      43.171  26.149  25.377  1.00  0.00     0.002 A 
ATOM     42  C   UNL A   1      42.116  24.318  26.567  1.00  0.00     0.091 A 
ATOM     43  F   UNL A   1      41.297  24.682  28.775  1.00  0.00    -0.205 F 
ATOM     44  C   UNL A   1      42.710  24.836  25.404  1.00  0.00     0.022 A 
BRANCH  42  45
ATOM     45  S   UNL A   1      41.611  22.596  26.530  1.00  0.00     0.127 S 
ATOM     46  O   UNL A   1      42.178  22.149  25.259  1.00  0.00    -0.237 OA
ATOM     47  O   UNL A   1      42.278  22.058  27.717  1.00  0.00    -0.237 OA
ATOM     48  O   UNL A   1      40.158  22.601  26.600  1.00  0.00    -0.744 OA
ENDBRANCH  42  45
ENDBRANCH  24  38
BRANCH  25  49
ATOM     49  C   UNL A   1      39.437  32.501  35.324  1.00  0.00     0.023 A 
ATOM     50  C   UNL A   1      38.575  31.919  36.270  1.00  0.00     0.012 A 
ATOM     51  C   UNL A   1      39.873  33.831  35.521  1.00  0.00     0.148 A 
ATOM     52  C   UNL A   1      38.145  32.647  37.382  1.00  0.00     0.002 A 
ATOM     53  C   UNL A   1      39.483  34.531  36.656  1.00  0.00     0.091 A 
ATOM     54  F   UNL A   1      40.695  34.370  34.609  1.00  0.00    -0.205 F 
ATOM     55  C   UNL A   1      38.607  33.946  37.582  1.00  0.00     0.022 A 
BRANCH  53  56
ATOM     56  S   UNL A   1      40.133  36.157  37.067  1.00  0.00     0.127 S 
ATOM     57  O   UNL A   1      41.523  35.851  37.388  1.00  0.00    -0.237 OA
ATOM     58  O   UNL A   1      39.936  36.885  35.813  1.00  0.00    -0.237 OA
ATOM     59  O   UNL A   1      39.323  36.640  38.178  1.00  0.00    -0.744 OA
ENDBRANCH  53  56
ENDBRANCH  25  49
BRANCH  37  60
ATOM     60  C   UNL A   1      44.540  27.769  34.449  1.00  0.00     0.023 A 
ATOM     61  C   UNL A   1      45.840  28.289  34.325  1.00  0.00     0.012 A 
ATOM     62  C   UNL A   1      44.219  26.909  35.515  1.00  0.00     0.148 A 
ATOM     63  C   UNL A   1      46.816  27.950  35.258  1.00  0.00     0.002 A 
ATOM     64  C   UNL A   1      45.178  26.625  36.472  1.00  0.00     0.091 A 
ATOM     65  F   UNL A   1      42.973  26.417  35.586  1.00  0.00    -0.205 F 
ATOM     66  C   UNL A   1      46.480  27.137  36.341  1.00  0.00     0.022 A 
BRANCH  64  67
ATOM     67  S   UNL A   1      44.796  25.698  37.959  1.00  0.00     0.127 S 
ATOM     68  O   UNL A   1      44.448  24.388  37.411  1.00  0.00    -0.237 OA
ATOM     69  O   UNL A   1      46.068  25.742  38.681  1.00  0.00    -0.237 OA
ATOM     70  O   UNL A   1      43.704  26.408  38.611  1.00  0.00    -0.744 OA
ENDBRANCH  64  67
ENDBRANCH  37  60
ENDBRANCH  11  12
ENDBRANCH   4   6
ENDBRANCH   3   4
ENDBRANCH   2   3
ENDBRANCH   1   2
BRANCH   1  71
ATOM     71  O   UNL A   1      31.664  28.157  23.668  1.00  0.00    -0.374 OA
BRANCH  71  72
ATOM     72  C   UNL A   1      32.582  28.127  22.567  1.00  0.00     0.202 C 
BRANCH  72  73
ATOM     73  C   UNL A   1      32.724  26.694  22.116  1.00  0.00     0.261 C 
BRANCH  73  74
ATOM     74  O   UNL A   1      33.187  25.944  23.247  1.00  0.00    -0.458 OA
BRANCH  74  75
ATOM     75  C   UNL A   1      32.645  24.685  23.370  1.00  0.00     0.373 C 
ATOM     76  O   UNL A   1      31.787  24.213  22.634  1.00  0.00    -0.244 OA
BRANCH  75  77
ATOM     77  C   UNL A   1      33.129  24.038  24.700  1.00  0.00     0.219 C 
ATOM     78  C   UNL A   1      32.851  25.016  25.862  1.00  0.00     0.087 C 
ATOM     79  N   UNL A   1      32.452  22.727  24.940  1.00  0.00    -0.328 N 
ATOM     80  C   UNL A   1      31.355  25.155  26.144  1.00  0.00     0.013 C 
ATOM     81  C   UNL A   1      31.146  22.688  25.577  1.00  0.00     0.261 C 
ATOM     82  H   UNL A   1      33.080  22.173  25.523  1.00  0.00     0.347 HD
ATOM     83  H   UNL A   1      32.264  22.385  23.998  1.00  0.00     0.347 HD
ATOM     84  C   UNL A   1      30.780  23.809  26.541  1.00  0.00     0.062 C 
BRANCH  77  85
ATOM     85  C   UNL A   1      34.651  23.757  24.556  1.00  0.00     0.024 A 
ATOM     86  C   UNL A   1      35.530  24.110  25.592  1.00  0.00     0.011 A 
ATOM     87  C   UNL A   1      35.194  23.060  23.452  1.00  0.00     0.011 A 
ATOM     88  C   UNL A   1      36.873  23.733  25.551  1.00  0.00     0.001 A 
ATOM     89  C   UNL A   1      36.527  22.655  23.427  1.00  0.00     0.001 A 
ATOM     90  C   UNL A   1      37.366  22.989  24.481  1.00  0.00     0.000 A 
ENDBRANCH  77  85
ENDBRANCH  75  77
ENDBRANCH  74  75
ENDBRANCH  73  74
ENDBRANCH  72  73
ENDBRANCH  71  72
ENDBRANCH   1  71
TORSDOF 18
ENDMDL
MODEL 2
REMARK VINA RESULT:     -11.1      5.179      7.951
REMARK SMILES O=C(OCCOCCOC(=O)[C@@]1(c2ccccc2)CCCC[NH2+]1)c1ccc(-c2c3nc(c(-c4cccc(S(=O)(=O)[O-])c4F)c4ccc([nH]4)c(-c4cccc(S(=O)(=O)[O-])c4F)c4nc(c(-c5cccc(S(=O)(=O)[O-])c5F)c5ccc2[nH]5)C=C4)C=C3)cc1
REMARK SMILES IDX 5 1 4 2 3 3 2 4 1 5 24 6 25 7 86 8 26 9 85 10 27 11 28 12
REMARK SMILES IDX 29 13 79 14 30 15 84 16 78 17 80 18 31 19 83 20 77 21 76 22
REMARK SMILES IDX 32 24 64 25 44 26 63 27 45 28 48 29 62 30 81 31 46 32 47 33
REMARK SMILES IDX 61 35 82 36 49 37 33 38 34 39 42 40 35 41 37 42 43 43 36 44
REMARK SMILES IDX 38 45 39 46 40 47 41 48 65 49 66 50 74 51 67 52 69 53 75 54
REMARK SMILES IDX 68 55 70 56 71 57 72 58 73 59 50 60 51 61 59 62 52 63 54 64
REMARK SMILES IDX 60 65 53 66 55 67 56 68 57 69 58 70 6 71 7 72 8 73 9 74
REMARK SMILES IDX 10 75 11 76 12 77 19 78 23 79 20 80 22 81 21 84 13 85 14 86
REMARK SMILES IDX 18 87 15 88 17 89 16 90
REMARK H PARENT 80 23 48 34 23 82 23 83
REMARK Flexibility Score: inf
ROOT
ATOM      1  C   UNL A   1      37.885  19.802  24.678  1.00  0.00     0.202 C 
ENDROOT
BRANCH   1   2
ATOM      2  C   UNL A   1      38.886  19.189  25.656  1.00  0.00     0.261 C 
BRANCH   2   3
ATOM      3  O   UNL A   1      40.007  20.082  25.830  1.00  0.00    -0.460 OA
BRANCH   3   4
ATOM      4  C   UNL A   1      40.583  20.436  27.010  1.00  0.00     0.338 C 
ATOM      5  O   UNL A   1      40.884  19.589  27.837  1.00  0.00    -0.246 OA
BRANCH   4   6
ATOM      6  C   UNL A   1      40.895  21.858  27.262  1.00  0.00     0.060 A 
ATOM      7  C   UNL A   1      40.291  22.868  26.525  1.00  0.00     0.016 A 
ATOM      8  C   UNL A   1      41.783  22.208  28.273  1.00  0.00     0.016 A 
ATOM      9  C   UNL A   1      40.674  24.174  26.605  1.00  0.00     0.010 A 
ATOM     10  C   UNL A   1      42.076  23.557  28.477  1.00  0.00     0.010 A 
ATOM     11  C   UNL A   1      41.527  24.528  27.623  1.00  0.00    -0.014 A 
BRANCH  11  12
ATOM     12  C   UNL A   1      41.868  25.943  27.693  1.00  0.00     0.031 A 
ATOM     13  C   UNL A   1      43.169  26.348  27.113  1.00  0.00     0.074 A 
ATOM     14  C   UNL A   1      40.961  26.808  28.177  1.00  0.00     0.049 A 
ATOM     15  N   UNL A   1      43.833  27.447  27.292  1.00  0.00    -0.248 NA
ATOM     16  C   UNL A   1      43.824  25.369  26.224  1.00  0.00     0.031 C 
ATOM     17  C   UNL A   1      39.586  26.468  28.576  1.00  0.00     0.029 A 
ATOM     18  N   UNL A   1      41.056  28.145  28.427  1.00  0.00    -0.354 N 
ATOM     19  C   UNL A   1      45.042  27.245  26.650  1.00  0.00     0.074 A 
ATOM     20  C   UNL A   1      44.995  25.948  26.016  1.00  0.00     0.031 C 
ATOM     21  C   UNL A   1      38.979  27.564  29.046  1.00  0.00     0.029 A 
ATOM     22  C   UNL A   1      39.962  28.632  29.103  1.00  0.00     0.049 A 
ATOM     23  H   UNL A   1      41.823  28.699  28.155  1.00  0.00     0.167 HD
ATOM     24  C   UNL A   1      46.105  28.076  26.659  1.00  0.00     0.034 A 
ATOM     25  C   UNL A   1      39.831  29.775  29.795  1.00  0.00     0.034 A 
ATOM     26  C   UNL A   1      46.053  29.348  27.320  1.00  0.00     0.049 A 
ATOM     27  C   UNL A   1      41.033  30.672  29.830  1.00  0.00     0.074 A 
ATOM     28  C   UNL A   1      47.041  30.299  27.460  1.00  0.00     0.029 A 
ATOM     29  N   UNL A   1      44.920  29.837  27.970  1.00  0.00    -0.354 N 
ATOM     30  N   UNL A   1      42.211  30.479  29.281  1.00  0.00    -0.248 NA
ATOM     31  C   UNL A   1      40.903  31.932  30.563  1.00  0.00     0.031 C 
ATOM     32  C   UNL A   1      46.514  31.346  28.224  1.00  0.00     0.029 A 
ATOM     33  C   UNL A   1      45.182  31.074  28.517  1.00  0.00     0.049 A 
ATOM     34  H   UNL A   1      44.058  29.366  28.029  1.00  0.00     0.167 HD
ATOM     35  C   UNL A   1      42.959  31.607  29.568  1.00  0.00     0.074 A 
ATOM     36  C   UNL A   1      42.092  32.481  30.344  1.00  0.00     0.031 C 
ATOM     37  C   UNL A   1      44.239  31.903  29.234  1.00  0.00     0.034 A 
BRANCH  24  38
ATOM     38  C   UNL A   1      47.376  27.560  26.046  1.00  0.00     0.023 A 
ATOM     39  C   UNL A   1      47.624  27.710  24.666  1.00  0.00     0.012 A 
ATOM     40  C   UNL A   1      48.288  26.833  26.835  1.00  0.00     0.148 A 
ATOM     41  C   UNL A   1      48.727  27.093  24.072  1.00  0.00     0.002 A 
ATOM     42  C   UNL A   1      49.412  26.266  26.247  1.00  0.00     0.091 A 
ATOM     43  F   UNL A   1      48.016  26.663  28.136  1.00  0.00    -0.205 F 
ATOM     44  C   UNL A   1      49.622  26.377  24.862  1.00  0.00     0.022 A 
BRANCH  42  45
ATOM     45  S   UNL A   1      50.652  25.379  27.193  1.00  0.00     0.127 S 
ATOM     46  O   UNL A   1      51.090  26.402  28.140  1.00  0.00    -0.237 OA
ATOM     47  O   UNL A   1      49.866  24.295  27.785  1.00  0.00    -0.237 OA
ATOM     48  O   UNL A   1      51.656  24.944  26.233  1.00  0.00    -0.744 OA
ENDBRANCH  42  45
ENDBRANCH  24  38
BRANCH  25  49
ATOM     49  C   UNL A   1      38.562  30.064  30.520  1.00  0.00     0.023 A 
ATOM     50  C   UNL A   1      38.386  29.583  31.829  1.00  0.00     0.012 A 
ATOM     51  C   UNL A   1      37.573  30.904  29.960  1.00  0.00     0.148 A 
ATOM     52  C   UNL A   1      37.245  29.918  32.562  1.00  0.00     0.002 A 
ATOM     53  C   UNL A   1      36.466  31.276  30.714  1.00  0.00     0.091 A 
ATOM     54  F   UNL A   1      37.758  31.356  28.711  1.00  0.00    -0.205 F 
ATOM     55  C   UNL A   1      36.293  30.772  32.011  1.00  0.00     0.022 A 
BRANCH  53  56
ATOM     56  S   UNL A   1      35.257  32.477  30.140  1.00  0.00     0.127 S 
ATOM     57  O   UNL A   1      34.692  31.799  28.977  1.00  0.00    -0.237 OA
ATOM     58  O   UNL A   1      34.361  32.576  31.292  1.00  0.00    -0.237 OA
ATOM     59  O   UNL A   1      36.008  33.693  29.855  1.00  0.00    -0.744 OA
ENDBRANCH  53  56
ENDBRANCH  25  49
BRANCH  37  60
ATOM     60  C   UNL A   1      44.746  33.255  29.634  1.00  0.00     0.023 A 
ATOM     61  C   UNL A   1      45.486  33.411  30.819  1.00  0.00     0.012 A 
ATOM     62  C   UNL A   1      44.608  34.331  28.737  1.00  0.00     0.148 A 
ATOM     63  C   UNL A   1      46.082  34.635  31.109  1.00  0.00     0.002 A 
ATOM     64  C   UNL A   1      45.254  35.525  29.004  1.00  0.00     0.091 A 
ATOM     65  F   UNL A   1      43.876  34.148  27.628  1.00  0.00    -0.205 F 
ATOM     66  C   UNL A   1      45.984  35.683  30.194  1.00  0.00     0.022 A 
BRANCH  64  67
ATOM     67  S   UNL A   1      45.288  36.875  27.824  1.00  0.00     0.127 S 
ATOM     68  O   UNL A   1      46.491  37.597  28.234  1.00  0.00    -0.237 OA
ATOM     69  O   UNL A   1      45.404  36.165  26.550  1.00  0.00    -0.237 OA
ATOM     70  O   UNL A   1      44.038  37.602  28.002  1.00  0.00    -0.744 OA
ENDBRANCH  64  67
ENDBRANCH  37  60
ENDBRANCH  11  12
ENDBRANCH   4   6
ENDBRANCH   3   4
ENDBRANCH   2   3
ENDBRANCH   1   2
BRANCH   1  71
ATOM     71  O   UNL A   1      37.079  20.854  25.186  1.00  0.00    -0.374 OA
BRANCH  71  72
ATOM     72  C   UNL A   1      37.417  22.173  24.738  1.00  0.00     0.202 C 
BRANCH  72  73
ATOM     73  C   UNL A   1      36.229  22.732  23.992  1.00  0.00     0.261 C 
BRANCH  73  74
ATOM     74  O   UNL A   1      35.228  21.706  23.974  1.00  0.00    -0.458 OA
BRANCH  74  75
ATOM     75  C   UNL A   1      33.934  22.155  24.105  1.00  0.00     0.373 C 
ATOM     76  O   UNL A   1      33.514  23.227  23.683  1.00  0.00    -0.244 OA
BRANCH  75  77
ATOM     77  C   UNL A   1      33.144  21.200  25.046  1.00  0.00     0.219 C 
ATOM     78  C   UNL A   1      33.838  21.170  26.424  1.00  0.00     0.087 C 
ATOM     79  N   UNL A   1      31.719  21.631  25.181  1.00  0.00    -0.328 N 
ATOM     80  C   UNL A   1      33.681  22.495  27.171  1.00  0.00     0.013 C 
ATOM     81  C   UNL A   1      31.356  22.644  26.159  1.00  0.00     0.261 C 
ATOM     82  H   UNL A   1      31.179  20.796  25.407  1.00  0.00     0.347 HD
ATOM     83  H   UNL A   1      31.527  22.087  24.290  1.00  0.00     0.347 HD
ATOM     84  C   UNL A   1      32.210  22.776  27.413  1.00  0.00     0.062 C 
BRANCH  77  85
ATOM     85  C   UNL A   1      33.144  19.791  24.388  1.00  0.00     0.024 A 
ATOM     86  C   UNL A   1      32.321  19.535  23.281  1.00  0.00     0.011 A 
ATOM     87  C   UNL A   1      34.024  18.763  24.797  1.00  0.00     0.011 A 
ATOM     88  C   UNL A   1      32.416  18.330  22.582  1.00  0.00     0.001 A 
ATOM     89  C   UNL A   1      34.142  17.574  24.079  1.00  0.00     0.001 A 
ATOM     90  C   UNL A   1      33.339  17.360  22.968  1.00  0.00     0.000 A 
ENDBRANCH  77  85
ENDBRANCH  75  77
ENDBRANCH  74  75
ENDBRANCH  73  74
ENDBRANCH  72  73
ENDBRANCH  71  72
ENDBRANCH   1  71
TORSDOF 18
ENDMDL
MODEL 3
REMARK VINA RESULT:     -11.1      5.279      8.156
REMARK SMILES O=C(OCCOCCOC(=O)[C@@]1(c2ccccc2)CCCC[NH2+]1)c1ccc(-c2c3nc(c(-c4cccc(S(=O)(=O)[O-])c4F)c4ccc([nH]4)c(-c4cccc(S(=O)(=O)[O-])c4F)c4nc(c(-c5cccc(S(=O)(=O)[O-])c5F)c5ccc2[nH]5)C=C4)C=C3)cc1
REMARK SMILES IDX 5 1 4 2 3 3 2 4 1 5 24 6 25 7 86 8 26 9 85 10 27 11 28 12
REMARK SMILES IDX 29 13 79 14 30 15 84 16 78 17 80 18 31 19 83 20 77 21 76 22
REMARK SMILES IDX 32 24 64 25 44 26 63 27 45 28 48 29 62 30 81 31 46 32 47 33
REMARK SMILES IDX 61 35 82 36 49 37 33 38 34 39 42 40 35 41 37 42 43 43 36 44
REMARK SMILES IDX 38 45 39 46 40 47 41 48 65 49 66 50 74 51 67 52 69 53 75 54
REMARK SMILES IDX 68 55 70 56 71 57 72 58 73 59 50 60 51 61 59 62 52 63 54 64
REMARK SMILES IDX 60 65 53 66 55 67 56 68 57 69 58 70 6 71 7 72 8 73 9 74
REMARK SMILES IDX 10 75 11 76 12 77 19 78 23 79 20 80 22 81 21 84 13 85 14 86
REMARK SMILES IDX 18 87 15 88 17 89 16 90
REMARK H PARENT 80 23 48 34 23 82 23 83
REMARK Flexibility Score: inf
ROOT
ATOM      1  C   UNL A   1      38.111  20.041  24.808  1.00  0.00     0.202 C 
ENDROOT
BRANCH   1   2
ATOM      2  C   UNL A   1      38.966  19.198  25.752  1.00  0.00     0.261 C 
BRANCH   2   3
ATOM      3  O   UNL A   1      40.252  19.826  25.938  1.00  0.00    -0.460 OA
BRANCH   3   4
ATOM      4  C   UNL A   1      40.781  20.254  27.116  1.00  0.00     0.338 C 
ATOM      5  O   UNL A   1      41.057  19.459  28.002  1.00  0.00    -0.246 OA
BRANCH   4   6
ATOM      6  C   UNL A   1      41.073  21.691  27.295  1.00  0.00     0.060 A 
ATOM      7  C   UNL A   1      40.470  22.653  26.497  1.00  0.00     0.016 A 
ATOM      8  C   UNL A   1      41.943  22.105  28.299  1.00  0.00     0.016 A 
ATOM      9  C   UNL A   1      40.838  23.965  26.512  1.00  0.00     0.010 A 
ATOM     10  C   UNL A   1      42.218  23.466  28.434  1.00  0.00     0.010 A 
ATOM     11  C   UNL A   1      41.671  24.384  27.521  1.00  0.00    -0.014 A 
BRANCH  11  12
ATOM     12  C   UNL A   1      41.995  25.804  27.520  1.00  0.00     0.031 A 
ATOM     13  C   UNL A   1      43.230  26.209  26.810  1.00  0.00     0.074 A 
ATOM     14  C   UNL A   1      41.125  26.671  28.064  1.00  0.00     0.049 A 
ATOM     15  N   UNL A   1      43.891  27.321  26.895  1.00  0.00    -0.248 NA
ATOM     16  C   UNL A   1      43.813  25.214  25.890  1.00  0.00     0.031 C 
ATOM     17  C   UNL A   1      39.799  26.326  28.600  1.00  0.00     0.029 A 
ATOM     18  N   UNL A   1      41.223  28.016  28.267  1.00  0.00    -0.354 N 
ATOM     19  C   UNL A   1      45.037  27.116  26.147  1.00  0.00     0.074 A 
ATOM     20  C   UNL A   1      44.950  25.800  25.556  1.00  0.00     0.031 C 
ATOM     21  C   UNL A   1      39.222  27.427  29.095  1.00  0.00     0.029 A 
ATOM     22  C   UNL A   1      40.190  28.508  29.030  1.00  0.00     0.049 A 
ATOM     23  H   UNL A   1      41.952  28.572  27.909  1.00  0.00     0.167 HD
ATOM     24  C   UNL A   1      46.083  27.960  26.033  1.00  0.00     0.034 A 
ATOM     25  C   UNL A   1      40.107  29.669  29.700  1.00  0.00     0.034 A 
ATOM     26  C   UNL A   1      46.074  29.250  26.661  1.00  0.00     0.049 A 
ATOM     27  C   UNL A   1      41.293  30.582  29.597  1.00  0.00     0.074 A 
ATOM     28  C   UNL A   1      47.056  30.217  26.681  1.00  0.00     0.029 A 
ATOM     29  N   UNL A   1      45.001  29.743  27.401  1.00  0.00    -0.354 N 
ATOM     30  N   UNL A   1      42.417  30.388  28.944  1.00  0.00    -0.248 NA
ATOM     31  C   UNL A   1      41.213  31.860  30.304  1.00  0.00     0.031 C 
ATOM     32  C   UNL A   1      46.588  31.279  27.462  1.00  0.00     0.029 A 
ATOM     33  C   UNL A   1      45.293  30.998  27.887  1.00  0.00     0.049 A 
ATOM     34  H   UNL A   1      44.155  29.263  27.554  1.00  0.00     0.167 HD
ATOM     35  C   UNL A   1      43.171  31.533  29.128  1.00  0.00     0.074 A 
ATOM     36  C   UNL A   1      42.368  32.418  29.958  1.00  0.00     0.031 C 
ATOM     37  C   UNL A   1      44.410  31.836  28.667  1.00  0.00     0.034 A 
BRANCH  24  38
ATOM     38  C   UNL A   1      47.298  27.443  25.317  1.00  0.00     0.023 A 
ATOM     39  C   UNL A   1      48.314  26.761  26.018  1.00  0.00     0.012 A 
ATOM     40  C   UNL A   1      47.476  27.724  23.948  1.00  0.00     0.148 A 
ATOM     41  C   UNL A   1      49.511  26.423  25.383  1.00  0.00     0.002 A 
ATOM     42  C   UNL A   1      48.648  27.338  23.309  1.00  0.00     0.091 A 
ATOM     43  F   UNL A   1      46.520  28.411  23.306  1.00  0.00    -0.205 F 
ATOM     44  C   UNL A   1      49.675  26.707  24.030  1.00  0.00     0.022 A 
BRANCH  42  45
ATOM     45  S   UNL A   1      48.924  27.604  21.556  1.00  0.00     0.127 S 
ATOM     46  O   UNL A   1      49.480  28.956  21.545  1.00  0.00    -0.237 OA
ATOM     47  O   UNL A   1      49.885  26.547  21.236  1.00  0.00    -0.237 OA
ATOM     48  O   UNL A   1      47.625  27.456  20.917  1.00  0.00    -0.744 OA
ENDBRANCH  42  45
ENDBRANCH  24  38
BRANCH  25  49
ATOM     49  C   UNL A   1      38.908  29.963  30.533  1.00  0.00     0.023 A 
ATOM     50  C   UNL A   1      38.868  29.528  31.869  1.00  0.00     0.012 A 
ATOM     51  C   UNL A   1      37.852  30.763  30.041  1.00  0.00     0.148 A 
ATOM     52  C   UNL A   1      37.796  29.870  32.697  1.00  0.00     0.002 A 
ATOM     53  C   UNL A   1      36.815  31.144  30.885  1.00  0.00     0.091 A 
ATOM     54  F   UNL A   1      37.906  31.171  28.765  1.00  0.00    -0.205 F 
ATOM     55  C   UNL A   1      36.778  30.686  32.210  1.00  0.00     0.022 A 
BRANCH  53  56
ATOM     56  S   UNL A   1      35.531  32.301  30.388  1.00  0.00     0.127 S 
ATOM     57  O   UNL A   1      34.677  32.325  31.572  1.00  0.00    -0.237 OA
ATOM     58  O   UNL A   1      36.301  33.524  30.159  1.00  0.00    -0.237 OA
ATOM     59  O   UNL A   1      34.928  31.735  29.189  1.00  0.00    -0.744 OA
ENDBRANCH  53  56
ENDBRANCH  25  49
BRANCH  37  60
ATOM     60  C   UNL A   1      44.931  33.205  28.980  1.00  0.00     0.023 A 
ATOM     61  C   UNL A   1      45.685  33.425  30.146  1.00  0.00     0.012 A 
ATOM     62  C   UNL A   1      44.792  34.226  28.023  1.00  0.00     0.148 A 
ATOM     63  C   UNL A   1      46.294  34.659  30.356  1.00  0.00     0.002 A 
ATOM     64  C   UNL A   1      45.450  35.429  28.211  1.00  0.00     0.091 A 
ATOM     65  F   UNL A   1      44.046  33.984  26.934  1.00  0.00    -0.205 F 
ATOM     66  C   UNL A   1      46.194  35.652  29.381  1.00  0.00     0.022 A 
BRANCH  64  67
ATOM     67  S   UNL A   1      45.481  36.706  26.952  1.00  0.00     0.127 S 
ATOM     68  O   UNL A   1      44.069  37.080  26.874  1.00  0.00    -0.237 OA
ATOM     69  O   UNL A   1      46.347  37.715  27.561  1.00  0.00    -0.237 OA
ATOM     70  O   UNL A   1      46.025  36.083  25.754  1.00  0.00    -0.744 OA
ENDBRANCH  64  67
ENDBRANCH  37  60
ENDBRANCH  11  12
ENDBRANCH   4   6
ENDBRANCH   3   4
ENDBRANCH   2   3
ENDBRANCH   1   2
BRANCH   1  71
ATOM     71  O   UNL A   1      37.397  21.114  25.402  1.00  0.00    -0.374 OA
BRANCH  71  72
ATOM     72  C   UNL A   1      37.578  22.399  24.793  1.00  0.00     0.202 C 
BRANCH  72  73
ATOM     73  C   UNL A   1      36.426  22.635  23.847  1.00  0.00     0.261 C 
BRANCH  73  74
ATOM     74  O   UNL A   1      35.368  21.757  24.252  1.00  0.00    -0.458 OA
BRANCH  74  75
ATOM     75  C   UNL A   1      34.099  22.274  24.113  1.00  0.00     0.373 C 
ATOM     76  O   UNL A   1      33.836  23.378  23.652  1.00  0.00    -0.244 OA
BRANCH  75  77
ATOM     77  C   UNL A   1      33.075  21.336  24.815  1.00  0.00     0.219 C 
ATOM     78  C   UNL A   1      33.395  21.290  26.325  1.00  0.00     0.087 C 
ATOM     79  N   UNL A   1      31.673  21.801  24.587  1.00  0.00    -0.328 N 
ATOM     80  C   UNL A   1      33.082  22.618  27.015  1.00  0.00     0.013 C 
ATOM     81  C   UNL A   1      31.095  22.822  25.445  1.00  0.00     0.261 C 
ATOM     82  H   UNL A   1      31.074  20.978  24.663  1.00  0.00     0.347 HD
ATOM     83  H   UNL A   1      31.724  22.261  23.678  1.00  0.00     0.347 HD
ATOM     84  C   UNL A   1      31.605  22.933  26.877  1.00  0.00     0.062 C 
BRANCH  77  85
ATOM     85  C   UNL A   1      33.211  19.928  24.171  1.00  0.00     0.024 A 
ATOM     86  C   UNL A   1      34.142  19.011  24.682  1.00  0.00     0.011 A 
ATOM     87  C   UNL A   1      32.357  19.481  23.137  1.00  0.00     0.011 A 
ATOM     88  C   UNL A   1      34.177  17.694  24.221  1.00  0.00     0.001 A 
ATOM     89  C   UNL A   1      32.370  18.157  22.700  1.00  0.00     0.001 A 
ATOM     90  C   UNL A   1      33.279  17.262  23.246  1.00  0.00     0.000 A 
ENDBRANCH  77  85
ENDBRANCH  75  77
ENDBRANCH  74  75
ENDBRANCH  73  74
ENDBRANCH  72  73
ENDBRANCH  71  72
ENDBRANCH   1  71
TORSDOF 18
ENDMDL
