MODEL 1
REMARK VINA RESULT:     -11.8      0.000      0.000
REMARK SMILES Cn1cc(C(=O)OCCOCCOC(=O)c2ccc(-c3c4nc(c(-c5cccc(S(=O)(=O)[O-])c5F)c5ccc([nH]5)c(-c5cccc(S(=O)(=O)[O-])c5F)c5nc(c(-c6cccc(S(=O)(=O)[O-])c6F)c6ccc3[nH]6)C=C5)C=C4)cc2)c(C(=O)Nc2ccc(-n3cncn3)cc2)n1
REMARK SMILES IDX 10 1 9 2 8 3 7 4 5 5 6 6 4 7 1 8 2 9 3 10 94 11 79 12 80 13
REMARK SMILES IDX 81 14 82 15 83 17 84 18 93 19 85 20 92 21 86 22 87 23 88 24
REMARK SMILES IDX 91 25 89 26 90 27 11 28 12 29 13 30 14 31 15 32 16 33 17 34
REMARK SMILES IDX 78 35 18 36 77 37 19 38 20 39 21 40 71 41 22 42 76 43 70 44
REMARK SMILES IDX 72 45 23 46 75 47 69 48 68 49 24 51 56 52 36 53 55 54 37 55
REMARK SMILES IDX 40 56 54 57 73 58 38 59 39 60 53 62 74 63 41 64 25 65 26 66
REMARK SMILES IDX 34 67 27 68 29 69 35 70 28 71 30 72 31 73 32 74 33 75 57 76
REMARK SMILES IDX 58 77 66 78 59 79 61 80 67 81 60 82 62 83 63 84 64 85 65 86
REMARK SMILES IDX 42 87 43 88 51 89 44 90 46 91 52 92 45 93 47 94 48 95 49 96
REMARK SMILES IDX 50 97
REMARK H PARENT 82 16 72 50 40 61
REMARK Flexibility Score: inf
ROOT
ATOM      1  O   UNL A   1      35.356  22.449  25.192  1.00  0.00    -0.374 OA
ENDROOT
BRANCH   1   2
ATOM      2  C   UNL A   1      35.758  22.768  23.850  1.00  0.00     0.202 C 
BRANCH   2   3
ATOM      3  C   UNL A   1      34.908  23.847  23.181  1.00  0.00     0.261 C 
BRANCH   3   4
ATOM      4  O   UNL A   1      34.177  24.509  24.208  1.00  0.00    -0.460 OA
BRANCH   4   5
ATOM      5  C   UNL A   1      33.346  25.521  23.846  1.00  0.00     0.342 C 
ATOM      6  O   UNL A   1      33.074  25.852  22.704  1.00  0.00    -0.246 OA
BRANCH   5   7
ATOM      7  C   UNL A   1      32.845  26.158  25.037  1.00  0.00     0.111 A 
ATOM      8  C   UNL A   1      33.143  28.706  27.558  1.00  0.00     0.173 C 
ATOM      9  N   UNL A   1      32.840  27.594  26.689  1.00  0.00    -0.274 N 
ATOM     10  C   UNL A   1      33.547  27.207  25.613  1.00  0.00     0.125 A 
ATOM     11  N   UNL A   1      31.766  26.836  26.913  1.00  0.00    -0.167 NA
ATOM     12  C   UNL A   1      31.701  25.954  25.877  1.00  0.00     0.165 A 
BRANCH  12  13
ATOM     13  C   UNL A   1      30.490  25.081  25.841  1.00  0.00     0.277 C 
ATOM     14  O   UNL A   1      29.456  25.419  26.438  1.00  0.00    -0.267 OA
ATOM     15  N   UNL A   1      30.324  23.975  25.040  1.00  0.00    -0.321 N 
ATOM     16  H   UNL A   1      29.408  23.898  24.688  1.00  0.00     0.170 HD
BRANCH  15  17
ATOM     17  C   UNL A   1      31.151  22.940  24.612  1.00  0.00     0.041 A 
ATOM     18  C   UNL A   1      31.774  22.177  25.608  1.00  0.00     0.028 A 
ATOM     19  C   UNL A   1      31.408  22.665  23.274  1.00  0.00     0.028 A 
ATOM     20  C   UNL A   1      32.430  20.991  25.273  1.00  0.00     0.030 A 
ATOM     21  C   UNL A   1      32.170  21.540  22.933  1.00  0.00     0.030 A 
ATOM     22  C   UNL A   1      32.562  20.638  23.929  1.00  0.00     0.067 A 
BRANCH  22  23
ATOM     23  N   UNL A   1      32.860  19.296  23.583  1.00  0.00    -0.221 N 
ATOM     24  C   UNL A   1      32.399  18.560  22.518  1.00  0.00     0.225 A 
ATOM     25  N   UNL A   1      33.448  18.457  24.473  1.00  0.00    -0.155 NA
ATOM     26  N   UNL A   1      32.492  17.275  22.776  1.00  0.00    -0.223 NA
ATOM     27  C   UNL A   1      33.090  17.261  24.001  1.00  0.00     0.246 A 
ENDBRANCH  22  23
ENDBRANCH  15  17
ENDBRANCH  12  13
ENDBRANCH   5   7
ENDBRANCH   4   5
ENDBRANCH   3   4
ENDBRANCH   2   3
ENDBRANCH   1   2
BRANCH   1  28
ATOM     28  C   UNL A   1      36.067  21.357  25.795  1.00  0.00     0.202 C 
BRANCH  28  29
ATOM     29  C   UNL A   1      37.295  20.912  24.989  1.00  0.00     0.261 C 
BRANCH  29  30
ATOM     30  O   UNL A   1      38.363  21.848  25.180  1.00  0.00    -0.460 OA
BRANCH  30  31
ATOM     31  C   UNL A   1      39.297  21.467  26.088  1.00  0.00     0.338 C 
ATOM     32  O   UNL A   1      39.775  20.354  26.228  1.00  0.00    -0.246 OA
BRANCH  31  33
ATOM     33  C   UNL A   1      39.853  22.688  26.710  1.00  0.00     0.060 A 
ATOM     34  C   UNL A   1      39.271  23.913  26.351  1.00  0.00     0.016 A 
ATOM     35  C   UNL A   1      40.836  22.635  27.705  1.00  0.00     0.016 A 
ATOM     36  C   UNL A   1      39.686  25.091  26.963  1.00  0.00     0.010 A 
ATOM     37  C   UNL A   1      41.272  23.818  28.299  1.00  0.00     0.010 A 
ATOM     38  C   UNL A   1      40.727  25.050  27.898  1.00  0.00    -0.014 A 
BRANCH  38  39
ATOM     39  C   UNL A   1      41.473  26.290  28.193  1.00  0.00     0.031 A 
ATOM     40  C   UNL A   1      40.704  27.384  28.882  1.00  0.00     0.074 A 
ATOM     41  C   UNL A   1      42.764  26.451  27.858  1.00  0.00     0.049 A 
ATOM     42  N   UNL A   1      41.067  28.603  29.168  1.00  0.00    -0.248 NA
ATOM     43  C   UNL A   1      39.326  27.053  29.298  1.00  0.00     0.031 C 
ATOM     44  C   UNL A   1      43.607  25.445  27.217  1.00  0.00     0.029 A 
ATOM     45  N   UNL A   1      43.580  27.545  27.989  1.00  0.00    -0.354 N 
ATOM     46  C   UNL A   1      39.956  29.192  29.760  1.00  0.00     0.074 A 
ATOM     47  C   UNL A   1      38.905  28.204  29.793  1.00  0.00     0.031 C 
ATOM     48  C   UNL A   1      44.820  25.982  26.982  1.00  0.00     0.029 A 
ATOM     49  C   UNL A   1      44.822  27.375  27.426  1.00  0.00     0.049 A 
ATOM     50  H   UNL A   1      43.302  28.373  28.445  1.00  0.00     0.167 HD
ATOM     51  C   UNL A   1      39.823  30.447  30.241  1.00  0.00     0.034 A 
ATOM     52  C   UNL A   1      45.828  28.260  27.269  1.00  0.00     0.034 A 
ATOM     53  C   UNL A   1      40.873  31.421  30.214  1.00  0.00     0.049 A 
ATOM     54  C   UNL A   1      45.645  29.666  27.788  1.00  0.00     0.074 A 
ATOM     55  C   UNL A   1      40.855  32.721  30.681  1.00  0.00     0.029 A 
ATOM     56  N   UNL A   1      42.132  31.198  29.679  1.00  0.00    -0.354 N 
ATOM     57  N   UNL A   1      44.620  30.189  28.422  1.00  0.00    -0.248 NA
ATOM     58  C   UNL A   1      46.763  30.601  27.590  1.00  0.00     0.031 C 
ATOM     59  C   UNL A   1      42.103  33.291  30.411  1.00  0.00     0.029 A 
ATOM     60  C   UNL A   1      42.903  32.339  29.797  1.00  0.00     0.049 A 
ATOM     61  H   UNL A   1      42.434  30.352  29.275  1.00  0.00     0.167 HD
ATOM     62  C   UNL A   1      44.980  31.498  28.722  1.00  0.00     0.074 A 
ATOM     63  C   UNL A   1      46.327  31.683  28.222  1.00  0.00     0.031 C 
ATOM     64  C   UNL A   1      44.262  32.469  29.338  1.00  0.00     0.034 A 
BRANCH  51  65
ATOM     65  C   UNL A   1      38.494  30.816  30.837  1.00  0.00     0.023 A 
ATOM     66  C   UNL A   1      38.207  30.466  32.173  1.00  0.00     0.012 A 
ATOM     67  C   UNL A   1      37.531  31.505  30.077  1.00  0.00     0.148 A 
ATOM     68  C   UNL A   1      36.966  30.770  32.733  1.00  0.00     0.002 A 
ATOM     69  C   UNL A   1      36.313  31.841  30.656  1.00  0.00     0.091 A 
ATOM     70  F   UNL A   1      37.812  31.794  28.799  1.00  0.00    -0.205 F 
ATOM     71  C   UNL A   1      36.025  31.464  31.978  1.00  0.00     0.022 A 
BRANCH  69  72
ATOM     72  S   UNL A   1      35.057  32.785  29.786  1.00  0.00     0.127 S 
ATOM     73  O   UNL A   1      35.848  33.879  29.224  1.00  0.00    -0.237 OA
ATOM     74  O   UNL A   1      34.571  31.817  28.804  1.00  0.00    -0.237 OA
ATOM     75  O   UNL A   1      34.079  33.175  30.792  1.00  0.00    -0.744 OA
ENDBRANCH  69  72
ENDBRANCH  51  65
BRANCH  52  76
ATOM     76  C   UNL A   1      47.099  27.850  26.605  1.00  0.00     0.023 A 
ATOM     77  C   UNL A   1      48.194  27.439  27.392  1.00  0.00     0.012 A 
ATOM     78  C   UNL A   1      47.233  27.860  25.203  1.00  0.00     0.148 A 
ATOM     79  C   UNL A   1      49.403  27.077  26.796  1.00  0.00     0.002 A 
ATOM     80  C   UNL A   1      48.423  27.446  24.614  1.00  0.00     0.091 A 
ATOM     81  F   UNL A   1      46.191  28.279  24.469  1.00  0.00    -0.205 F 
ATOM     82  C   UNL A   1      49.515  27.070  25.409  1.00  0.00     0.022 A 
BRANCH  80  83
ATOM     83  S   UNL A   1      48.605  27.289  22.833  1.00  0.00     0.127 S 
ATOM     84  O   UNL A   1      50.005  27.659  22.642  1.00  0.00    -0.237 OA
ATOM     85  O   UNL A   1      48.307  25.872  22.620  1.00  0.00    -0.237 OA
ATOM     86  O   UNL A   1      47.621  28.197  22.260  1.00  0.00    -0.744 OA
ENDBRANCH  80  83
ENDBRANCH  52  76
BRANCH  64  87
ATOM     87  C   UNL A   1      44.917  33.810  29.535  1.00  0.00     0.023 A 
ATOM     88  C   UNL A   1      45.679  34.049  30.694  1.00  0.00     0.012 A 
ATOM     89  C   UNL A   1      44.864  34.788  28.523  1.00  0.00     0.148 A 
ATOM     90  C   UNL A   1      46.362  35.253  30.855  1.00  0.00     0.002 A 
ATOM     91  C   UNL A   1      45.585  35.966  28.668  1.00  0.00     0.091 A 
ATOM     92  F   UNL A   1      44.118  34.544  27.436  1.00  0.00    -0.205 F 
ATOM     93  C   UNL A   1      46.326  36.205  29.837  1.00  0.00     0.022 A 
BRANCH  91  94
ATOM     94  S   UNL A   1      45.677  37.199  27.365  1.00  0.00     0.127 S 
ATOM     95  O   UNL A   1      46.542  38.210  27.973  1.00  0.00    -0.237 OA
ATOM     96  O   UNL A   1      46.292  36.449  26.269  1.00  0.00    -0.237 OA
ATOM     97  O   UNL A   1      44.305  37.616  27.113  1.00  0.00    -0.744 OA
ENDBRANCH  91  94
ENDBRANCH  64  87
ENDBRANCH  38  39
ENDBRANCH  31  33
ENDBRANCH  30  31
ENDBRANCH  29  30
ENDBRANCH  28  29
ENDBRANCH   1  28
TORSDOF 20
ENDMDL
MODEL 2
REMARK VINA RESULT:     -11.7      5.118      7.901
REMARK SMILES Cn1cc(C(=O)OCCOCCOC(=O)c2ccc(-c3c4nc(c(-c5cccc(S(=O)(=O)[O-])c5F)c5ccc([nH]5)c(-c5cccc(S(=O)(=O)[O-])c5F)c5nc(c(-c6cccc(S(=O)(=O)[O-])c6F)c6ccc3[nH]6)C=C5)C=C4)cc2)c(C(=O)Nc2ccc(-n3cncn3)cc2)n1
REMARK SMILES IDX 10 1 9 2 8 3 7 4 5 5 6 6 4 7 1 8 2 9 3 10 94 11 79 12 80 13
REMARK SMILES IDX 81 14 82 15 83 17 84 18 93 19 85 20 92 21 86 22 87 23 88 24
REMARK SMILES IDX 91 25 89 26 90 27 11 28 12 29 13 30 14 31 15 32 16 33 17 34
REMARK SMILES IDX 78 35 18 36 77 37 19 38 20 39 21 40 71 41 22 42 76 43 70 44
REMARK SMILES IDX 72 45 23 46 75 47 69 48 68 49 24 51 56 52 36 53 55 54 37 55
REMARK SMILES IDX 40 56 54 57 73 58 38 59 39 60 53 62 74 63 41 64 25 65 26 66
REMARK SMILES IDX 34 67 27 68 29 69 35 70 28 71 30 72 31 73 32 74 33 75 57 76
REMARK SMILES IDX 58 77 66 78 59 79 61 80 67 81 60 82 62 83 63 84 64 85 65 86
REMARK SMILES IDX 42 87 43 88 51 89 44 90 46 91 52 92 45 93 47 94 48 95 49 96
REMARK SMILES IDX 50 97
REMARK H PARENT 82 16 72 50 40 61
REMARK Flexibility Score: inf
ROOT
ATOM      1  O   UNL A   1      32.528  30.704  26.977  1.00  0.00    -0.374 OA
ENDROOT
BRANCH   1   2
ATOM      2  C   UNL A   1      32.277  29.458  26.308  1.00  0.00     0.202 C 
BRANCH   2   3
ATOM      3  C   UNL A   1      32.907  29.353  24.920  1.00  0.00     0.261 C 
BRANCH   3   4
ATOM      4  O   UNL A   1      32.718  28.016  24.467  1.00  0.00    -0.460 OA
BRANCH   4   5
ATOM      5  C   UNL A   1      32.412  27.826  23.157  1.00  0.00     0.342 C 
ATOM      6  O   UNL A   1      33.167  27.404  22.297  1.00  0.00    -0.246 OA
BRANCH   5   7
ATOM      7  C   UNL A   1      31.044  28.221  22.939  1.00  0.00     0.111 A 
ATOM      8  C   UNL A   1      28.660  30.536  21.562  1.00  0.00     0.173 C 
ATOM      9  N   UNL A   1      29.419  29.502  22.224  1.00  0.00    -0.274 N 
ATOM     10  C   UNL A   1      30.760  29.410  22.282  1.00  0.00     0.125 A 
ATOM     11  N   UNL A   1      28.795  28.506  22.855  1.00  0.00    -0.167 NA
ATOM     12  C   UNL A   1      29.771  27.654  23.277  1.00  0.00     0.165 A 
BRANCH  12  13
ATOM     13  C   UNL A   1      29.298  26.381  23.899  1.00  0.00     0.277 C 
ATOM     14  O   UNL A   1      28.188  26.328  24.449  1.00  0.00    -0.267 OA
ATOM     15  N   UNL A   1      29.907  25.155  23.773  1.00  0.00    -0.321 N 
ATOM     16  H   UNL A   1      29.260  24.418  23.687  1.00  0.00     0.170 HD
BRANCH  15  17
ATOM     17  C   UNL A   1      31.227  24.713  23.741  1.00  0.00     0.041 A 
ATOM     18  C   UNL A   1      31.930  24.734  24.952  1.00  0.00     0.028 A 
ATOM     19  C   UNL A   1      31.871  24.300  22.580  1.00  0.00     0.028 A 
ATOM     20  C   UNL A   1      33.170  24.102  25.052  1.00  0.00     0.030 A 
ATOM     21  C   UNL A   1      33.166  23.774  22.657  1.00  0.00     0.030 A 
ATOM     22  C   UNL A   1      33.755  23.556  23.909  1.00  0.00     0.067 A 
BRANCH  22  23
ATOM     23  N   UNL A   1      34.787  22.593  24.040  1.00  0.00    -0.221 N 
ATOM     24  C   UNL A   1      34.759  21.385  24.695  1.00  0.00     0.225 A 
ATOM     25  N   UNL A   1      36.077  22.906  23.754  1.00  0.00    -0.155 NA
ATOM     26  N   UNL A   1      35.977  21.008  25.010  1.00  0.00    -0.223 NA
ATOM     27  C   UNL A   1      36.745  21.992  24.461  1.00  0.00     0.246 A 
ENDBRANCH  22  23
ENDBRANCH  15  17
ENDBRANCH  12  13
ENDBRANCH   5   7
ENDBRANCH   4   5
ENDBRANCH   3   4
ENDBRANCH   2   3
ENDBRANCH   1   2
BRANCH   1  28
ATOM     28  C   UNL A   1      31.561  31.734  26.723  1.00  0.00     0.202 C 
BRANCH  28  29
ATOM     29  C   UNL A   1      32.128  33.152  26.877  1.00  0.00     0.261 C 
BRANCH  29  30
ATOM     30  O   UNL A   1      32.755  33.284  28.159  1.00  0.00    -0.460 OA
BRANCH  30  31
ATOM     31  C   UNL A   1      33.854  34.080  28.174  1.00  0.00     0.338 C 
ATOM     32  O   UNL A   1      33.881  35.298  28.131  1.00  0.00    -0.246 OA
BRANCH  31  33
ATOM     33  C   UNL A   1      35.020  33.241  28.529  1.00  0.00     0.060 A 
ATOM     34  C   UNL A   1      34.776  31.886  28.797  1.00  0.00     0.016 A 
ATOM     35  C   UNL A   1      36.330  33.732  28.489  1.00  0.00     0.016 A 
ATOM     36  C   UNL A   1      35.837  31.022  29.053  1.00  0.00     0.010 A 
ATOM     37  C   UNL A   1      37.391  32.873  28.771  1.00  0.00     0.010 A 
ATOM     38  C   UNL A   1      37.140  31.528  29.094  1.00  0.00    -0.014 A 
BRANCH  38  39
ATOM     39  C   UNL A   1      38.185  30.758  29.801  1.00  0.00     0.031 A 
ATOM     40  C   UNL A   1      38.412  31.113  31.245  1.00  0.00     0.074 A 
ATOM     41  C   UNL A   1      38.908  29.802  29.196  1.00  0.00     0.049 A 
ATOM     42  N   UNL A   1      39.321  30.681  32.074  1.00  0.00    -0.248 NA
ATOM     43  C   UNL A   1      37.485  32.102  31.830  1.00  0.00     0.031 C 
ATOM     44  C   UNL A   1      38.747  29.360  27.813  1.00  0.00     0.029 A 
ATOM     45  N   UNL A   1      39.950  29.049  29.673  1.00  0.00    -0.354 N 
ATOM     46  C   UNL A   1      39.100  31.371  33.260  1.00  0.00     0.074 A 
ATOM     47  C   UNL A   1      37.974  32.249  33.049  1.00  0.00     0.031 C 
ATOM     48  C   UNL A   1      39.683  28.431  27.542  1.00  0.00     0.029 A 
ATOM     49  C   UNL A   1      40.525  28.240  28.723  1.00  0.00     0.049 A 
ATOM     50  H   UNL A   1      40.257  29.085  30.609  1.00  0.00     0.167 HD
ATOM     51  C   UNL A   1      39.770  31.276  34.429  1.00  0.00     0.034 A 
ATOM     52  C   UNL A   1      41.622  27.459  28.801  1.00  0.00     0.034 A 
ATOM     53  C   UNL A   1      40.881  30.396  34.635  1.00  0.00     0.049 A 
ATOM     54  C   UNL A   1      42.373  27.393  30.109  1.00  0.00     0.074 A 
ATOM     55  C   UNL A   1      41.632  30.209  35.780  1.00  0.00     0.029 A 
ATOM     56  N   UNL A   1      41.404  29.557  33.663  1.00  0.00    -0.354 N 
ATOM     57  N   UNL A   1      42.105  27.985  31.249  1.00  0.00    -0.248 NA
ATOM     58  C   UNL A   1      43.568  26.536  30.148  1.00  0.00     0.031 C 
ATOM     59  C   UNL A   1      42.624  29.266  35.493  1.00  0.00     0.029 A 
ATOM     60  C   UNL A   1      42.475  28.851  34.178  1.00  0.00     0.049 A 
ATOM     61  H   UNL A   1      41.063  29.474  32.743  1.00  0.00     0.167 HD
ATOM     62  C   UNL A   1      43.075  27.551  32.146  1.00  0.00     0.074 A 
ATOM     63  C   UNL A   1      43.925  26.628  31.423  1.00  0.00     0.031 C 
ATOM     64  C   UNL A   1      43.264  27.895  33.444  1.00  0.00     0.034 A 
BRANCH  51  65
ATOM     65  C   UNL A   1      39.305  32.149  35.560  1.00  0.00     0.023 A 
ATOM     66  C   UNL A   1      38.337  31.664  36.463  1.00  0.00     0.012 A 
ATOM     67  C   UNL A   1      39.822  33.447  35.727  1.00  0.00     0.148 A 
ATOM     68  C   UNL A   1      37.867  32.471  37.498  1.00  0.00     0.002 A 
ATOM     69  C   UNL A   1      39.379  34.230  36.786  1.00  0.00     0.091 A 
ATOM     70  F   UNL A   1      40.713  33.900  34.835  1.00  0.00    -0.205 F 
ATOM     71  C   UNL A   1      38.395  33.748  37.665  1.00  0.00     0.022 A 
BRANCH  69  72
ATOM     72  S   UNL A   1      40.039  35.866  37.121  1.00  0.00     0.127 S 
ATOM     73  O   UNL A   1      39.656  36.592  35.910  1.00  0.00    -0.237 OA
ATOM     74  O   UNL A   1      39.302  36.254  38.323  1.00  0.00    -0.237 OA
ATOM     75  O   UNL A   1      41.471  35.690  37.315  1.00  0.00    -0.744 OA
ENDBRANCH  69  72
ENDBRANCH  51  65
BRANCH  52  76
ATOM     76  C   UNL A   1      42.073  26.669  27.618  1.00  0.00     0.023 A 
ATOM     77  C   UNL A   1      42.786  27.309  26.585  1.00  0.00     0.012 A 
ATOM     78  C   UNL A   1      41.805  25.290  27.510  1.00  0.00     0.148 A 
ATOM     79  C   UNL A   1      43.195  26.598  25.455  1.00  0.00     0.002 A 
ATOM     80  C   UNL A   1      42.263  24.577  26.407  1.00  0.00     0.091 A 
ATOM     81  F   UNL A   1      41.103  24.701  28.489  1.00  0.00    -0.205 F 
ATOM     82  C   UNL A   1      42.943  25.232  25.370  1.00  0.00     0.022 A 
BRANCH  80  83
ATOM     83  S   UNL A   1      42.090  22.793  26.282  1.00  0.00     0.127 S 
ATOM     84  O   UNL A   1      40.639  22.631  26.286  1.00  0.00    -0.237 OA
ATOM     85  O   UNL A   1      42.738  22.512  25.001  1.00  0.00    -0.237 OA
ATOM     86  O   UNL A   1      42.795  22.252  27.437  1.00  0.00    -0.744 OA
ENDBRANCH  80  83
ENDBRANCH  52  76
BRANCH  64  87
ATOM     87  C   UNL A   1      44.410  27.255  34.181  1.00  0.00     0.023 A 
ATOM     88  C   UNL A   1      45.652  27.914  34.244  1.00  0.00     0.012 A 
ATOM     89  C   UNL A   1      44.221  26.057  34.897  1.00  0.00     0.148 A 
ATOM     90  C   UNL A   1      46.699  27.379  34.991  1.00  0.00     0.002 A 
ATOM     91  C   UNL A   1      45.254  25.554  35.678  1.00  0.00     0.091 A 
ATOM     92  F   UNL A   1      43.035  25.439  34.808  1.00  0.00    -0.205 F 
ATOM     93  C   UNL A   1      46.496  26.207  35.718  1.00  0.00     0.022 A 
BRANCH  91  94
ATOM     94  S   UNL A   1      45.046  24.109  36.725  1.00  0.00     0.127 S 
ATOM     95  O   UNL A   1      44.066  24.586  37.700  1.00  0.00    -0.237 OA
ATOM     96  O   UNL A   1      44.534  23.112  35.783  1.00  0.00    -0.237 OA
ATOM     97  O   UNL A   1      46.367  23.810  37.258  1.00  0.00    -0.744 OA
ENDBRANCH  91  94
ENDBRANCH  64  87
ENDBRANCH  38  39
ENDBRANCH  31  33
ENDBRANCH  30  31
ENDBRANCH  29  30
ENDBRANCH  28  29
ENDBRANCH   1  28
TORSDOF 20
ENDMDL
MODEL 3
REMARK VINA RESULT:     -11.5      5.074      7.939
REMARK SMILES Cn1cc(C(=O)OCCOCCOC(=O)c2ccc(-c3c4nc(c(-c5cccc(S(=O)(=O)[O-])c5F)c5ccc([nH]5)c(-c5cccc(S(=O)(=O)[O-])c5F)c5nc(c(-c6cccc(S(=O)(=O)[O-])c6F)c6ccc3[nH]6)C=C5)C=C4)cc2)c(C(=O)Nc2ccc(-n3cncn3)cc2)n1
REMARK SMILES IDX 10 1 9 2 8 3 7 4 5 5 6 6 4 7 1 8 2 9 3 10 94 11 79 12 80 13
REMARK SMILES IDX 81 14 82 15 83 17 84 18 93 19 85 20 92 21 86 22 87 23 88 24
REMARK SMILES IDX 91 25 89 26 90 27 11 28 12 29 13 30 14 31 15 32 16 33 17 34
REMARK SMILES IDX 78 35 18 36 77 37 19 38 20 39 21 40 71 41 22 42 76 43 70 44
REMARK SMILES IDX 72 45 23 46 75 47 69 48 68 49 24 51 56 52 36 53 55 54 37 55
REMARK SMILES IDX 40 56 54 57 73 58 38 59 39 60 53 62 74 63 41 64 25 65 26 66
REMARK SMILES IDX 34 67 27 68 29 69 35 70 28 71 30 72 31 73 32 74 33 75 57 76
REMARK SMILES IDX 58 77 66 78 59 79 61 80 67 81 60 82 62 83 63 84 64 85 65 86
REMARK SMILES IDX 42 87 43 88 51 89 44 90 46 91 52 92 45 93 47 94 48 95 49 96
REMARK SMILES IDX 50 97
REMARK H PARENT 82 16 72 50 40 61
REMARK Flexibility Score: inf
ROOT
ATOM      1  O   UNL A   1      32.657  28.699  26.011  1.00  0.00    -0.374 OA
ENDROOT
BRANCH   1   2
ATOM      2  C   UNL A   1      33.515  28.238  24.954  1.00  0.00     0.202 C 
BRANCH   2   3
ATOM      3  C   UNL A   1      33.626  26.717  24.857  1.00  0.00     0.261 C 
BRANCH   3   4
ATOM      4  O   UNL A   1      33.301  26.184  26.137  1.00  0.00    -0.460 OA
BRANCH   4   5
ATOM      5  C   UNL A   1      32.733  24.951  26.188  1.00  0.00     0.342 C 
ATOM      6  O   UNL A   1      31.709  24.655  26.781  1.00  0.00    -0.246 OA
BRANCH   5   7
ATOM      7  C   UNL A   1      33.549  24.034  25.433  1.00  0.00     0.111 A 
ATOM      8  C   UNL A   1      36.643  22.247  25.018  1.00  0.00     0.173 C 
ATOM      9  N   UNL A   1      35.347  22.880  24.957  1.00  0.00    -0.274 N 
ATOM     10  C   UNL A   1      34.847  23.761  25.841  1.00  0.00     0.125 A 
ATOM     11  N   UNL A   1      34.509  22.606  23.956  1.00  0.00    -0.167 NA
ATOM     12  C   UNL A   1      33.353  23.268  24.237  1.00  0.00     0.165 A 
BRANCH  12  13
ATOM     13  C   UNL A   1      32.209  23.001  23.314  1.00  0.00     0.277 C 
ATOM     14  O   UNL A   1      32.154  21.937  22.678  1.00  0.00    -0.267 OA
ATOM     15  N   UNL A   1      31.066  23.758  23.216  1.00  0.00    -0.321 N 
ATOM     16  H   UNL A   1      30.259  23.210  23.086  1.00  0.00     0.170 HD
BRANCH  15  17
ATOM     17  C   UNL A   1      30.785  25.121  23.258  1.00  0.00     0.041 A 
ATOM     18  C   UNL A   1      31.440  25.930  22.320  1.00  0.00     0.028 A 
ATOM     19  C   UNL A   1      29.935  25.703  24.191  1.00  0.00     0.028 A 
ATOM     20  C   UNL A   1      31.047  27.258  22.146  1.00  0.00     0.030 A 
ATOM     21  C   UNL A   1      29.629  27.066  24.095  1.00  0.00     0.030 A 
ATOM     22  C   UNL A   1      30.083  27.804  22.994  1.00  0.00     0.067 A 
BRANCH  22  23
ATOM     23  N   UNL A   1      29.396  28.983  22.609  1.00  0.00    -0.221 N 
ATOM     24  C   UNL A   1      28.076  29.312  22.803  1.00  0.00     0.225 A 
ATOM     25  N   UNL A   1      29.934  29.844  21.707  1.00  0.00    -0.155 NA
ATOM     26  N   UNL A   1      27.697  30.215  21.928  1.00  0.00    -0.223 NA
ATOM     27  C   UNL A   1      28.850  30.471  21.247  1.00  0.00     0.246 A 
ENDBRANCH  22  23
ENDBRANCH  15  17
ENDBRANCH  12  13
ENDBRANCH   5   7
ENDBRANCH   4   5
ENDBRANCH   3   4
ENDBRANCH   2   3
ENDBRANCH   1   2
BRANCH   1  28
ATOM     28  C   UNL A   1      31.797  29.794  25.660  1.00  0.00     0.202 C 
BRANCH  28  29
ATOM     29  C   UNL A   1      31.985  31.026  26.555  1.00  0.00     0.261 C 
BRANCH  29  30
ATOM     30  O   UNL A   1      33.007  30.767  27.525  1.00  0.00    -0.460 OA
BRANCH  30  31
ATOM     31  C   UNL A   1      33.839  31.812  27.766  1.00  0.00     0.338 C 
ATOM     32  O   UNL A   1      33.529  32.985  27.893  1.00  0.00    -0.246 OA
BRANCH  31  33
ATOM     33  C   UNL A   1      35.165  31.265  28.127  1.00  0.00     0.060 A 
ATOM     34  C   UNL A   1      35.317  29.872  28.085  1.00  0.00     0.016 A 
ATOM     35  C   UNL A   1      36.265  32.091  28.386  1.00  0.00     0.016 A 
ATOM     36  C   UNL A   1      36.560  29.296  28.328  1.00  0.00     0.010 A 
ATOM     37  C   UNL A   1      37.505  31.514  28.656  1.00  0.00     0.010 A 
ATOM     38  C   UNL A   1      37.642  30.115  28.669  1.00  0.00    -0.014 A 
BRANCH  38  39
ATOM     39  C   UNL A   1      38.800  29.518  29.365  1.00  0.00     0.031 A 
ATOM     40  C   UNL A   1      39.160  30.118  30.697  1.00  0.00     0.074 A 
ATOM     41  C   UNL A   1      39.511  28.505  28.843  1.00  0.00     0.049 A 
ATOM     42  N   UNL A   1      40.177  29.869  31.474  1.00  0.00    -0.248 NA
ATOM     43  C   UNL A   1      38.244  31.153  31.217  1.00  0.00     0.031 C 
ATOM     44  C   UNL A   1      39.228  27.832  27.578  1.00  0.00     0.029 A 
ATOM     45  N   UNL A   1      40.641  27.886  29.312  1.00  0.00    -0.354 N 
ATOM     46  C   UNL A   1      40.043  30.739  32.550  1.00  0.00     0.074 A 
ATOM     47  C   UNL A   1      38.851  31.522  32.331  1.00  0.00     0.031 C 
ATOM     48  C   UNL A   1      40.184  26.909  27.355  1.00  0.00     0.029 A 
ATOM     49  C   UNL A   1      41.157  26.953  28.445  1.00  0.00     0.049 A 
ATOM     50  H   UNL A   1      41.044  28.090  30.187  1.00  0.00     0.167 HD
ATOM     51  C   UNL A   1      40.840  30.868  33.633  1.00  0.00     0.034 A 
ATOM     52  C   UNL A   1      42.301  26.242  28.521  1.00  0.00     0.034 A 
ATOM     53  C   UNL A   1      42.017  30.081  33.849  1.00  0.00     0.049 A 
ATOM     54  C   UNL A   1      43.191  26.427  29.726  1.00  0.00     0.074 A 
ATOM     55  C   UNL A   1      42.896  30.120  34.914  1.00  0.00     0.029 A 
ATOM     56  N   UNL A   1      42.482  29.114  32.972  1.00  0.00    -0.354 N 
ATOM     57  N   UNL A   1      43.012  27.190  30.779  1.00  0.00    -0.248 NA
ATOM     58  C   UNL A   1      44.432  25.638  29.765  1.00  0.00     0.031 C 
ATOM     59  C   UNL A   1      43.906  29.183  34.671  1.00  0.00     0.029 A 
ATOM     60  C   UNL A   1      43.642  28.548  33.467  1.00  0.00     0.049 A 
ATOM     61  H   UNL A   1      42.050  28.865  32.123  1.00  0.00     0.167 HD
ATOM     62  C   UNL A   1      44.097  26.953  31.616  1.00  0.00     0.074 A 
ATOM     63  C   UNL A   1      44.918  25.958  30.958  1.00  0.00     0.031 C 
ATOM     64  C   UNL A   1      44.403  27.517  32.811  1.00  0.00     0.034 A 
BRANCH  51  65
ATOM     65  C   UNL A   1      40.447  31.898  34.654  1.00  0.00     0.023 A 
ATOM     66  C   UNL A   1      41.144  33.122  34.715  1.00  0.00     0.012 A 
ATOM     67  C   UNL A   1      39.392  31.655  35.553  1.00  0.00     0.148 A 
ATOM     68  C   UNL A   1      40.817  34.076  35.677  1.00  0.00     0.002 A 
ATOM     69  C   UNL A   1      39.045  32.628  36.483  1.00  0.00     0.091 A 
ATOM     70  F   UNL A   1      38.769  30.470  35.502  1.00  0.00    -0.205 F 
ATOM     71  C   UNL A   1      39.763  33.833  36.553  1.00  0.00     0.022 A 
BRANCH  69  72
ATOM     72  S   UNL A   1      37.666  32.434  37.616  1.00  0.00     0.127 S 
ATOM     73  O   UNL A   1      38.110  33.231  38.759  1.00  0.00    -0.237 OA
ATOM     74  O   UNL A   1      36.561  33.019  36.856  1.00  0.00    -0.237 OA
ATOM     75  O   UNL A   1      37.546  31.004  37.862  1.00  0.00    -0.744 OA
ENDBRANCH  69  72
ENDBRANCH  51  65
BRANCH  52  76
ATOM     76  C   UNL A   1      42.669  25.285  27.437  1.00  0.00     0.023 A 
ATOM     77  C   UNL A   1      43.574  25.684  26.434  1.00  0.00     0.012 A 
ATOM     78  C   UNL A   1      42.132  23.983  27.394  1.00  0.00     0.148 A 
ATOM     79  C   UNL A   1      43.914  24.816  25.394  1.00  0.00     0.002 A 
ATOM     80  C   UNL A   1      42.517  23.105  26.385  1.00  0.00     0.091 A 
ATOM     81  F   UNL A   1      41.252  23.627  28.341  1.00  0.00    -0.205 F 
ATOM     82  C   UNL A   1      43.394  23.526  25.375  1.00  0.00     0.022 A 
BRANCH  80  83
ATOM     83  S   UNL A   1      41.991  21.387  26.360  1.00  0.00     0.127 S 
ATOM     84  O   UNL A   1      40.584  21.510  25.990  1.00  0.00    -0.237 OA
ATOM     85  O   UNL A   1      42.854  20.819  25.323  1.00  0.00    -0.237 OA
ATOM     86  O   UNL A   1      42.256  20.879  27.700  1.00  0.00    -0.744 OA
ENDBRANCH  80  83
ENDBRANCH  52  76
BRANCH  64  87
ATOM     87  C   UNL A   1      45.658  27.057  33.504  1.00  0.00     0.023 A 
ATOM     88  C   UNL A   1      46.857  27.770  33.319  1.00  0.00     0.012 A 
ATOM     89  C   UNL A   1      45.619  25.986  34.418  1.00  0.00     0.148 A 
ATOM     90  C   UNL A   1      48.008  27.411  34.016  1.00  0.00     0.002 A 
ATOM     91  C   UNL A   1      46.758  25.663  35.145  1.00  0.00     0.091 A 
ATOM     92  F   UNL A   1      44.470  25.311  34.565  1.00  0.00    -0.205 F 
ATOM     93  C   UNL A   1      47.955  26.367  34.938  1.00  0.00     0.022 A 
BRANCH  91  94
ATOM     94  S   UNL A   1      46.751  24.403  36.425  1.00  0.00     0.127 S 
ATOM     95  O   UNL A   1      45.685  24.879  37.306  1.00  0.00    -0.237 OA
ATOM     96  O   UNL A   1      46.424  23.193  35.670  1.00  0.00    -0.237 OA
ATOM     97  O   UNL A   1      48.089  24.410  37.000  1.00  0.00    -0.744 OA
ENDBRANCH  91  94
ENDBRANCH  64  87
ENDBRANCH  38  39
ENDBRANCH  31  33
ENDBRANCH  30  31
ENDBRANCH  29  30
ENDBRANCH  28  29
ENDBRANCH   1  28
TORSDOF 20
ENDMDL
