MODEL 1
REMARK VINA RESULT:     -12.4      0.000      0.000
REMARK SMILES Cc1c(NC(=O)c2ccccc2NC(=O)[C@@H]2CCCO2)cccc1C(=O)OCCOCCOC(=O)c1ccc(-c2c3nc(c(-c4cccc(S(=O)(=O)[O-])c4F)c4ccc([nH]4)c(-c4cccc(S(=O)(=O)[O-])c4F)c4nc(c(-c5cccc(S(=O)(=O)[O-])c5F)c5ccc2[nH]5)C=C4)C=C3)cc1
REMARK SMILES IDX 29 1 28 2 27 3 25 4 26 5 24 6 1 7 2 8 3 9 21 10 23 11 22 12
REMARK SMILES IDX 4 13 5 14 6 16 7 17 8 18 12 19 9 20 11 21 10 22 13 23 14 24
REMARK SMILES IDX 15 26 16 27 17 28 20 29 18 30 19 31 30 32 31 33 32 34 33 35
REMARK SMILES IDX 34 36 35 37 36 38 37 39 98 40 38 41 97 42 39 43 40 44 41 45
REMARK SMILES IDX 91 46 42 47 96 48 90 49 92 50 43 51 95 52 89 53 88 54 44 56
REMARK SMILES IDX 76 57 56 58 75 59 57 60 60 61 74 62 93 63 58 64 59 65 73 67
REMARK SMILES IDX 94 68 61 69 45 70 46 71 54 72 47 73 49 74 55 75 48 76 50 77
REMARK SMILES IDX 51 78 52 79 53 80 77 81 78 82 86 83 79 84 81 85 87 86 80 87
REMARK SMILES IDX 82 88 83 89 84 90 85 91 62 92 63 93 71 94 64 95 66 96 72 97
REMARK SMILES IDX 65 98 67 99 68 100 69 101 70 102
REMARK H PARENT 4 15 13 25 92 55 60 66
REMARK Flexibility Score: inf
ROOT
ATOM      1  C   UNL A   1      32.456  30.199  27.009  1.00  0.00     0.202 C 
ENDROOT
BRANCH   1   2
ATOM      2  C   UNL A   1      31.758  30.514  25.688  1.00  0.00     0.261 C 
BRANCH   2   3
ATOM      3  O   UNL A   1      31.242  29.345  25.094  1.00  0.00    -0.460 OA
BRANCH   3   4
ATOM      4  C   UNL A   1      32.149  28.757  24.286  1.00  0.00     0.338 C 
ATOM      5  O   UNL A   1      33.234  29.183  23.955  1.00  0.00    -0.246 OA
BRANCH   4   6
ATOM      6  C   UNL A   1      31.709  27.375  24.072  1.00  0.00     0.065 A 
ATOM      7  C   UNL A   1      31.768  26.694  26.551  1.00  0.00     0.047 C 
ATOM      8  C   UNL A   1      31.545  26.403  25.083  1.00  0.00    -0.013 A 
ATOM      9  C   UNL A   1      31.294  25.083  24.659  1.00  0.00     0.045 A 
ATOM     10  C   UNL A   1      31.128  24.792  23.295  1.00  0.00     0.026 A 
ATOM     11  C   UNL A   1      31.571  27.067  22.713  1.00  0.00     0.016 A 
ATOM     12  C   UNL A   1      31.275  25.776  22.323  1.00  0.00     0.003 A 
BRANCH   9  13
ATOM     13  N   UNL A   1      31.284  24.063  25.633  1.00  0.00    -0.322 N 
ATOM     14  C   UNL A   1      32.193  23.067  25.908  1.00  0.00     0.257 C 
ATOM     15  H   UNL A   1      30.490  24.062  26.215  1.00  0.00     0.170 HD
ATOM     16  O   UNL A   1      31.877  22.157  26.675  1.00  0.00    -0.269 OA
BRANCH  14  17
ATOM     17  C   UNL A   1      33.577  23.094  25.364  1.00  0.00     0.063 A 
ATOM     18  C   UNL A   1      34.394  24.114  25.877  1.00  0.00     0.016 A 
ATOM     19  C   UNL A   1      34.067  22.214  24.367  1.00  0.00     0.054 A 
ATOM     20  C   UNL A   1      35.723  24.216  25.488  1.00  0.00     0.001 A 
ATOM     21  C   UNL A   1      35.434  22.267  24.087  1.00  0.00     0.027 A 
ATOM     22  C   UNL A   1      36.251  23.264  24.628  1.00  0.00     0.002 A 
BRANCH  19  23
ATOM     23  N   UNL A   1      33.152  21.390  23.677  1.00  0.00    -0.323 N 
ATOM     24  C   UNL A   1      32.724  20.099  23.752  1.00  0.00     0.253 C 
ATOM     25  H   UNL A   1      32.704  21.877  22.947  1.00  0.00     0.170 HD
ATOM     26  O   UNL A   1      32.006  19.722  22.820  1.00  0.00    -0.272 OA
BRANCH  24  27
ATOM     27  C   UNL A   1      33.182  19.129  24.841  1.00  0.00     0.207 C 
ATOM     28  C   UNL A   1      34.183  18.153  24.235  1.00  0.00     0.044 C 
ATOM     29  O   UNL A   1      32.136  18.309  25.388  1.00  0.00    -0.368 OA
ATOM     30  C   UNL A   1      34.044  16.948  25.122  1.00  0.00     0.032 C 
ATOM     31  C   UNL A   1      32.559  16.942  25.398  1.00  0.00     0.161 C 
ENDBRANCH  24  27
ENDBRANCH  19  23
ENDBRANCH  14  17
ENDBRANCH   9  13
ENDBRANCH   4   6
ENDBRANCH   3   4
ENDBRANCH   2   3
ENDBRANCH   1   2
BRANCH   1  32
ATOM     32  O   UNL A   1      33.737  30.758  27.196  1.00  0.00    -0.374 OA
BRANCH  32  33
ATOM     33  C   UNL A   1      33.771  31.937  27.990  1.00  0.00     0.202 C 
BRANCH  33  34
ATOM     34  C   UNL A   1      34.977  32.951  27.901  1.00  0.00     0.261 C 
BRANCH  34  35
ATOM     35  O   UNL A   1      36.246  32.408  28.411  1.00  0.00    -0.460 OA
BRANCH  35  36
ATOM     36  C   UNL A   1      36.356  31.590  29.519  1.00  0.00     0.338 C 
ATOM     37  O   UNL A   1      35.924  31.869  30.625  1.00  0.00    -0.246 OA
BRANCH  36  38
ATOM     38  C   UNL A   1      36.947  30.237  29.172  1.00  0.00     0.060 A 
ATOM     39  C   UNL A   1      37.112  29.226  30.120  1.00  0.00     0.016 A 
ATOM     40  C   UNL A   1      37.506  30.006  27.929  1.00  0.00     0.016 A 
ATOM     41  C   UNL A   1      38.165  28.295  30.006  1.00  0.00     0.010 A 
ATOM     42  C   UNL A   1      38.614  29.161  27.839  1.00  0.00     0.010 A 
ATOM     43  C   UNL A   1      39.043  28.400  28.940  1.00  0.00    -0.014 A 
BRANCH  43  44
ATOM     44  C   UNL A   1      40.465  27.978  28.964  1.00  0.00     0.031 A 
ATOM     45  C   UNL A   1      40.828  26.555  28.706  1.00  0.00     0.074 A 
ATOM     46  C   UNL A   1      41.467  28.904  28.892  1.00  0.00     0.049 A 
ATOM     47  N   UNL A   1      42.029  26.089  28.803  1.00  0.00    -0.248 NA
ATOM     48  C   UNL A   1      39.859  25.515  28.364  1.00  0.00     0.031 C 
ATOM     49  C   UNL A   1      42.784  28.691  28.274  1.00  0.00     0.029 A 
ATOM     50  N   UNL A   1      41.544  30.239  29.322  1.00  0.00    -0.354 N 
ATOM     51  C   UNL A   1      42.042  24.844  28.216  1.00  0.00     0.074 A 
ATOM     52  C   UNL A   1      40.657  24.478  28.093  1.00  0.00     0.031 C 
ATOM     53  C   UNL A   1      43.581  29.735  28.518  1.00  0.00     0.029 A 
ATOM     54  C   UNL A   1      42.898  30.587  29.464  1.00  0.00     0.049 A 
ATOM     55  H   UNL A   1      40.777  30.832  29.495  1.00  0.00     0.167 HD
ATOM     56  C   UNL A   1      43.223  24.317  27.794  1.00  0.00     0.034 A 
ATOM     57  C   UNL A   1      43.494  31.114  30.570  1.00  0.00     0.034 A 
ATOM     58  C   UNL A   1      44.364  25.126  28.260  1.00  0.00     0.049 A 
ATOM     59  C   UNL A   1      44.473  30.124  31.186  1.00  0.00     0.074 A 
ATOM     60  C   UNL A   1      45.269  25.966  27.637  1.00  0.00     0.029 A 
ATOM     61  N   UNL A   1      44.524  25.337  29.630  1.00  0.00    -0.354 N 
ATOM     62  N   UNL A   1      44.883  29.034  30.590  1.00  0.00    -0.248 NA
ATOM     63  C   UNL A   1      45.036  30.239  32.529  1.00  0.00     0.031 C 
ATOM     64  C   UNL A   1      45.873  26.777  28.644  1.00  0.00     0.029 A 
ATOM     65  C   UNL A   1      45.388  26.394  29.887  1.00  0.00     0.049 A 
ATOM     66  H   UNL A   1      44.081  24.803  30.329  1.00  0.00     0.167 HD
ATOM     67  C   UNL A   1      45.465  28.195  31.501  1.00  0.00     0.074 A 
ATOM     68  C   UNL A   1      45.664  29.055  32.657  1.00  0.00     0.031 C 
ATOM     69  C   UNL A   1      45.624  26.852  31.265  1.00  0.00     0.034 A 
BRANCH  56  70
ATOM     70  C   UNL A   1      43.371  23.117  26.868  1.00  0.00     0.023 A 
ATOM     71  C   UNL A   1      44.165  23.284  25.712  1.00  0.00     0.012 A 
ATOM     72  C   UNL A   1      42.732  21.854  27.003  1.00  0.00     0.148 A 
ATOM     73  C   UNL A   1      44.338  22.264  24.765  1.00  0.00     0.002 A 
ATOM     74  C   UNL A   1      42.970  20.810  26.101  1.00  0.00     0.091 A 
ATOM     75  F   UNL A   1      41.805  21.672  27.950  1.00  0.00    -0.205 F 
ATOM     76  C   UNL A   1      43.762  21.018  24.971  1.00  0.00     0.022 A 
BRANCH  74  77
ATOM     77  S   UNL A   1      42.315  19.144  26.340  1.00  0.00     0.127 S 
ATOM     78  O   UNL A   1      40.963  19.260  25.795  1.00  0.00    -0.237 OA
ATOM     79  O   UNL A   1      43.225  18.330  25.534  1.00  0.00    -0.237 OA
ATOM     80  O   UNL A   1      42.389  18.880  27.773  1.00  0.00    -0.744 OA
ENDBRANCH  74  77
ENDBRANCH  56  70
BRANCH  57  81
ATOM     81  C   UNL A   1      42.681  32.160  31.245  1.00  0.00     0.023 A 
ATOM     82  C   UNL A   1      42.457  33.338  30.488  1.00  0.00     0.012 A 
ATOM     83  C   UNL A   1      41.773  31.814  32.254  1.00  0.00     0.148 A 
ATOM     84  C   UNL A   1      41.271  34.060  30.616  1.00  0.00     0.002 A 
ATOM     85  C   UNL A   1      40.566  32.504  32.331  1.00  0.00     0.091 A 
ATOM     86  F   UNL A   1      42.021  30.719  32.983  1.00  0.00    -0.205 F 
ATOM     87  C   UNL A   1      40.305  33.611  31.504  1.00  0.00     0.022 A 
BRANCH  85  88
ATOM     88  S   UNL A   1      39.134  31.823  33.170  1.00  0.00     0.127 S 
ATOM     89  O   UNL A   1      39.527  31.878  34.572  1.00  0.00    -0.237 OA
ATOM     90  O   UNL A   1      38.119  32.796  32.782  1.00  0.00    -0.237 OA
ATOM     91  O   UNL A   1      38.954  30.491  32.610  1.00  0.00    -0.744 OA
ENDBRANCH  85  88
ENDBRANCH  57  81
BRANCH  69  92
ATOM     92  C   UNL A   1      45.980  25.839  32.349  1.00  0.00     0.023 A 
ATOM     93  C   UNL A   1      47.315  25.555  32.705  1.00  0.00     0.012 A 
ATOM     94  C   UNL A   1      44.978  25.230  33.148  1.00  0.00     0.148 A 
ATOM     95  C   UNL A   1      47.644  24.647  33.719  1.00  0.00     0.002 A 
ATOM     96  C   UNL A   1      45.312  24.433  34.242  1.00  0.00     0.091 A 
ATOM     97  F   UNL A   1      43.684  25.403  32.841  1.00  0.00    -0.205 F 
ATOM     98  C   UNL A   1      46.642  24.100  34.502  1.00  0.00     0.022 A 
BRANCH  96  99
ATOM     99  S   UNL A   1      44.072  23.952  35.454  1.00  0.00     0.127 S 
ATOM    100  O   UNL A   1      43.196  23.088  34.668  1.00  0.00    -0.237 OA
ATOM    101  O   UNL A   1      44.872  23.253  36.462  1.00  0.00    -0.237 OA
ATOM    102  O   UNL A   1      43.496  25.207  35.918  1.00  0.00    -0.744 OA
ENDBRANCH  96  99
ENDBRANCH  69  92
ENDBRANCH  43  44
ENDBRANCH  36  38
ENDBRANCH  35  36
ENDBRANCH  34  35
ENDBRANCH  33  34
ENDBRANCH  32  33
ENDBRANCH   1  32
TORSDOF 21
ENDMDL
MODEL 2
REMARK VINA RESULT:     -12.1      3.817     10.114
REMARK SMILES Cc1c(NC(=O)c2ccccc2NC(=O)[C@@H]2CCCO2)cccc1C(=O)OCCOCCOC(=O)c1ccc(-c2c3nc(c(-c4cccc(S(=O)(=O)[O-])c4F)c4ccc([nH]4)c(-c4cccc(S(=O)(=O)[O-])c4F)c4nc(c(-c5cccc(S(=O)(=O)[O-])c5F)c5ccc2[nH]5)C=C4)C=C3)cc1
REMARK SMILES IDX 29 1 28 2 27 3 25 4 26 5 24 6 1 7 2 8 3 9 21 10 23 11 22 12
REMARK SMILES IDX 4 13 5 14 6 16 7 17 8 18 12 19 9 20 11 21 10 22 13 23 14 24
REMARK SMILES IDX 15 26 16 27 17 28 20 29 18 30 19 31 30 32 31 33 32 34 33 35
REMARK SMILES IDX 34 36 35 37 36 38 37 39 98 40 38 41 97 42 39 43 40 44 41 45
REMARK SMILES IDX 91 46 42 47 96 48 90 49 92 50 43 51 95 52 89 53 88 54 44 56
REMARK SMILES IDX 76 57 56 58 75 59 57 60 60 61 74 62 93 63 58 64 59 65 73 67
REMARK SMILES IDX 94 68 61 69 45 70 46 71 54 72 47 73 49 74 55 75 48 76 50 77
REMARK SMILES IDX 51 78 52 79 53 80 77 81 78 82 86 83 79 84 81 85 87 86 80 87
REMARK SMILES IDX 82 88 83 89 84 90 85 91 62 92 63 93 71 94 64 95 66 96 72 97
REMARK SMILES IDX 65 98 67 99 68 100 69 101 70 102
REMARK H PARENT 4 15 13 25 92 55 60 66
REMARK Flexibility Score: inf
ROOT
ATOM      1  C   UNL A   1      37.615  21.310  24.686  1.00  0.00     0.202 C 
ENDROOT
BRANCH   1   2
ATOM      2  C   UNL A   1      36.288  20.624  25.003  1.00  0.00     0.261 C 
BRANCH   2   3
ATOM      3  O   UNL A   1      35.211  21.527  24.897  1.00  0.00    -0.460 OA
BRANCH   3   4
ATOM      4  C   UNL A   1      34.026  20.883  24.875  1.00  0.00     0.338 C 
ATOM      5  O   UNL A   1      33.820  19.714  24.634  1.00  0.00    -0.246 OA
BRANCH   4   6
ATOM      6  C   UNL A   1      33.027  21.791  25.449  1.00  0.00     0.065 A 
ATOM      7  C   UNL A   1      31.645  22.057  23.298  1.00  0.00     0.047 C 
ATOM      8  C   UNL A   1      31.940  22.359  24.751  1.00  0.00    -0.013 A 
ATOM      9  C   UNL A   1      31.200  23.349  25.426  1.00  0.00     0.045 A 
ATOM     10  C   UNL A   1      31.493  23.671  26.762  1.00  0.00     0.026 A 
ATOM     11  C   UNL A   1      33.328  22.142  26.772  1.00  0.00     0.016 A 
ATOM     12  C   UNL A   1      32.558  23.078  27.431  1.00  0.00     0.003 A 
BRANCH   9  13
ATOM     13  N   UNL A   1      30.212  24.050  24.704  1.00  0.00    -0.322 N 
ATOM     14  C   UNL A   1      30.269  25.236  24.009  1.00  0.00     0.257 C 
ATOM     15  H   UNL A   1      29.328  23.616  24.696  1.00  0.00     0.170 HD
ATOM     16  O   UNL A   1      29.225  25.763  23.625  1.00  0.00    -0.269 OA
BRANCH  14  17
ATOM     17  C   UNL A   1      31.564  25.868  23.640  1.00  0.00     0.063 A 
ATOM     18  C   UNL A   1      32.144  25.381  22.456  1.00  0.00     0.016 A 
ATOM     19  C   UNL A   1      32.230  26.851  24.413  1.00  0.00     0.054 A 
ATOM     20  C   UNL A   1      33.327  25.925  21.975  1.00  0.00     0.001 A 
ATOM     21  C   UNL A   1      33.351  27.459  23.844  1.00  0.00     0.027 A 
ATOM     22  C   UNL A   1      33.904  26.993  22.647  1.00  0.00     0.002 A 
BRANCH  19  23
ATOM     23  N   UNL A   1      31.769  27.115  25.721  1.00  0.00    -0.323 N 
ATOM     24  C   UNL A   1      31.908  28.108  26.643  1.00  0.00     0.253 C 
ATOM     25  H   UNL A   1      31.194  26.389  26.056  1.00  0.00     0.170 HD
ATOM     26  O   UNL A   1      31.452  27.859  27.765  1.00  0.00    -0.272 OA
BRANCH  24  27
ATOM     27  C   UNL A   1      32.674  29.401  26.369  1.00  0.00     0.207 C 
ATOM     28  C   UNL A   1      34.024  29.327  27.070  1.00  0.00     0.044 C 
ATOM     29  O   UNL A   1      32.045  30.588  26.882  1.00  0.00    -0.368 OA
ATOM     30  C   UNL A   1      34.361  30.774  27.289  1.00  0.00     0.032 C 
ATOM     31  C   UNL A   1      33.005  31.357  27.613  1.00  0.00     0.161 C 
ENDBRANCH  24  27
ENDBRANCH  19  23
ENDBRANCH  14  17
ENDBRANCH   9  13
ENDBRANCH   4   6
ENDBRANCH   3   4
ENDBRANCH   2   3
ENDBRANCH   1   2
BRANCH   1  32
ATOM     32  O   UNL A   1      38.721  20.945  25.481  1.00  0.00    -0.374 OA
BRANCH  32  33
ATOM     33  C   UNL A   1      39.233  21.978  26.313  1.00  0.00     0.202 C 
BRANCH  33  34
ATOM     34  C   UNL A   1      40.436  21.716  27.300  1.00  0.00     0.261 C 
BRANCH  34  35
ATOM     35  O   UNL A   1      41.059  22.946  27.814  1.00  0.00    -0.460 OA
BRANCH  35  36
ATOM     36  C   UNL A   1      41.550  23.963  27.019  1.00  0.00     0.338 C 
ATOM     37  O   UNL A   1      42.495  23.844  26.257  1.00  0.00    -0.246 OA
BRANCH  36  38
ATOM     38  C   UNL A   1      40.690  25.210  27.092  1.00  0.00     0.060 A 
ATOM     39  C   UNL A   1      40.842  26.279  26.207  1.00  0.00     0.016 A 
ATOM     40  C   UNL A   1      39.825  25.413  28.150  1.00  0.00     0.016 A 
ATOM     41  C   UNL A   1      40.555  27.599  26.613  1.00  0.00     0.010 A 
ATOM     42  C   UNL A   1      39.624  26.715  28.613  1.00  0.00     0.010 A 
ATOM     43  C   UNL A   1      40.125  27.824  27.910  1.00  0.00    -0.014 A 
BRANCH  43  44
ATOM     44  C   UNL A   1      40.363  29.069  28.681  1.00  0.00     0.031 A 
ATOM     45  C   UNL A   1      39.294  30.104  28.780  1.00  0.00     0.074 A 
ATOM     46  C   UNL A   1      41.400  29.151  29.567  1.00  0.00     0.049 A 
ATOM     47  N   UNL A   1      39.454  31.253  29.349  1.00  0.00    -0.248 NA
ATOM     48  C   UNL A   1      37.960  29.957  28.201  1.00  0.00     0.031 C 
ATOM     49  C   UNL A   1      41.408  29.950  30.801  1.00  0.00     0.029 A 
ATOM     50  N   UNL A   1      42.663  28.537  29.592  1.00  0.00    -0.354 N 
ATOM     51  C   UNL A   1      38.208  31.812  29.518  1.00  0.00     0.074 A 
ATOM     52  C   UNL A   1      37.339  31.046  28.666  1.00  0.00     0.031 C 
ATOM     53  C   UNL A   1      42.627  29.939  31.348  1.00  0.00     0.029 A 
ATOM     54  C   UNL A   1      43.517  29.302  30.406  1.00  0.00     0.049 A 
ATOM     55  H   UNL A   1      42.909  27.710  29.118  1.00  0.00     0.167 HD
ATOM     56  C   UNL A   1      38.035  32.788  30.451  1.00  0.00     0.034 A 
ATOM     57  C   UNL A   1      44.737  29.803  30.065  1.00  0.00     0.034 A 
ATOM     58  C   UNL A   1      39.328  33.242  30.992  1.00  0.00     0.049 A 
ATOM     59  C   UNL A   1      44.700  31.323  29.989  1.00  0.00     0.074 A 
ATOM     60  C   UNL A   1      39.966  33.102  32.211  1.00  0.00     0.029 A 
ATOM     61  N   UNL A   1      40.288  33.743  30.111  1.00  0.00    -0.354 N 
ATOM     62  N   UNL A   1      43.716  32.054  30.446  1.00  0.00    -0.248 NA
ATOM     63  C   UNL A   1      45.728  32.148  29.357  1.00  0.00     0.031 C 
ATOM     64  C   UNL A   1      41.349  33.395  32.013  1.00  0.00     0.029 A 
ATOM     65  C   UNL A   1      41.549  33.775  30.693  1.00  0.00     0.049 A 
ATOM     66  H   UNL A   1      40.097  34.037  29.191  1.00  0.00     0.167 HD
ATOM     67  C   UNL A   1      43.802  33.321  29.936  1.00  0.00     0.074 A 
ATOM     68  C   UNL A   1      45.148  33.363  29.385  1.00  0.00     0.031 C 
ATOM     69  C   UNL A   1      42.727  34.176  29.909  1.00  0.00     0.034 A 
BRANCH  56  70
ATOM     70  C   UNL A   1      36.690  33.282  30.967  1.00  0.00     0.023 A 
ATOM     71  C   UNL A   1      36.351  32.964  32.301  1.00  0.00     0.012 A 
ATOM     72  C   UNL A   1      35.697  33.976  30.224  1.00  0.00     0.148 A 
ATOM     73  C   UNL A   1      35.123  33.328  32.871  1.00  0.00     0.002 A 
ATOM     74  C   UNL A   1      34.505  34.411  30.818  1.00  0.00     0.091 A 
ATOM     75  F   UNL A   1      35.842  34.141  28.905  1.00  0.00    -0.205 F 
ATOM     76  C   UNL A   1      34.209  34.074  32.139  1.00  0.00     0.022 A 
BRANCH  74  77
ATOM     77  S   UNL A   1      33.303  35.444  29.953  1.00  0.00     0.127 S 
ATOM     78  O   UNL A   1      32.535  34.459  29.193  1.00  0.00    -0.237 OA
ATOM     79  O   UNL A   1      32.568  36.063  31.057  1.00  0.00    -0.237 OA
ATOM     80  O   UNL A   1      34.077  36.384  29.151  1.00  0.00    -0.744 OA
ENDBRANCH  74  77
ENDBRANCH  56  70
BRANCH  57  81
ATOM     81  C   UNL A   1      45.577  28.853  29.288  1.00  0.00     0.023 A 
ATOM     82  C   UNL A   1      45.902  27.644  29.954  1.00  0.00     0.012 A 
ATOM     83  C   UNL A   1      45.571  28.879  27.887  1.00  0.00     0.148 A 
ATOM     84  C   UNL A   1      46.049  26.451  29.249  1.00  0.00     0.002 A 
ATOM     85  C   UNL A   1      45.658  27.674  27.196  1.00  0.00     0.091 A 
ATOM     86  F   UNL A   1      45.298  30.038  27.276  1.00  0.00    -0.205 F 
ATOM     87  C   UNL A   1      45.876  26.460  27.873  1.00  0.00     0.022 A 
BRANCH  85  88
ATOM     88  S   UNL A   1      45.113  27.512  25.495  1.00  0.00     0.127 S 
ATOM     89  O   UNL A   1      45.085  26.068  25.303  1.00  0.00    -0.237 OA
ATOM     90  O   UNL A   1      43.801  28.142  25.582  1.00  0.00    -0.237 OA
ATOM     91  O   UNL A   1      46.093  28.242  24.703  1.00  0.00    -0.744 OA
ENDBRANCH  85  88
ENDBRANCH  57  81
BRANCH  69  92
ATOM     92  C   UNL A   1      42.689  35.462  29.090  1.00  0.00     0.023 A 
ATOM     93  C   UNL A   1      41.946  35.574  27.896  1.00  0.00     0.012 A 
ATOM     94  C   UNL A   1      43.293  36.656  29.562  1.00  0.00     0.148 A 
ATOM     95  C   UNL A   1      41.886  36.762  27.159  1.00  0.00     0.002 A 
ATOM     96  C   UNL A   1      43.119  37.867  28.895  1.00  0.00     0.091 A 
ATOM     97  F   UNL A   1      44.065  36.624  30.659  1.00  0.00    -0.205 F 
ATOM     98  C   UNL A   1      42.457  37.916  27.668  1.00  0.00     0.022 A 
BRANCH  96  99
ATOM     99  S   UNL A   1      43.579  39.427  29.665  1.00  0.00     0.127 S 
ATOM    100  O   UNL A   1      42.487  40.304  29.253  1.00  0.00    -0.237 OA
ATOM    101  O   UNL A   1      43.583  39.086  31.089  1.00  0.00    -0.237 OA
ATOM    102  O   UNL A   1      44.896  39.737  29.124  1.00  0.00    -0.744 OA
ENDBRANCH  96  99
ENDBRANCH  69  92
ENDBRANCH  43  44
ENDBRANCH  36  38
ENDBRANCH  35  36
ENDBRANCH  34  35
ENDBRANCH  33  34
ENDBRANCH  32  33
ENDBRANCH   1  32
TORSDOF 21
ENDMDL
MODEL 3
REMARK VINA RESULT:     -11.8      3.644     10.197
REMARK SMILES Cc1c(NC(=O)c2ccccc2NC(=O)[C@@H]2CCCO2)cccc1C(=O)OCCOCCOC(=O)c1ccc(-c2c3nc(c(-c4cccc(S(=O)(=O)[O-])c4F)c4ccc([nH]4)c(-c4cccc(S(=O)(=O)[O-])c4F)c4nc(c(-c5cccc(S(=O)(=O)[O-])c5F)c5ccc2[nH]5)C=C4)C=C3)cc1
REMARK SMILES IDX 29 1 28 2 27 3 25 4 26 5 24 6 1 7 2 8 3 9 21 10 23 11 22 12
REMARK SMILES IDX 4 13 5 14 6 16 7 17 8 18 12 19 9 20 11 21 10 22 13 23 14 24
REMARK SMILES IDX 15 26 16 27 17 28 20 29 18 30 19 31 30 32 31 33 32 34 33 35
REMARK SMILES IDX 34 36 35 37 36 38 37 39 98 40 38 41 97 42 39 43 40 44 41 45
REMARK SMILES IDX 91 46 42 47 96 48 90 49 92 50 43 51 95 52 89 53 88 54 44 56
REMARK SMILES IDX 76 57 56 58 75 59 57 60 60 61 74 62 93 63 58 64 59 65 73 67
REMARK SMILES IDX 94 68 61 69 45 70 46 71 54 72 47 73 49 74 55 75 48 76 50 77
REMARK SMILES IDX 51 78 52 79 53 80 77 81 78 82 86 83 79 84 81 85 87 86 80 87
REMARK SMILES IDX 82 88 83 89 84 90 85 91 62 92 63 93 71 94 64 95 66 96 72 97
REMARK SMILES IDX 65 98 67 99 68 100 69 101 70 102
REMARK H PARENT 4 15 13 25 92 55 60 66
REMARK Flexibility Score: inf
ROOT
ATOM      1  C   UNL A   1      37.900  22.938  26.136  1.00  0.00     0.202 C 
ENDROOT
BRANCH   1   2
ATOM      2  C   UNL A   1      36.842  23.423  25.149  1.00  0.00     0.261 C 
BRANCH   2   3
ATOM      3  O   UNL A   1      36.451  22.391  24.273  1.00  0.00    -0.460 OA
BRANCH   3   4
ATOM      4  C   UNL A   1      35.287  21.829  24.657  1.00  0.00     0.338 C 
ATOM      5  O   UNL A   1      35.126  20.895  25.411  1.00  0.00    -0.246 OA
BRANCH   4   6
ATOM      6  C   UNL A   1      34.208  22.712  24.203  1.00  0.00     0.065 A 
ATOM      7  C   UNL A   1      33.256  23.189  26.543  1.00  0.00     0.047 C 
ATOM      8  C   UNL A   1      33.253  23.332  25.037  1.00  0.00    -0.013 A 
ATOM      9  C   UNL A   1      32.186  23.994  24.397  1.00  0.00     0.045 A 
ATOM     10  C   UNL A   1      32.148  24.096  22.996  1.00  0.00     0.026 A 
ATOM     11  C   UNL A   1      34.143  22.796  22.806  1.00  0.00     0.016 A 
ATOM     12  C   UNL A   1      33.116  23.492  22.202  1.00  0.00     0.003 A 
BRANCH   9  13
ATOM     13  N   UNL A   1      31.133  24.485  25.197  1.00  0.00    -0.322 N 
ATOM     14  C   UNL A   1      30.899  25.737  25.717  1.00  0.00     0.257 C 
ATOM     15  H   UNL A   1      30.447  23.815  25.423  1.00  0.00     0.170 HD
ATOM     16  O   UNL A   1      30.016  25.885  26.562  1.00  0.00    -0.269 OA
BRANCH  14  17
ATOM     17  C   UNL A   1      31.633  26.937  25.234  1.00  0.00     0.063 A 
ATOM     18  C   UNL A   1      32.835  27.207  25.910  1.00  0.00     0.016 A 
ATOM     19  C   UNL A   1      31.174  27.805  24.212  1.00  0.00     0.054 A 
ATOM     20  C   UNL A   1      33.639  28.269  25.520  1.00  0.00     0.001 A 
ATOM     21  C   UNL A   1      32.059  28.789  23.766  1.00  0.00     0.027 A 
ATOM     22  C   UNL A   1      33.271  29.030  24.421  1.00  0.00     0.002 A 
BRANCH  19  23
ATOM     23  N   UNL A   1      29.847  27.670  23.749  1.00  0.00    -0.323 N 
ATOM     24  C   UNL A   1      28.870  28.492  23.277  1.00  0.00     0.253 C 
ATOM     25  H   UNL A   1      29.548  26.732  23.775  1.00  0.00     0.170 HD
ATOM     26  O   UNL A   1      27.760  27.970  23.133  1.00  0.00    -0.272 OA
BRANCH  24  27
ATOM     27  C   UNL A   1      29.077  29.989  23.047  1.00  0.00     0.207 C 
ATOM     28  C   UNL A   1      27.788  30.720  23.398  1.00  0.00     0.044 C 
ATOM     29  O   UNL A   1      29.359  30.350  21.684  1.00  0.00    -0.368 OA
ATOM     30  C   UNL A   1      27.875  31.961  22.557  1.00  0.00     0.032 C 
ATOM     31  C   UNL A   1      28.506  31.430  21.293  1.00  0.00     0.161 C 
ENDBRANCH  24  27
ENDBRANCH  19  23
ENDBRANCH  14  17
ENDBRANCH   9  13
ENDBRANCH   4   6
ENDBRANCH   3   4
ENDBRANCH   2   3
ENDBRANCH   1   2
BRANCH   1  32
ATOM     32  O   UNL A   1      38.762  21.916  25.687  1.00  0.00    -0.374 OA
BRANCH  32  33
ATOM     33  C   UNL A   1      40.070  21.941  26.245  1.00  0.00     0.202 C 
BRANCH  33  34
ATOM     34  C   UNL A   1      40.479  23.014  27.328  1.00  0.00     0.261 C 
BRANCH  34  35
ATOM     35  O   UNL A   1      40.921  24.295  26.754  1.00  0.00    -0.460 OA
BRANCH  35  36
ATOM     36  C   UNL A   1      41.516  25.310  27.477  1.00  0.00     0.338 C 
ATOM     37  O   UNL A   1      42.662  25.277  27.893  1.00  0.00    -0.246 OA
BRANCH  36  38
ATOM     38  C   UNL A   1      40.631  26.538  27.571  1.00  0.00     0.060 A 
ATOM     39  C   UNL A   1      41.106  27.827  27.326  1.00  0.00     0.016 A 
ATOM     40  C   UNL A   1      39.345  26.447  28.071  1.00  0.00     0.016 A 
ATOM     41  C   UNL A   1      40.550  28.940  27.989  1.00  0.00     0.010 A 
ATOM     42  C   UNL A   1      38.837  27.515  28.815  1.00  0.00     0.010 A 
ATOM     43  C   UNL A   1      39.524  28.738  28.898  1.00  0.00    -0.014 A 
BRANCH  43  44
ATOM     44  C   UNL A   1      39.252  29.594  30.078  1.00  0.00     0.031 A 
ATOM     45  C   UNL A   1      38.511  30.879  29.916  1.00  0.00     0.074 A 
ATOM     46  C   UNL A   1      39.369  29.092  31.343  1.00  0.00     0.049 A 
ATOM     47  N   UNL A   1      38.319  31.724  30.873  1.00  0.00    -0.248 NA
ATOM     48  C   UNL A   1      37.965  31.350  28.645  1.00  0.00     0.031 C 
ATOM     49  C   UNL A   1      38.572  29.512  32.505  1.00  0.00     0.029 A 
ATOM     50  N   UNL A   1      40.193  28.092  31.883  1.00  0.00    -0.354 N 
ATOM     51  C   UNL A   1      37.365  32.622  30.451  1.00  0.00     0.074 A 
ATOM     52  C   UNL A   1      37.288  32.437  29.027  1.00  0.00     0.031 C 
ATOM     53  C   UNL A   1      39.047  28.945  33.618  1.00  0.00     0.029 A 
ATOM     54  C   UNL A   1      40.287  28.289  33.271  1.00  0.00     0.049 A 
ATOM     55  H   UNL A   1      40.633  27.372  31.374  1.00  0.00     0.167 HD
ATOM     56  C   UNL A   1      36.667  33.338  31.373  1.00  0.00     0.034 A 
ATOM     57  C   UNL A   1      41.430  28.402  34.005  1.00  0.00     0.034 A 
ATOM     58  C   UNL A   1      37.237  33.169  32.721  1.00  0.00     0.049 A 
ATOM     59  C   UNL A   1      41.581  29.810  34.565  1.00  0.00     0.074 A 
ATOM     60  C   UNL A   1      36.819  32.523  33.871  1.00  0.00     0.029 A 
ATOM     61  N   UNL A   1      38.575  33.503  32.934  1.00  0.00    -0.354 N 
ATOM     62  N   UNL A   1      40.624  30.702  34.568  1.00  0.00    -0.248 NA
ATOM     63  C   UNL A   1      42.818  30.354  35.120  1.00  0.00     0.031 C 
ATOM     64  C   UNL A   1      37.959  32.356  34.714  1.00  0.00     0.029 A 
ATOM     65  C   UNL A   1      39.059  32.952  34.113  1.00  0.00     0.049 A 
ATOM     66  H   UNL A   1      39.111  34.061  32.324  1.00  0.00     0.167 HD
ATOM     67  C   UNL A   1      41.146  31.944  34.807  1.00  0.00     0.074 A 
ATOM     68  C   UNL A   1      42.488  31.649  35.287  1.00  0.00     0.031 C 
ATOM     69  C   UNL A   1      40.476  33.098  34.483  1.00  0.00     0.034 A 
BRANCH  56  70
ATOM     70  C   UNL A   1      35.394  34.127  31.095  1.00  0.00     0.023 A 
ATOM     71  C   UNL A   1      34.714  33.856  29.887  1.00  0.00     0.012 A 
ATOM     72  C   UNL A   1      34.847  35.168  31.893  1.00  0.00     0.148 A 
ATOM     73  C   UNL A   1      33.557  34.549  29.503  1.00  0.00     0.002 A 
ATOM     74  C   UNL A   1      33.647  35.803  31.550  1.00  0.00     0.091 A 
ATOM     75  F   UNL A   1      35.529  35.632  32.946  1.00  0.00    -0.205 F 
ATOM     76  C   UNL A   1      33.008  35.506  30.346  1.00  0.00     0.022 A 
BRANCH  74  77
ATOM     77  S   UNL A   1      32.834  37.003  32.627  1.00  0.00     0.127 S 
ATOM     78  O   UNL A   1      32.983  38.248  31.874  1.00  0.00    -0.237 OA
ATOM     79  O   UNL A   1      31.464  36.493  32.689  1.00  0.00    -0.237 OA
ATOM     80  O   UNL A   1      33.546  36.956  33.899  1.00  0.00    -0.744 OA
ENDBRANCH  74  77
ENDBRANCH  56  70
BRANCH  57  81
ATOM     81  C   UNL A   1      42.491  27.440  33.609  1.00  0.00     0.023 A 
ATOM     82  C   UNL A   1      43.527  27.976  32.803  1.00  0.00     0.012 A 
ATOM     83  C   UNL A   1      42.752  26.306  34.390  1.00  0.00     0.148 A 
ATOM     84  C   UNL A   1      44.835  27.501  32.902  1.00  0.00     0.002 A 
ATOM     85  C   UNL A   1      44.070  25.879  34.528  1.00  0.00     0.091 A 
ATOM     86  F   UNL A   1      41.752  25.792  35.115  1.00  0.00    -0.205 F 
ATOM     87  C   UNL A   1      45.112  26.485  33.804  1.00  0.00     0.022 A 
BRANCH  85  88
ATOM     88  S   UNL A   1      44.593  24.837  35.891  1.00  0.00     0.127 S 
ATOM     89  O   UNL A   1      46.004  24.616  35.603  1.00  0.00    -0.237 OA
ATOM     90  O   UNL A   1      44.332  25.730  37.015  1.00  0.00    -0.237 OA
ATOM     91  O   UNL A   1      43.737  23.661  35.831  1.00  0.00    -0.744 OA
ENDBRANCH  85  88
ENDBRANCH  57  81
BRANCH  69  92
ATOM     92  C   UNL A   1      41.130  34.476  34.448  1.00  0.00     0.023 A 
ATOM     93  C   UNL A   1      41.121  35.342  35.561  1.00  0.00     0.012 A 
ATOM     94  C   UNL A   1      41.898  34.899  33.333  1.00  0.00     0.148 A 
ATOM     95  C   UNL A   1      41.746  36.595  35.540  1.00  0.00     0.002 A 
ATOM     96  C   UNL A   1      42.628  36.086  33.368  1.00  0.00     0.091 A 
ATOM     97  F   UNL A   1      41.913  34.161  32.213  1.00  0.00    -0.205 F 
ATOM     98  C   UNL A   1      42.517  36.960  34.450  1.00  0.00     0.022 A 
BRANCH  96  99
ATOM     99  S   UNL A   1      43.868  36.452  32.115  1.00  0.00     0.127 S 
ATOM    100  O   UNL A   1      44.770  35.311  32.237  1.00  0.00    -0.237 OA
ATOM    101  O   UNL A   1      43.074  36.474  30.885  1.00  0.00    -0.237 OA
ATOM    102  O   UNL A   1      44.410  37.750  32.495  1.00  0.00    -0.744 OA
ENDBRANCH  96  99
ENDBRANCH  69  92
ENDBRANCH  43  44
ENDBRANCH  36  38
ENDBRANCH  35  36
ENDBRANCH  34  35
ENDBRANCH  33  34
ENDBRANCH  32  33
ENDBRANCH   1  32
TORSDOF 21
ENDMDL
