MODEL 1
REMARK VINA RESULT:     -10.5      0.000      0.000
REMARK SMILES CCS(=O)(=O)/N=c1/[nH]c(C)c(C(=O)OCCOCCOC(=O)c2ccc(-c3c4nc(c(-c5cccc(S(=O)(=O)[O-])c5F)c5ccc([nH]5)c(-c5cccc(S(=O)(=O)[O-])c5F)c5nc(c(-c6cccc(S(=O)(=O)[O-])c6F)c6ccc3[nH]6)C=C5)C=C4)cc2)s1
REMARK SMILES IDX 18 1 17 2 16 3 15 4 14 5 12 6 13 7 11 8 6 9 7 10 8 11 86 12
REMARK SMILES IDX 9 13 10 15 3 16 4 17 5 18 2 19 1 20 19 21 20 22 21 23 22 24
REMARK SMILES IDX 23 25 24 26 85 27 25 28 84 29 26 30 27 31 28 32 78 33 29 34
REMARK SMILES IDX 83 35 77 36 79 37 30 38 82 39 76 40 75 41 31 43 63 44 43 45
REMARK SMILES IDX 62 46 44 47 47 48 61 49 80 50 45 51 46 52 60 54 81 55 48 56
REMARK SMILES IDX 32 57 33 58 41 59 34 60 36 61 42 62 35 63 37 64 38 65 39 66
REMARK SMILES IDX 40 67 64 68 65 69 73 70 66 71 68 72 74 73 67 74 69 75 70 76
REMARK SMILES IDX 71 77 72 78 49 79 50 80 58 81 51 82 53 83 59 84 52 85 54 86
REMARK SMILES IDX 55 87 56 88 57 89
REMARK H PARENT 8 14 79 42 47 53
REMARK Flexibility Score: inf
ROOT
ATOM      1  C   UNL A   1      31.432  31.598  26.392  1.00  0.00     0.202 C 
ENDROOT
BRANCH   1   2
ATOM      2  O   UNL A   1      32.421  30.592  26.616  1.00  0.00    -0.374 OA
BRANCH   2   3
ATOM      3  C   UNL A   1      31.993  29.387  27.257  1.00  0.00     0.202 C 
BRANCH   3   4
ATOM      4  C   UNL A   1      33.016  28.250  27.268  1.00  0.00     0.261 C 
BRANCH   4   5
ATOM      5  O   UNL A   1      33.089  27.640  25.969  1.00  0.00    -0.459 OA
BRANCH   5   6
ATOM      6  C   UNL A   1      31.957  27.022  25.561  1.00  0.00     0.350 C 
ATOM      7  O   UNL A   1      31.257  26.280  26.237  1.00  0.00    -0.245 OA
BRANCH   6   8
ATOM      8  C   UNL A   1      31.570  27.482  24.212  1.00  0.00     0.135 A 
ATOM      9  N   UNL A   1      29.470  29.295  21.612  1.00  0.00    -0.135 NA
ATOM     10  C   UNL A   1      30.287  28.684  22.391  1.00  0.00     0.199 A 
ATOM     11  N   UNL A   1      31.191  27.732  21.985  1.00  0.00    -0.333 N 
ATOM     12  S   UNL A   1      30.445  28.833  24.145  1.00  0.00    -0.089 S 
ATOM     13  C   UNL A   1      31.913  27.072  22.974  1.00  0.00     0.039 A 
ATOM     14  H   UNL A   1      31.322  27.524  21.032  1.00  0.00     0.169 HD
ATOM     15  C   UNL A   1      32.905  26.029  22.576  1.00  0.00     0.066 C 
BRANCH   9  16
ATOM     16  S   UNL A   1      28.511  30.525  22.030  1.00  0.00     0.255 S 
ATOM     17  O   UNL A   1      29.333  31.486  22.746  1.00  0.00    -0.205 OA
ATOM     18  O   UNL A   1      27.326  29.994  22.676  1.00  0.00    -0.205 OA
BRANCH  16  19
ATOM     19  C   UNL A   1      27.979  31.354  20.549  1.00  0.00     0.159 C 
ATOM     20  C   UNL A   1      27.706  32.831  20.708  1.00  0.00     0.023 C 
ENDBRANCH  16  19
ENDBRANCH   9  16
ENDBRANCH   6   8
ENDBRANCH   5   6
ENDBRANCH   4   5
ENDBRANCH   3   4
ENDBRANCH   2   3
ENDBRANCH   1   2
BRANCH   1  21
ATOM     21  C   UNL A   1      31.786  33.017  26.851  1.00  0.00     0.261 C 
BRANCH  21  22
ATOM     22  O   UNL A   1      32.685  33.008  27.975  1.00  0.00    -0.460 OA
BRANCH  22  23
ATOM     23  C   UNL A   1      33.789  33.778  27.826  1.00  0.00     0.338 C 
ATOM     24  O   UNL A   1      33.823  34.974  27.567  1.00  0.00    -0.246 OA
BRANCH  23  25
ATOM     25  C   UNL A   1      34.991  33.016  28.211  1.00  0.00     0.060 A 
ATOM     26  C   UNL A   1      34.800  31.726  28.725  1.00  0.00     0.016 A 
ATOM     27  C   UNL A   1      36.273  33.565  28.130  1.00  0.00     0.016 A 
ATOM     28  C   UNL A   1      35.883  30.999  29.209  1.00  0.00     0.010 A 
ATOM     29  C   UNL A   1      37.359  32.835  28.625  1.00  0.00     0.010 A 
ATOM     30  C   UNL A   1      37.165  31.566  29.200  1.00  0.00    -0.014 A 
BRANCH  30  31
ATOM     31  C   UNL A   1      38.271  30.884  29.915  1.00  0.00     0.031 A 
ATOM     32  C   UNL A   1      38.577  31.279  31.334  1.00  0.00     0.074 A 
ATOM     33  C   UNL A   1      38.992  29.925  29.308  1.00  0.00     0.049 A 
ATOM     34  N   UNL A   1      39.505  30.827  32.135  1.00  0.00    -0.248 NA
ATOM     35  C   UNL A   1      37.724  32.321  31.928  1.00  0.00     0.031 C 
ATOM     36  C   UNL A   1      38.791  29.457  27.938  1.00  0.00     0.029 A 
ATOM     37  N   UNL A   1      40.058  29.189  29.764  1.00  0.00    -0.354 N 
ATOM     38  C   UNL A   1      39.368  31.545  33.316  1.00  0.00     0.074 A 
ATOM     39  C   UNL A   1      38.275  32.473  33.123  1.00  0.00     0.031 C 
ATOM     40  C   UNL A   1      39.724  28.531  27.654  1.00  0.00     0.029 A 
ATOM     41  C   UNL A   1      40.598  28.357  28.813  1.00  0.00     0.049 A 
ATOM     42  H   UNL A   1      40.401  29.251  30.685  1.00  0.00     0.167 HD
ATOM     43  C   UNL A   1      40.076  31.430  34.466  1.00  0.00     0.034 A 
ATOM     44  C   UNL A   1      41.684  27.560  28.866  1.00  0.00     0.034 A 
ATOM     45  C   UNL A   1      41.146  30.493  34.665  1.00  0.00     0.049 A 
ATOM     46  C   UNL A   1      42.466  27.465  30.151  1.00  0.00     0.074 A 
ATOM     47  C   UNL A   1      41.889  30.266  35.810  1.00  0.00     0.029 A 
ATOM     48  N   UNL A   1      41.636  29.633  33.695  1.00  0.00    -0.354 N 
ATOM     49  N   UNL A   1      42.244  28.058  31.299  1.00  0.00    -0.248 NA
ATOM     50  C   UNL A   1      43.629  26.564  30.157  1.00  0.00     0.031 C 
ATOM     51  C   UNL A   1      42.844  29.284  35.525  1.00  0.00     0.029 A 
ATOM     52  C   UNL A   1      42.679  28.882  34.209  1.00  0.00     0.049 A 
ATOM     53  H   UNL A   1      41.292  29.566  32.774  1.00  0.00     0.167 HD
ATOM     54  C   UNL A   1      43.214  27.576  32.172  1.00  0.00     0.074 A 
ATOM     55  C   UNL A   1      44.013  26.628  31.425  1.00  0.00     0.031 C 
ATOM     56  C   UNL A   1      43.431  27.900  33.471  1.00  0.00     0.034 A 
BRANCH  43  57
ATOM     57  C   UNL A   1      39.691  32.326  35.613  1.00  0.00     0.023 A 
ATOM     58  C   UNL A   1      38.918  31.807  36.672  1.00  0.00     0.012 A 
ATOM     59  C   UNL A   1      40.139  33.660  35.673  1.00  0.00     0.148 A 
ATOM     60  C   UNL A   1      38.574  32.610  37.758  1.00  0.00     0.002 A 
ATOM     61  C   UNL A   1      39.825  34.442  36.778  1.00  0.00     0.091 A 
ATOM     62  F   UNL A   1      40.851  34.142  34.643  1.00  0.00    -0.205 F 
ATOM     63  C   UNL A   1      39.035  33.922  37.817  1.00  0.00     0.022 A 
BRANCH  61  64
ATOM     64  S   UNL A   1      40.434  36.121  36.978  1.00  0.00     0.127 S 
ATOM     65  O   UNL A   1      39.825  36.794  35.832  1.00  0.00    -0.237 OA
ATOM     66  O   UNL A   1      39.875  36.499  38.275  1.00  0.00    -0.237 OA
ATOM     67  O   UNL A   1      41.887  36.025  36.948  1.00  0.00    -0.744 OA
ENDBRANCH  61  64
ENDBRANCH  43  57
BRANCH  44  68
ATOM     68  C   UNL A   1      42.076  26.760  27.672  1.00  0.00     0.023 A 
ATOM     69  C   UNL A   1      42.809  27.369  26.636  1.00  0.00     0.012 A 
ATOM     70  C   UNL A   1      41.745  25.394  27.569  1.00  0.00     0.148 A 
ATOM     71  C   UNL A   1      43.182  26.640  25.506  1.00  0.00     0.002 A 
ATOM     72  C   UNL A   1      42.168  24.660  26.468  1.00  0.00     0.091 A 
ATOM     73  F   UNL A   1      41.030  24.837  28.557  1.00  0.00    -0.205 F 
ATOM     74  C   UNL A   1      42.872  25.284  25.426  1.00  0.00     0.022 A 
BRANCH  72  75
ATOM     75  S   UNL A   1      41.930  22.883  26.350  1.00  0.00     0.127 S 
ATOM     76  O   UNL A   1      40.475  22.773  26.370  1.00  0.00    -0.237 OA
ATOM     77  O   UNL A   1      42.556  22.579  25.063  1.00  0.00    -0.237 OA
ATOM     78  O   UNL A   1      42.627  22.319  27.500  1.00  0.00    -0.744 OA
ENDBRANCH  72  75
ENDBRANCH  44  68
BRANCH  56  79
ATOM     79  C   UNL A   1      44.559  27.204  34.189  1.00  0.00     0.023 A 
ATOM     80  C   UNL A   1      45.853  27.760  34.165  1.00  0.00     0.012 A 
ATOM     81  C   UNL A   1      44.318  26.045  34.954  1.00  0.00     0.148 A 
ATOM     82  C   UNL A   1      46.896  27.156  34.865  1.00  0.00     0.002 A 
ATOM     83  C   UNL A   1      45.352  25.476  35.687  1.00  0.00     0.091 A 
ATOM     84  F   UNL A   1      43.084  25.521  34.949  1.00  0.00    -0.205 F 
ATOM     85  C   UNL A   1      46.645  26.023  35.635  1.00  0.00     0.022 A 
BRANCH  83  86
ATOM     86  S   UNL A   1      45.097  24.073  36.780  1.00  0.00     0.127 S 
ATOM     87  O   UNL A   1      44.210  24.642  37.794  1.00  0.00    -0.237 OA
ATOM     88  O   UNL A   1      44.462  23.098  35.894  1.00  0.00    -0.237 OA
ATOM     89  O   UNL A   1      46.420  23.687  37.251  1.00  0.00    -0.744 OA
ENDBRANCH  83  86
ENDBRANCH  56  79
ENDBRANCH  30  31
ENDBRANCH  23  25
ENDBRANCH  22  23
ENDBRANCH  21  22
ENDBRANCH   1  21
TORSDOF 19
ENDMDL
MODEL 2
REMARK VINA RESULT:     -10.3      2.387      3.790
REMARK SMILES CCS(=O)(=O)/N=c1/[nH]c(C)c(C(=O)OCCOCCOC(=O)c2ccc(-c3c4nc(c(-c5cccc(S(=O)(=O)[O-])c5F)c5ccc([nH]5)c(-c5cccc(S(=O)(=O)[O-])c5F)c5nc(c(-c6cccc(S(=O)(=O)[O-])c6F)c6ccc3[nH]6)C=C5)C=C4)cc2)s1
REMARK SMILES IDX 18 1 17 2 16 3 15 4 14 5 12 6 13 7 11 8 6 9 7 10 8 11 86 12
REMARK SMILES IDX 9 13 10 15 3 16 4 17 5 18 2 19 1 20 19 21 20 22 21 23 22 24
REMARK SMILES IDX 23 25 24 26 85 27 25 28 84 29 26 30 27 31 28 32 78 33 29 34
REMARK SMILES IDX 83 35 77 36 79 37 30 38 82 39 76 40 75 41 31 43 63 44 43 45
REMARK SMILES IDX 62 46 44 47 47 48 61 49 80 50 45 51 46 52 60 54 81 55 48 56
REMARK SMILES IDX 32 57 33 58 41 59 34 60 36 61 42 62 35 63 37 64 38 65 39 66
REMARK SMILES IDX 40 67 64 68 65 69 73 70 66 71 68 72 74 73 67 74 69 75 70 76
REMARK SMILES IDX 71 77 72 78 49 79 50 80 58 81 51 82 53 83 59 84 52 85 54 86
REMARK SMILES IDX 55 87 56 88 57 89
REMARK H PARENT 8 14 79 42 47 53
REMARK Flexibility Score: inf
ROOT
ATOM      1  C   UNL A   1      31.468  31.439  26.482  1.00  0.00     0.202 C 
ENDROOT
BRANCH   1   2
ATOM      2  O   UNL A   1      32.502  30.456  26.416  1.00  0.00    -0.374 OA
BRANCH   2   3
ATOM      3  C   UNL A   1      32.105  29.105  26.169  1.00  0.00     0.202 C 
BRANCH   3   4
ATOM      4  C   UNL A   1      31.383  28.865  24.841  1.00  0.00     0.261 C 
BRANCH   4   5
ATOM      5  O   UNL A   1      31.849  27.644  24.242  1.00  0.00    -0.459 OA
BRANCH   5   6
ATOM      6  C   UNL A   1      30.916  26.673  24.117  1.00  0.00     0.350 C 
ATOM      7  O   UNL A   1      29.714  26.801  24.308  1.00  0.00    -0.245 OA
BRANCH   6   8
ATOM      8  C   UNL A   1      31.514  25.443  23.560  1.00  0.00     0.135 A 
ATOM      9  N   UNL A   1      33.221  22.046  23.638  1.00  0.00    -0.135 NA
ATOM     10  C   UNL A   1      32.601  23.159  23.476  1.00  0.00     0.199 A 
ATOM     11  N   UNL A   1      32.565  23.870  22.301  1.00  0.00    -0.333 N 
ATOM     12  S   UNL A   1      31.703  24.096  24.675  1.00  0.00    -0.089 S 
ATOM     13  C   UNL A   1      31.959  25.122  22.328  1.00  0.00     0.039 A 
ATOM     14  H   UNL A   1      32.954  23.509  21.472  1.00  0.00     0.169 HD
ATOM     15  C   UNL A   1      31.899  25.929  21.072  1.00  0.00     0.066 C 
BRANCH   9  16
ATOM     16  S   UNL A   1      33.151  21.112  24.953  1.00  0.00     0.255 S 
ATOM     17  O   UNL A   1      31.794  20.603  25.047  1.00  0.00    -0.205 OA
ATOM     18  O   UNL A   1      33.705  21.846  26.076  1.00  0.00    -0.205 OA
BRANCH  16  19
ATOM     19  C   UNL A   1      34.184  19.690  24.689  1.00  0.00     0.159 C 
ATOM     20  C   UNL A   1      35.650  19.901  24.993  1.00  0.00     0.023 C 
ENDBRANCH  16  19
ENDBRANCH   9  16
ENDBRANCH   6   8
ENDBRANCH   5   6
ENDBRANCH   4   5
ENDBRANCH   3   4
ENDBRANCH   2   3
ENDBRANCH   1   2
BRANCH   1  21
ATOM     21  C   UNL A   1      31.903  32.866  26.835  1.00  0.00     0.261 C 
BRANCH  21  22
ATOM     22  O   UNL A   1      32.729  32.898  28.013  1.00  0.00    -0.460 OA
BRANCH  22  23
ATOM     23  C   UNL A   1      33.828  33.685  27.916  1.00  0.00     0.338 C 
ATOM     24  O   UNL A   1      33.853  34.893  27.720  1.00  0.00    -0.246 OA
BRANCH  23  25
ATOM     25  C   UNL A   1      35.033  32.915  28.274  1.00  0.00     0.060 A 
ATOM     26  C   UNL A   1      34.845  31.622  28.783  1.00  0.00     0.016 A 
ATOM     27  C   UNL A   1      36.315  33.458  28.174  1.00  0.00     0.016 A 
ATOM     28  C   UNL A   1      35.934  30.887  29.242  1.00  0.00     0.010 A 
ATOM     29  C   UNL A   1      37.407  32.720  28.644  1.00  0.00     0.010 A 
ATOM     30  C   UNL A   1      37.217  31.448  29.214  1.00  0.00    -0.014 A 
BRANCH  30  31
ATOM     31  C   UNL A   1      38.333  30.756  29.904  1.00  0.00     0.031 A 
ATOM     32  C   UNL A   1      38.647  31.118  31.330  1.00  0.00     0.074 A 
ATOM     33  C   UNL A   1      39.056  29.816  29.269  1.00  0.00     0.049 A 
ATOM     34  N   UNL A   1      39.584  30.653  32.113  1.00  0.00    -0.248 NA
ATOM     35  C   UNL A   1      37.792  32.140  31.955  1.00  0.00     0.031 C 
ATOM     36  C   UNL A   1      38.848  29.381  27.889  1.00  0.00     0.029 A 
ATOM     37  N   UNL A   1      40.129  29.077  29.700  1.00  0.00    -0.354 N 
ATOM     38  C   UNL A   1      39.451  31.341  33.313  1.00  0.00     0.074 A 
ATOM     39  C   UNL A   1      38.350  32.267  33.150  1.00  0.00     0.031 C 
ATOM     40  C   UNL A   1      39.784  28.468  27.577  1.00  0.00     0.029 A 
ATOM     41  C   UNL A   1      40.668  28.272  28.724  1.00  0.00     0.049 A 
ATOM     42  H   UNL A   1      40.479  29.119  30.619  1.00  0.00     0.167 HD
ATOM     43  C   UNL A   1      40.167  31.204  34.454  1.00  0.00     0.034 A 
ATOM     44  C   UNL A   1      41.759  27.481  28.750  1.00  0.00     0.034 A 
ATOM     45  C   UNL A   1      41.245  30.268  34.623  1.00  0.00     0.049 A 
ATOM     46  C   UNL A   1      42.551  27.359  30.026  1.00  0.00     0.074 A 
ATOM     47  C   UNL A   1      41.998  30.019  35.756  1.00  0.00     0.029 A 
ATOM     48  N   UNL A   1      41.733  29.435  33.628  1.00  0.00    -0.354 N 
ATOM     49  N   UNL A   1      42.333  27.923  31.190  1.00  0.00    -0.248 NA
ATOM     50  C   UNL A   1      43.719  26.467  30.003  1.00  0.00     0.031 C 
ATOM     51  C   UNL A   1      42.957  29.050  35.441  1.00  0.00     0.029 A 
ATOM     52  C   UNL A   1      42.785  28.679  34.116  1.00  0.00     0.049 A 
ATOM     53  H   UNL A   1      41.383  29.388  32.708  1.00  0.00     0.167 HD
ATOM     54  C   UNL A   1      43.313  27.426  32.045  1.00  0.00     0.074 A 
ATOM     55  C   UNL A   1      44.112  26.502  31.269  1.00  0.00     0.031 C 
ATOM     56  C   UNL A   1      43.537  27.720  33.349  1.00  0.00     0.034 A 
BRANCH  43  57
ATOM     57  C   UNL A   1      39.785  32.068  35.626  1.00  0.00     0.023 A 
ATOM     58  C   UNL A   1      40.374  33.340  35.774  1.00  0.00     0.012 A 
ATOM     59  C   UNL A   1      38.805  31.648  36.546  1.00  0.00     0.148 A 
ATOM     60  C   UNL A   1      40.015  34.169  36.835  1.00  0.00     0.002 A 
ATOM     61  C   UNL A   1      38.424  32.497  37.579  1.00  0.00     0.091 A 
ATOM     62  F   UNL A   1      38.276  30.424  36.403  1.00  0.00    -0.205 F 
ATOM     63  C   UNL A   1      39.034  33.753  37.731  1.00  0.00     0.022 A 
BRANCH  61  64
ATOM     64  S   UNL A   1      37.117  32.079  38.739  1.00  0.00     0.127 S 
ATOM     65  O   UNL A   1      37.661  32.593  39.994  1.00  0.00    -0.237 OA
ATOM     66  O   UNL A   1      35.982  32.835  38.211  1.00  0.00    -0.237 OA
ATOM     67  O   UNL A   1      36.967  30.632  38.668  1.00  0.00    -0.744 OA
ENDBRANCH  61  64
ENDBRANCH  43  57
BRANCH  44  68
ATOM     68  C   UNL A   1      42.147  26.712  27.535  1.00  0.00     0.023 A 
ATOM     69  C   UNL A   1      42.804  27.369  26.476  1.00  0.00     0.012 A 
ATOM     70  C   UNL A   1      41.889  25.331  27.432  1.00  0.00     0.148 A 
ATOM     71  C   UNL A   1      43.171  26.670  25.325  1.00  0.00     0.002 A 
ATOM     72  C   UNL A   1      42.309  24.630  26.308  1.00  0.00     0.091 A 
ATOM     73  F   UNL A   1      41.246  24.728  28.442  1.00  0.00    -0.205 F 
ATOM     74  C   UNL A   1      42.935  25.300  25.245  1.00  0.00     0.022 A 
BRANCH  72  75
ATOM     75  S   UNL A   1      42.165  22.843  26.183  1.00  0.00     0.127 S 
ATOM     76  O   UNL A   1      42.927  22.398  27.346  1.00  0.00    -0.237 OA
ATOM     77  O   UNL A   1      40.718  22.648  26.280  1.00  0.00    -0.237 OA
ATOM     78  O   UNL A   1      42.728  22.496  24.884  1.00  0.00    -0.744 OA
ENDBRANCH  72  75
ENDBRANCH  44  68
BRANCH  56  79
ATOM     79  C   UNL A   1      44.675  27.014  34.042  1.00  0.00     0.023 A 
ATOM     80  C   UNL A   1      45.969  27.570  34.008  1.00  0.00     0.012 A 
ATOM     81  C   UNL A   1      44.444  25.845  34.794  1.00  0.00     0.148 A 
ATOM     82  C   UNL A   1      47.022  26.958  34.686  1.00  0.00     0.002 A 
ATOM     83  C   UNL A   1      45.489  25.266  35.506  1.00  0.00     0.091 A 
ATOM     84  F   UNL A   1      43.210  25.321  34.800  1.00  0.00    -0.205 F 
ATOM     85  C   UNL A   1      46.781  25.814  35.443  1.00  0.00     0.022 A 
BRANCH  83  86
ATOM     86  S   UNL A   1      45.248  23.848  36.583  1.00  0.00     0.127 S 
ATOM     87  O   UNL A   1      46.623  23.519  36.955  1.00  0.00    -0.237 OA
ATOM     88  O   UNL A   1      44.442  24.411  37.666  1.00  0.00    -0.237 OA
ATOM     89  O   UNL A   1      44.560  22.847  35.778  1.00  0.00    -0.744 OA
ENDBRANCH  83  86
ENDBRANCH  56  79
ENDBRANCH  30  31
ENDBRANCH  23  25
ENDBRANCH  22  23
ENDBRANCH  21  22
ENDBRANCH   1  21
TORSDOF 19
ENDMDL
MODEL 3
REMARK VINA RESULT:     -10.1      2.499      8.540
REMARK SMILES CCS(=O)(=O)/N=c1/[nH]c(C)c(C(=O)OCCOCCOC(=O)c2ccc(-c3c4nc(c(-c5cccc(S(=O)(=O)[O-])c5F)c5ccc([nH]5)c(-c5cccc(S(=O)(=O)[O-])c5F)c5nc(c(-c6cccc(S(=O)(=O)[O-])c6F)c6ccc3[nH]6)C=C5)C=C4)cc2)s1
REMARK SMILES IDX 18 1 17 2 16 3 15 4 14 5 12 6 13 7 11 8 6 9 7 10 8 11 86 12
REMARK SMILES IDX 9 13 10 15 3 16 4 17 5 18 2 19 1 20 19 21 20 22 21 23 22 24
REMARK SMILES IDX 23 25 24 26 85 27 25 28 84 29 26 30 27 31 28 32 78 33 29 34
REMARK SMILES IDX 83 35 77 36 79 37 30 38 82 39 76 40 75 41 31 43 63 44 43 45
REMARK SMILES IDX 62 46 44 47 47 48 61 49 80 50 45 51 46 52 60 54 81 55 48 56
REMARK SMILES IDX 32 57 33 58 41 59 34 60 36 61 42 62 35 63 37 64 38 65 39 66
REMARK SMILES IDX 40 67 64 68 65 69 73 70 66 71 68 72 74 73 67 74 69 75 70 76
REMARK SMILES IDX 71 77 72 78 49 79 50 80 58 81 51 82 53 83 59 84 52 85 54 86
REMARK SMILES IDX 55 87 56 88 57 89
REMARK H PARENT 8 14 79 42 47 53
REMARK Flexibility Score: inf
ROOT
ATOM      1  C   UNL A   1      31.083  31.066  25.483  1.00  0.00     0.202 C 
ENDROOT
BRANCH   1   2
ATOM      2  O   UNL A   1      31.206  29.668  25.214  1.00  0.00    -0.374 OA
BRANCH   2   3
ATOM      3  C   UNL A   1      30.613  29.181  24.007  1.00  0.00     0.202 C 
BRANCH   3   4
ATOM      4  C   UNL A   1      30.777  27.681  23.752  1.00  0.00     0.261 C 
BRANCH   4   5
ATOM      5  O   UNL A   1      31.915  27.181  24.474  1.00  0.00    -0.459 OA
BRANCH   5   6
ATOM      6  C   UNL A   1      32.968  26.817  23.707  1.00  0.00     0.350 C 
ATOM      7  O   UNL A   1      33.992  27.465  23.536  1.00  0.00    -0.245 OA
BRANCH   6   8
ATOM      8  C   UNL A   1      32.796  25.438  23.206  1.00  0.00     0.135 A 
ATOM      9  N   UNL A   1      32.852  21.639  23.354  1.00  0.00    -0.135 NA
ATOM     10  C   UNL A   1      32.741  22.909  23.191  1.00  0.00     0.199 A 
ATOM     11  N   UNL A   1      32.658  23.536  21.972  1.00  0.00    -0.333 N 
ATOM     12  S   UNL A   1      32.725  24.172  24.426  1.00  0.00    -0.089 S 
ATOM     13  C   UNL A   1      32.673  24.926  21.965  1.00  0.00     0.039 A 
ATOM     14  H   UNL A   1      32.591  23.022  21.135  1.00  0.00     0.169 HD
ATOM     15  C   UNL A   1      32.586  25.649  20.660  1.00  0.00     0.066 C 
BRANCH   9  16
ATOM     16  S   UNL A   1      32.793  20.863  24.768  1.00  0.00     0.255 S 
ATOM     17  O   UNL A   1      31.477  21.102  25.335  1.00  0.00    -0.205 OA
ATOM     18  O   UNL A   1      33.966  21.217  25.544  1.00  0.00    -0.205 OA
BRANCH  16  19
ATOM     19  C   UNL A   1      32.874  19.114  24.455  1.00  0.00     0.159 C 
ATOM     20  C   UNL A   1      32.309  18.679  23.123  1.00  0.00     0.023 C 
ENDBRANCH  16  19
ENDBRANCH   9  16
ENDBRANCH   6   8
ENDBRANCH   5   6
ENDBRANCH   4   5
ENDBRANCH   3   4
ENDBRANCH   2   3
ENDBRANCH   1   2
BRANCH   1  21
ATOM     21  C   UNL A   1      31.630  31.551  26.830  1.00  0.00     0.261 C 
BRANCH  21  22
ATOM     22  O   UNL A   1      33.052  31.359  26.932  1.00  0.00    -0.460 OA
BRANCH  22  23
ATOM     23  C   UNL A   1      33.717  32.353  27.568  1.00  0.00     0.338 C 
ATOM     24  O   UNL A   1      33.270  33.445  27.895  1.00  0.00    -0.246 OA
BRANCH  23  25
ATOM     25  C   UNL A   1      35.042  31.876  28.004  1.00  0.00     0.060 A 
ATOM     26  C   UNL A   1      35.163  30.519  28.332  1.00  0.00     0.016 A 
ATOM     27  C   UNL A   1      36.129  32.741  28.149  1.00  0.00     0.016 A 
ATOM     28  C   UNL A   1      36.357  30.030  28.855  1.00  0.00     0.010 A 
ATOM     29  C   UNL A   1      37.325  32.248  28.683  1.00  0.00     0.010 A 
ATOM     30  C   UNL A   1      37.433  30.901  29.072  1.00  0.00    -0.014 A 
BRANCH  30  31
ATOM     31  C   UNL A   1      38.616  30.428  29.831  1.00  0.00     0.031 A 
ATOM     32  C   UNL A   1      39.507  29.381  29.218  1.00  0.00     0.074 A 
ATOM     33  C   UNL A   1      38.895  30.926  31.048  1.00  0.00     0.049 A 
ATOM     34  N   UNL A   1      40.578  28.817  29.710  1.00  0.00    -0.248 NA
ATOM     35  C   UNL A   1      39.141  28.908  27.873  1.00  0.00     0.031 C 
ATOM     36  C   UNL A   1      38.108  31.941  31.745  1.00  0.00     0.029 A 
ATOM     37  N   UNL A   1      39.908  30.623  31.923  1.00  0.00    -0.354 N 
ATOM     38  C   UNL A   1      41.000  27.905  28.751  1.00  0.00     0.074 A 
ATOM     39  C   UNL A   1      40.061  27.981  27.653  1.00  0.00     0.031 C 
ATOM     40  C   UNL A   1      38.652  32.157  32.955  1.00  0.00     0.029 A 
ATOM     41  C   UNL A   1      39.811  31.282  33.126  1.00  0.00     0.049 A 
ATOM     42  H   UNL A   1      40.635  29.994  31.710  1.00  0.00     0.167 HD
ATOM     43  C   UNL A   1      42.081  27.090  28.773  1.00  0.00     0.034 A 
ATOM     44  C   UNL A   1      40.560  31.178  34.241  1.00  0.00     0.034 A 
ATOM     45  C   UNL A   1      43.026  27.031  29.854  1.00  0.00     0.049 A 
ATOM     46  C   UNL A   1      41.747  30.250  34.247  1.00  0.00     0.074 A 
ATOM     47  C   UNL A   1      44.181  26.275  29.947  1.00  0.00     0.029 A 
ATOM     48  N   UNL A   1      42.922  27.748  31.036  1.00  0.00    -0.354 N 
ATOM     49  N   UNL A   1      42.205  29.488  33.283  1.00  0.00    -0.248 NA
ATOM     50  C   UNL A   1      42.541  30.192  35.484  1.00  0.00     0.031 C 
ATOM     51  C   UNL A   1      44.764  26.518  31.196  1.00  0.00     0.029 A 
ATOM     52  C   UNL A   1      43.984  27.444  31.871  1.00  0.00     0.049 A 
ATOM     53  H   UNL A   1      42.198  28.381  31.251  1.00  0.00     0.167 HD
ATOM     54  C   UNL A   1      43.357  28.890  33.783  1.00  0.00     0.074 A 
ATOM     55  C   UNL A   1      43.538  29.393  35.128  1.00  0.00     0.031 C 
ATOM     56  C   UNL A   1      44.183  27.994  33.186  1.00  0.00     0.034 A 
BRANCH  43  57
ATOM     57  C   UNL A   1      42.319  26.213  27.572  1.00  0.00     0.023 A 
ATOM     58  C   UNL A   1      43.012  26.730  26.460  1.00  0.00     0.012 A 
ATOM     59  C   UNL A   1      41.907  24.866  27.567  1.00  0.00     0.148 A 
ATOM     60  C   UNL A   1      43.268  25.928  25.348  1.00  0.00     0.002 A 
ATOM     61  C   UNL A   1      42.200  24.062  26.471  1.00  0.00     0.091 A 
ATOM     62  F   UNL A   1      41.225  24.401  28.624  1.00  0.00    -0.205 F 
ATOM     63  C   UNL A   1      42.872  24.594  25.358  1.00  0.00     0.022 A 
BRANCH  61  64
ATOM     64  S   UNL A   1      41.796  22.312  26.422  1.00  0.00     0.127 S 
ATOM     65  O   UNL A   1      42.498  21.882  25.214  1.00  0.00    -0.237 OA
ATOM     66  O   UNL A   1      42.379  21.826  27.672  1.00  0.00    -0.237 OA
ATOM     67  O   UNL A   1      40.343  22.239  26.362  1.00  0.00    -0.744 OA
ENDBRANCH  61  64
ENDBRANCH  43  57
BRANCH  44  68
ATOM     68  C   UNL A   1      40.230  32.004  35.436  1.00  0.00     0.023 A 
ATOM     69  C   UNL A   1      40.981  33.163  35.709  1.00  0.00     0.012 A 
ATOM     70  C   UNL A   1      39.165  31.658  36.290  1.00  0.00     0.148 A 
ATOM     71  C   UNL A   1      40.694  33.948  36.827  1.00  0.00     0.002 A 
ATOM     72  C   UNL A   1      38.848  32.476  37.369  1.00  0.00     0.091 A 
ATOM     73  F   UNL A   1      38.474  30.540  36.025  1.00  0.00    -0.205 F 
ATOM     74  C   UNL A   1      39.622  33.612  37.649  1.00  0.00     0.022 A 
BRANCH  72  75
ATOM     75  S   UNL A   1      37.402  32.191  38.396  1.00  0.00     0.127 S 
ATOM     76  O   UNL A   1      37.828  32.750  39.676  1.00  0.00    -0.237 OA
ATOM     77  O   UNL A   1      36.376  32.964  37.696  1.00  0.00    -0.237 OA
ATOM     78  O   UNL A   1      37.184  30.750  38.373  1.00  0.00    -0.744 OA
ENDBRANCH  72  75
ENDBRANCH  44  68
BRANCH  56  79
ATOM     79  C   UNL A   1      45.382  27.518  33.966  1.00  0.00     0.023 A 
ATOM     80  C   UNL A   1      46.588  28.245  33.908  1.00  0.00     0.012 A 
ATOM     81  C   UNL A   1      45.289  26.399  34.817  1.00  0.00     0.148 A 
ATOM     82  C   UNL A   1      47.691  27.848  34.662  1.00  0.00     0.002 A 
ATOM     83  C   UNL A   1      46.378  26.038  35.601  1.00  0.00     0.091 A 
ATOM     84  F   UNL A   1      44.139  25.710  34.844  1.00  0.00    -0.205 F 
ATOM     85  C   UNL A   1      47.584  26.753  35.517  1.00  0.00     0.022 A 
BRANCH  83  86
ATOM     86  S   UNL A   1      46.298  24.700  36.799  1.00  0.00     0.127 S 
ATOM     87  O   UNL A   1      46.100  23.537  35.935  1.00  0.00    -0.237 OA
ATOM     88  O   UNL A   1      47.614  24.771  37.434  1.00  0.00    -0.237 OA
ATOM     89  O   UNL A   1      45.185  25.021  37.682  1.00  0.00    -0.744 OA
ENDBRANCH  83  86
ENDBRANCH  56  79
ENDBRANCH  30  31
ENDBRANCH  23  25
ENDBRANCH  22  23
ENDBRANCH  21  22
ENDBRANCH   1  21
TORSDOF 19
ENDMDL
