MODEL 1
REMARK VINA RESULT:     -13.0      0.000      0.000
REMARK SMILES Cc1ccc(-c2cc(Cl)cc3c2O[C@H](C(F)(F)F)C(C(=O)OCCOCCOC(=O)c2ccc(-c4c5nc(c(-c6cccc(S(=O)(=O)[O-])c6F)c6ccc([nH]6)c(-c6cccc(S(=O)(=O)[O-])c6F)c6nc(c(-c7cccc(S(=O)(=O)[O-])c7F)c7ccc4[nH]7)C=C6)C=C5)cc2)=C3)cc1F
REMARK SMILES IDX 26 1 25 2 24 3 23 4 22 5 20 6 21 7 19 8 6 9 7 10 12 11 8 12
REMARK SMILES IDX 11 13 13 14 9 15 10 16 94 17 14 18 5 19 1 20 2 21 3 22 96 23
REMARK SMILES IDX 4 24 95 25 97 26 15 27 16 28 17 29 18 30 27 31 28 32 29 33
REMARK SMILES IDX 30 34 31 35 32 36 93 37 33 38 92 39 34 40 35 41 36 42 86 43
REMARK SMILES IDX 37 44 91 45 85 46 87 47 38 48 90 49 84 50 83 51 39 53 71 54
REMARK SMILES IDX 51 55 70 56 52 57 55 58 69 59 88 60 53 61 54 62 68 64 89 65
REMARK SMILES IDX 56 66 40 67 41 68 49 69 42 70 44 71 50 72 43 73 45 74 46 75
REMARK SMILES IDX 47 76 48 77 72 78 73 79 81 80 74 81 76 82 82 83 75 84 77 85
REMARK SMILES IDX 78 86 79 87 80 88 57 89 58 90 66 91 59 92 61 93 67 94 60 95
REMARK SMILES IDX 62 96 63 97 64 98 65 99
REMARK H PARENT 87 52 55 63
REMARK Flexibility Score: inf
ROOT
ATOM      1  C   UNL A   1      41.947  21.025  27.423  1.00  0.00     0.202 C 
ENDROOT
BRANCH   1   2
ATOM      2  O   UNL A   1      40.666  20.410  27.371  1.00  0.00    -0.374 OA
BRANCH   2   3
ATOM      3  C   UNL A   1      40.063  20.204  26.110  1.00  0.00     0.202 C 
BRANCH   3   4
ATOM      4  C   UNL A   1      38.788  21.122  25.748  1.00  0.00     0.261 C 
BRANCH   4   5
ATOM      5  O   UNL A   1      36.921  20.534  25.254  1.00  0.00    -0.460 OA
BRANCH   5   6
ATOM      6  C   UNL A   1      35.553  20.383  25.055  1.00  0.00     0.338 C 
ATOM      7  O   UNL A   1      34.967  19.458  24.498  1.00  0.00    -0.246 OA
BRANCH   6   8
ATOM      8  C   UNL A   1      34.783  21.506  25.621  1.00  0.00     0.087 C 
ATOM      9  C   UNL A   1      32.093  24.586  25.842  1.00  0.00     0.026 A 
ATOM     10  C   UNL A   1      30.804  24.341  26.321  1.00  0.00     0.033 A 
ATOM     11  C   UNL A   1      33.076  23.596  26.028  1.00  0.00     0.135 A 
ATOM     12  C   UNL A   1      30.516  23.130  26.962  1.00  0.00     0.042 A 
ATOM     13  C   UNL A   1      32.761  22.346  26.563  1.00  0.00     0.019 A 
ATOM     14  O   UNL A   1      34.353  23.929  25.657  1.00  0.00    -0.475 OA
ATOM     15  Cl  UNL A   1      28.916  22.840  27.532  1.00  0.00    -0.084 Cl
ATOM     16  C   UNL A   1      31.482  22.128  27.078  1.00  0.00     0.032 A 
ATOM     17  C   UNL A   1      33.699  21.247  26.369  1.00  0.00     0.027 C 
ATOM     18  C   UNL A   1      35.200  22.867  25.172  1.00  0.00     0.316 C 
BRANCH   9  19
ATOM     19  C   UNL A   1      32.435  25.760  25.027  1.00  0.00    -0.012 A 
ATOM     20  C   UNL A   1      34.231  28.639  22.364  1.00  0.00     0.047 C 
ATOM     21  C   UNL A   1      33.537  27.708  23.309  1.00  0.00    -0.015 A 
ATOM     22  C   UNL A   1      33.692  27.814  24.698  1.00  0.00     0.007 A 
ATOM     23  C   UNL A   1      32.783  26.654  22.798  1.00  0.00     0.126 A 
ATOM     24  C   UNL A   1      33.143  26.848  25.551  1.00  0.00     0.009 A 
ATOM     25  C   UNL A   1      32.220  25.705  23.638  1.00  0.00     0.048 A 
ATOM     26  F   UNL A   1      32.639  26.516  21.473  1.00  0.00    -0.207 F 
ENDBRANCH   9  19
BRANCH  18  27
ATOM     27  C   UNL A   1      35.389  23.015  23.658  1.00  0.00     0.430 C 
ATOM     28  F   UNL A   1      34.504  22.222  22.999  1.00  0.00    -0.167 F 
ATOM     29  F   UNL A   1      35.143  24.273  23.234  1.00  0.00    -0.167 F 
ATOM     30  F   UNL A   1      36.626  22.657  23.256  1.00  0.00    -0.167 F 
ENDBRANCH  18  27
ENDBRANCH   6   8
ENDBRANCH   5   6
ENDBRANCH   4   5
ENDBRANCH   3   4
ENDBRANCH   2   3
ENDBRANCH   1   2
BRANCH   1  31
ATOM     31  C   UNL A   1      42.395  21.919  26.244  1.00  0.00     0.261 C 
BRANCH  31  32
ATOM     32  O   UNL A   1      41.695  23.176  26.141  1.00  0.00    -0.460 OA
BRANCH  32  33
ATOM     33  C   UNL A   1      42.426  24.291  25.906  1.00  0.00     0.338 C 
ATOM     34  O   UNL A   1      43.272  24.443  25.045  1.00  0.00    -0.246 OA
BRANCH  33  35
ATOM     35  C   UNL A   1      41.744  25.389  26.640  1.00  0.00     0.060 A 
ATOM     36  C   UNL A   1      41.455  26.628  26.040  1.00  0.00     0.016 A 
ATOM     37  C   UNL A   1      41.720  25.253  28.032  1.00  0.00     0.016 A 
ATOM     38  C   UNL A   1      41.274  27.758  26.845  1.00  0.00     0.010 A 
ATOM     39  C   UNL A   1      41.561  26.380  28.825  1.00  0.00     0.010 A 
ATOM     40  C   UNL A   1      41.387  27.638  28.236  1.00  0.00    -0.014 A 
BRANCH  40  41
ATOM     41  C   UNL A   1      41.241  28.782  29.134  1.00  0.00     0.031 A 
ATOM     42  C   UNL A   1      40.100  29.685  28.910  1.00  0.00     0.074 A 
ATOM     43  C   UNL A   1      42.083  29.043  30.162  1.00  0.00     0.049 A 
ATOM     44  N   UNL A   1      40.125  30.965  29.058  1.00  0.00    -0.248 NA
ATOM     45  C   UNL A   1      38.810  29.172  28.461  1.00  0.00     0.031 C 
ATOM     46  C   UNL A   1      41.952  30.090  31.170  1.00  0.00     0.029 A 
ATOM     47  N   UNL A   1      43.376  28.550  30.367  1.00  0.00    -0.354 N 
ATOM     48  C   UNL A   1      38.809  31.357  29.159  1.00  0.00     0.074 A 
ATOM     49  C   UNL A   1      38.046  30.257  28.606  1.00  0.00     0.031 C 
ATOM     50  C   UNL A   1      43.179  30.403  31.623  1.00  0.00     0.029 A 
ATOM     51  C   UNL A   1      44.143  29.643  30.839  1.00  0.00     0.049 A 
ATOM     52  H   UNL A   1      43.689  27.630  30.215  1.00  0.00     0.167 HD
ATOM     53  C   UNL A   1      38.477  32.451  29.908  1.00  0.00     0.034 A 
ATOM     54  C   UNL A   1      45.175  30.167  30.116  1.00  0.00     0.034 A 
ATOM     55  C   UNL A   1      39.653  33.117  30.472  1.00  0.00     0.049 A 
ATOM     56  C   UNL A   1      44.961  31.635  29.726  1.00  0.00     0.074 A 
ATOM     57  C   UNL A   1      40.173  33.232  31.753  1.00  0.00     0.029 A 
ATOM     58  N   UNL A   1      40.663  33.554  29.626  1.00  0.00    -0.354 N 
ATOM     59  N   UNL A   1      43.848  32.290  29.939  1.00  0.00    -0.248 NA
ATOM     60  C   UNL A   1      45.926  32.458  28.994  1.00  0.00     0.031 C 
ATOM     61  C   UNL A   1      41.477  33.785  31.673  1.00  0.00     0.029 A 
ATOM     62  C   UNL A   1      41.770  33.972  30.338  1.00  0.00     0.049 A 
ATOM     63  H   UNL A   1      40.599  33.565  28.644  1.00  0.00     0.167 HD
ATOM     64  C   UNL A   1      43.947  33.576  29.460  1.00  0.00     0.074 A 
ATOM     65  C   UNL A   1      45.253  33.615  28.834  1.00  0.00     0.031 C 
ATOM     66  C   UNL A   1      42.934  34.482  29.626  1.00  0.00     0.034 A 
BRANCH  53  67
ATOM     67  C   UNL A   1      37.048  32.670  30.382  1.00  0.00     0.023 A 
ATOM     68  C   UNL A   1      36.627  32.301  31.678  1.00  0.00     0.012 A 
ATOM     69  C   UNL A   1      36.076  33.307  29.582  1.00  0.00     0.148 A 
ATOM     70  C   UNL A   1      35.400  32.717  32.217  1.00  0.00     0.002 A 
ATOM     71  C   UNL A   1      34.839  33.688  30.104  1.00  0.00     0.091 A 
ATOM     72  F   UNL A   1      36.315  33.559  28.292  1.00  0.00    -0.205 F 
ATOM     73  C   UNL A   1      34.510  33.434  31.433  1.00  0.00     0.022 A 
BRANCH  71  74
ATOM     74  S   UNL A   1      33.670  34.531  29.032  1.00  0.00     0.127 S 
ATOM     75  O   UNL A   1      34.435  35.682  28.561  1.00  0.00    -0.237 OA
ATOM     76  O   UNL A   1      33.335  33.512  28.043  1.00  0.00    -0.237 OA
ATOM     77  O   UNL A   1      32.572  34.871  29.939  1.00  0.00    -0.744 OA
ENDBRANCH  71  74
ENDBRANCH  53  67
BRANCH  54  78
ATOM     78  C   UNL A   1      45.926  29.157  29.303  1.00  0.00     0.023 A 
ATOM     79  C   UNL A   1      47.561  28.645  29.889  1.00  0.00     0.012 A 
ATOM     80  C   UNL A   1      45.429  28.784  27.586  1.00  0.00     0.148 A 
ATOM     81  C   UNL A   1      48.725  27.847  28.765  1.00  0.00     0.002 A 
ATOM     82  C   UNL A   1      46.597  27.969  26.464  1.00  0.00     0.091 A 
ATOM     83  F   UNL A   1      44.261  29.255  27.129  1.00  0.00    -0.205 F 
ATOM     84  C   UNL A   1      48.242  27.469  27.059  1.00  0.00     0.022 A 
BRANCH  82  85
ATOM     85  S   UNL A   1      46.149  27.573  24.796  1.00  0.00     0.127 S 
ATOM     86  O   UNL A   1      46.901  26.347  24.552  1.00  0.00    -0.237 OA
ATOM     87  O   UNL A   1      44.698  27.443  24.855  1.00  0.00    -0.237 OA
ATOM     88  O   UNL A   1      46.645  28.729  24.047  1.00  0.00    -0.744 OA
ENDBRANCH  82  85
ENDBRANCH  54  78
BRANCH  66  89
ATOM     89  C   UNL A   1      42.884  35.935  29.185  1.00  0.00     0.023 A 
ATOM     90  C   UNL A   1      42.120  36.254  28.026  1.00  0.00     0.012 A 
ATOM     91  C   UNL A   1      43.425  37.023  29.885  1.00  0.00     0.148 A 
ATOM     92  C   UNL A   1      41.927  37.560  27.572  1.00  0.00     0.002 A 
ATOM     93  C   UNL A   1      43.270  38.330  29.402  1.00  0.00     0.091 A 
ATOM     94  F   UNL A   1      44.041  36.822  31.058  1.00  0.00    -0.205 F 
ATOM     95  C   UNL A   1      42.518  38.605  28.254  1.00  0.00     0.022 A 
BRANCH  93  96
ATOM     96  S   UNL A   1      44.100  39.682  30.240  1.00  0.00     0.127 S 
ATOM     97  O   UNL A   1      43.356  39.808  31.489  1.00  0.00    -0.237 OA
ATOM     98  O   UNL A   1      45.474  39.199  30.342  1.00  0.00    -0.237 OA
ATOM     99  O   UNL A   1      43.931  40.810  29.322  1.00  0.00    -0.744 OA
ENDBRANCH  93  96
ENDBRANCH  66  89
ENDBRANCH  40  41
ENDBRANCH  33  35
ENDBRANCH  32  33
ENDBRANCH  31  32
ENDBRANCH   1  31
TORSDOF 19
ENDMDL
MODEL 2
REMARK VINA RESULT:     -12.9      1.613      2.184
REMARK SMILES Cc1ccc(-c2cc(Cl)cc3c2O[C@H](C(F)(F)F)C(C(=O)OCCOCCOC(=O)c2ccc(-c4c5nc(c(-c6cccc(S(=O)(=O)[O-])c6F)c6ccc([nH]6)c(-c6cccc(S(=O)(=O)[O-])c6F)c6nc(c(-c7cccc(S(=O)(=O)[O-])c7F)c7ccc4[nH]7)C=C6)C=C5)cc2)=C3)cc1F
REMARK SMILES IDX 26 1 25 2 24 3 23 4 22 5 20 6 21 7 19 8 6 9 7 10 12 11 8 12
REMARK SMILES IDX 11 13 13 14 9 15 10 16 94 17 14 18 5 19 1 20 2 21 3 22 96 23
REMARK SMILES IDX 4 24 95 25 97 26 15 27 16 28 17 29 18 30 27 31 28 32 29 33
REMARK SMILES IDX 30 34 31 35 32 36 93 37 33 38 92 39 34 40 35 41 36 42 86 43
REMARK SMILES IDX 37 44 91 45 85 46 87 47 38 48 90 49 84 50 83 51 39 53 71 54
REMARK SMILES IDX 51 55 70 56 52 57 55 58 69 59 88 60 53 61 54 62 68 64 89 65
REMARK SMILES IDX 56 66 40 67 41 68 49 69 42 70 44 71 50 72 43 73 45 74 46 75
REMARK SMILES IDX 47 76 48 77 72 78 73 79 81 80 74 81 76 82 82 83 75 84 77 85
REMARK SMILES IDX 78 86 79 87 80 88 57 89 58 90 66 91 59 92 61 93 67 94 60 95
REMARK SMILES IDX 62 96 63 97 64 98 65 99
REMARK H PARENT 87 52 55 63
REMARK Flexibility Score: inf
ROOT
ATOM      1  C   UNL A   1      42.137  20.043  27.094  1.00  0.00     0.202 C 
ENDROOT
BRANCH   1   2
ATOM      2  O   UNL A   1      40.732  20.261  27.111  1.00  0.00    -0.374 OA
BRANCH   2   3
ATOM      3  C   UNL A   1      39.990  19.991  25.940  1.00  0.00     0.202 C 
BRANCH   3   4
ATOM      4  C   UNL A   1      38.720  20.937  25.640  1.00  0.00     0.261 C 
BRANCH   4   5
ATOM      5  O   UNL A   1      36.808  20.395  25.291  1.00  0.00    -0.460 OA
BRANCH   5   6
ATOM      6  C   UNL A   1      35.443  20.319  25.031  1.00  0.00     0.338 C 
ATOM      7  O   UNL A   1      34.836  19.438  24.428  1.00  0.00    -0.246 OA
BRANCH   6   8
ATOM      8  C   UNL A   1      34.707  21.467  25.591  1.00  0.00     0.087 C 
ATOM      9  C   UNL A   1      32.096  24.615  25.804  1.00  0.00     0.026 A 
ATOM     10  C   UNL A   1      30.807  24.408  26.300  1.00  0.00     0.033 A 
ATOM     11  C   UNL A   1      33.057  23.603  25.992  1.00  0.00     0.135 A 
ATOM     12  C   UNL A   1      30.498  23.212  26.960  1.00  0.00     0.042 A 
ATOM     13  C   UNL A   1      32.718  22.368  26.546  1.00  0.00     0.019 A 
ATOM     14  O   UNL A   1      34.337  23.900  25.601  1.00  0.00    -0.475 OA
ATOM     15  Cl  UNL A   1      28.897  22.968  27.552  1.00  0.00    -0.084 Cl
ATOM     16  C   UNL A   1      31.440  22.188  27.078  1.00  0.00     0.032 A 
ATOM     17  C   UNL A   1      33.626  21.245  26.354  1.00  0.00     0.027 C 
ATOM     18  C   UNL A   1      35.153  22.812  25.120  1.00  0.00     0.316 C 
BRANCH   9  19
ATOM     19  C   UNL A   1      32.457  25.771  24.970  1.00  0.00    -0.012 A 
ATOM     20  C   UNL A   1      34.315  28.587  22.284  1.00  0.00     0.047 C 
ATOM     21  C   UNL A   1      33.599  27.679  23.234  1.00  0.00    -0.015 A 
ATOM     22  C   UNL A   1      33.722  27.817  24.623  1.00  0.00     0.007 A 
ATOM     23  C   UNL A   1      32.857  26.613  22.730  1.00  0.00     0.126 A 
ATOM     24  C   UNL A   1      33.152  26.870  25.486  1.00  0.00     0.009 A 
ATOM     25  C   UNL A   1      32.274  25.683  23.578  1.00  0.00     0.048 A 
ATOM     26  F   UNL A   1      32.745  26.443  21.405  1.00  0.00    -0.207 F 
ENDBRANCH   9  19
BRANCH  18  27
ATOM     27  C   UNL A   1      35.327  22.937  23.603  1.00  0.00     0.430 C 
ATOM     28  F   UNL A   1      34.354  22.235  22.963  1.00  0.00    -0.167 F 
ATOM     29  F   UNL A   1      35.200  24.213  23.177  1.00  0.00    -0.167 F 
ATOM     30  F   UNL A   1      36.514  22.455  23.180  1.00  0.00    -0.167 F 
ENDBRANCH  18  27
ENDBRANCH   6   8
ENDBRANCH   5   6
ENDBRANCH   4   5
ENDBRANCH   3   4
ENDBRANCH   2   3
ENDBRANCH   1   2
BRANCH   1  31
ATOM     31  C   UNL A   1      42.983  20.708  25.984  1.00  0.00     0.261 C 
BRANCH  31  32
ATOM     32  O   UNL A   1      42.344  21.820  25.323  1.00  0.00    -0.460 OA
BRANCH  32  33
ATOM     33  C   UNL A   1      43.111  22.883  24.987  1.00  0.00     0.338 C 
ATOM     34  O   UNL A   1      43.904  22.951  24.066  1.00  0.00    -0.246 OA
BRANCH  33  35
ATOM     35  C   UNL A   1      42.535  24.047  25.710  1.00  0.00     0.060 A 
ATOM     36  C   UNL A   1      42.876  25.374  25.389  1.00  0.00     0.016 A 
ATOM     37  C   UNL A   1      41.919  23.748  26.929  1.00  0.00     0.016 A 
ATOM     38  C   UNL A   1      42.718  26.377  26.352  1.00  0.00     0.010 A 
ATOM     39  C   UNL A   1      41.783  24.743  27.888  1.00  0.00     0.010 A 
ATOM     40  C   UNL A   1      42.226  26.044  27.620  1.00  0.00    -0.014 A 
BRANCH  40  41
ATOM     41  C   UNL A   1      42.064  27.035  28.682  1.00  0.00     0.031 A 
ATOM     42  C   UNL A   1      41.003  28.042  28.519  1.00  0.00     0.074 A 
ATOM     43  C   UNL A   1      42.821  27.066  29.804  1.00  0.00     0.049 A 
ATOM     44  N   UNL A   1      41.088  29.277  28.881  1.00  0.00    -0.248 NA
ATOM     45  C   UNL A   1      39.732  27.703  27.888  1.00  0.00     0.031 C 
ATOM     46  C   UNL A   1      42.659  27.943  30.959  1.00  0.00     0.029 A 
ATOM     47  N   UNL A   1      44.059  26.454  30.028  1.00  0.00    -0.354 N 
ATOM     48  C   UNL A   1      39.793  29.742  28.938  1.00  0.00     0.074 A 
ATOM     49  C   UNL A   1      39.022  28.803  28.150  1.00  0.00     0.031 C 
ATOM     50  C   UNL A   1      43.855  28.089  31.556  1.00  0.00     0.029 A 
ATOM     51  C   UNL A   1      44.841  27.398  30.737  1.00  0.00     0.049 A 
ATOM     52  H   UNL A   1      44.331  25.550  29.750  1.00  0.00     0.167 HD
ATOM     53  C   UNL A   1      39.457  30.722  29.830  1.00  0.00     0.034 A 
ATOM     54  C   UNL A   1      45.965  27.956  30.198  1.00  0.00     0.034 A 
ATOM     55  C   UNL A   1      40.614  31.201  30.591  1.00  0.00     0.049 A 
ATOM     56  C   UNL A   1      45.872  29.479  30.042  1.00  0.00     0.074 A 
ATOM     57  C   UNL A   1      41.019  31.070  31.912  1.00  0.00     0.029 A 
ATOM     58  N   UNL A   1      41.721  31.694  29.915  1.00  0.00    -0.354 N 
ATOM     59  N   UNL A   1      44.785  30.170  30.271  1.00  0.00    -0.248 NA
ATOM     60  C   UNL A   1      46.947  30.337  29.539  1.00  0.00     0.031 C 
ATOM     61  C   UNL A   1      42.354  31.533  32.031  1.00  0.00     0.029 A 
ATOM     62  C   UNL A   1      42.780  31.912  30.775  1.00  0.00     0.049 A 
ATOM     63  H   UNL A   1      41.748  31.869  28.947  1.00  0.00     0.167 HD
ATOM     64  C   UNL A   1      45.002  31.506  30.023  1.00  0.00     0.074 A 
ATOM     65  C   UNL A   1      46.360  31.551  29.520  1.00  0.00     0.031 C 
ATOM     66  C   UNL A   1      44.032  32.444  30.255  1.00  0.00     0.034 A 
BRANCH  53  67
ATOM     67  C   UNL A   1      38.006  30.964  30.216  1.00  0.00     0.023 A 
ATOM     68  C   UNL A   1      37.440  30.403  31.381  1.00  0.00     0.012 A 
ATOM     69  C   UNL A   1      37.157  31.810  29.471  1.00  0.00     0.148 A 
ATOM     70  C   UNL A   1      36.196  30.810  31.885  1.00  0.00     0.002 A 
ATOM     71  C   UNL A   1      35.902  32.187  29.950  1.00  0.00     0.091 A 
ATOM     72  F   UNL A   1      37.534  32.269  28.274  1.00  0.00    -0.205 F 
ATOM     73  C   UNL A   1      35.432  31.725  31.176  1.00  0.00     0.022 A 
BRANCH  71  74
ATOM     74  S   UNL A   1      34.896  33.299  28.960  1.00  0.00     0.127 S 
ATOM     75  O   UNL A   1      34.750  32.571  27.703  1.00  0.00    -0.237 OA
ATOM     76  O   UNL A   1      33.695  33.464  29.770  1.00  0.00    -0.237 OA
ATOM     77  O   UNL A   1      35.725  34.501  28.864  1.00  0.00    -0.744 OA
ENDBRANCH  71  74
ENDBRANCH  53  67
BRANCH  54  78
ATOM     78  C   UNL A   1      46.727  27.039  29.291  1.00  0.00     0.023 A 
ATOM     79  C   UNL A   1      48.119  26.118  29.995  1.00  0.00     0.012 A 
ATOM     80  C   UNL A   1      46.557  27.164  27.477  1.00  0.00     0.148 A 
ATOM     81  C   UNL A   1      49.375  25.399  28.918  1.00  0.00     0.002 A 
ATOM     82  C   UNL A   1      47.815  26.427  26.399  1.00  0.00     0.091 A 
ATOM     83  F   UNL A   1      45.585  27.930  26.966  1.00  0.00    -0.205 F 
ATOM     84  C   UNL A   1      49.215  25.514  27.116  1.00  0.00     0.022 A 
BRANCH  82  85
ATOM     85  S   UNL A   1      47.678  26.509  24.635  1.00  0.00     0.127 S 
ATOM     86  O   UNL A   1      47.454  27.932  24.403  1.00  0.00    -0.237 OA
ATOM     87  O   UNL A   1      48.948  25.968  24.168  1.00  0.00    -0.237 OA
ATOM     88  O   UNL A   1      46.504  25.675  24.365  1.00  0.00    -0.744 OA
ENDBRANCH  82  85
ENDBRANCH  54  78
BRANCH  66  89
ATOM     89  C   UNL A   1      44.107  33.949  30.060  1.00  0.00     0.023 A 
ATOM     90  C   UNL A   1      44.176  34.769  31.223  1.00  0.00     0.012 A 
ATOM     91  C   UNL A   1      44.238  34.611  28.831  1.00  0.00     0.148 A 
ATOM     92  C   UNL A   1      44.334  36.156  31.174  1.00  0.00     0.002 A 
ATOM     93  C   UNL A   1      44.350  36.007  28.781  1.00  0.00     0.091 A 
ATOM     94  F   UNL A   1      44.321  33.902  27.698  1.00  0.00    -0.205 F 
ATOM     95  C   UNL A   1      44.406  36.782  29.946  1.00  0.00     0.022 A 
BRANCH  93  96
ATOM     96  S   UNL A   1      44.366  36.833  27.189  1.00  0.00     0.127 S 
ATOM     97  O   UNL A   1      45.519  36.241  26.517  1.00  0.00    -0.237 OA
ATOM     98  O   UNL A   1      43.051  36.504  26.645  1.00  0.00    -0.237 OA
ATOM     99  O   UNL A   1      44.531  38.245  27.536  1.00  0.00    -0.744 OA
ENDBRANCH  93  96
ENDBRANCH  66  89
ENDBRANCH  40  41
ENDBRANCH  33  35
ENDBRANCH  32  33
ENDBRANCH  31  32
ENDBRANCH   1  31
TORSDOF 19
ENDMDL
MODEL 3
REMARK VINA RESULT:     -12.7      4.528     10.336
REMARK SMILES Cc1ccc(-c2cc(Cl)cc3c2O[C@H](C(F)(F)F)C(C(=O)OCCOCCOC(=O)c2ccc(-c4c5nc(c(-c6cccc(S(=O)(=O)[O-])c6F)c6ccc([nH]6)c(-c6cccc(S(=O)(=O)[O-])c6F)c6nc(c(-c7cccc(S(=O)(=O)[O-])c7F)c7ccc4[nH]7)C=C6)C=C5)cc2)=C3)cc1F
REMARK SMILES IDX 26 1 25 2 24 3 23 4 22 5 20 6 21 7 19 8 6 9 7 10 12 11 8 12
REMARK SMILES IDX 11 13 13 14 9 15 10 16 94 17 14 18 5 19 1 20 2 21 3 22 96 23
REMARK SMILES IDX 4 24 95 25 97 26 15 27 16 28 17 29 18 30 27 31 28 32 29 33
REMARK SMILES IDX 30 34 31 35 32 36 93 37 33 38 92 39 34 40 35 41 36 42 86 43
REMARK SMILES IDX 37 44 91 45 85 46 87 47 38 48 90 49 84 50 83 51 39 53 71 54
REMARK SMILES IDX 51 55 70 56 52 57 55 58 69 59 88 60 53 61 54 62 68 64 89 65
REMARK SMILES IDX 56 66 40 67 41 68 49 69 42 70 44 71 50 72 43 73 45 74 46 75
REMARK SMILES IDX 47 76 48 77 72 78 73 79 81 80 74 81 76 82 82 83 75 84 77 85
REMARK SMILES IDX 78 86 79 87 80 88 57 89 58 90 66 91 59 92 61 93 67 94 60 95
REMARK SMILES IDX 62 96 63 97 64 98 65 99
REMARK H PARENT 87 52 55 63
REMARK Flexibility Score: inf
ROOT
ATOM      1  C   UNL A   1      33.751  31.669  27.552  1.00  0.00     0.202 C 
ENDROOT
BRANCH   1   2
ATOM      2  O   UNL A   1      32.591  30.846  27.501  1.00  0.00    -0.374 OA
BRANCH   2   3
ATOM      3  C   UNL A   1      32.575  29.754  26.606  1.00  0.00     0.202 C 
BRANCH   3   4
ATOM      4  C   UNL A   1      31.606  29.871  25.323  1.00  0.00     0.261 C 
BRANCH   4   5
ATOM      5  O   UNL A   1      31.153  28.453  23.961  1.00  0.00    -0.460 OA
BRANCH   5   6
ATOM      6  C   UNL A   1      31.114  27.540  22.912  1.00  0.00     0.338 C 
ATOM      7  O   UNL A   1      31.035  27.772  21.709  1.00  0.00    -0.246 OA
BRANCH   6   8
ATOM      8  C   UNL A   1      31.195  26.146  23.388  1.00  0.00     0.087 C 
ATOM      9  C   UNL A   1      32.216  22.945  25.728  1.00  0.00     0.026 A 
ATOM     10  C   UNL A   1      31.352  22.533  26.746  1.00  0.00     0.033 A 
ATOM     11  C   UNL A   1      31.734  23.856  24.769  1.00  0.00     0.135 A 
ATOM     12  C   UNL A   1      30.045  23.032  26.796  1.00  0.00     0.042 A 
ATOM     13  C   UNL A   1      30.472  24.439  24.885  1.00  0.00     0.019 A 
ATOM     14  O   UNL A   1      32.572  24.134  23.721  1.00  0.00    -0.475 OA
ATOM     15  Cl  UNL A   1      28.998  22.524  28.068  1.00  0.00    -0.084 Cl
ATOM     16  C   UNL A   1      29.602  23.988  25.879  1.00  0.00     0.032 A 
ATOM     17  C   UNL A   1      30.185  25.642  24.114  1.00  0.00     0.027 C 
ATOM     18  C   UNL A   1      32.494  25.453  23.142  1.00  0.00     0.316 C 
BRANCH   9  19
ATOM     19  C   UNL A   1      33.641  22.589  25.695  1.00  0.00    -0.012 A 
ATOM     20  C   UNL A   1      37.835  22.152  24.788  1.00  0.00     0.047 C 
ATOM     21  C   UNL A   1      36.393  22.237  25.178  1.00  0.00    -0.015 A 
ATOM     22  C   UNL A   1      35.468  21.250  24.813  1.00  0.00     0.007 A 
ATOM     23  C   UNL A   1      35.934  23.369  25.849  1.00  0.00     0.126 A 
ATOM     24  C   UNL A   1      34.102  21.423  25.072  1.00  0.00     0.009 A 
ATOM     25  C   UNL A   1      34.586  23.539  26.126  1.00  0.00     0.048 A 
ATOM     26  F   UNL A   1      36.793  24.340  26.187  1.00  0.00    -0.207 F 
ENDBRANCH   9  19
BRANCH  18  27
ATOM     27  C   UNL A   1      33.737  26.258  23.536  1.00  0.00     0.430 C 
ATOM     28  F   UNL A   1      33.969  27.235  22.620  1.00  0.00    -0.167 F 
ATOM     29  F   UNL A   1      33.580  26.892  24.719  1.00  0.00    -0.167 F 
ATOM     30  F   UNL A   1      34.847  25.494  23.599  1.00  0.00    -0.167 F 
ENDBRANCH  18  27
ENDBRANCH   6   8
ENDBRANCH   5   6
ENDBRANCH   4   5
ENDBRANCH   3   4
ENDBRANCH   2   3
ENDBRANCH   1   2
BRANCH   1  31
ATOM     31  C   UNL A   1      35.143  31.006  27.443  1.00  0.00     0.261 C 
BRANCH  31  32
ATOM     32  O   UNL A   1      36.162  31.604  28.270  1.00  0.00    -0.460 OA
BRANCH  32  33
ATOM     33  C   UNL A   1      36.384  31.066  29.491  1.00  0.00     0.338 C 
ATOM     34  O   UNL A   1      35.706  31.215  30.491  1.00  0.00    -0.246 OA
BRANCH  33  35
ATOM     35  C   UNL A   1      37.380  29.981  29.286  1.00  0.00     0.060 A 
ATOM     36  C   UNL A   1      37.640  29.005  30.265  1.00  0.00     0.016 A 
ATOM     37  C   UNL A   1      38.276  30.185  28.231  1.00  0.00     0.016 A 
ATOM     38  C   UNL A   1      38.865  28.328  30.254  1.00  0.00     0.010 A 
ATOM     39  C   UNL A   1      39.498  29.526  28.237  1.00  0.00     0.010 A 
ATOM     40  C   UNL A   1      39.814  28.637  29.271  1.00  0.00    -0.014 A 
BRANCH  40  41
ATOM     41  C   UNL A   1      41.125  27.992  29.219  1.00  0.00     0.031 A 
ATOM     42  C   UNL A   1      41.166  26.556  28.896  1.00  0.00     0.074 A 
ATOM     43  C   UNL A   1      42.292  28.643  29.434  1.00  0.00     0.049 A 
ATOM     44  N   UNL A   1      41.983  25.701  29.411  1.00  0.00    -0.248 NA
ATOM     45  C   UNL A   1      40.229  25.970  27.944  1.00  0.00     0.031 C 
ATOM     46  C   UNL A   1      43.643  28.109  29.295  1.00  0.00     0.029 A 
ATOM     47  N   UNL A   1      42.491  29.877  30.062  1.00  0.00    -0.354 N 
ATOM     48  C   UNL A   1      41.972  24.615  28.567  1.00  0.00     0.074 A 
ATOM     49  C   UNL A   1      40.755  24.753  27.793  1.00  0.00     0.031 C 
ATOM     50  C   UNL A   1      44.461  28.798  30.109  1.00  0.00     0.029 A 
ATOM     51  C   UNL A   1      43.639  29.723  30.877  1.00  0.00     0.049 A 
ATOM     52  H   UNL A   1      41.943  30.688  29.959  1.00  0.00     0.167 HD
ATOM     53  C   UNL A   1      43.092  23.843  28.430  1.00  0.00     0.034 A 
ATOM     54  C   UNL A   1      43.574  29.793  32.239  1.00  0.00     0.034 A 
ATOM     55  C   UNL A   1      44.179  24.282  29.309  1.00  0.00     0.049 A 
ATOM     56  C   UNL A   1      44.000  28.494  32.934  1.00  0.00     0.074 A 
ATOM     57  C   UNL A   1      45.399  24.907  29.093  1.00  0.00     0.029 A 
ATOM     58  N   UNL A   1      43.962  24.363  30.678  1.00  0.00    -0.354 N 
ATOM     59  N   UNL A   1      44.269  27.382  32.300  1.00  0.00    -0.248 NA
ATOM     60  C   UNL A   1      44.074  28.305  34.385  1.00  0.00     0.031 C 
ATOM     61  C   UNL A   1      45.932  25.317  30.342  1.00  0.00     0.029 A 
ATOM     62  C   UNL A   1      45.020  24.977  31.319  1.00  0.00     0.049 A 
ATOM     63  H   UNL A   1      43.158  24.026  31.134  1.00  0.00     0.167 HD
ATOM     64  C   UNL A   1      44.597  26.386  33.191  1.00  0.00     0.074 A 
ATOM     65  C   UNL A   1      44.412  27.005  34.488  1.00  0.00     0.031 C 
ATOM     66  C   UNL A   1      44.987  25.145  32.765  1.00  0.00     0.034 A 
BRANCH  53  67
ATOM     67  C   UNL A   1      43.264  22.918  27.236  1.00  0.00     0.023 A 
ATOM     68  C   UNL A   1      44.053  23.277  26.122  1.00  0.00     0.012 A 
ATOM     69  C   UNL A   1      42.699  21.626  27.193  1.00  0.00     0.148 A 
ATOM     70  C   UNL A   1      44.427  22.352  25.135  1.00  0.00     0.002 A 
ATOM     71  C   UNL A   1      43.038  20.715  26.192  1.00  0.00     0.091 A 
ATOM     72  F   UNL A   1      41.812  21.240  28.115  1.00  0.00    -0.205 F 
ATOM     73  C   UNL A   1      43.935  21.057  25.182  1.00  0.00     0.022 A 
BRANCH  71  74
ATOM     74  S   UNL A   1      42.306  19.076  26.228  1.00  0.00     0.127 S 
ATOM     75  O   UNL A   1      40.929  19.326  25.815  1.00  0.00    -0.237 OA
ATOM     76  O   UNL A   1      43.145  18.320  25.305  1.00  0.00    -0.237 OA
ATOM     77  O   UNL A   1      42.449  18.678  27.630  1.00  0.00    -0.744 OA
ENDBRANCH  71  74
ENDBRANCH  53  67
BRANCH  54  78
ATOM     78  C   UNL A   1      42.544  30.752  32.752  1.00  0.00     0.023 A 
ATOM     79  C   UNL A   1      43.084  32.428  33.173  1.00  0.00     0.012 A 
ATOM     80  C   UNL A   1      40.924  30.154  33.345  1.00  0.00     0.148 A 
ATOM     81  C   UNL A   1      42.070  33.474  34.239  1.00  0.00     0.002 A 
ATOM     82  C   UNL A   1      39.902  31.213  34.405  1.00  0.00     0.091 A 
ATOM     83  F   UNL A   1      40.576  28.880  33.118  1.00  0.00    -0.205 F 
ATOM     84  C   UNL A   1      40.459  32.892  34.831  1.00  0.00     0.022 A 
BRANCH  82  85
ATOM     85  S   UNL A   1      38.316  30.678  34.986  1.00  0.00     0.127 S 
ATOM     86  O   UNL A   1      38.635  30.115  36.293  1.00  0.00    -0.237 OA
ATOM     87  O   UNL A   1      37.522  31.900  34.982  1.00  0.00    -0.237 OA
ATOM     88  O   UNL A   1      37.930  29.676  33.990  1.00  0.00    -0.744 OA
ENDBRANCH  82  85
ENDBRANCH  54  78
BRANCH  66  89
ATOM     89  C   UNL A   1      45.401  23.946  33.602  1.00  0.00     0.023 A 
ATOM     90  C   UNL A   1      44.425  22.939  33.854  1.00  0.00     0.012 A 
ATOM     91  C   UNL A   1      46.700  23.672  34.055  1.00  0.00     0.148 A 
ATOM     92  C   UNL A   1      44.707  21.753  34.535  1.00  0.00     0.002 A 
ATOM     93  C   UNL A   1      46.971  22.503  34.778  1.00  0.00     0.091 A 
ATOM     94  F   UNL A   1      47.704  24.501  33.740  1.00  0.00    -0.205 F 
ATOM     95  C   UNL A   1      45.984  21.538  35.014  1.00  0.00     0.022 A 
BRANCH  93  96
ATOM     96  S   UNL A   1      48.608  22.255  35.470  1.00  0.00     0.127 S 
ATOM     97  O   UNL A   1      49.183  21.228  34.608  1.00  0.00    -0.237 OA
ATOM     98  O   UNL A   1      49.197  23.589  35.382  1.00  0.00    -0.237 OA
ATOM     99  O   UNL A   1      48.338  21.811  36.839  1.00  0.00    -0.744 OA
ENDBRANCH  93  96
ENDBRANCH  66  89
ENDBRANCH  40  41
ENDBRANCH  33  35
ENDBRANCH  32  33
ENDBRANCH  31  32
ENDBRANCH   1  31
TORSDOF 19
ENDMDL
