MODEL 1
REMARK VINA RESULT:     -11.2      0.000      0.000
REMARK SMILES C[NH2+][C@@]1(C(=O)OCCOCCOC(=O)c2ccc(-c3c4nc(c(-c5cccc(S(=O)(=O)[O-])c5F)c5ccc([nH]5)c(-c5cccc(S(=O)(=O)[O-])c5F)c5nc(c(-c6cccc(S(=O)(=O)[O-])c6F)c6ccc3[nH]6)C=C5)C=C4)cc2)CC[C@H](n2ccc(C)n2)C1
REMARK SMILES IDX 10 1 9 2 8 3 7 4 6 5 4 6 5 7 3 8 78 9 87 10 79 11 80 12 2 13
REMARK SMILES IDX 1 14 81 17 82 18 86 19 83 20 84 21 85 22 11 23 12 24 13 25
REMARK SMILES IDX 14 26 15 27 16 28 77 29 17 30 76 31 18 32 19 33 20 34 70 35
REMARK SMILES IDX 21 36 75 37 69 38 71 39 22 40 74 41 68 42 67 43 23 45 55 46
REMARK SMILES IDX 35 47 54 48 36 49 39 50 53 51 72 52 37 53 38 54 52 56 73 57
REMARK SMILES IDX 40 58 24 59 25 60 33 61 26 62 28 63 34 64 27 65 29 66 30 67
REMARK SMILES IDX 31 68 32 69 56 70 57 71 65 72 58 73 60 74 66 75 59 76 61 77
REMARK SMILES IDX 62 78 63 79 64 80 41 81 42 82 50 83 43 84 45 85 51 86 44 87
REMARK SMILES IDX 46 88 47 89 48 90 49 91
REMARK H PARENT 2 15 2 16 71 44 39 55
REMARK Flexibility Score: inf
ROOT
ATOM      1  C   UNL A   1      36.099  20.546  24.998  1.00  0.00     0.202 C 
ENDROOT
BRANCH   1   2
ATOM      2  O   UNL A   1      35.740  21.903  24.740  1.00  0.00    -0.374 OA
BRANCH   2   3
ATOM      3  C   UNL A   1      35.650  22.766  25.875  1.00  0.00     0.202 C 
BRANCH   3   4
ATOM      4  C   UNL A   1      34.244  23.187  26.312  1.00  0.00     0.261 C 
BRANCH   4   5
ATOM      5  O   UNL A   1      33.491  23.787  25.243  1.00  0.00    -0.459 OA
BRANCH   5   6
ATOM      6  C   UNL A   1      32.812  24.914  25.575  1.00  0.00     0.368 C 
ATOM      7  O   UNL A   1      33.336  26.001  25.817  1.00  0.00    -0.245 OA
BRANCH   6   8
ATOM      8  C   UNL A   1      31.270  24.705  25.682  1.00  0.00     0.196 C 
ATOM      9  C   UNL A   1      30.865  23.799  24.508  1.00  0.00     0.083 C 
ATOM     10  C   UNL A   1      30.362  25.927  25.493  1.00  0.00     0.108 C 
ATOM     11  C   UNL A   1      30.653  24.784  23.357  1.00  0.00     0.034 C 
ATOM     12  C   UNL A   1      29.910  25.947  24.020  1.00  0.00     0.114 C 
BRANCH   8  13
ATOM     13  N   UNL A   1      30.990  24.046  26.994  1.00  0.00    -0.334 N 
ATOM     14  C   UNL A   1      30.017  22.954  26.879  1.00  0.00     0.331 C 
ATOM     15  H   UNL A   1      31.863  23.668  27.363  1.00  0.00     0.347 HD
ATOM     16  H   UNL A   1      30.594  24.751  27.616  1.00  0.00     0.347 HD
ENDBRANCH   8  13
BRANCH  12  17
ATOM     17  N   UNL A   1      30.030  27.262  23.422  1.00  0.00    -0.269 N 
ATOM     18  C   UNL A   1      31.150  27.913  23.002  1.00  0.00     0.109 A 
ATOM     19  N   UNL A   1      28.893  27.929  23.125  1.00  0.00    -0.178 NA
ATOM     20  C   UNL A   1      30.716  29.082  22.420  1.00  0.00     0.045 A 
ATOM     21  C   UNL A   1      29.309  29.050  22.531  1.00  0.00     0.059 A 
ATOM     22  C   UNL A   1      28.315  30.063  22.098  1.00  0.00     0.069 C 
ENDBRANCH  12  17
ENDBRANCH   6   8
ENDBRANCH   5   6
ENDBRANCH   4   5
ENDBRANCH   3   4
ENDBRANCH   2   3
ENDBRANCH   1   2
BRANCH   1  23
ATOM     23  C   UNL A   1      37.594  20.198  25.013  1.00  0.00     0.261 C 
BRANCH  23  24
ATOM     24  O   UNL A   1      38.442  21.341  25.191  1.00  0.00    -0.460 OA
BRANCH  24  25
ATOM     25  C   UNL A   1      39.437  21.188  26.101  1.00  0.00     0.338 C 
ATOM     26  O   UNL A   1      40.043  20.165  26.365  1.00  0.00    -0.246 OA
BRANCH  25  27
ATOM     27  C   UNL A   1      39.798  22.509  26.656  1.00  0.00     0.060 A 
ATOM     28  C   UNL A   1      39.153  23.646  26.156  1.00  0.00     0.016 A 
ATOM     29  C   UNL A   1      40.794  22.634  27.624  1.00  0.00     0.016 A 
ATOM     30  C   UNL A   1      39.543  24.913  26.594  1.00  0.00     0.010 A 
ATOM     31  C   UNL A   1      41.162  23.895  28.084  1.00  0.00     0.010 A 
ATOM     32  C   UNL A   1      40.574  25.043  27.534  1.00  0.00    -0.014 A 
BRANCH  32  33
ATOM     33  C   UNL A   1      41.144  26.370  27.864  1.00  0.00     0.031 A 
ATOM     34  C   UNL A   1      42.569  26.666  27.478  1.00  0.00     0.074 A 
ATOM     35  C   UNL A   1      40.423  27.259  28.571  1.00  0.00     0.049 A 
ATOM     36  N   UNL A   1      43.284  27.737  27.700  1.00  0.00    -0.248 NA
ATOM     37  C   UNL A   1      43.301  25.594  26.780  1.00  0.00     0.031 C 
ATOM     38  C   UNL A   1      39.069  27.036  29.077  1.00  0.00     0.029 A 
ATOM     39  N   UNL A   1      40.747  28.513  29.020  1.00  0.00    -0.354 N 
ATOM     40  C   UNL A   1      44.553  27.456  27.209  1.00  0.00     0.074 A 
ATOM     41  C   UNL A   1      44.523  26.100  26.709  1.00  0.00     0.031 C 
ATOM     42  C   UNL A   1      38.687  28.110  29.788  1.00  0.00     0.029 A 
ATOM     43  C   UNL A   1      39.765  29.094  29.786  1.00  0.00     0.049 A 
ATOM     44  H   UNL A   1      41.602  28.956  28.813  1.00  0.00     0.167 HD
ATOM     45  C   UNL A   1      45.636  28.267  27.147  1.00  0.00     0.034 A 
ATOM     46  C   UNL A   1      39.744  30.288  30.409  1.00  0.00     0.034 A 
ATOM     47  C   UNL A   1      45.628  29.632  27.593  1.00  0.00     0.049 A 
ATOM     48  C   UNL A   1      40.918  31.215  30.234  1.00  0.00     0.074 A 
ATOM     49  C   UNL A   1      46.622  30.586  27.479  1.00  0.00     0.029 A 
ATOM     50  N   UNL A   1      44.561  30.240  28.239  1.00  0.00    -0.354 N 
ATOM     51  N   UNL A   1      42.048  31.000  29.604  1.00  0.00    -0.248 NA
ATOM     52  C   UNL A   1      40.795  32.564  30.804  1.00  0.00     0.031 C 
ATOM     53  C   UNL A   1      46.159  31.769  28.065  1.00  0.00     0.029 A 
ATOM     54  C   UNL A   1      44.869  31.557  28.527  1.00  0.00     0.049 A 
ATOM     55  H   UNL A   1      43.708  29.799  28.460  1.00  0.00     0.167 HD
ATOM     56  C   UNL A   1      42.756  32.196  29.667  1.00  0.00     0.074 A 
ATOM     57  C   UNL A   1      41.916  33.135  30.382  1.00  0.00     0.031 C 
ATOM     58  C   UNL A   1      43.991  32.488  29.189  1.00  0.00     0.034 A 
BRANCH  45  59
ATOM     59  C   UNL A   1      46.892  27.720  26.512  1.00  0.00     0.023 A 
ATOM     60  C   UNL A   1      47.808  26.994  27.301  1.00  0.00     0.012 A 
ATOM     61  C   UNL A   1      47.146  27.879  25.136  1.00  0.00     0.148 A 
ATOM     62  C   UNL A   1      48.975  26.471  26.743  1.00  0.00     0.002 A 
ATOM     63  C   UNL A   1      48.289  27.315  24.576  1.00  0.00     0.091 A 
ATOM     64  F   UNL A   1      46.277  28.588  24.401  1.00  0.00    -0.205 F 
ATOM     65  C   UNL A   1      49.210  26.624  25.380  1.00  0.00     0.022 A 
BRANCH  63  66
ATOM     66  S   UNL A   1      48.646  27.384  22.816  1.00  0.00     0.127 S 
ATOM     67  O   UNL A   1      49.979  27.983  22.808  1.00  0.00    -0.237 OA
ATOM     68  O   UNL A   1      48.611  25.970  22.440  1.00  0.00    -0.237 OA
ATOM     69  O   UNL A   1      47.591  28.196  22.225  1.00  0.00    -0.744 OA
ENDBRANCH  63  66
ENDBRANCH  45  59
BRANCH  46  70
ATOM     70  C   UNL A   1      38.523  30.708  31.152  1.00  0.00     0.023 A 
ATOM     71  C   UNL A   1      38.462  30.508  32.546  1.00  0.00     0.012 A 
ATOM     72  C   UNL A   1      37.454  31.360  30.507  1.00  0.00     0.148 A 
ATOM     73  C   UNL A   1      37.351  30.928  33.279  1.00  0.00     0.002 A 
ATOM     74  C   UNL A   1      36.373  31.822  31.251  1.00  0.00     0.091 A 
ATOM     75  F   UNL A   1      37.524  31.533  29.179  1.00  0.00    -0.205 F 
ATOM     76  C   UNL A   1      36.314  31.594  32.635  1.00  0.00     0.022 A 
BRANCH  74  77
ATOM     77  S   UNL A   1      35.060  32.812  30.525  1.00  0.00     0.127 S 
ATOM     78  O   UNL A   1      34.611  31.957  29.430  1.00  0.00    -0.237 OA
ATOM     79  O   UNL A   1      34.118  32.933  31.640  1.00  0.00    -0.237 OA
ATOM     80  O   UNL A   1      35.688  34.068  30.139  1.00  0.00    -0.744 OA
ENDBRANCH  74  77
ENDBRANCH  46  70
BRANCH  58  81
ATOM     81  C   UNL A   1      44.502  33.888  29.393  1.00  0.00     0.023 A 
ATOM     82  C   UNL A   1      45.213  34.207  30.567  1.00  0.00     0.012 A 
ATOM     83  C   UNL A   1      44.353  34.860  28.385  1.00  0.00     0.148 A 
ATOM     84  C   UNL A   1      45.742  35.484  30.747  1.00  0.00     0.002 A 
ATOM     85  C   UNL A   1      44.923  36.116  28.553  1.00  0.00     0.091 A 
ATOM     86  F   UNL A   1      43.655  34.541  27.285  1.00  0.00    -0.205 F 
ATOM     87  C   UNL A   1      45.608  36.433  29.736  1.00  0.00     0.022 A 
BRANCH  85  88
ATOM     88  S   UNL A   1      44.878  37.367  27.263  1.00  0.00     0.127 S 
ATOM     89  O   UNL A   1      43.459  37.382  26.913  1.00  0.00    -0.237 OA
ATOM     90  O   UNL A   1      45.344  38.561  27.970  1.00  0.00    -0.237 OA
ATOM     91  O   UNL A   1      45.778  36.896  26.220  1.00  0.00    -0.744 OA
ENDBRANCH  85  88
ENDBRANCH  58  81
ENDBRANCH  32  33
ENDBRANCH  25  27
ENDBRANCH  24  25
ENDBRANCH  23  24
ENDBRANCH   1  23
TORSDOF 19
ENDMDL
MODEL 2
REMARK VINA RESULT:     -11.1      1.883      2.283
REMARK SMILES C[NH2+][C@@]1(C(=O)OCCOCCOC(=O)c2ccc(-c3c4nc(c(-c5cccc(S(=O)(=O)[O-])c5F)c5ccc([nH]5)c(-c5cccc(S(=O)(=O)[O-])c5F)c5nc(c(-c6cccc(S(=O)(=O)[O-])c6F)c6ccc3[nH]6)C=C5)C=C4)cc2)CC[C@H](n2ccc(C)n2)C1
REMARK SMILES IDX 10 1 9 2 8 3 7 4 6 5 4 6 5 7 3 8 78 9 87 10 79 11 80 12 2 13
REMARK SMILES IDX 1 14 81 17 82 18 86 19 83 20 84 21 85 22 11 23 12 24 13 25
REMARK SMILES IDX 14 26 15 27 16 28 77 29 17 30 76 31 18 32 19 33 20 34 70 35
REMARK SMILES IDX 21 36 75 37 69 38 71 39 22 40 74 41 68 42 67 43 23 45 55 46
REMARK SMILES IDX 35 47 54 48 36 49 39 50 53 51 72 52 37 53 38 54 52 56 73 57
REMARK SMILES IDX 40 58 24 59 25 60 33 61 26 62 28 63 34 64 27 65 29 66 30 67
REMARK SMILES IDX 31 68 32 69 56 70 57 71 65 72 58 73 60 74 66 75 59 76 61 77
REMARK SMILES IDX 62 78 63 79 64 80 41 81 42 82 50 83 43 84 45 85 51 86 44 87
REMARK SMILES IDX 46 88 47 89 48 90 49 91
REMARK H PARENT 2 15 2 16 71 44 39 55
REMARK Flexibility Score: inf
ROOT
ATOM      1  C   UNL A   1      35.663  21.097  25.146  1.00  0.00     0.202 C 
ENDROOT
BRANCH   1   2
ATOM      2  O   UNL A   1      35.226  21.509  26.441  1.00  0.00    -0.374 OA
BRANCH   2   3
ATOM      3  C   UNL A   1      34.868  22.884  26.586  1.00  0.00     0.202 C 
BRANCH   3   4
ATOM      4  C   UNL A   1      35.234  23.819  25.430  1.00  0.00     0.261 C 
BRANCH   4   5
ATOM      5  O   UNL A   1      34.084  24.474  24.866  1.00  0.00    -0.459 OA
BRANCH   5   6
ATOM      6  C   UNL A   1      34.002  24.437  23.512  1.00  0.00     0.368 C 
ATOM      7  O   UNL A   1      34.867  23.972  22.771  1.00  0.00    -0.245 OA
BRANCH   6   8
ATOM      8  C   UNL A   1      32.708  25.100  22.948  1.00  0.00     0.196 C 
ATOM      9  C   UNL A   1      33.146  26.006  21.786  1.00  0.00     0.083 C 
ATOM     10  C   UNL A   1      31.938  26.066  23.857  1.00  0.00     0.108 C 
ATOM     11  C   UNL A   1      33.517  27.317  22.482  1.00  0.00     0.034 C 
ATOM     12  C   UNL A   1      32.404  27.495  23.518  1.00  0.00     0.114 C 
BRANCH   8  13
ATOM     13  N   UNL A   1      31.808  24.007  22.469  1.00  0.00    -0.334 N 
ATOM     14  C   UNL A   1      30.734  23.705  23.422  1.00  0.00     0.331 C 
ATOM     15  H   UNL A   1      31.388  24.292  21.584  1.00  0.00     0.347 HD
ATOM     16  H   UNL A   1      32.374  23.164  22.362  1.00  0.00     0.347 HD
ENDBRANCH   8  13
BRANCH  12  17
ATOM     17  N   UNL A   1      32.694  28.278  24.703  1.00  0.00    -0.269 N 
ATOM     18  C   UNL A   1      33.727  28.152  25.581  1.00  0.00     0.109 A 
ATOM     19  N   UNL A   1      31.921  29.357  24.953  1.00  0.00    -0.178 NA
ATOM     20  C   UNL A   1      33.603  29.197  26.468  1.00  0.00     0.045 A 
ATOM     21  C   UNL A   1      32.462  29.910  26.042  1.00  0.00     0.059 A 
ATOM     22  C   UNL A   1      31.837  31.115  26.640  1.00  0.00     0.069 C 
ENDBRANCH  12  17
ENDBRANCH   6   8
ENDBRANCH   5   6
ENDBRANCH   4   5
ENDBRANCH   3   4
ENDBRANCH   2   3
ENDBRANCH   1   2
BRANCH   1  23
ATOM     23  C   UNL A   1      37.055  20.460  25.036  1.00  0.00     0.261 C 
BRANCH  23  24
ATOM     24  O   UNL A   1      38.121  21.419  25.050  1.00  0.00    -0.460 OA
BRANCH  24  25
ATOM     25  C   UNL A   1      39.109  21.174  25.948  1.00  0.00     0.338 C 
ATOM     26  O   UNL A   1      39.637  20.103  26.189  1.00  0.00    -0.246 OA
BRANCH  25  27
ATOM     27  C   UNL A   1      39.575  22.453  26.523  1.00  0.00     0.060 A 
ATOM     28  C   UNL A   1      38.927  23.634  26.144  1.00  0.00     0.016 A 
ATOM     29  C   UNL A   1      40.667  22.496  27.388  1.00  0.00     0.016 A 
ATOM     30  C   UNL A   1      39.408  24.864  26.596  1.00  0.00     0.010 A 
ATOM     31  C   UNL A   1      41.128  23.720  27.865  1.00  0.00     0.010 A 
ATOM     32  C   UNL A   1      40.532  24.913  27.432  1.00  0.00    -0.014 A 
BRANCH  32  33
ATOM     33  C   UNL A   1      41.183  26.202  27.761  1.00  0.00     0.031 A 
ATOM     34  C   UNL A   1      42.614  26.422  27.346  1.00  0.00     0.074 A 
ATOM     35  C   UNL A   1      40.530  27.123  28.494  1.00  0.00     0.049 A 
ATOM     36  N   UNL A   1      43.393  27.449  27.562  1.00  0.00    -0.248 NA
ATOM     37  C   UNL A   1      43.269  25.318  26.621  1.00  0.00     0.031 C 
ATOM     38  C   UNL A   1      39.177  26.970  29.028  1.00  0.00     0.029 A 
ATOM     39  N   UNL A   1      40.934  28.351  28.947  1.00  0.00    -0.354 N 
ATOM     40  C   UNL A   1      44.633  27.102  27.039  1.00  0.00     0.074 A 
ATOM     41  C   UNL A   1      44.516  25.756  26.527  1.00  0.00     0.031 C 
ATOM     42  C   UNL A   1      38.872  28.056  29.758  1.00  0.00     0.029 A 
ATOM     43  C   UNL A   1      40.004  28.977  29.741  1.00  0.00     0.049 A 
ATOM     44  H   UNL A   1      41.808  28.747  28.725  1.00  0.00     0.167 HD
ATOM     45  C   UNL A   1      45.759  27.851  26.960  1.00  0.00     0.034 A 
ATOM     46  C   UNL A   1      40.063  30.164  30.376  1.00  0.00     0.034 A 
ATOM     47  C   UNL A   1      45.837  29.210  27.421  1.00  0.00     0.049 A 
ATOM     48  C   UNL A   1      41.284  31.025  30.183  1.00  0.00     0.074 A 
ATOM     49  C   UNL A   1      46.881  30.108  27.294  1.00  0.00     0.029 A 
ATOM     50  N   UNL A   1      44.821  29.870  28.097  1.00  0.00    -0.354 N 
ATOM     51  N   UNL A   1      42.386  30.754  29.526  1.00  0.00    -0.248 NA
ATOM     52  C   UNL A   1      41.250  32.373  30.769  1.00  0.00     0.031 C 
ATOM     53  C   UNL A   1      46.498  31.309  27.901  1.00  0.00     0.029 A 
ATOM     54  C   UNL A   1      45.209  31.164  28.391  1.00  0.00     0.049 A 
ATOM     55  H   UNL A   1      43.950  29.475  28.332  1.00  0.00     0.167 HD
ATOM     56  C   UNL A   1      43.161  31.908  29.584  1.00  0.00     0.074 A 
ATOM     57  C   UNL A   1      42.391  32.885  30.327  1.00  0.00     0.031 C 
ATOM     58  C   UNL A   1      44.400  32.135  29.082  1.00  0.00     0.034 A 
BRANCH  45  59
ATOM     59  C   UNL A   1      46.967  27.242  26.292  1.00  0.00     0.023 A 
ATOM     60  C   UNL A   1      47.126  27.371  24.896  1.00  0.00     0.012 A 
ATOM     61  C   UNL A   1      47.965  26.587  27.039  1.00  0.00     0.148 A 
ATOM     62  C   UNL A   1      48.234  26.823  24.250  1.00  0.00     0.002 A 
ATOM     63  C   UNL A   1      49.091  26.084  26.394  1.00  0.00     0.091 A 
ATOM     64  F   UNL A   1      47.792  26.454  28.362  1.00  0.00    -0.205 F 
ATOM     65  C   UNL A   1      49.220  26.188  24.999  1.00  0.00     0.022 A 
BRANCH  63  66
ATOM     66  S   UNL A   1      50.458  25.320  27.275  1.00  0.00     0.127 S 
ATOM     67  O   UNL A   1      50.866  26.396  28.177  1.00  0.00    -0.237 OA
ATOM     68  O   UNL A   1      49.807  24.187  27.932  1.00  0.00    -0.237 OA
ATOM     69  O   UNL A   1      51.435  24.953  26.258  1.00  0.00    -0.744 OA
ENDBRANCH  63  66
ENDBRANCH  45  59
BRANCH  46  70
ATOM     70  C   UNL A   1      38.885  30.644  31.151  1.00  0.00     0.023 A 
ATOM     71  C   UNL A   1      38.824  30.392  32.536  1.00  0.00     0.012 A 
ATOM     72  C   UNL A   1      37.862  31.399  30.546  1.00  0.00     0.148 A 
ATOM     73  C   UNL A   1      37.755  30.864  33.299  1.00  0.00     0.002 A 
ATOM     74  C   UNL A   1      36.826  31.910  31.322  1.00  0.00     0.091 A 
ATOM     75  F   UNL A   1      37.931  31.619  29.225  1.00  0.00    -0.205 F 
ATOM     76  C   UNL A   1      36.764  31.631  32.695  1.00  0.00     0.022 A 
BRANCH  74  77
ATOM     77  S   UNL A   1      35.583  33.023  30.652  1.00  0.00     0.127 S 
ATOM     78  O   UNL A   1      34.729  32.104  29.906  1.00  0.00    -0.237 OA
ATOM     79  O   UNL A   1      34.982  33.575  31.868  1.00  0.00    -0.237 OA
ATOM     80  O   UNL A   1      36.321  33.997  29.859  1.00  0.00    -0.744 OA
ENDBRANCH  74  77
ENDBRANCH  46  70
BRANCH  58  81
ATOM     81  C   UNL A   1      44.994  33.502  29.287  1.00  0.00     0.023 A 
ATOM     82  C   UNL A   1      45.734  33.772  30.455  1.00  0.00     0.012 A 
ATOM     83  C   UNL A   1      44.890  34.488  28.287  1.00  0.00     0.148 A 
ATOM     84  C   UNL A   1      46.339  35.015  30.636  1.00  0.00     0.002 A 
ATOM     85  C   UNL A   1      45.533  35.708  28.455  1.00  0.00     0.091 A 
ATOM     86  F   UNL A   1      44.163  34.216  27.193  1.00  0.00    -0.205 F 
ATOM     87  C   UNL A   1      46.249  35.977  29.632  1.00  0.00     0.022 A 
BRANCH  85  88
ATOM     88  S   UNL A   1      45.547  36.968  27.173  1.00  0.00     0.127 S 
ATOM     89  O   UNL A   1      46.098  36.230  26.038  1.00  0.00    -0.237 OA
ATOM     90  O   UNL A   1      44.128  37.304  27.052  1.00  0.00    -0.237 OA
ATOM     91  O   UNL A   1      46.380  38.047  27.686  1.00  0.00    -0.744 OA
ENDBRANCH  85  88
ENDBRANCH  58  81
ENDBRANCH  32  33
ENDBRANCH  25  27
ENDBRANCH  24  25
ENDBRANCH  23  24
ENDBRANCH   1  23
TORSDOF 19
ENDMDL
MODEL 3
REMARK VINA RESULT:     -11.0      5.067     10.526
REMARK SMILES C[NH2+][C@@]1(C(=O)OCCOCCOC(=O)c2ccc(-c3c4nc(c(-c5cccc(S(=O)(=O)[O-])c5F)c5ccc([nH]5)c(-c5cccc(S(=O)(=O)[O-])c5F)c5nc(c(-c6cccc(S(=O)(=O)[O-])c6F)c6ccc3[nH]6)C=C5)C=C4)cc2)CC[C@H](n2ccc(C)n2)C1
REMARK SMILES IDX 10 1 9 2 8 3 7 4 6 5 4 6 5 7 3 8 78 9 87 10 79 11 80 12 2 13
REMARK SMILES IDX 1 14 81 17 82 18 86 19 83 20 84 21 85 22 11 23 12 24 13 25
REMARK SMILES IDX 14 26 15 27 16 28 77 29 17 30 76 31 18 32 19 33 20 34 70 35
REMARK SMILES IDX 21 36 75 37 69 38 71 39 22 40 74 41 68 42 67 43 23 45 55 46
REMARK SMILES IDX 35 47 54 48 36 49 39 50 53 51 72 52 37 53 38 54 52 56 73 57
REMARK SMILES IDX 40 58 24 59 25 60 33 61 26 62 28 63 34 64 27 65 29 66 30 67
REMARK SMILES IDX 31 68 32 69 56 70 57 71 65 72 58 73 60 74 66 75 59 76 61 77
REMARK SMILES IDX 62 78 63 79 64 80 41 81 42 82 50 83 43 84 45 85 51 86 44 87
REMARK SMILES IDX 46 88 47 89 48 90 49 91
REMARK H PARENT 2 15 2 16 71 44 39 55
REMARK Flexibility Score: inf
ROOT
ATOM      1  C   UNL A   1      31.438  29.843  25.376  1.00  0.00     0.202 C 
ENDROOT
BRANCH   1   2
ATOM      2  O   UNL A   1      32.420  29.354  24.464  1.00  0.00    -0.374 OA
BRANCH   2   3
ATOM      3  C   UNL A   1      32.506  27.935  24.318  1.00  0.00     0.202 C 
BRANCH   3   4
ATOM      4  C   UNL A   1      33.726  27.391  23.570  1.00  0.00     0.261 C 
BRANCH   4   5
ATOM      5  O   UNL A   1      33.993  26.012  23.882  1.00  0.00    -0.459 OA
BRANCH   5   6
ATOM      6  C   UNL A   1      33.470  25.109  23.015  1.00  0.00     0.368 C 
ATOM      7  O   UNL A   1      33.390  25.273  21.798  1.00  0.00    -0.245 OA
BRANCH   6   8
ATOM      8  C   UNL A   1      32.908  23.830  23.709  1.00  0.00     0.196 C 
ATOM      9  C   UNL A   1      32.437  24.258  25.108  1.00  0.00     0.083 C 
ATOM     10  C   UNL A   1      33.886  22.689  24.017  1.00  0.00     0.108 C 
ATOM     11  C   UNL A   1      33.709  24.161  25.953  1.00  0.00     0.034 C 
ATOM     12  C   UNL A   1      34.353  22.858  25.475  1.00  0.00     0.114 C 
BRANCH   8  13
ATOM     13  N   UNL A   1      31.767  23.330  22.885  1.00  0.00    -0.334 N 
ATOM     14  C   UNL A   1      30.511  24.029  23.180  1.00  0.00     0.331 C 
ATOM     15  H   UNL A   1      31.991  23.465  21.898  1.00  0.00     0.347 HD
ATOM     16  H   UNL A   1      31.633  22.343  23.108  1.00  0.00     0.347 HD
ENDBRANCH   8  13
BRANCH  12  17
ATOM     17  N   UNL A   1      35.788  22.714  25.617  1.00  0.00    -0.269 N 
ATOM     18  C   UNL A   1      36.583  21.668  25.260  1.00  0.00     0.109 A 
ATOM     19  N   UNL A   1      36.491  23.779  26.061  1.00  0.00    -0.178 NA
ATOM     20  C   UNL A   1      37.876  22.068  25.511  1.00  0.00     0.045 A 
ATOM     21  C   UNL A   1      37.765  23.382  26.016  1.00  0.00     0.059 A 
ATOM     22  C   UNL A   1      38.836  24.297  26.481  1.00  0.00     0.069 C 
ENDBRANCH  12  17
ENDBRANCH   6   8
ENDBRANCH   5   6
ENDBRANCH   4   5
ENDBRANCH   3   4
ENDBRANCH   2   3
ENDBRANCH   1   2
BRANCH   1  23
ATOM     23  C   UNL A   1      31.802  31.071  26.222  1.00  0.00     0.261 C 
BRANCH  23  24
ATOM     24  O   UNL A   1      32.775  30.793  27.238  1.00  0.00    -0.460 OA
BRANCH  24  25
ATOM     25  C   UNL A   1      33.612  31.819  27.535  1.00  0.00     0.338 C 
ATOM     26  O   UNL A   1      33.338  33.005  27.574  1.00  0.00    -0.246 OA
BRANCH  25  27
ATOM     27  C   UNL A   1      34.920  31.276  27.957  1.00  0.00     0.060 A 
ATOM     28  C   UNL A   1      35.042  29.896  28.150  1.00  0.00     0.016 A 
ATOM     29  C   UNL A   1      36.002  32.119  28.204  1.00  0.00     0.016 A 
ATOM     30  C   UNL A   1      36.238  29.367  28.640  1.00  0.00     0.010 A 
ATOM     31  C   UNL A   1      37.205  31.590  28.663  1.00  0.00     0.010 A 
ATOM     32  C   UNL A   1      37.313  30.218  28.931  1.00  0.00    -0.014 A 
BRANCH  32  33
ATOM     33  C   UNL A   1      38.514  29.717  29.638  1.00  0.00     0.031 A 
ATOM     34  C   UNL A   1      38.823  30.246  31.013  1.00  0.00     0.074 A 
ATOM     35  C   UNL A   1      39.357  28.868  29.021  1.00  0.00     0.049 A 
ATOM     36  N   UNL A   1      39.836  29.982  31.796  1.00  0.00    -0.248 NA
ATOM     37  C   UNL A   1      37.884  31.238  31.567  1.00  0.00     0.031 C 
ATOM     38  C   UNL A   1      39.201  28.369  27.655  1.00  0.00     0.029 A 
ATOM     39  N   UNL A   1      40.531  28.308  29.452  1.00  0.00    -0.354 N 
ATOM     40  C   UNL A   1      39.678  30.798  32.910  1.00  0.00     0.074 A 
ATOM     41  C   UNL A   1      38.493  31.595  32.688  1.00  0.00     0.031 C 
ATOM     42  C   UNL A   1      40.256  27.594  27.352  1.00  0.00     0.029 A 
ATOM     43  C   UNL A   1      41.158  27.542  28.499  1.00  0.00     0.049 A 
ATOM     44  H   UNL A   1      40.892  28.443  30.359  1.00  0.00     0.167 HD
ATOM     45  C   UNL A   1      40.433  30.854  34.033  1.00  0.00     0.034 A 
ATOM     46  C   UNL A   1      42.325  26.871  28.554  1.00  0.00     0.034 A 
ATOM     47  C   UNL A   1      41.574  30.010  34.261  1.00  0.00     0.049 A 
ATOM     48  C   UNL A   1      43.090  26.862  29.851  1.00  0.00     0.074 A 
ATOM     49  C   UNL A   1      42.348  29.892  35.400  1.00  0.00     0.029 A 
ATOM     50  N   UNL A   1      42.101  29.133  33.324  1.00  0.00    -0.354 N 
ATOM     51  N   UNL A   1      42.827  27.500  30.967  1.00  0.00    -0.248 NA
ATOM     52  C   UNL A   1      44.279  26.000  29.918  1.00  0.00     0.031 C 
ATOM     53  C   UNL A   1      43.350  28.947  35.149  1.00  0.00     0.029 A 
ATOM     54  C   UNL A   1      43.187  28.466  33.858  1.00  0.00     0.049 A 
ATOM     55  H   UNL A   1      41.751  29.003  32.412  1.00  0.00     0.167 HD
ATOM     56  C   UNL A   1      43.792  27.089  31.880  1.00  0.00     0.074 A 
ATOM     57  C   UNL A   1      44.634  26.133  31.190  1.00  0.00     0.031 C 
ATOM     58  C   UNL A   1      43.974  27.476  33.167  1.00  0.00     0.034 A 
BRANCH  45  59
ATOM     59  C   UNL A   1      40.007  31.806  35.123  1.00  0.00     0.023 A 
ATOM     60  C   UNL A   1      40.475  33.137  35.105  1.00  0.00     0.012 A 
ATOM     61  C   UNL A   1      39.113  31.407  36.136  1.00  0.00     0.148 A 
ATOM     62  C   UNL A   1      40.095  34.042  36.095  1.00  0.00     0.002 A 
ATOM     63  C   UNL A   1      38.701  32.328  37.095  1.00  0.00     0.091 A 
ATOM     64  F   UNL A   1      38.692  30.135  36.154  1.00  0.00    -0.205 F 
ATOM     65  C   UNL A   1      39.202  33.640  37.084  1.00  0.00     0.022 A 
BRANCH  63  66
ATOM     66  S   UNL A   1      37.491  31.937  38.364  1.00  0.00     0.127 S 
ATOM     67  O   UNL A   1      38.251  32.193  39.587  1.00  0.00    -0.237 OA
ATOM     68  O   UNL A   1      36.432  32.909  38.090  1.00  0.00    -0.237 OA
ATOM     69  O   UNL A   1      37.113  30.548  38.142  1.00  0.00    -0.744 OA
ENDBRANCH  63  66
ENDBRANCH  45  59
BRANCH  46  70
ATOM     70  C   UNL A   1      42.767  26.067  27.381  1.00  0.00     0.023 A 
ATOM     71  C   UNL A   1      43.567  26.675  26.393  1.00  0.00     0.012 A 
ATOM     72  C   UNL A   1      42.461  24.697  27.267  1.00  0.00     0.148 A 
ATOM     73  C   UNL A   1      44.035  25.940  25.303  1.00  0.00     0.002 A 
ATOM     74  C   UNL A   1      42.973  23.958  26.205  1.00  0.00     0.091 A 
ATOM     75  F   UNL A   1      41.690  24.138  28.211  1.00  0.00    -0.205 F 
ATOM     76  C   UNL A   1      43.748  24.581  25.215  1.00  0.00     0.022 A 
BRANCH  74  77
ATOM     77  S   UNL A   1      42.769  22.177  26.088  1.00  0.00     0.127 S 
ATOM     78  O   UNL A   1      43.204  21.737  27.411  1.00  0.00    -0.237 OA
ATOM     79  O   UNL A   1      41.332  22.051  25.838  1.00  0.00    -0.237 OA
ATOM     80  O   UNL A   1      43.605  21.762  24.970  1.00  0.00    -0.744 OA
ENDBRANCH  74  77
ENDBRANCH  46  70
BRANCH  58  81
ATOM     81  C   UNL A   1      45.107  26.844  33.930  1.00  0.00     0.023 A 
ATOM     82  C   UNL A   1      46.392  27.419  33.872  1.00  0.00     0.012 A 
ATOM     83  C   UNL A   1      44.879  25.735  34.767  1.00  0.00     0.148 A 
ATOM     84  C   UNL A   1      47.440  26.881  34.617  1.00  0.00     0.002 A 
ATOM     85  C   UNL A   1      45.918  25.233  35.540  1.00  0.00     0.091 A 
ATOM     86  F   UNL A   1      43.652  25.192  34.791  1.00  0.00    -0.205 F 
ATOM     87  C   UNL A   1      47.200  25.797  35.459  1.00  0.00     0.022 A 
BRANCH  85  88
ATOM     88  S   UNL A   1      45.675  23.899  36.720  1.00  0.00     0.127 S 
ATOM     89  O   UNL A   1      44.689  24.482  37.629  1.00  0.00    -0.237 OA
ATOM     90  O   UNL A   1      45.163  22.822  35.873  1.00  0.00    -0.237 OA
ATOM     91  O   UNL A   1      46.986  23.637  37.299  1.00  0.00    -0.744 OA
ENDBRANCH  85  88
ENDBRANCH  58  81
ENDBRANCH  32  33
ENDBRANCH  25  27
ENDBRANCH  24  25
ENDBRANCH  23  24
ENDBRANCH   1  23
TORSDOF 19
ENDMDL
