MODEL 1
REMARK VINA RESULT:     -10.9      0.000      0.000
REMARK SMILES CC1(C)CCN(S(=O)(=O)c2ccc(O)c(C(=O)OCCOCCOC(=O)c3ccc(-c4c5nc(c(-c6cccc(S(=O)(=O)[O-])c6F)c6ccc([nH]6)c(-c6cccc(S(=O)(=O)[O-])c6F)c6nc(c(-c7cccc(S(=O)(=O)[O-])c7F)c7ccc4[nH]7)C=C6)C=C5)cc3)c2)C1
REMARK SMILES IDX 22 1 21 2 20 3 19 4 18 5 16 6 17 7 15 8 10 9 11 10 90 11
REMARK SMILES IDX 12 12 13 13 7 14 8 15 9 16 6 17 1 18 2 19 3 20 4 21 91 22
REMARK SMILES IDX 5 23 14 24 23 26 24 27 25 28 26 29 27 30 28 31 89 32 29 33
REMARK SMILES IDX 88 34 30 35 31 36 32 37 82 38 33 39 87 40 81 41 83 42 34 43
REMARK SMILES IDX 86 44 80 45 79 46 35 48 67 49 47 50 66 51 48 52 51 53 65 54
REMARK SMILES IDX 84 55 49 56 50 57 64 59 85 60 52 61 36 62 37 63 45 64 38 65
REMARK SMILES IDX 40 66 46 67 39 68 41 69 42 70 43 71 44 72 68 73 69 74 77 75
REMARK SMILES IDX 70 76 72 77 78 78 71 79 73 80 74 81 75 82 76 83 53 84 54 85
REMARK SMILES IDX 62 86 55 87 57 88 63 89 56 90 58 91 59 92 60 93 61 94
REMARK H PARENT 14 25 83 47 51 58
REMARK Flexibility Score: inf
ROOT
ATOM      1  C   UNL A   1      30.686  31.583  25.307  1.00  0.00     0.202 C 
ENDROOT
BRANCH   1   2
ATOM      2  O   UNL A   1      30.722  30.254  24.781  1.00  0.00    -0.374 OA
BRANCH   2   3
ATOM      3  C   UNL A   1      29.921  29.999  23.623  1.00  0.00     0.202 C 
BRANCH   3   4
ATOM      4  C   UNL A   1      30.525  29.037  22.598  1.00  0.00     0.261 C 
BRANCH   4   5
ATOM      5  O   UNL A   1      31.957  29.075  22.672  1.00  0.00    -0.460 OA
BRANCH   5   6
ATOM      6  C   UNL A   1      32.596  27.883  22.679  1.00  0.00     0.342 C 
ATOM      7  O   UNL A   1      33.121  27.329  21.726  1.00  0.00    -0.246 OA
BRANCH   6   8
ATOM      8  C   UNL A   1      32.798  27.425  24.075  1.00  0.00     0.103 A 
ATOM      9  C   UNL A   1      32.770  25.549  25.605  1.00  0.00     0.083 A 
ATOM     10  C   UNL A   1      33.276  26.364  26.623  1.00  0.00     0.025 A 
ATOM     11  C   UNL A   1      32.538  26.070  24.331  1.00  0.00     0.041 A 
ATOM     12  C   UNL A   1      33.511  27.720  26.376  1.00  0.00     0.048 A 
ATOM     13  C   UNL A   1      33.274  28.248  25.105  1.00  0.00     0.130 A 
BRANCH   9  14
ATOM     14  S   UNL A   1      32.512  23.817  25.908  1.00  0.00     0.243 S 
ATOM     15  O   UNL A   1      31.850  23.251  24.752  1.00  0.00    -0.207 OA
ATOM     16  O   UNL A   1      31.940  23.671  27.231  1.00  0.00    -0.207 OA
BRANCH  14  17
ATOM     17  N   UNL A   1      34.095  23.196  25.955  1.00  0.00    -0.197 NA
ATOM     18  C   UNL A   1      37.164  22.505  25.654  1.00  0.00     0.012 C 
ATOM     19  C   UNL A   1      36.022  22.610  24.633  1.00  0.00    -0.020 C 
ATOM     20  C   UNL A   1      36.609  22.778  23.229  1.00  0.00     0.012 C 
ATOM     21  C   UNL A   1      35.084  21.404  24.709  1.00  0.00     0.024 C 
ATOM     22  C   UNL A   1      35.067  23.762  24.979  1.00  0.00     0.109 C 
ATOM     23  C   UNL A   1      34.182  21.710  25.898  1.00  0.00     0.103 C 
ENDBRANCH  14  17
ENDBRANCH   9  14
BRANCH  13  24
ATOM     24  O   UNL A   1      33.496  29.575  24.881  1.00  0.00    -0.507 OA
ATOM     25  H   UNL A   1      33.100  29.999  24.144  1.00  0.00     0.293 HD
ENDBRANCH  13  24
ENDBRANCH   6   8
ENDBRANCH   5   6
ENDBRANCH   4   5
ENDBRANCH   3   4
ENDBRANCH   2   3
ENDBRANCH   1   2
BRANCH   1  26
ATOM     26  C   UNL A   1      31.204  31.760  26.741  1.00  0.00     0.261 C 
BRANCH  26  27
ATOM     27  O   UNL A   1      32.605  31.459  26.859  1.00  0.00    -0.460 OA
BRANCH  27  28
ATOM     28  C   UNL A   1      33.343  32.420  27.466  1.00  0.00     0.338 C 
ATOM     29  O   UNL A   1      32.989  33.552  27.752  1.00  0.00    -0.246 OA
BRANCH  28  30
ATOM     30  C   UNL A   1      34.635  31.858  27.906  1.00  0.00     0.060 A 
ATOM     31  C   UNL A   1      34.681  30.487  28.189  1.00  0.00     0.016 A 
ATOM     32  C   UNL A   1      35.759  32.662  28.106  1.00  0.00     0.016 A 
ATOM     33  C   UNL A   1      35.839  29.921  28.719  1.00  0.00     0.010 A 
ATOM     34  C   UNL A   1      36.919  32.093  28.641  1.00  0.00     0.010 A 
ATOM     35  C   UNL A   1      36.953  30.729  28.983  1.00  0.00    -0.014 A 
BRANCH  35  36
ATOM     36  C   UNL A   1      38.109  30.172  29.728  1.00  0.00     0.031 A 
ATOM     37  C   UNL A   1      38.360  30.625  31.140  1.00  0.00     0.074 A 
ATOM     38  C   UNL A   1      38.930  29.275  29.150  1.00  0.00     0.049 A 
ATOM     39  N   UNL A   1      39.327  30.296  31.955  1.00  0.00    -0.248 NA
ATOM     40  C   UNL A   1      37.396  31.584  31.706  1.00  0.00     0.031 C 
ATOM     41  C   UNL A   1      38.792  28.759  27.790  1.00  0.00     0.029 A 
ATOM     42  N   UNL A   1      40.060  28.663  29.631  1.00  0.00    -0.354 N 
ATOM     43  C   UNL A   1      39.109  31.027  33.118  1.00  0.00     0.074 A 
ATOM     44  C   UNL A   1      37.924  31.827  32.897  1.00  0.00     0.031 C 
ATOM     45  C   UNL A   1      39.816  27.928  27.534  1.00  0.00     0.029 A 
ATOM     46  C   UNL A   1      40.694  27.873  28.701  1.00  0.00     0.049 A 
ATOM     47  H   UNL A   1      40.386  28.778  30.553  1.00  0.00     0.167 HD
ATOM     48  C   UNL A   1      39.820  31.020  34.269  1.00  0.00     0.034 A 
ATOM     49  C   UNL A   1      41.861  27.202  28.775  1.00  0.00     0.034 A 
ATOM     50  C   UNL A   1      40.984  30.206  34.495  1.00  0.00     0.049 A 
ATOM     51  C   UNL A   1      42.643  27.224  30.063  1.00  0.00     0.074 A 
ATOM     52  C   UNL A   1      41.742  30.090  35.647  1.00  0.00     0.029 A 
ATOM     53  N   UNL A   1      41.569  29.381  33.547  1.00  0.00    -0.354 N 
ATOM     54  N   UNL A   1      42.357  27.824  31.193  1.00  0.00    -0.248 NA
ATOM     55  C   UNL A   1      43.892  26.448  30.097  1.00  0.00     0.031 C 
ATOM     56  C   UNL A   1      42.801  29.215  35.387  1.00  0.00     0.029 A 
ATOM     57  C   UNL A   1      42.685  28.762  34.082  1.00  0.00     0.049 A 
ATOM     58  H   UNL A   1      41.238  29.254  32.629  1.00  0.00     0.167 HD
ATOM     59  C   UNL A   1      43.365  27.467  32.083  1.00  0.00     0.074 A 
ATOM     60  C   UNL A   1      44.262  26.586  31.363  1.00  0.00     0.031 C 
ATOM     61  C   UNL A   1      43.540  27.843  33.374  1.00  0.00     0.034 A 
BRANCH  48  62
ATOM     62  C   UNL A   1      39.345  31.907  35.392  1.00  0.00     0.023 A 
ATOM     63  C   UNL A   1      38.447  31.399  36.351  1.00  0.00     0.012 A 
ATOM     64  C   UNL A   1      39.829  33.222  35.526  1.00  0.00     0.148 A 
ATOM     65  C   UNL A   1      38.013  32.195  37.410  1.00  0.00     0.002 A 
ATOM     66  C   UNL A   1      39.427  33.996  36.609  1.00  0.00     0.091 A 
ATOM     67  F   UNL A   1      40.665  33.696  34.591  1.00  0.00    -0.205 F 
ATOM     68  C   UNL A   1      38.512  33.489  37.544  1.00  0.00     0.022 A 
BRANCH  66  69
ATOM     69  S   UNL A   1      40.073  35.645  36.913  1.00  0.00     0.127 S 
ATOM     70  O   UNL A   1      39.428  35.985  38.181  1.00  0.00    -0.237 OA
ATOM     71  O   UNL A   1      41.512  35.399  37.008  1.00  0.00    -0.237 OA
ATOM     72  O   UNL A   1      39.669  36.452  35.769  1.00  0.00    -0.744 OA
ENDBRANCH  66  69
ENDBRANCH  48  62
BRANCH  49  73
ATOM     73  C   UNL A   1      42.344  26.422  27.602  1.00  0.00     0.023 A 
ATOM     74  C   UNL A   1      43.121  27.058  26.614  1.00  0.00     0.012 A 
ATOM     75  C   UNL A   1      42.057  25.049  27.471  1.00  0.00     0.148 A 
ATOM     76  C   UNL A   1      43.577  26.349  25.502  1.00  0.00     0.002 A 
ATOM     77  C   UNL A   1      42.561  24.335  26.390  1.00  0.00     0.091 A 
ATOM     78  F   UNL A   1      41.302  24.466  28.413  1.00  0.00    -0.205 F 
ATOM     79  C   UNL A   1      43.307  24.986  25.396  1.00  0.00     0.022 A 
BRANCH  77  80
ATOM     80  S   UNL A   1      42.371  22.556  26.239  1.00  0.00     0.127 S 
ATOM     81  O   UNL A   1      40.922  22.418  26.130  1.00  0.00    -0.237 OA
ATOM     82  O   UNL A   1      43.112  22.277  25.008  1.00  0.00    -0.237 OA
ATOM     83  O   UNL A   1      42.972  21.991  27.440  1.00  0.00    -0.744 OA
ENDBRANCH  77  80
ENDBRANCH  49  73
BRANCH  61  84
ATOM     84  C   UNL A   1      44.719  27.274  34.121  1.00  0.00     0.023 A 
ATOM     85  C   UNL A   1      45.950  27.958  34.117  1.00  0.00     0.012 A 
ATOM     86  C   UNL A   1      44.579  26.104  34.894  1.00  0.00     0.148 A 
ATOM     87  C   UNL A   1      47.033  27.471  34.849  1.00  0.00     0.002 A 
ATOM     88  C   UNL A   1      45.648  25.653  35.661  1.00  0.00     0.091 A 
ATOM     89  F   UNL A   1      43.405  25.458  34.871  1.00  0.00    -0.205 F 
ATOM     90  C   UNL A   1      46.879  26.327  35.629  1.00  0.00     0.022 A 
BRANCH  88  91
ATOM     91  S   UNL A   1      45.511  24.246  36.770  1.00  0.00     0.127 S 
ATOM     92  O   UNL A   1      46.871  24.151  37.299  1.00  0.00    -0.237 OA
ATOM     93  O   UNL A   1      44.512  24.708  37.735  1.00  0.00    -0.237 OA
ATOM     94  O   UNL A   1      45.081  23.125  35.947  1.00  0.00    -0.744 OA
ENDBRANCH  88  91
ENDBRANCH  61  84
ENDBRANCH  35  36
ENDBRANCH  28  30
ENDBRANCH  27  28
ENDBRANCH  26  27
ENDBRANCH   1  26
TORSDOF 20
ENDMDL
MODEL 2
REMARK VINA RESULT:     -10.4      1.799      2.565
REMARK SMILES CC1(C)CCN(S(=O)(=O)c2ccc(O)c(C(=O)OCCOCCOC(=O)c3ccc(-c4c5nc(c(-c6cccc(S(=O)(=O)[O-])c6F)c6ccc([nH]6)c(-c6cccc(S(=O)(=O)[O-])c6F)c6nc(c(-c7cccc(S(=O)(=O)[O-])c7F)c7ccc4[nH]7)C=C6)C=C5)cc3)c2)C1
REMARK SMILES IDX 22 1 21 2 20 3 19 4 18 5 16 6 17 7 15 8 10 9 11 10 90 11
REMARK SMILES IDX 12 12 13 13 7 14 8 15 9 16 6 17 1 18 2 19 3 20 4 21 91 22
REMARK SMILES IDX 5 23 14 24 23 26 24 27 25 28 26 29 27 30 28 31 89 32 29 33
REMARK SMILES IDX 88 34 30 35 31 36 32 37 82 38 33 39 87 40 81 41 83 42 34 43
REMARK SMILES IDX 86 44 80 45 79 46 35 48 67 49 47 50 66 51 48 52 51 53 65 54
REMARK SMILES IDX 84 55 49 56 50 57 64 59 85 60 52 61 36 62 37 63 45 64 38 65
REMARK SMILES IDX 40 66 46 67 39 68 41 69 42 70 43 71 44 72 68 73 69 74 77 75
REMARK SMILES IDX 70 76 72 77 78 78 71 79 73 80 74 81 75 82 76 83 53 84 54 85
REMARK SMILES IDX 62 86 55 87 57 88 63 89 56 90 58 91 59 92 60 93 61 94
REMARK H PARENT 14 25 83 47 51 58
REMARK Flexibility Score: inf
ROOT
ATOM      1  C   UNL A   1      31.635  30.907  25.726  1.00  0.00     0.202 C 
ENDROOT
BRANCH   1   2
ATOM      2  O   UNL A   1      31.482  29.508  25.976  1.00  0.00    -0.374 OA
BRANCH   2   3
ATOM      3  C   UNL A   1      31.901  29.034  27.259  1.00  0.00     0.202 C 
BRANCH   3   4
ATOM      4  C   UNL A   1      31.798  27.523  27.475  1.00  0.00     0.261 C 
BRANCH   4   5
ATOM      5  O   UNL A   1      30.682  26.997  26.741  1.00  0.00    -0.460 OA
BRANCH   5   6
ATOM      6  C   UNL A   1      30.796  25.726  26.294  1.00  0.00     0.342 C 
ATOM      7  O   UNL A   1      30.117  24.769  26.630  1.00  0.00    -0.246 OA
BRANCH   6   8
ATOM      8  C   UNL A   1      31.715  25.679  25.131  1.00  0.00     0.103 A 
ATOM      9  C   UNL A   1      33.564  24.534  24.067  1.00  0.00     0.083 A 
ATOM     10  C   UNL A   1      33.435  25.356  22.944  1.00  0.00     0.025 A 
ATOM     11  C   UNL A   1      32.704  24.684  25.156  1.00  0.00     0.041 A 
ATOM     12  C   UNL A   1      32.468  26.365  22.928  1.00  0.00     0.048 A 
ATOM     13  C   UNL A   1      31.609  26.525  24.018  1.00  0.00     0.130 A 
BRANCH   9  14
ATOM     14  S   UNL A   1      34.766  23.225  24.069  1.00  0.00     0.243 S 
ATOM     15  O   UNL A   1      35.800  23.564  25.024  1.00  0.00    -0.207 OA
ATOM     16  O   UNL A   1      35.104  22.921  22.694  1.00  0.00    -0.207 OA
BRANCH  14  17
ATOM     17  N   UNL A   1      33.895  21.905  24.695  1.00  0.00    -0.197 NA
ATOM     18  C   UNL A   1      32.834  19.199  25.937  1.00  0.00     0.012 C 
ATOM     19  C   UNL A   1      33.685  19.504  24.697  1.00  0.00    -0.020 C 
ATOM     20  C   UNL A   1      34.425  18.236  24.263  1.00  0.00     0.012 C 
ATOM     21  C   UNL A   1      32.840  20.078  23.558  1.00  0.00     0.024 C 
ATOM     22  C   UNL A   1      34.665  20.657  24.960  1.00  0.00     0.109 C 
ATOM     23  C   UNL A   1      32.671  21.546  23.925  1.00  0.00     0.103 C 
ENDBRANCH  14  17
ENDBRANCH   9  14
BRANCH  13  24
ATOM     24  O   UNL A   1      30.677  27.521  23.993  1.00  0.00    -0.507 OA
ATOM     25  H   UNL A   1      29.969  27.485  23.379  1.00  0.00     0.293 HD
ENDBRANCH  13  24
ENDBRANCH   6   8
ENDBRANCH   5   6
ENDBRANCH   4   5
ENDBRANCH   3   4
ENDBRANCH   2   3
ENDBRANCH   1   2
BRANCH   1  26
ATOM     26  C   UNL A   1      31.859  31.796  26.956  1.00  0.00     0.261 C 
BRANCH  26  27
ATOM     27  O   UNL A   1      32.767  32.879  26.693  1.00  0.00    -0.460 OA
BRANCH  27  28
ATOM     28  C   UNL A   1      33.294  33.460  27.800  1.00  0.00     0.338 C 
ATOM     29  O   UNL A   1      32.792  34.337  28.482  1.00  0.00    -0.246 OA
BRANCH  28  30
ATOM     30  C   UNL A   1      34.533  32.760  28.192  1.00  0.00     0.060 A 
ATOM     31  C   UNL A   1      34.417  31.429  28.615  1.00  0.00     0.016 A 
ATOM     32  C   UNL A   1      35.770  33.407  28.213  1.00  0.00     0.016 A 
ATOM     33  C   UNL A   1      35.533  30.754  29.107  1.00  0.00     0.010 A 
ATOM     34  C   UNL A   1      36.887  32.728  28.711  1.00  0.00     0.010 A 
ATOM     35  C   UNL A   1      36.767  31.412  29.194  1.00  0.00    -0.014 A 
BRANCH  35  36
ATOM     36  C   UNL A   1      37.901  30.766  29.898  1.00  0.00     0.031 A 
ATOM     37  C   UNL A   1      38.184  31.136  31.328  1.00  0.00     0.074 A 
ATOM     38  C   UNL A   1      38.675  29.862  29.268  1.00  0.00     0.049 A 
ATOM     39  N   UNL A   1      39.140  30.722  32.117  1.00  0.00    -0.248 NA
ATOM     40  C   UNL A   1      37.269  32.109  31.951  1.00  0.00     0.031 C 
ATOM     41  C   UNL A   1      38.502  29.422  27.886  1.00  0.00     0.029 A 
ATOM     42  N   UNL A   1      39.779  29.175  29.707  1.00  0.00    -0.354 N 
ATOM     43  C   UNL A   1      38.965  31.403  33.316  1.00  0.00     0.074 A 
ATOM     44  C   UNL A   1      37.817  32.267  33.147  1.00  0.00     0.031 C 
ATOM     45  C   UNL A   1      39.485  28.558  27.578  1.00  0.00     0.029 A 
ATOM     46  C   UNL A   1      40.369  28.405  28.732  1.00  0.00     0.049 A 
ATOM     47  H   UNL A   1      40.117  29.229  30.630  1.00  0.00     0.167 HD
ATOM     48  C   UNL A   1      39.684  31.306  34.459  1.00  0.00     0.034 A 
ATOM     49  C   UNL A   1      41.504  27.678  28.761  1.00  0.00     0.034 A 
ATOM     50  C   UNL A   1      40.811  30.429  34.633  1.00  0.00     0.049 A 
ATOM     51  C   UNL A   1      42.295  27.599  30.041  1.00  0.00     0.074 A 
ATOM     52  C   UNL A   1      41.571  30.220  35.770  1.00  0.00     0.029 A 
ATOM     53  N   UNL A   1      41.349  29.626  33.639  1.00  0.00    -0.354 N 
ATOM     54  N   UNL A   1      42.046  28.154  31.202  1.00  0.00    -0.248 NA
ATOM     55  C   UNL A   1      43.507  26.766  30.024  1.00  0.00     0.031 C 
ATOM     56  C   UNL A   1      42.586  29.312  35.456  1.00  0.00     0.029 A 
ATOM     57  C   UNL A   1      42.439  28.930  34.131  1.00  0.00     0.049 A 
ATOM     58  H   UNL A   1      41.006  29.561  32.719  1.00  0.00     0.167 HD
ATOM     59  C   UNL A   1      43.043  27.707  32.063  1.00  0.00     0.074 A 
ATOM     60  C   UNL A   1      43.893  26.823  31.292  1.00  0.00     0.031 C 
ATOM     61  C   UNL A   1      43.245  28.010  33.370  1.00  0.00     0.034 A 
BRANCH  48  62
ATOM     62  C   UNL A   1      39.259  32.157  35.629  1.00  0.00     0.023 A 
ATOM     63  C   UNL A   1      39.618  33.519  35.669  1.00  0.00     0.012 A 
ATOM     64  C   UNL A   1      38.459  31.622  36.657  1.00  0.00     0.148 A 
ATOM     65  C   UNL A   1      39.215  34.328  36.730  1.00  0.00     0.002 A 
ATOM     66  C   UNL A   1      38.024  32.445  37.689  1.00  0.00     0.091 A 
ATOM     67  F   UNL A   1      38.147  30.318  36.612  1.00  0.00    -0.205 F 
ATOM     68  C   UNL A   1      38.410  33.794  37.733  1.00  0.00     0.022 A 
BRANCH  66  69
ATOM     69  S   UNL A   1      36.920  31.870  38.984  1.00  0.00     0.127 S 
ATOM     70  O   UNL A   1      37.646  32.271  40.189  1.00  0.00    -0.237 OA
ATOM     71  O   UNL A   1      35.706  32.642  38.720  1.00  0.00    -0.237 OA
ATOM     72  O   UNL A   1      36.781  30.434  38.786  1.00  0.00    -0.744 OA
ENDBRANCH  66  69
ENDBRANCH  48  62
BRANCH  49  73
ATOM     73  C   UNL A   1      41.941  26.936  27.546  1.00  0.00     0.023 A 
ATOM     74  C   UNL A   1      42.565  27.631  26.493  1.00  0.00     0.012 A 
ATOM     75  C   UNL A   1      41.761  25.543  27.439  1.00  0.00     0.148 A 
ATOM     76  C   UNL A   1      42.976  26.958  25.342  1.00  0.00     0.002 A 
ATOM     77  C   UNL A   1      42.222  24.870  26.314  1.00  0.00     0.091 A 
ATOM     78  F   UNL A   1      41.149  24.903  28.445  1.00  0.00    -0.205 F 
ATOM     79  C   UNL A   1      42.815  25.577  25.257  1.00  0.00     0.022 A 
BRANCH  77  80
ATOM     80  S   UNL A   1      42.171  23.080  26.175  1.00  0.00     0.127 S 
ATOM     81  O   UNL A   1      42.962  22.667  27.331  1.00  0.00    -0.237 OA
ATOM     82  O   UNL A   1      40.737  22.809  26.278  1.00  0.00    -0.237 OA
ATOM     83  O   UNL A   1      42.747  22.769  24.872  1.00  0.00    -0.744 OA
ENDBRANCH  77  80
ENDBRANCH  49  73
BRANCH  61  84
ATOM     84  C   UNL A   1      44.402  27.350  34.076  1.00  0.00     0.023 A 
ATOM     85  C   UNL A   1      45.659  27.984  34.108  1.00  0.00     0.012 A 
ATOM     86  C   UNL A   1      44.217  26.142  34.778  1.00  0.00     0.148 A 
ATOM     87  C   UNL A   1      46.724  27.411  34.804  1.00  0.00     0.002 A 
ATOM     88  C   UNL A   1      45.269  25.603  35.511  1.00  0.00     0.091 A 
ATOM     89  F   UNL A   1      43.018  25.546  34.721  1.00  0.00    -0.205 F 
ATOM     90  C   UNL A   1      46.525  26.229  35.515  1.00  0.00     0.022 A 
BRANCH  88  91
ATOM     91  S   UNL A   1      45.079  24.138  36.534  1.00  0.00     0.127 S 
ATOM     92  O   UNL A   1      44.380  24.678  37.699  1.00  0.00    -0.237 OA
ATOM     93  O   UNL A   1      44.265  23.270  35.683  1.00  0.00    -0.237 OA
ATOM     94  O   UNL A   1      46.425  23.646  36.786  1.00  0.00    -0.744 OA
ENDBRANCH  88  91
ENDBRANCH  61  84
ENDBRANCH  35  36
ENDBRANCH  28  30
ENDBRANCH  27  28
ENDBRANCH  26  27
ENDBRANCH   1  26
TORSDOF 20
ENDMDL
MODEL 3
REMARK VINA RESULT:     -10.1      2.204      9.141
REMARK SMILES CC1(C)CCN(S(=O)(=O)c2ccc(O)c(C(=O)OCCOCCOC(=O)c3ccc(-c4c5nc(c(-c6cccc(S(=O)(=O)[O-])c6F)c6ccc([nH]6)c(-c6cccc(S(=O)(=O)[O-])c6F)c6nc(c(-c7cccc(S(=O)(=O)[O-])c7F)c7ccc4[nH]7)C=C6)C=C5)cc3)c2)C1
REMARK SMILES IDX 22 1 21 2 20 3 19 4 18 5 16 6 17 7 15 8 10 9 11 10 90 11
REMARK SMILES IDX 12 12 13 13 7 14 8 15 9 16 6 17 1 18 2 19 3 20 4 21 91 22
REMARK SMILES IDX 5 23 14 24 23 26 24 27 25 28 26 29 27 30 28 31 89 32 29 33
REMARK SMILES IDX 88 34 30 35 31 36 32 37 82 38 33 39 87 40 81 41 83 42 34 43
REMARK SMILES IDX 86 44 80 45 79 46 35 48 67 49 47 50 66 51 48 52 51 53 65 54
REMARK SMILES IDX 84 55 49 56 50 57 64 59 85 60 52 61 36 62 37 63 45 64 38 65
REMARK SMILES IDX 40 66 46 67 39 68 41 69 42 70 43 71 44 72 68 73 69 74 77 75
REMARK SMILES IDX 70 76 72 77 78 78 71 79 73 80 74 81 75 82 76 83 53 84 54 85
REMARK SMILES IDX 62 86 55 87 57 88 63 89 56 90 58 91 59 92 60 93 61 94
REMARK H PARENT 14 25 83 47 51 58
REMARK Flexibility Score: inf
ROOT
ATOM      1  C   UNL A   1      42.448  20.665  26.086  1.00  0.00     0.202 C 
ENDROOT
BRANCH   1   2
ATOM      2  O   UNL A   1      41.117  21.035  25.720  1.00  0.00    -0.374 OA
BRANCH   2   3
ATOM      3  C   UNL A   1      40.221  21.356  26.790  1.00  0.00     0.202 C 
BRANCH   3   4
ATOM      4  C   UNL A   1      39.165  22.418  26.475  1.00  0.00     0.261 C 
BRANCH   4   5
ATOM      5  O   UNL A   1      37.956  21.790  26.026  1.00  0.00    -0.460 OA
BRANCH   5   6
ATOM      6  C   UNL A   1      36.978  22.609  25.577  1.00  0.00     0.342 C 
ATOM      7  O   UNL A   1      37.120  23.719  25.088  1.00  0.00    -0.246 OA
BRANCH   6   8
ATOM      8  C   UNL A   1      35.688  21.878  25.527  1.00  0.00     0.103 A 
ATOM      9  C   UNL A   1      33.297  21.983  25.886  1.00  0.00     0.083 A 
ATOM     10  C   UNL A   1      33.155  20.697  25.356  1.00  0.00     0.025 A 
ATOM     11  C   UNL A   1      34.555  22.580  25.966  1.00  0.00     0.041 A 
ATOM     12  C   UNL A   1      34.285  19.986  24.942  1.00  0.00     0.048 A 
ATOM     13  C   UNL A   1      35.548  20.576  25.026  1.00  0.00     0.130 A 
BRANCH   9  14
ATOM     14  S   UNL A   1      31.854  22.901  26.372  1.00  0.00     0.243 S 
ATOM     15  O   UNL A   1      31.930  23.136  27.798  1.00  0.00    -0.207 OA
ATOM     16  O   UNL A   1      30.694  22.259  25.791  1.00  0.00    -0.207 OA
BRANCH  14  17
ATOM     17  N   UNL A   1      32.069  24.395  25.588  1.00  0.00    -0.197 NA
ATOM     18  C   UNL A   1      32.722  27.347  24.665  1.00  0.00     0.012 C 
ATOM     19  C   UNL A   1      31.870  26.786  25.813  1.00  0.00    -0.020 C 
ATOM     20  C   UNL A   1      31.652  27.877  26.864  1.00  0.00     0.012 C 
ATOM     21  C   UNL A   1      30.542  26.221  25.307  1.00  0.00     0.024 C 
ATOM     22  C   UNL A   1      32.517  25.538  26.432  1.00  0.00     0.109 C 
ATOM     23  C   UNL A   1      30.906  24.842  24.772  1.00  0.00     0.103 C 
ENDBRANCH  14  17
ENDBRANCH   9  14
BRANCH  13  24
ATOM     24  O   UNL A   1      36.645  19.867  24.630  1.00  0.00    -0.507 OA
ATOM     25  H   UNL A   1      36.647  18.932  24.697  1.00  0.00     0.293 HD
ENDBRANCH  13  24
ENDBRANCH   6   8
ENDBRANCH   5   6
ENDBRANCH   4   5
ENDBRANCH   3   4
ENDBRANCH   2   3
ENDBRANCH   1   2
BRANCH   1  26
ATOM     26  C   UNL A   1      43.555  21.660  25.715  1.00  0.00     0.261 C 
BRANCH  26  27
ATOM     27  O   UNL A   1      43.070  22.745  24.906  1.00  0.00    -0.460 OA
BRANCH  27  28
ATOM     28  C   UNL A   1      43.771  23.899  25.025  1.00  0.00     0.338 C 
ATOM     29  O   UNL A   1      44.759  24.232  24.392  1.00  0.00    -0.246 OA
BRANCH  28  30
ATOM     30  C   UNL A   1      43.070  24.819  25.943  1.00  0.00     0.060 A 
ATOM     31  C   UNL A   1      43.578  26.119  26.068  1.00  0.00     0.016 A 
ATOM     32  C   UNL A   1      41.984  24.404  26.716  1.00  0.00     0.016 A 
ATOM     33  C   UNL A   1      43.030  26.995  27.003  1.00  0.00     0.010 A 
ATOM     34  C   UNL A   1      41.439  25.284  27.657  1.00  0.00     0.010 A 
ATOM     35  C   UNL A   1      41.982  26.570  27.830  1.00  0.00    -0.014 A 
BRANCH  35  36
ATOM     36  C   UNL A   1      41.535  27.427  28.955  1.00  0.00     0.031 A 
ATOM     37  C   UNL A   1      42.344  27.456  30.223  1.00  0.00     0.074 A 
ATOM     38  C   UNL A   1      40.415  28.167  28.851  1.00  0.00     0.049 A 
ATOM     39  N   UNL A   1      42.116  28.104  31.335  1.00  0.00    -0.248 NA
ATOM     40  C   UNL A   1      43.571  26.641  30.241  1.00  0.00     0.031 C 
ATOM     41  C   UNL A   1      39.548  28.223  27.676  1.00  0.00     0.029 A 
ATOM     42  N   UNL A   1      39.805  28.993  29.761  1.00  0.00    -0.354 N 
ATOM     43  C   UNL A   1      43.149  27.753  32.197  1.00  0.00     0.074 A 
ATOM     44  C   UNL A   1      43.999  26.825  31.481  1.00  0.00     0.031 C 
ATOM     45  C   UNL A   1      38.499  29.018  27.948  1.00  0.00     0.029 A 
ATOM     46  C   UNL A   1      38.608  29.507  29.321  1.00  0.00     0.049 A 
ATOM     47  H   UNL A   1      40.187  29.197  30.646  1.00  0.00     0.167 HD
ATOM     48  C   UNL A   1      43.379  28.177  33.461  1.00  0.00     0.034 A 
ATOM     49  C   UNL A   1      37.695  30.264  29.960  1.00  0.00     0.034 A 
ATOM     50  C   UNL A   1      42.547  29.117  34.162  1.00  0.00     0.049 A 
ATOM     51  C   UNL A   1      37.966  30.710  31.374  1.00  0.00     0.074 A 
ATOM     52  C   UNL A   1      42.726  29.649  35.427  1.00  0.00     0.029 A 
ATOM     53  N   UNL A   1      41.369  29.655  33.666  1.00  0.00    -0.354 N 
ATOM     54  N   UNL A   1      39.009  30.468  32.130  1.00  0.00    -0.248 NA
ATOM     55  C   UNL A   1      36.951  31.562  32.010  1.00  0.00     0.031 C 
ATOM     56  C   UNL A   1      41.642  30.487  35.707  1.00  0.00     0.029 A 
ATOM     57  C   UNL A   1      40.804  30.502  34.602  1.00  0.00     0.049 A 
ATOM     58  H   UNL A   1      40.992  29.462  32.778  1.00  0.00     0.167 HD
ATOM     59  C   UNL A   1      38.795  31.167  33.314  1.00  0.00     0.074 A 
ATOM     60  C   UNL A   1      37.529  31.855  33.167  1.00  0.00     0.031 C 
ATOM     61  C   UNL A   1      39.571  31.226  34.425  1.00  0.00     0.034 A 
BRANCH  48  62
ATOM     62  C   UNL A   1      44.599  27.644  34.168  1.00  0.00     0.023 A 
ATOM     63  C   UNL A   1      45.866  28.195  33.889  1.00  0.00     0.012 A 
ATOM     64  C   UNL A   1      44.485  26.638  35.146  1.00  0.00     0.148 A 
ATOM     65  C   UNL A   1      47.003  27.733  34.548  1.00  0.00     0.002 A 
ATOM     66  C   UNL A   1      45.617  26.212  35.832  1.00  0.00     0.091 A 
ATOM     67  F   UNL A   1      43.275  26.109  35.382  1.00  0.00    -0.205 F 
ATOM     68  C   UNL A   1      46.877  26.750  35.526  1.00  0.00     0.022 A 
BRANCH  66  69
ATOM     69  S   UNL A   1      45.546  25.008  37.163  1.00  0.00     0.127 S 
ATOM     70  O   UNL A   1      44.661  25.677  38.118  1.00  0.00    -0.237 OA
ATOM     71  O   UNL A   1      44.957  23.847  36.498  1.00  0.00    -0.237 OA
ATOM     72  O   UNL A   1      46.919  24.821  37.610  1.00  0.00    -0.744 OA
ENDBRANCH  66  69
ENDBRANCH  48  62
BRANCH  49  73
ATOM     73  C   UNL A   1      36.451  30.681  29.254  1.00  0.00     0.023 A 
ATOM     74  C   UNL A   1      35.659  29.713  28.608  1.00  0.00     0.012 A 
ATOM     75  C   UNL A   1      36.038  32.028  29.239  1.00  0.00     0.148 A 
ATOM     76  C   UNL A   1      34.495  30.082  27.933  1.00  0.00     0.002 A 
ATOM     77  C   UNL A   1      34.848  32.381  28.613  1.00  0.00     0.091 A 
ATOM     78  F   UNL A   1      36.815  32.937  29.845  1.00  0.00    -0.205 F 
ATOM     79  C   UNL A   1      34.083  31.412  27.945  1.00  0.00     0.022 A 
BRANCH  77  80
ATOM     80  S   UNL A   1      34.178  34.045  28.687  1.00  0.00     0.127 S 
ATOM     81  O   UNL A   1      33.570  34.065  30.014  1.00  0.00    -0.237 OA
ATOM     82  O   UNL A   1      35.384  34.863  28.548  1.00  0.00    -0.237 OA
ATOM     83  O   UNL A   1      33.253  34.148  27.566  1.00  0.00    -0.744 OA
ENDBRANCH  77  80
ENDBRANCH  49  73
BRANCH  61  84
ATOM     84  C   UNL A   1      39.105  32.096  35.564  1.00  0.00     0.023 A 
ATOM     85  C   UNL A   1      38.224  31.577  36.531  1.00  0.00     0.012 A 
ATOM     86  C   UNL A   1      39.610  33.403  35.718  1.00  0.00     0.148 A 
ATOM     87  C   UNL A   1      37.829  32.355  37.620  1.00  0.00     0.002 A 
ATOM     88  C   UNL A   1      39.252  34.154  36.832  1.00  0.00     0.091 A 
ATOM     89  F   UNL A   1      40.435  33.886  34.778  1.00  0.00    -0.205 F 
ATOM     90  C   UNL A   1      38.351  33.637  37.777  1.00  0.00     0.022 A 
BRANCH  88  91
ATOM     91  S   UNL A   1      39.950  35.775  37.167  1.00  0.00     0.127 S 
ATOM     92  O   UNL A   1      39.261  36.148  38.401  1.00  0.00    -0.237 OA
ATOM     93  O   UNL A   1      41.373  35.472  37.331  1.00  0.00    -0.237 OA
ATOM     94  O   UNL A   1      39.639  36.596  36.005  1.00  0.00    -0.744 OA
ENDBRANCH  88  91
ENDBRANCH  61  84
ENDBRANCH  35  36
ENDBRANCH  28  30
ENDBRANCH  27  28
ENDBRANCH  26  27
ENDBRANCH   1  26
TORSDOF 20
ENDMDL
