MODEL 1
REMARK VINA RESULT:     -10.0      0.000      0.000
REMARK SMILES O=C(OCCOCCOC(=O)c1ccc(N2C(=O)[C@@H]3N=NC(c4ccccc4)=C3[C@H]2c2cccc(Br)c2)cc1)c1ccc(-c2c3nc(c(-c4cccc(S(=O)(=O)[O-])c4F)c4ccc([nH]4)c(-c4cccc(S(=O)(=O)[O-])c4F)c4nc(c(-c5cccc(S(=O)(=O)[O-])c5F)c5ccc2[nH]5)C=C4)C=C3)cc1
REMARK SMILES IDX 5 1 4 2 3 3 2 4 1 5 40 6 41 7 102 8 42 9 101 10 43 11 44 12
REMARK SMILES IDX 45 13 95 14 46 15 100 16 94 17 96 18 47 19 99 20 93 21 92 22
REMARK SMILES IDX 48 24 80 25 60 26 79 27 61 28 64 29 78 30 97 31 62 32 63 33
REMARK SMILES IDX 77 35 98 36 65 37 49 38 50 39 58 40 51 41 53 42 59 43 52 44
REMARK SMILES IDX 54 45 55 46 56 47 57 48 81 49 82 50 90 51 83 52 85 53 91 54
REMARK SMILES IDX 84 55 86 56 87 57 88 58 89 59 66 60 67 61 75 62 68 63 70 64
REMARK SMILES IDX 76 65 69 66 71 67 72 68 73 69 74 70 6 71 7 72 8 73 9 74
REMARK SMILES IDX 10 75 11 76 12 77 13 78 39 79 14 80 38 81 15 82 16 83 17 84
REMARK SMILES IDX 30 85 19 86 18 87 29 88 20 89 22 90 21 91 31 92 32 93 37 94
REMARK SMILES IDX 33 95 35 96 34 97 36 98 23 99 24 100 28 101 25 102 27 103
REMARK SMILES IDX 26 104
REMARK H PARENT 96 23 64 34
REMARK Flexibility Score: inf
ROOT
ATOM      1  C   UNL A   1      45.304  19.002  25.715  1.00  0.00     0.202 C 
ENDROOT
BRANCH   1   2
ATOM      2  C   UNL A   1      44.018  18.309  25.264  1.00  0.00     0.261 C 
BRANCH   2   3
ATOM      3  O   UNL A   1      42.977  19.235  24.908  1.00  0.00    -0.460 OA
BRANCH   3   4
ATOM      4  C   UNL A   1      42.040  19.762  25.728  1.00  0.00     0.338 C 
ATOM      5  O   UNL A   1      40.985  19.154  25.906  1.00  0.00    -0.246 OA
BRANCH   4   6
ATOM      6  C   UNL A   1      42.356  20.919  26.599  1.00  0.00     0.060 A 
ATOM      7  C   UNL A   1      42.093  21.007  27.964  1.00  0.00     0.016 A 
ATOM      8  C   UNL A   1      42.883  22.038  25.931  1.00  0.00     0.016 A 
ATOM      9  C   UNL A   1      42.073  22.244  28.578  1.00  0.00     0.010 A 
ATOM     10  C   UNL A   1      42.943  23.266  26.560  1.00  0.00     0.010 A 
ATOM     11  C   UNL A   1      42.443  23.375  27.850  1.00  0.00    -0.014 A 
BRANCH  11  12
ATOM     12  C   UNL A   1      42.486  24.643  28.556  1.00  0.00     0.031 A 
ATOM     13  C   UNL A   1      41.289  25.478  28.278  1.00  0.00     0.074 A 
ATOM     14  C   UNL A   1      43.467  24.959  29.425  1.00  0.00     0.049 A 
ATOM     15  N   UNL A   1      41.245  26.601  27.641  1.00  0.00    -0.248 NA
ATOM     16  C   UNL A   1      39.963  24.892  28.543  1.00  0.00     0.031 C 
ATOM     17  C   UNL A   1      44.525  24.083  29.939  1.00  0.00     0.029 A 
ATOM     18  N   UNL A   1      43.645  26.099  30.147  1.00  0.00    -0.354 N 
ATOM     19  C   UNL A   1      39.906  26.985  27.663  1.00  0.00     0.074 A 
ATOM     20  C   UNL A   1      39.156  25.812  28.014  1.00  0.00     0.031 C 
ATOM     21  C   UNL A   1      45.043  24.627  31.064  1.00  0.00     0.029 A 
ATOM     22  C   UNL A   1      44.452  25.936  31.271  1.00  0.00     0.049 A 
ATOM     23  H   UNL A   1      43.240  26.961  29.897  1.00  0.00     0.167 HD
ATOM     24  C   UNL A   1      39.565  28.302  27.679  1.00  0.00     0.034 A 
ATOM     25  C   UNL A   1      44.550  26.782  32.331  1.00  0.00     0.034 A 
ATOM     26  C   UNL A   1      40.664  29.119  27.223  1.00  0.00     0.049 A 
ATOM     27  C   UNL A   1      44.030  28.097  31.891  1.00  0.00     0.074 A 
ATOM     28  C   UNL A   1      41.407  29.192  26.063  1.00  0.00     0.029 A 
ATOM     29  N   UNL A   1      41.403  29.751  28.193  1.00  0.00    -0.354 N 
ATOM     30  N   UNL A   1      44.622  28.840  31.000  1.00  0.00    -0.248 NA
ATOM     31  C   UNL A   1      42.617  28.368  32.099  1.00  0.00     0.031 C 
ATOM     32  C   UNL A   1      42.741  29.438  26.498  1.00  0.00     0.029 A 
ATOM     33  C   UNL A   1      42.725  29.593  27.886  1.00  0.00     0.049 A 
ATOM     34  H   UNL A   1      41.044  30.233  28.973  1.00  0.00     0.167 HD
ATOM     35  C   UNL A   1      43.584  29.307  30.208  1.00  0.00     0.074 A 
ATOM     36  C   UNL A   1      42.369  29.073  30.991  1.00  0.00     0.031 C 
ATOM     37  C   UNL A   1      43.775  29.552  28.879  1.00  0.00     0.034 A 
BRANCH  24  38
ATOM     38  C   UNL A   1      38.438  28.888  28.510  1.00  0.00     0.023 A 
ATOM     39  C   UNL A   1      37.515  29.718  27.832  1.00  0.00     0.012 A 
ATOM     40  C   UNL A   1      38.401  28.922  29.924  1.00  0.00     0.148 A 
ATOM     41  C   UNL A   1      36.673  30.599  28.517  1.00  0.00     0.002 A 
ATOM     42  C   UNL A   1      37.513  29.749  30.604  1.00  0.00     0.091 A 
ATOM     43  F   UNL A   1      39.298  28.247  30.642  1.00  0.00    -0.205 F 
ATOM     44  C   UNL A   1      36.673  30.616  29.906  1.00  0.00     0.022 A 
BRANCH  42  45
ATOM     45  S   UNL A   1      37.439  29.785  32.401  1.00  0.00     0.127 S 
ATOM     46  O   UNL A   1      38.717  30.409  32.733  1.00  0.00    -0.237 OA
ATOM     47  O   UNL A   1      36.261  30.621  32.630  1.00  0.00    -0.237 OA
ATOM     48  O   UNL A   1      37.281  28.399  32.824  1.00  0.00    -0.744 OA
ENDBRANCH  42  45
ENDBRANCH  24  38
BRANCH  25  49
ATOM     49  C   UNL A   1      44.774  26.492  33.769  1.00  0.00     0.023 A 
ATOM     50  C   UNL A   1      46.055  26.680  34.330  1.00  0.00     0.012 A 
ATOM     51  C   UNL A   1      43.685  26.323  34.652  1.00  0.00     0.148 A 
ATOM     52  C   UNL A   1      46.239  26.737  35.719  1.00  0.00     0.002 A 
ATOM     53  C   UNL A   1      43.872  26.375  36.031  1.00  0.00     0.091 A 
ATOM     54  F   UNL A   1      42.452  26.211  34.141  1.00  0.00    -0.205 F 
ATOM     55  C   UNL A   1      45.147  26.593  36.568  1.00  0.00     0.022 A 
BRANCH  53  56
ATOM     56  S   UNL A   1      42.503  26.240  37.189  1.00  0.00     0.127 S 
ATOM     57  O   UNL A   1      41.663  27.373  36.797  1.00  0.00    -0.237 OA
ATOM     58  O   UNL A   1      41.955  24.928  36.856  1.00  0.00    -0.237 OA
ATOM     59  O   UNL A   1      43.091  26.362  38.516  1.00  0.00    -0.744 OA
ENDBRANCH  53  56
ENDBRANCH  25  49
BRANCH  37  60
ATOM     60  C   UNL A   1      45.185  29.574  28.355  1.00  0.00     0.023 A 
ATOM     61  C   UNL A   1      45.844  28.431  27.857  1.00  0.00     0.012 A 
ATOM     62  C   UNL A   1      45.793  30.831  28.202  1.00  0.00     0.148 A 
ATOM     63  C   UNL A   1      47.093  28.542  27.234  1.00  0.00     0.002 A 
ATOM     64  C   UNL A   1      47.004  30.943  27.537  1.00  0.00     0.091 A 
ATOM     65  F   UNL A   1      45.152  31.905  28.685  1.00  0.00    -0.205 F 
ATOM     66  C   UNL A   1      47.665  29.800  27.061  1.00  0.00     0.022 A 
BRANCH  64  67
ATOM     67  S   UNL A   1      47.711  32.549  27.171  1.00  0.00     0.127 S 
ATOM     68  O   UNL A   1      48.042  33.047  28.504  1.00  0.00    -0.237 OA
ATOM     69  O   UNL A   1      48.868  32.203  26.341  1.00  0.00    -0.237 OA
ATOM     70  O   UNL A   1      46.675  33.290  26.462  1.00  0.00    -0.744 OA
ENDBRANCH  64  67
ENDBRANCH  37  60
ENDBRANCH  11  12
ENDBRANCH   4   6
ENDBRANCH   3   4
ENDBRANCH   2   3
ENDBRANCH   1   2
BRANCH   1  71
ATOM     71  O   UNL A   1      46.391  19.026  24.796  1.00  0.00    -0.374 OA
BRANCH  71  72
ATOM     72  C   UNL A   1      46.766  20.307  24.277  1.00  0.00     0.202 C 
BRANCH  72  73
ATOM     73  C   UNL A   1      45.823  21.498  24.504  1.00  0.00     0.261 C 
BRANCH  73  74
ATOM     74  O   UNL A   1      46.406  22.545  25.309  1.00  0.00    -0.460 OA
BRANCH  74  75
ATOM     75  C   UNL A   1      46.190  23.802  24.847  1.00  0.00     0.338 C 
ATOM     76  O   UNL A   1      45.194  24.215  24.288  1.00  0.00    -0.246 OA
BRANCH  75  77
ATOM     77  C   UNL A   1      47.287  24.710  25.251  1.00  0.00     0.060 A 
ATOM     78  C   UNL A   1      47.947  25.405  24.235  1.00  0.00     0.018 A 
ATOM     79  C   UNL A   1      47.746  24.797  26.569  1.00  0.00     0.018 A 
ATOM     80  C   UNL A   1      49.086  26.153  24.529  1.00  0.00     0.027 A 
ATOM     81  C   UNL A   1      48.924  25.514  26.855  1.00  0.00     0.027 A 
ATOM     82  C   UNL A   1      49.611  26.176  25.831  1.00  0.00     0.045 A 
BRANCH  82  83
ATOM     83  N   UNL A   1      50.842  26.860  26.076  1.00  0.00    -0.299 N 
ATOM     84  C   UNL A   1      51.891  26.085  26.673  1.00  0.00     0.259 C 
ATOM     85  C   UNL A   1      50.805  28.226  26.662  1.00  0.00     0.152 C 
ATOM     86  C   UNL A   1      52.610  26.968  27.652  1.00  0.00     0.248 C 
ATOM     87  O   UNL A   1      52.139  24.906  26.465  1.00  0.00    -0.271 OA
ATOM     88  C   UNL A   1      51.489  27.897  27.933  1.00  0.00     0.021 C 
ATOM     89  N   UNL A   1      52.878  26.393  28.973  1.00  0.00    -0.170 NA
ATOM     90  C   UNL A   1      51.354  27.931  29.256  1.00  0.00     0.097 C 
ATOM     91  N   UNL A   1      52.253  27.062  29.847  1.00  0.00    -0.154 NA
BRANCH  85  92
ATOM     92  C   UNL A   1      51.614  29.286  25.879  1.00  0.00    -0.020 A 
ATOM     93  C   UNL A   1      52.079  29.028  24.562  1.00  0.00     0.006 A 
ATOM     94  C   UNL A   1      51.971  30.520  26.443  1.00  0.00     0.022 A 
ATOM     95  C   UNL A   1      52.796  29.965  23.819  1.00  0.00     0.002 A 
ATOM     96  C   UNL A   1      52.728  31.446  25.704  1.00  0.00     0.018 A 
ATOM     97  C   UNL A   1      53.126  31.181  24.393  1.00  0.00     0.016 A 
ATOM     98  Br  UNL A   1      53.253  33.086  26.491  1.00  0.00    -0.051 Br
ENDBRANCH  85  92
BRANCH  90  99
ATOM     99  C   UNL A   1      50.344  28.534  30.127  1.00  0.00     0.002 A 
ATOM    100  C   UNL A   1      49.180  27.833  30.469  1.00  0.00     0.010 A 
ATOM    101  C   UNL A   1      50.393  29.920  30.329  1.00  0.00     0.010 A 
ATOM    102  C   UNL A   1      48.046  28.532  30.901  1.00  0.00     0.001 A 
ATOM    103  C   UNL A   1      49.260  30.613  30.754  1.00  0.00     0.001 A 
ATOM    104  C   UNL A   1      48.077  29.922  31.010  1.00  0.00     0.000 A 
ENDBRANCH  90  99
ENDBRANCH  82  83
ENDBRANCH  75  77
ENDBRANCH  74  75
ENDBRANCH  73  74
ENDBRANCH  72  73
ENDBRANCH  71  72
ENDBRANCH   1  71
TORSDOF 20
ENDMDL
MODEL 2
REMARK VINA RESULT:      -8.9      5.090     12.862
REMARK SMILES O=C(OCCOCCOC(=O)c1ccc(N2C(=O)[C@@H]3N=NC(c4ccccc4)=C3[C@H]2c2cccc(Br)c2)cc1)c1ccc(-c2c3nc(c(-c4cccc(S(=O)(=O)[O-])c4F)c4ccc([nH]4)c(-c4cccc(S(=O)(=O)[O-])c4F)c4nc(c(-c5cccc(S(=O)(=O)[O-])c5F)c5ccc2[nH]5)C=C4)C=C3)cc1
REMARK SMILES IDX 5 1 4 2 3 3 2 4 1 5 40 6 41 7 102 8 42 9 101 10 43 11 44 12
REMARK SMILES IDX 45 13 95 14 46 15 100 16 94 17 96 18 47 19 99 20 93 21 92 22
REMARK SMILES IDX 48 24 80 25 60 26 79 27 61 28 64 29 78 30 97 31 62 32 63 33
REMARK SMILES IDX 77 35 98 36 65 37 49 38 50 39 58 40 51 41 53 42 59 43 52 44
REMARK SMILES IDX 54 45 55 46 56 47 57 48 81 49 82 50 90 51 83 52 85 53 91 54
REMARK SMILES IDX 84 55 86 56 87 57 88 58 89 59 66 60 67 61 75 62 68 63 70 64
REMARK SMILES IDX 76 65 69 66 71 67 72 68 73 69 74 70 6 71 7 72 8 73 9 74
REMARK SMILES IDX 10 75 11 76 12 77 13 78 39 79 14 80 38 81 15 82 16 83 17 84
REMARK SMILES IDX 30 85 19 86 18 87 29 88 20 89 22 90 21 91 31 92 32 93 37 94
REMARK SMILES IDX 33 95 35 96 34 97 36 98 23 99 24 100 28 101 25 102 27 103
REMARK SMILES IDX 26 104
REMARK H PARENT 96 23 64 34
REMARK Flexibility Score: inf
ROOT
ATOM      1  C   UNL A   1      36.298  33.615  32.316  1.00  0.00     0.202 C 
ENDROOT
BRANCH   1   2
ATOM      2  C   UNL A   1      36.323  33.309  33.814  1.00  0.00     0.261 C 
BRANCH   2   3
ATOM      3  O   UNL A   1      36.724  31.959  34.105  1.00  0.00    -0.460 OA
BRANCH   3   4
ATOM      4  C   UNL A   1      37.785  31.567  34.846  1.00  0.00     0.338 C 
ATOM      5  O   UNL A   1      37.750  31.708  36.068  1.00  0.00    -0.246 OA
BRANCH   4   6
ATOM      6  C   UNL A   1      38.870  30.753  34.249  1.00  0.00     0.060 A 
ATOM      7  C   UNL A   1      40.047  30.372  34.888  1.00  0.00     0.016 A 
ATOM      8  C   UNL A   1      38.697  30.439  32.890  1.00  0.00     0.016 A 
ATOM      9  C   UNL A   1      41.131  29.961  34.136  1.00  0.00     0.010 A 
ATOM     10  C   UNL A   1      39.752  29.951  32.143  1.00  0.00     0.010 A 
ATOM     11  C   UNL A   1      40.989  29.810  32.757  1.00  0.00    -0.014 A 
BRANCH  11  12
ATOM     12  C   UNL A   1      42.127  29.298  32.016  1.00  0.00     0.031 A 
ATOM     13  C   UNL A   1      42.617  30.267  31.003  1.00  0.00     0.074 A 
ATOM     14  C   UNL A   1      42.707  28.115  32.299  1.00  0.00     0.049 A 
ATOM     15  N   UNL A   1      42.580  30.147  29.717  1.00  0.00    -0.248 NA
ATOM     16  C   UNL A   1      42.984  31.618  31.463  1.00  0.00     0.031 C 
ATOM     17  C   UNL A   1      42.442  27.239  33.445  1.00  0.00     0.029 A 
ATOM     18  N   UNL A   1      43.763  27.505  31.694  1.00  0.00    -0.354 N 
ATOM     19  C   UNL A   1      43.170  31.307  29.220  1.00  0.00     0.074 A 
ATOM     20  C   UNL A   1      43.181  32.249  30.304  1.00  0.00     0.031 C 
ATOM     21  C   UNL A   1      43.478  26.381  33.597  1.00  0.00     0.029 A 
ATOM     22  C   UNL A   1      44.402  26.558  32.493  1.00  0.00     0.049 A 
ATOM     23  H   UNL A   1      44.049  27.714  30.776  1.00  0.00     0.167 HD
ATOM     24  C   UNL A   1      43.861  31.284  28.048  1.00  0.00     0.034 A 
ATOM     25  C   UNL A   1      45.641  26.032  32.296  1.00  0.00     0.034 A 
ATOM     26  C   UNL A   1      43.500  30.127  27.266  1.00  0.00     0.049 A 
ATOM     27  C   UNL A   1      45.998  26.271  30.879  1.00  0.00     0.074 A 
ATOM     28  C   UNL A   1      42.324  29.640  26.732  1.00  0.00     0.029 A 
ATOM     29  N   UNL A   1      44.376  29.069  27.295  1.00  0.00    -0.354 N 
ATOM     30  N   UNL A   1      45.389  25.698  29.881  1.00  0.00    -0.248 NA
ATOM     31  C   UNL A   1      46.718  27.493  30.562  1.00  0.00     0.031 C 
ATOM     32  C   UNL A   1      42.399  28.228  26.910  1.00  0.00     0.029 A 
ATOM     33  C   UNL A   1      43.648  27.923  27.455  1.00  0.00     0.049 A 
ATOM     34  H   UNL A   1      45.355  29.125  27.215  1.00  0.00     0.167 HD
ATOM     35  C   UNL A   1      45.234  26.718  28.953  1.00  0.00     0.074 A 
ATOM     36  C   UNL A   1      46.161  27.768  29.379  1.00  0.00     0.031 C 
ATOM     37  C   UNL A   1      44.157  26.742  28.116  1.00  0.00     0.034 A 
BRANCH  24  38
ATOM     38  C   UNL A   1      45.161  32.029  27.802  1.00  0.00     0.023 A 
ATOM     39  C   UNL A   1      45.108  33.115  26.898  1.00  0.00     0.012 A 
ATOM     40  C   UNL A   1      46.448  31.560  28.155  1.00  0.00     0.148 A 
ATOM     41  C   UNL A   1      46.261  33.639  26.306  1.00  0.00     0.002 A 
ATOM     42  C   UNL A   1      47.597  32.129  27.618  1.00  0.00     0.091 A 
ATOM     43  F   UNL A   1      46.589  30.480  28.923  1.00  0.00    -0.205 F 
ATOM     44  C   UNL A   1      47.508  33.144  26.665  1.00  0.00     0.022 A 
BRANCH  42  45
ATOM     45  S   UNL A   1      49.241  31.558  28.074  1.00  0.00     0.127 S 
ATOM     46  O   UNL A   1      49.137  30.127  27.803  1.00  0.00    -0.237 OA
ATOM     47  O   UNL A   1      50.082  32.308  27.142  1.00  0.00    -0.237 OA
ATOM     48  O   UNL A   1      49.419  31.928  29.472  1.00  0.00    -0.744 OA
ENDBRANCH  42  45
ENDBRANCH  24  38
BRANCH  25  49
ATOM     49  C   UNL A   1      46.666  25.606  33.281  1.00  0.00     0.023 A 
ATOM     50  C   UNL A   1      47.591  26.548  33.781  1.00  0.00     0.012 A 
ATOM     51  C   UNL A   1      46.553  24.370  33.955  1.00  0.00     0.148 A 
ATOM     52  C   UNL A   1      48.349  26.283  34.930  1.00  0.00     0.002 A 
ATOM     53  C   UNL A   1      47.311  24.108  35.094  1.00  0.00     0.091 A 
ATOM     54  F   UNL A   1      45.633  23.491  33.538  1.00  0.00    -0.205 F 
ATOM     55  C   UNL A   1      48.202  25.067  35.592  1.00  0.00     0.022 A 
BRANCH  53  56
ATOM     56  S   UNL A   1      47.144  22.578  36.024  1.00  0.00     0.127 S 
ATOM     57  O   UNL A   1      47.486  21.573  35.015  1.00  0.00    -0.237 OA
ATOM     58  O   UNL A   1      48.142  22.754  37.075  1.00  0.00    -0.237 OA
ATOM     59  O   UNL A   1      45.758  22.532  36.469  1.00  0.00    -0.744 OA
ENDBRANCH  53  56
ENDBRANCH  25  49
BRANCH  37  60
ATOM     60  C   UNL A   1      43.297  25.510  28.026  1.00  0.00     0.023 A 
ATOM     61  C   UNL A   1      42.062  25.377  28.694  1.00  0.00     0.012 A 
ATOM     62  C   UNL A   1      43.675  24.531  27.092  1.00  0.00     0.148 A 
ATOM     63  C   UNL A   1      41.231  24.278  28.444  1.00  0.00     0.002 A 
ATOM     64  C   UNL A   1      42.825  23.473  26.809  1.00  0.00     0.091 A 
ATOM     65  F   UNL A   1      44.855  24.674  26.471  1.00  0.00    -0.205 F 
ATOM     66  C   UNL A   1      41.607  23.335  27.491  1.00  0.00     0.022 A 
BRANCH  64  67
ATOM     67  S   UNL A   1      43.203  22.312  25.497  1.00  0.00     0.127 S 
ATOM     68  O   UNL A   1      44.516  21.813  25.898  1.00  0.00    -0.237 OA
ATOM     69  O   UNL A   1      42.115  21.338  25.614  1.00  0.00    -0.237 OA
ATOM     70  O   UNL A   1      43.175  23.083  24.259  1.00  0.00    -0.744 OA
ENDBRANCH  64  67
ENDBRANCH  37  60
ENDBRANCH  11  12
ENDBRANCH   4   6
ENDBRANCH   3   4
ENDBRANCH   2   3
ENDBRANCH   1   2
BRANCH   1  71
ATOM     71  O   UNL A   1      37.453  34.227  31.753  1.00  0.00    -0.374 OA
BRANCH  71  72
ATOM     72  C   UNL A   1      37.691  33.992  30.361  1.00  0.00     0.202 C 
BRANCH  72  73
ATOM     73  C   UNL A   1      36.506  33.598  29.468  1.00  0.00     0.261 C 
BRANCH  73  74
ATOM     74  O   UNL A   1      36.827  32.563  28.512  1.00  0.00    -0.460 OA
BRANCH  74  75
ATOM     75  C   UNL A   1      36.585  31.300  28.943  1.00  0.00     0.338 C 
ATOM     76  O   UNL A   1      37.025  30.771  29.944  1.00  0.00    -0.246 OA
BRANCH  75  77
ATOM     77  C   UNL A   1      35.552  30.646  28.109  1.00  0.00     0.060 A 
ATOM     78  C   UNL A   1      34.363  31.348  27.900  1.00  0.00     0.018 A 
ATOM     79  C   UNL A   1      35.681  29.335  27.640  1.00  0.00     0.018 A 
ATOM     80  C   UNL A   1      33.291  30.727  27.259  1.00  0.00     0.027 A 
ATOM     81  C   UNL A   1      34.581  28.696  27.035  1.00  0.00     0.027 A 
ATOM     82  C   UNL A   1      33.375  29.383  26.863  1.00  0.00     0.045 A 
BRANCH  82  83
ATOM     83  N   UNL A   1      32.222  28.744  26.311  1.00  0.00    -0.299 N 
ATOM     84  C   UNL A   1      31.503  27.863  27.185  1.00  0.00     0.259 C 
ATOM     85  C   UNL A   1      32.302  28.168  24.942  1.00  0.00     0.152 C 
ATOM     86  C   UNL A   1      31.045  26.687  26.373  1.00  0.00     0.248 C 
ATOM     87  O   UNL A   1      31.325  28.011  28.386  1.00  0.00    -0.271 OA
ATOM     88  C   UNL A   1      32.095  26.753  25.328  1.00  0.00     0.021 C 
ATOM     89  N   UNL A   1      31.272  25.363  26.959  1.00  0.00    -0.170 NA
ATOM     90  C   UNL A   1      32.639  25.541  25.267  1.00  0.00     0.097 C 
ATOM     91  N   UNL A   1      32.069  24.716  26.220  1.00  0.00    -0.154 NA
BRANCH  85  92
ATOM     92  C   UNL A   1      31.181  28.628  23.982  1.00  0.00    -0.020 A 
ATOM     93  C   UNL A   1      30.862  27.882  22.816  1.00  0.00     0.006 A 
ATOM     94  C   UNL A   1      30.468  29.820  24.182  1.00  0.00     0.022 A 
ATOM     95  C   UNL A   1      29.847  28.256  21.936  1.00  0.00     0.002 A 
ATOM     96  C   UNL A   1      29.471  30.213  23.272  1.00  0.00     0.018 A 
ATOM     97  C   UNL A   1      29.148  29.430  22.162  1.00  0.00     0.016 A 
ATOM     98  Br  UNL A   1      28.551  31.849  23.519  1.00  0.00    -0.051 Br
ENDBRANCH  85  92
BRANCH  90  99
ATOM     99  C   UNL A   1      33.806  25.022  24.551  1.00  0.00     0.002 A 
ATOM    100  C   UNL A   1      33.673  24.460  23.274  1.00  0.00     0.010 A 
ATOM    101  C   UNL A   1      34.976  24.786  25.285  1.00  0.00     0.010 A 
ATOM    102  C   UNL A   1      34.654  23.584  22.793  1.00  0.00     0.001 A 
ATOM    103  C   UNL A   1      35.948  23.909  24.804  1.00  0.00     0.001 A 
ATOM    104  C   UNL A   1      35.771  23.283  23.572  1.00  0.00     0.000 A 
ENDBRANCH  90  99
ENDBRANCH  82  83
ENDBRANCH  75  77
ENDBRANCH  74  75
ENDBRANCH  73  74
ENDBRANCH  72  73
ENDBRANCH  71  72
ENDBRANCH   1  71
TORSDOF 20
ENDMDL
MODEL 3
REMARK VINA RESULT:      -8.8      9.297     14.023
REMARK SMILES O=C(OCCOCCOC(=O)c1ccc(N2C(=O)[C@@H]3N=NC(c4ccccc4)=C3[C@H]2c2cccc(Br)c2)cc1)c1ccc(-c2c3nc(c(-c4cccc(S(=O)(=O)[O-])c4F)c4ccc([nH]4)c(-c4cccc(S(=O)(=O)[O-])c4F)c4nc(c(-c5cccc(S(=O)(=O)[O-])c5F)c5ccc2[nH]5)C=C4)C=C3)cc1
REMARK SMILES IDX 5 1 4 2 3 3 2 4 1 5 40 6 41 7 102 8 42 9 101 10 43 11 44 12
REMARK SMILES IDX 45 13 95 14 46 15 100 16 94 17 96 18 47 19 99 20 93 21 92 22
REMARK SMILES IDX 48 24 80 25 60 26 79 27 61 28 64 29 78 30 97 31 62 32 63 33
REMARK SMILES IDX 77 35 98 36 65 37 49 38 50 39 58 40 51 41 53 42 59 43 52 44
REMARK SMILES IDX 54 45 55 46 56 47 57 48 81 49 82 50 90 51 83 52 85 53 91 54
REMARK SMILES IDX 84 55 86 56 87 57 88 58 89 59 66 60 67 61 75 62 68 63 70 64
REMARK SMILES IDX 76 65 69 66 71 67 72 68 73 69 74 70 6 71 7 72 8 73 9 74
REMARK SMILES IDX 10 75 11 76 12 77 13 78 39 79 14 80 38 81 15 82 16 83 17 84
REMARK SMILES IDX 30 85 19 86 18 87 29 88 20 89 22 90 21 91 31 92 32 93 37 94
REMARK SMILES IDX 33 95 35 96 34 97 36 98 23 99 24 100 28 101 25 102 27 103
REMARK SMILES IDX 26 104
REMARK H PARENT 96 23 64 34
REMARK Flexibility Score: inf
ROOT
ATOM      1  C   UNL A   1      45.951  40.508  30.303  1.00  0.00     0.202 C 
ENDROOT
BRANCH   1   2
ATOM      2  C   UNL A   1      45.097  39.942  29.169  1.00  0.00     0.261 C 
BRANCH   2   3
ATOM      3  O   UNL A   1      45.705  38.813  28.518  1.00  0.00    -0.460 OA
BRANCH   3   4
ATOM      4  C   UNL A   1      45.958  37.600  29.059  1.00  0.00     0.338 C 
ATOM      5  O   UNL A   1      47.084  37.355  29.488  1.00  0.00    -0.246 OA
BRANCH   4   6
ATOM      6  C   UNL A   1      44.853  36.660  29.367  1.00  0.00     0.060 A 
ATOM      7  C   UNL A   1      44.436  36.284  30.642  1.00  0.00     0.016 A 
ATOM      8  C   UNL A   1      44.264  36.049  28.247  1.00  0.00     0.016 A 
ATOM      9  C   UNL A   1      43.681  35.139  30.803  1.00  0.00     0.010 A 
ATOM     10  C   UNL A   1      43.442  34.950  28.399  1.00  0.00     0.010 A 
ATOM     11  C   UNL A   1      43.238  34.446  29.676  1.00  0.00    -0.014 A 
BRANCH  11  12
ATOM     12  C   UNL A   1      42.380  33.296  29.890  1.00  0.00     0.031 A 
ATOM     13  C   UNL A   1      41.020  33.690  30.342  1.00  0.00     0.074 A 
ATOM     14  C   UNL A   1      42.770  32.036  29.616  1.00  0.00     0.049 A 
ATOM     15  N   UNL A   1      40.478  33.464  31.492  1.00  0.00    -0.248 NA
ATOM     16  C   UNL A   1      40.262  34.633  29.501  1.00  0.00     0.031 C 
ATOM     17  C   UNL A   1      43.991  31.606  28.928  1.00  0.00     0.029 A 
ATOM     18  N   UNL A   1      42.087  30.868  29.772  1.00  0.00    -0.354 N 
ATOM     19  C   UNL A   1      39.200  34.016  31.413  1.00  0.00     0.074 A 
ATOM     20  C   UNL A   1      39.214  34.901  30.282  1.00  0.00     0.031 C 
ATOM     21  C   UNL A   1      43.830  30.336  28.490  1.00  0.00     0.029 A 
ATOM     22  C   UNL A   1      42.562  29.825  28.978  1.00  0.00     0.049 A 
ATOM     23  H   UNL A   1      41.326  30.770  30.389  1.00  0.00     0.167 HD
ATOM     24  C   UNL A   1      38.167  33.468  32.107  1.00  0.00     0.034 A 
ATOM     25  C   UNL A   1      41.911  28.670  28.679  1.00  0.00     0.034 A 
ATOM     26  C   UNL A   1      38.656  32.641  33.183  1.00  0.00     0.049 A 
ATOM     27  C   UNL A   1      40.840  28.497  29.687  1.00  0.00     0.074 A 
ATOM     28  C   UNL A   1      39.456  32.853  34.287  1.00  0.00     0.029 A 
ATOM     29  N   UNL A   1      38.652  31.285  32.965  1.00  0.00    -0.354 N 
ATOM     30  N   UNL A   1      41.073  28.263  30.947  1.00  0.00    -0.248 NA
ATOM     31  C   UNL A   1      39.529  29.046  29.380  1.00  0.00     0.031 C 
ATOM     32  C   UNL A   1      40.262  31.681  34.385  1.00  0.00     0.029 A 
ATOM     33  C   UNL A   1      39.849  30.785  33.397  1.00  0.00     0.049 A 
ATOM     34  H   UNL A   1      37.917  30.764  32.569  1.00  0.00     0.167 HD
ATOM     35  C   UNL A   1      40.167  29.074  31.613  1.00  0.00     0.074 A 
ATOM     36  C   UNL A   1      39.175  29.450  30.603  1.00  0.00     0.031 C 
ATOM     37  C   UNL A   1      40.472  29.610  32.830  1.00  0.00     0.034 A 
BRANCH  24  38
ATOM     38  C   UNL A   1      36.758  33.306  31.566  1.00  0.00     0.023 A 
ATOM     39  C   UNL A   1      36.576  32.341  30.549  1.00  0.00     0.012 A 
ATOM     40  C   UNL A   1      35.697  34.221  31.769  1.00  0.00     0.148 A 
ATOM     41  C   UNL A   1      35.449  32.345  29.720  1.00  0.00     0.002 A 
ATOM     42  C   UNL A   1      34.547  34.178  30.989  1.00  0.00     0.091 A 
ATOM     43  F   UNL A   1      35.823  35.222  32.639  1.00  0.00    -0.205 F 
ATOM     44  C   UNL A   1      34.433  33.267  29.939  1.00  0.00     0.022 A 
BRANCH  42  45
ATOM     45  S   UNL A   1      33.181  35.320  31.252  1.00  0.00     0.127 S 
ATOM     46  O   UNL A   1      33.886  36.591  31.389  1.00  0.00    -0.237 OA
ATOM     47  O   UNL A   1      32.423  35.160  30.012  1.00  0.00    -0.237 OA
ATOM     48  O   UNL A   1      32.487  34.847  32.443  1.00  0.00    -0.744 OA
ENDBRANCH  42  45
ENDBRANCH  24  38
BRANCH  25  49
ATOM     49  C   UNL A   1      41.932  27.854  27.440  1.00  0.00     0.023 A 
ATOM     50  C   UNL A   1      42.059  28.488  26.185  1.00  0.00     0.012 A 
ATOM     51  C   UNL A   1      42.133  26.457  27.496  1.00  0.00     0.148 A 
ATOM     52  C   UNL A   1      42.408  27.764  25.036  1.00  0.00     0.002 A 
ATOM     53  C   UNL A   1      42.476  25.740  26.352  1.00  0.00     0.091 A 
ATOM     54  F   UNL A   1      42.085  25.847  28.687  1.00  0.00    -0.205 F 
ATOM     55  C   UNL A   1      42.626  26.392  25.122  1.00  0.00     0.022 A 
BRANCH  53  56
ATOM     56  S   UNL A   1      42.812  23.974  26.394  1.00  0.00     0.127 S 
ATOM     57  O   UNL A   1      43.060  23.681  24.981  1.00  0.00    -0.237 OA
ATOM     58  O   UNL A   1      43.995  23.913  27.248  1.00  0.00    -0.237 OA
ATOM     59  O   UNL A   1      41.610  23.352  26.933  1.00  0.00    -0.744 OA
ENDBRANCH  53  56
ENDBRANCH  25  49
BRANCH  37  60
ATOM     60  C   UNL A   1      41.682  29.086  33.555  1.00  0.00     0.023 A 
ATOM     61  C   UNL A   1      42.888  29.808  33.672  1.00  0.00     0.012 A 
ATOM     62  C   UNL A   1      41.526  27.899  34.290  1.00  0.00     0.148 A 
ATOM     63  C   UNL A   1      43.921  29.343  34.493  1.00  0.00     0.002 A 
ATOM     64  C   UNL A   1      42.530  27.470  35.143  1.00  0.00     0.091 A 
ATOM     65  F   UNL A   1      40.372  27.226  34.162  1.00  0.00    -0.205 F 
ATOM     66  C   UNL A   1      43.735  28.181  35.241  1.00  0.00     0.022 A 
BRANCH  64  67
ATOM     67  S   UNL A   1      42.284  26.061  36.224  1.00  0.00     0.127 S 
ATOM     68  O   UNL A   1      43.441  26.151  37.112  1.00  0.00    -0.237 OA
ATOM     69  O   UNL A   1      41.000  26.369  36.856  1.00  0.00    -0.237 OA
ATOM     70  O   UNL A   1      42.250  24.891  35.354  1.00  0.00    -0.744 OA
ENDBRANCH  64  67
ENDBRANCH  37  60
ENDBRANCH  11  12
ENDBRANCH   4   6
ENDBRANCH   3   4
ENDBRANCH   2   3
ENDBRANCH   1   2
BRANCH   1  71
ATOM     71  O   UNL A   1      47.182  41.129  29.950  1.00  0.00    -0.374 OA
BRANCH  71  72
ATOM     72  C   UNL A   1      47.116  42.187  28.987  1.00  0.00     0.202 C 
BRANCH  72  73
ATOM     73  C   UNL A   1      46.538  43.542  29.420  1.00  0.00     0.261 C 
BRANCH  73  74
ATOM     74  O   UNL A   1      45.337  43.909  28.706  1.00  0.00    -0.460 OA
BRANCH  74  75
ATOM     75  C   UNL A   1      45.513  44.859  27.755  1.00  0.00     0.338 C 
ATOM     76  O   UNL A   1      45.800  46.026  27.929  1.00  0.00    -0.246 OA
BRANCH  75  77
ATOM     77  C   UNL A   1      45.471  44.264  26.400  1.00  0.00     0.060 A 
ATOM     78  C   UNL A   1      46.307  44.824  25.431  1.00  0.00     0.018 A 
ATOM     79  C   UNL A   1      44.558  43.266  26.043  1.00  0.00     0.018 A 
ATOM     80  C   UNL A   1      46.202  44.416  24.101  1.00  0.00     0.027 A 
ATOM     81  C   UNL A   1      44.422  42.892  24.691  1.00  0.00     0.027 A 
ATOM     82  C   UNL A   1      45.229  43.482  23.713  1.00  0.00     0.045 A 
BRANCH  82  83
ATOM     83  N   UNL A   1      45.073  43.170  22.327  1.00  0.00    -0.299 N 
ATOM     84  C   UNL A   1      45.921  42.135  21.809  1.00  0.00     0.259 C 
ATOM     85  C   UNL A   1      44.948  44.281  21.347  1.00  0.00     0.152 C 
ATOM     86  C   UNL A   1      46.339  42.539  20.425  1.00  0.00     0.248 C 
ATOM     87  O   UNL A   1      46.283  41.124  22.395  1.00  0.00    -0.271 OA
ATOM     88  C   UNL A   1      46.196  44.003  20.599  1.00  0.00     0.021 C 
ATOM     89  N   UNL A   1      47.763  42.400  20.108  1.00  0.00    -0.170 NA
ATOM     90  C   UNL A   1      47.351  44.541  20.217  1.00  0.00     0.097 C 
ATOM     91  N   UNL A   1      48.245  43.545  19.866  1.00  0.00    -0.154 NA
BRANCH  85  92
ATOM     92  C   UNL A   1      43.726  44.175  20.405  1.00  0.00    -0.020 A 
ATOM     93  C   UNL A   1      42.601  43.379  20.749  1.00  0.00     0.006 A 
ATOM     94  C   UNL A   1      43.691  44.810  19.154  1.00  0.00     0.022 A 
ATOM     95  C   UNL A   1      41.475  43.274  19.933  1.00  0.00     0.002 A 
ATOM     96  C   UNL A   1      42.568  44.669  18.318  1.00  0.00     0.018 A 
ATOM     97  C   UNL A   1      41.458  43.920  18.708  1.00  0.00     0.016 A 
ATOM     98  Br  UNL A   1      42.550  45.483  16.609  1.00  0.00    -0.051 Br
ENDBRANCH  85  92
BRANCH  90  99
ATOM     99  C   UNL A   1      47.875  45.905  20.297  1.00  0.00     0.002 A 
ATOM    100  C   UNL A   1      47.568  46.730  21.388  1.00  0.00     0.010 A 
ATOM    101  C   UNL A   1      48.394  46.480  19.129  1.00  0.00     0.010 A 
ATOM    102  C   UNL A   1      47.675  48.120  21.263  1.00  0.00     0.001 A 
ATOM    103  C   UNL A   1      48.495  47.866  19.007  1.00  0.00     0.001 A 
ATOM    104  C   UNL A   1      48.105  48.687  20.063  1.00  0.00     0.000 A 
ENDBRANCH  90  99
ENDBRANCH  82  83
ENDBRANCH  75  77
ENDBRANCH  74  75
ENDBRANCH  73  74
ENDBRANCH  72  73
ENDBRANCH  71  72
ENDBRANCH   1  71
TORSDOF 20
ENDMDL
