MODEL 1
REMARK VINA RESULT:     -10.0      0.000      0.000
REMARK SMILES Cc1cc(C)c2c(O[C@@H](C)C(=O)OCCOCCOC(=O)c3ccc(-c4c5nc(c(-c6cccc(S(=O)(=O)[O-])c6F)c6ccc([nH]6)c(-c6cccc(S(=O)(=O)[O-])c6F)c6nc(c(-c7cccc(S(=O)(=O)[O-])c7F)c7ccc4[nH]7)C=C6)C=C5)cc3)nsc2n1
REMARK SMILES IDX 17 1 16 2 15 3 14 4 13 5 11 6 12 7 9 8 10 9 8 10 7 11 1 12
REMARK SMILES IDX 2 13 3 14 88 15 4 16 87 17 5 18 6 19 86 20 85 21 18 22 19 23
REMARK SMILES IDX 20 24 21 25 22 26 23 27 84 28 24 29 83 30 25 31 26 32 27 33
REMARK SMILES IDX 77 34 28 35 82 36 76 37 78 38 29 39 81 40 75 41 74 42 30 44
REMARK SMILES IDX 62 45 42 46 61 47 43 48 46 49 60 50 79 51 44 52 45 53 59 55
REMARK SMILES IDX 80 56 47 57 31 58 32 59 40 60 33 61 35 62 41 63 34 64 36 65
REMARK SMILES IDX 37 66 38 67 39 68 63 69 64 70 72 71 65 72 67 73 73 74 66 75
REMARK SMILES IDX 68 76 69 77 70 78 71 79 48 80 49 81 57 82 50 83 52 84 58 85
REMARK SMILES IDX 51 86 53 87 54 88 55 89 56 90
REMARK H PARENT 78 43 46 54
REMARK Flexibility Score: inf
ROOT
ATOM      1  C   UNL A   1      33.720  34.860  28.549  1.00  0.00     0.202 C 
ENDROOT
BRANCH   1   2
ATOM      2  O   UNL A   1      33.029  34.656  29.775  1.00  0.00    -0.374 OA
BRANCH   2   3
ATOM      3  C   UNL A   1      32.759  35.778  30.614  1.00  0.00     0.202 C 
BRANCH   3   4
ATOM      4  C   UNL A   1      33.365  35.761  32.014  1.00  0.00     0.261 C 
BRANCH   4   5
ATOM      5  O   UNL A   1      34.518  34.907  32.100  1.00  0.00    -0.461 OA
BRANCH   5   6
ATOM      6  C   UNL A   1      34.507  33.967  33.084  1.00  0.00     0.347 C 
ATOM      7  O   UNL A   1      33.580  33.194  33.302  1.00  0.00    -0.248 OA
BRANCH   6   8
ATOM      8  C   UNL A   1      35.817  33.951  33.879  1.00  0.00     0.281 C 
ATOM      9  C   UNL A   1      37.002  34.631  33.196  1.00  0.00     0.066 C 
BRANCH   8  10
ATOM     10  O   UNL A   1      36.240  32.828  34.588  1.00  0.00    -0.462 OA
BRANCH  10  11
ATOM     11  C   UNL A   1      37.282  32.830  35.452  1.00  0.00     0.236 A 
ATOM     12  C   UNL A   1      42.472  31.033  36.908  1.00  0.00     0.067 C 
ATOM     13  C   UNL A   1      41.190  31.590  36.368  1.00  0.00     0.039 A 
ATOM     14  C   UNL A   1      40.958  31.625  35.006  1.00  0.00     0.027 A 
ATOM     15  N   UNL A   1      40.302  32.024  37.262  1.00  0.00    -0.240 NA
ATOM     16  C   UNL A   1      39.746  32.133  34.476  1.00  0.00    -0.034 A 
ATOM     17  C   UNL A   1      39.126  32.431  36.754  1.00  0.00     0.147 A 
ATOM     18  C   UNL A   1      39.774  32.256  32.974  1.00  0.00     0.045 C 
ATOM     19  C   UNL A   1      38.708  32.472  35.411  1.00  0.00     0.078 A 
ATOM     20  S   UNL A   1      37.922  33.017  37.795  1.00  0.00    -0.012 S 
ATOM     21  N   UNL A   1      36.784  33.192  36.634  1.00  0.00    -0.153 NA
ENDBRANCH  10  11
ENDBRANCH   8  10
ENDBRANCH   6   8
ENDBRANCH   5   6
ENDBRANCH   4   5
ENDBRANCH   3   4
ENDBRANCH   2   3
ENDBRANCH   1   2
BRANCH   1  22
ATOM     22  C   UNL A   1      35.213  34.550  28.472  1.00  0.00     0.261 C 
BRANCH  22  23
ATOM     23  O   UNL A   1      35.635  33.439  29.245  1.00  0.00    -0.460 OA
BRANCH  23  24
ATOM     24  C   UNL A   1      36.069  32.417  28.471  1.00  0.00     0.338 C 
ATOM     25  O   UNL A   1      35.608  32.063  27.398  1.00  0.00    -0.246 OA
BRANCH  24  26
ATOM     26  C   UNL A   1      37.081  31.651  29.196  1.00  0.00     0.060 A 
ATOM     27  C   UNL A   1      38.310  32.279  29.408  1.00  0.00     0.016 A 
ATOM     28  C   UNL A   1      36.905  30.271  29.370  1.00  0.00     0.016 A 
ATOM     29  C   UNL A   1      39.414  31.490  29.640  1.00  0.00     0.010 A 
ATOM     30  C   UNL A   1      38.008  29.485  29.597  1.00  0.00     0.010 A 
ATOM     31  C   UNL A   1      39.255  30.101  29.655  1.00  0.00    -0.014 A 
BRANCH  31  32
ATOM     32  C   UNL A   1      40.446  29.294  29.807  1.00  0.00     0.031 A 
ATOM     33  C   UNL A   1      40.755  28.966  31.212  1.00  0.00     0.074 A 
ATOM     34  C   UNL A   1      41.140  28.832  28.752  1.00  0.00     0.049 A 
ATOM     35  N   UNL A   1      41.770  29.364  31.902  1.00  0.00    -0.248 NA
ATOM     36  C   UNL A   1      39.728  28.261  31.990  1.00  0.00     0.031 C 
ATOM     37  C   UNL A   1      40.761  28.880  27.337  1.00  0.00     0.029 A 
ATOM     38  N   UNL A   1      42.279  28.091  28.747  1.00  0.00    -0.354 N 
ATOM     39  C   UNL A   1      41.623  28.761  33.148  1.00  0.00     0.074 A 
ATOM     40  C   UNL A   1      40.268  28.286  33.209  1.00  0.00     0.031 C 
ATOM     41  C   UNL A   1      41.517  27.993  26.651  1.00  0.00     0.029 A 
ATOM     42  C   UNL A   1      42.502  27.420  27.551  1.00  0.00     0.049 A 
ATOM     43  H   UNL A   1      42.890  28.036  29.517  1.00  0.00     0.167 HD
ATOM     44  C   UNL A   1      42.709  28.476  33.915  1.00  0.00     0.034 A 
ATOM     45  C   UNL A   1      43.380  26.406  27.355  1.00  0.00     0.034 A 
ATOM     46  C   UNL A   1      43.859  29.236  33.488  1.00  0.00     0.049 A 
ATOM     47  C   UNL A   1      44.381  26.476  28.447  1.00  0.00     0.074 A 
ATOM     48  C   UNL A   1      44.146  30.581  33.367  1.00  0.00     0.029 A 
ATOM     49  N   UNL A   1      44.808  28.573  32.747  1.00  0.00    -0.354 N 
ATOM     50  N   UNL A   1      45.261  27.431  28.561  1.00  0.00    -0.248 NA
ATOM     51  C   UNL A   1      44.149  25.694  29.652  1.00  0.00     0.031 C 
ATOM     52  C   UNL A   1      44.976  30.681  32.214  1.00  0.00     0.029 A 
ATOM     53  C   UNL A   1      45.193  29.392  31.721  1.00  0.00     0.049 A 
ATOM     54  H   UNL A   1      45.150  27.667  32.923  1.00  0.00     0.167 HD
ATOM     55  C   UNL A   1      45.339  27.667  29.927  1.00  0.00     0.074 A 
ATOM     56  C   UNL A   1      44.745  26.485  30.548  1.00  0.00     0.031 C 
ATOM     57  C   UNL A   1      45.599  28.917  30.413  1.00  0.00     0.034 A 
BRANCH  44  58
ATOM     58  C   UNL A   1      42.850  27.244  34.787  1.00  0.00     0.023 A 
ATOM     59  C   UNL A   1      42.731  27.439  36.182  1.00  0.00     0.012 A 
ATOM     60  C   UNL A   1      43.356  25.993  34.364  1.00  0.00     0.148 A 
ATOM     61  C   UNL A   1      43.176  26.485  37.102  1.00  0.00     0.002 A 
ATOM     62  C   UNL A   1      43.723  25.015  35.281  1.00  0.00     0.091 A 
ATOM     63  F   UNL A   1      43.613  25.761  33.076  1.00  0.00    -0.205 F 
ATOM     64  C   UNL A   1      43.673  25.271  36.651  1.00  0.00     0.022 A 
BRANCH  62  65
ATOM     65  S   UNL A   1      44.314  23.401  34.748  1.00  0.00     0.127 S 
ATOM     66  O   UNL A   1      43.164  22.902  33.998  1.00  0.00    -0.237 OA
ATOM     67  O   UNL A   1      45.475  23.762  33.935  1.00  0.00    -0.237 OA
ATOM     68  O   UNL A   1      44.645  22.679  35.970  1.00  0.00    -0.744 OA
ENDBRANCH  62  65
ENDBRANCH  44  58
BRANCH  45  69
ATOM     69  C   UNL A   1      43.308  25.251  26.429  1.00  0.00     0.023 A 
ATOM     70  C   UNL A   1      44.194  25.187  25.335  1.00  0.00     0.012 A 
ATOM     71  C   UNL A   1      42.570  24.091  26.755  1.00  0.00     0.148 A 
ATOM     72  C   UNL A   1      44.368  24.000  24.614  1.00  0.00     0.002 A 
ATOM     73  C   UNL A   1      42.740  22.915  26.030  1.00  0.00     0.091 A 
ATOM     74  F   UNL A   1      41.773  24.110  27.831  1.00  0.00    -0.205 F 
ATOM     75  C   UNL A   1      43.648  22.863  24.967  1.00  0.00     0.022 A 
BRANCH  73  76
ATOM     76  S   UNL A   1      41.867  21.398  26.445  1.00  0.00     0.127 S 
ATOM     77  O   UNL A   1      40.485  21.742  26.111  1.00  0.00    -0.237 OA
ATOM     78  O   UNL A   1      42.494  20.436  25.543  1.00  0.00    -0.237 OA
ATOM     79  O   UNL A   1      42.102  21.179  27.867  1.00  0.00    -0.744 OA
ENDBRANCH  73  76
ENDBRANCH  45  69
BRANCH  57  80
ATOM     80  C   UNL A   1      46.059  29.985  29.447  1.00  0.00     0.023 A 
ATOM     81  C   UNL A   1      47.418  30.143  29.106  1.00  0.00     0.012 A 
ATOM     82  C   UNL A   1      45.089  30.674  28.700  1.00  0.00     0.148 A 
ATOM     83  C   UNL A   1      47.802  30.974  28.049  1.00  0.00     0.002 A 
ATOM     84  C   UNL A   1      45.468  31.450  27.611  1.00  0.00     0.091 A 
ATOM     85  F   UNL A   1      43.799  30.516  29.036  1.00  0.00    -0.205 F 
ATOM     86  C   UNL A   1      46.825  31.611  27.288  1.00  0.00     0.022 A 
BRANCH  84  87
ATOM     87  S   UNL A   1      44.257  32.157  26.490  1.00  0.00     0.127 S 
ATOM     88  O   UNL A   1      45.085  32.547  25.350  1.00  0.00    -0.237 OA
ATOM     89  O   UNL A   1      43.363  31.025  26.238  1.00  0.00    -0.237 OA
ATOM     90  O   UNL A   1      43.632  33.256  27.215  1.00  0.00    -0.744 OA
ENDBRANCH  84  87
ENDBRANCH  57  80
ENDBRANCH  31  32
ENDBRANCH  24  26
ENDBRANCH  23  24
ENDBRANCH  22  23
ENDBRANCH   1  22
TORSDOF 19
ENDMDL
MODEL 2
REMARK VINA RESULT:      -9.7      5.013     10.434
REMARK SMILES Cc1cc(C)c2c(O[C@@H](C)C(=O)OCCOCCOC(=O)c3ccc(-c4c5nc(c(-c6cccc(S(=O)(=O)[O-])c6F)c6ccc([nH]6)c(-c6cccc(S(=O)(=O)[O-])c6F)c6nc(c(-c7cccc(S(=O)(=O)[O-])c7F)c7ccc4[nH]7)C=C6)C=C5)cc3)nsc2n1
REMARK SMILES IDX 17 1 16 2 15 3 14 4 13 5 11 6 12 7 9 8 10 9 8 10 7 11 1 12
REMARK SMILES IDX 2 13 3 14 88 15 4 16 87 17 5 18 6 19 86 20 85 21 18 22 19 23
REMARK SMILES IDX 20 24 21 25 22 26 23 27 84 28 24 29 83 30 25 31 26 32 27 33
REMARK SMILES IDX 77 34 28 35 82 36 76 37 78 38 29 39 81 40 75 41 74 42 30 44
REMARK SMILES IDX 62 45 42 46 61 47 43 48 46 49 60 50 79 51 44 52 45 53 59 55
REMARK SMILES IDX 80 56 47 57 31 58 32 59 40 60 33 61 35 62 41 63 34 64 36 65
REMARK SMILES IDX 37 66 38 67 39 68 63 69 64 70 72 71 65 72 67 73 73 74 66 75
REMARK SMILES IDX 68 76 69 77 70 78 71 79 48 80 49 81 57 82 50 83 52 84 58 85
REMARK SMILES IDX 51 86 53 87 54 88 55 89 56 90
REMARK H PARENT 78 43 46 54
REMARK Flexibility Score: inf
ROOT
ATOM      1  C   UNL A   1      38.301  20.345  25.048  1.00  0.00     0.202 C 
ENDROOT
BRANCH   1   2
ATOM      2  O   UNL A   1      37.101  21.064  25.299  1.00  0.00    -0.374 OA
BRANCH   2   3
ATOM      3  C   UNL A   1      37.007  22.425  24.880  1.00  0.00     0.202 C 
BRANCH   3   4
ATOM      4  C   UNL A   1      35.613  23.041  24.825  1.00  0.00     0.261 C 
BRANCH   4   5
ATOM      5  O   UNL A   1      34.950  22.784  23.576  1.00  0.00    -0.461 OA
BRANCH   5   6
ATOM      6  C   UNL A   1      33.801  22.057  23.635  1.00  0.00     0.347 C 
ATOM      7  O   UNL A   1      33.632  21.072  24.346  1.00  0.00    -0.248 OA
BRANCH   6   8
ATOM      8  C   UNL A   1      32.707  22.637  22.732  1.00  0.00     0.281 C 
ATOM      9  C   UNL A   1      33.159  23.761  21.801  1.00  0.00     0.066 C 
BRANCH   8  10
ATOM     10  O   UNL A   1      31.413  22.875  23.194  1.00  0.00    -0.462 OA
BRANCH  10  11
ATOM     11  C   UNL A   1      31.129  23.607  24.296  1.00  0.00     0.236 A 
ATOM     12  C   UNL A   1      31.614  28.430  27.262  1.00  0.00     0.067 C 
ATOM     13  C   UNL A   1      31.394  27.266  26.344  1.00  0.00     0.039 A 
ATOM     14  C   UNL A   1      31.481  27.425  24.974  1.00  0.00     0.027 A 
ATOM     15  N   UNL A   1      31.130  26.093  26.917  1.00  0.00    -0.240 NA
ATOM     16  C   UNL A   1      31.291  26.335  24.089  1.00  0.00    -0.034 A 
ATOM     17  C   UNL A   1      31.029  25.050  26.075  1.00  0.00     0.147 A 
ATOM     18  C   UNL A   1      31.240  26.760  22.644  1.00  0.00     0.045 C 
ATOM     19  C   UNL A   1      31.153  25.029  24.673  1.00  0.00     0.078 A 
ATOM     20  S   UNL A   1      30.684  23.508  26.690  1.00  0.00    -0.012 S 
ATOM     21  N   UNL A   1      30.833  22.733  25.257  1.00  0.00    -0.153 NA
ENDBRANCH  10  11
ENDBRANCH   8  10
ENDBRANCH   6   8
ENDBRANCH   5   6
ENDBRANCH   4   5
ENDBRANCH   3   4
ENDBRANCH   2   3
ENDBRANCH   1   2
BRANCH   1  22
ATOM     22  C   UNL A   1      39.572  20.726  25.803  1.00  0.00     0.261 C 
BRANCH  22  23
ATOM     23  O   UNL A   1      40.393  19.635  26.186  1.00  0.00    -0.460 OA
BRANCH  23  24
ATOM     24  C   UNL A   1      41.683  19.817  25.818  1.00  0.00     0.338 C 
ATOM     25  O   UNL A   1      42.338  19.111  25.070  1.00  0.00    -0.246 OA
BRANCH  24  26
ATOM     26  C   UNL A   1      42.264  20.904  26.604  1.00  0.00     0.060 A 
ATOM     27  C   UNL A   1      41.909  20.963  27.953  1.00  0.00     0.016 A 
ATOM     28  C   UNL A   1      42.877  21.978  25.943  1.00  0.00     0.016 A 
ATOM     29  C   UNL A   1      42.020  22.170  28.604  1.00  0.00     0.010 A 
ATOM     30  C   UNL A   1      42.984  23.183  26.594  1.00  0.00     0.010 A 
ATOM     31  C   UNL A   1      42.486  23.278  27.890  1.00  0.00    -0.014 A 
BRANCH  31  32
ATOM     32  C   UNL A   1      42.504  24.553  28.572  1.00  0.00     0.031 A 
ATOM     33  C   UNL A   1      41.316  25.383  28.293  1.00  0.00     0.074 A 
ATOM     34  C   UNL A   1      43.479  24.892  29.435  1.00  0.00     0.049 A 
ATOM     35  N   UNL A   1      41.279  26.504  27.655  1.00  0.00    -0.248 NA
ATOM     36  C   UNL A   1      39.998  24.816  28.605  1.00  0.00     0.031 C 
ATOM     37  C   UNL A   1      44.539  24.036  29.972  1.00  0.00     0.029 A 
ATOM     38  N   UNL A   1      43.635  26.054  30.122  1.00  0.00    -0.354 N 
ATOM     39  C   UNL A   1      39.944  26.899  27.687  1.00  0.00     0.074 A 
ATOM     40  C   UNL A   1      39.192  25.740  28.083  1.00  0.00     0.031 C 
ATOM     41  C   UNL A   1      45.064  24.626  31.070  1.00  0.00     0.029 A 
ATOM     42  C   UNL A   1      44.465  25.940  31.229  1.00  0.00     0.049 A 
ATOM     43  H   UNL A   1      43.200  26.898  29.859  1.00  0.00     0.167 HD
ATOM     44  C   UNL A   1      39.608  28.215  27.641  1.00  0.00     0.034 A 
ATOM     45  C   UNL A   1      44.576  26.834  32.241  1.00  0.00     0.034 A 
ATOM     46  C   UNL A   1      40.700  29.012  27.135  1.00  0.00     0.049 A 
ATOM     47  C   UNL A   1      44.070  28.133  31.735  1.00  0.00     0.074 A 
ATOM     48  C   UNL A   1      41.428  29.032  25.963  1.00  0.00     0.029 A 
ATOM     49  N   UNL A   1      41.430  29.727  28.053  1.00  0.00    -0.354 N 
ATOM     50  N   UNL A   1      44.679  28.842  30.826  1.00  0.00    -0.248 NA
ATOM     51  C   UNL A   1      42.669  28.462  31.947  1.00  0.00     0.031 C 
ATOM     52  C   UNL A   1      42.753  29.377  26.355  1.00  0.00     0.029 A 
ATOM     53  C   UNL A   1      42.754  29.598  27.735  1.00  0.00     0.049 A 
ATOM     54  H   UNL A   1      41.065  30.242  28.808  1.00  0.00     0.167 HD
ATOM     55  C   UNL A   1      43.653  29.361  30.048  1.00  0.00     0.074 A 
ATOM     56  C   UNL A   1      42.449  29.209  30.862  1.00  0.00     0.031 C 
ATOM     57  C   UNL A   1      43.826  29.583  28.711  1.00  0.00     0.034 A 
BRANCH  44  58
ATOM     58  C   UNL A   1      38.456  28.838  28.403  1.00  0.00     0.023 A 
ATOM     59  C   UNL A   1      37.518  29.575  27.643  1.00  0.00     0.012 A 
ATOM     60  C   UNL A   1      38.385  28.983  29.808  1.00  0.00     0.148 A 
ATOM     61  C   UNL A   1      36.628  30.473  28.238  1.00  0.00     0.002 A 
ATOM     62  C   UNL A   1      37.444  29.818  30.402  1.00  0.00     0.091 A 
ATOM     63  F   UNL A   1      39.300  28.421  30.599  1.00  0.00    -0.205 F 
ATOM     64  C   UNL A   1      36.590  30.595  29.620  1.00  0.00     0.022 A 
BRANCH  62  65
ATOM     65  S   UNL A   1      37.312  29.962  32.190  1.00  0.00     0.127 S 
ATOM     66  O   UNL A   1      37.182  28.563  32.588  1.00  0.00    -0.237 OA
ATOM     67  O   UNL A   1      38.589  30.588  32.533  1.00  0.00    -0.237 OA
ATOM     68  O   UNL A   1      36.150  30.808  32.433  1.00  0.00    -0.744 OA
ENDBRANCH  62  65
ENDBRANCH  44  58
BRANCH  45  69
ATOM     69  C   UNL A   1      44.883  26.615  33.674  1.00  0.00     0.023 A 
ATOM     70  C   UNL A   1      46.183  26.876  34.150  1.00  0.00     0.012 A 
ATOM     71  C   UNL A   1      43.855  26.415  34.623  1.00  0.00     0.148 A 
ATOM     72  C   UNL A   1      46.446  26.971  35.522  1.00  0.00     0.002 A 
ATOM     73  C   UNL A   1      44.123  26.501  35.987  1.00  0.00     0.091 A 
ATOM     74  F   UNL A   1      42.600  26.232  34.193  1.00  0.00    -0.205 F 
ATOM     75  C   UNL A   1      45.414  26.792  36.439  1.00  0.00     0.022 A 
BRANCH  73  76
ATOM     76  S   UNL A   1      42.836  26.311  37.231  1.00  0.00     0.127 S 
ATOM     77  O   UNL A   1      41.937  27.418  36.909  1.00  0.00    -0.237 OA
ATOM     78  O   UNL A   1      42.312  24.984  36.917  1.00  0.00    -0.237 OA
ATOM     79  O   UNL A   1      43.505  26.438  38.519  1.00  0.00    -0.744 OA
ENDBRANCH  73  76
ENDBRANCH  45  69
BRANCH  57  80
ATOM     80  C   UNL A   1      45.224  29.506  28.141  1.00  0.00     0.023 A 
ATOM     81  C   UNL A   1      46.114  30.598  28.206  1.00  0.00     0.012 A 
ATOM     82  C   UNL A   1      45.721  28.250  27.755  1.00  0.00     0.148 A 
ATOM     83  C   UNL A   1      47.465  30.444  27.886  1.00  0.00     0.002 A 
ATOM     84  C   UNL A   1      47.076  28.085  27.497  1.00  0.00     0.091 A 
ATOM     85  F   UNL A   1      44.863  27.219  27.695  1.00  0.00    -0.205 F 
ATOM     86  C   UNL A   1      47.951  29.182  27.552  1.00  0.00     0.022 A 
BRANCH  84  87
ATOM     87  S   UNL A   1      47.794  26.462  27.229  1.00  0.00     0.127 S 
ATOM     88  O   UNL A   1      47.201  26.071  25.952  1.00  0.00    -0.237 OA
ATOM     89  O   UNL A   1      49.227  26.757  27.175  1.00  0.00    -0.237 OA
ATOM     90  O   UNL A   1      47.399  25.654  28.376  1.00  0.00    -0.744 OA
ENDBRANCH  84  87
ENDBRANCH  57  80
ENDBRANCH  31  32
ENDBRANCH  24  26
ENDBRANCH  23  24
ENDBRANCH  22  23
ENDBRANCH   1  22
TORSDOF 19
ENDMDL
MODEL 3
REMARK VINA RESULT:      -9.7      1.933      2.374
REMARK SMILES Cc1cc(C)c2c(O[C@@H](C)C(=O)OCCOCCOC(=O)c3ccc(-c4c5nc(c(-c6cccc(S(=O)(=O)[O-])c6F)c6ccc([nH]6)c(-c6cccc(S(=O)(=O)[O-])c6F)c6nc(c(-c7cccc(S(=O)(=O)[O-])c7F)c7ccc4[nH]7)C=C6)C=C5)cc3)nsc2n1
REMARK SMILES IDX 17 1 16 2 15 3 14 4 13 5 11 6 12 7 9 8 10 9 8 10 7 11 1 12
REMARK SMILES IDX 2 13 3 14 88 15 4 16 87 17 5 18 6 19 86 20 85 21 18 22 19 23
REMARK SMILES IDX 20 24 21 25 22 26 23 27 84 28 24 29 83 30 25 31 26 32 27 33
REMARK SMILES IDX 77 34 28 35 82 36 76 37 78 38 29 39 81 40 75 41 74 42 30 44
REMARK SMILES IDX 62 45 42 46 61 47 43 48 46 49 60 50 79 51 44 52 45 53 59 55
REMARK SMILES IDX 80 56 47 57 31 58 32 59 40 60 33 61 35 62 41 63 34 64 36 65
REMARK SMILES IDX 37 66 38 67 39 68 63 69 64 70 72 71 65 72 67 73 73 74 66 75
REMARK SMILES IDX 68 76 69 77 70 78 71 79 48 80 49 81 57 82 50 83 52 84 58 85
REMARK SMILES IDX 51 86 53 87 54 88 55 89 56 90
REMARK H PARENT 78 43 46 54
REMARK Flexibility Score: inf
ROOT
ATOM      1  C   UNL A   1      33.254  35.638  28.799  1.00  0.00     0.202 C 
ENDROOT
BRANCH   1   2
ATOM      2  O   UNL A   1      32.547  35.420  30.013  1.00  0.00    -0.374 OA
BRANCH   2   3
ATOM      3  C   UNL A   1      33.017  36.037  31.211  1.00  0.00     0.202 C 
BRANCH   3   4
ATOM      4  C   UNL A   1      33.090  35.165  32.460  1.00  0.00     0.261 C 
BRANCH   4   5
ATOM      5  O   UNL A   1      34.425  34.706  32.729  1.00  0.00    -0.461 OA
BRANCH   5   6
ATOM      6  C   UNL A   1      34.653  33.373  32.573  1.00  0.00     0.347 C 
ATOM      7  O   UNL A   1      33.994  32.630  31.854  1.00  0.00    -0.248 OA
BRANCH   6   8
ATOM      8  C   UNL A   1      35.869  32.899  33.376  1.00  0.00     0.281 C 
ATOM      9  C   UNL A   1      36.430  31.539  32.966  1.00  0.00     0.066 C 
BRANCH   8  10
ATOM     10  O   UNL A   1      35.958  33.069  34.757  1.00  0.00    -0.462 OA
BRANCH  10  11
ATOM     11  C   UNL A   1      37.096  33.416  35.402  1.00  0.00     0.236 A 
ATOM     12  C   UNL A   1      42.755  33.920  35.476  1.00  0.00     0.067 C 
ATOM     13  C   UNL A   1      41.266  33.920  35.311  1.00  0.00     0.039 A 
ATOM     14  C   UNL A   1      40.697  34.028  34.056  1.00  0.00     0.027 A 
ATOM     15  N   UNL A   1      40.541  33.794  36.421  1.00  0.00    -0.240 NA
ATOM     16  C   UNL A   1      39.292  34.015  33.877  1.00  0.00    -0.034 A 
ATOM     17  C   UNL A   1      39.212  33.704  36.235  1.00  0.00     0.147 A 
ATOM     18  C   UNL A   1      38.882  34.336  32.463  1.00  0.00     0.045 C 
ATOM     19  C   UNL A   1      38.483  33.733  35.031  1.00  0.00     0.078 A 
ATOM     20  S   UNL A   1      38.186  33.554  37.577  1.00  0.00    -0.012 S 
ATOM     21  N   UNL A   1      36.816  33.361  36.704  1.00  0.00    -0.153 NA
ENDBRANCH  10  11
ENDBRANCH   8  10
ENDBRANCH   6   8
ENDBRANCH   5   6
ENDBRANCH   4   5
ENDBRANCH   3   4
ENDBRANCH   2   3
ENDBRANCH   1   2
BRANCH   1  22
ATOM     22  C   UNL A   1      33.898  34.452  28.086  1.00  0.00     0.261 C 
BRANCH  22  23
ATOM     23  O   UNL A   1      34.682  33.608  28.914  1.00  0.00    -0.460 OA
BRANCH  23  24
ATOM     24  C   UNL A   1      35.051  32.473  28.277  1.00  0.00     0.338 C 
ATOM     25  O   UNL A   1      34.511  31.967  27.307  1.00  0.00    -0.246 OA
BRANCH  24  26
ATOM     26  C   UNL A   1      36.110  31.810  29.037  1.00  0.00     0.060 A 
ATOM     27  C   UNL A   1      37.204  32.594  29.405  1.00  0.00     0.016 A 
ATOM     28  C   UNL A   1      36.138  30.409  29.096  1.00  0.00     0.016 A 
ATOM     29  C   UNL A   1      38.395  31.964  29.682  1.00  0.00     0.010 A 
ATOM     30  C   UNL A   1      37.330  29.781  29.368  1.00  0.00     0.010 A 
ATOM     31  C   UNL A   1      38.456  30.570  29.584  1.00  0.00    -0.014 A 
BRANCH  31  32
ATOM     32  C   UNL A   1      39.742  29.941  29.788  1.00  0.00     0.031 A 
ATOM     33  C   UNL A   1      40.248  30.080  31.167  1.00  0.00     0.074 A 
ATOM     34  C   UNL A   1      40.358  29.236  28.823  1.00  0.00     0.049 A 
ATOM     35  N   UNL A   1      41.283  30.745  31.557  1.00  0.00    -0.248 NA
ATOM     36  C   UNL A   1      39.408  29.567  32.258  1.00  0.00     0.031 C 
ATOM     37  C   UNL A   1      39.814  28.823  27.526  1.00  0.00     0.029 A 
ATOM     38  N   UNL A   1      41.568  28.619  28.867  1.00  0.00    -0.354 N 
ATOM     39  C   UNL A   1      41.354  30.539  32.931  1.00  0.00     0.074 A 
ATOM     40  C   UNL A   1      40.080  30.002  33.324  1.00  0.00     0.031 C 
ATOM     41  C   UNL A   1      40.584  27.832  27.025  1.00  0.00     0.029 A 
ATOM     42  C   UNL A   1      41.727  27.635  27.899  1.00  0.00     0.049 A 
ATOM     43  H   UNL A   1      42.266  28.846  29.523  1.00  0.00     0.167 HD
ATOM     44  C   UNL A   1      42.548  30.583  33.580  1.00  0.00     0.034 A 
ATOM     45  C   UNL A   1      42.688  26.680  27.879  1.00  0.00     0.034 A 
ATOM     46  C   UNL A   1      43.544  31.264  32.788  1.00  0.00     0.049 A 
ATOM     47  C   UNL A   1      43.794  27.154  28.745  1.00  0.00     0.074 A 
ATOM     48  C   UNL A   1      43.656  32.527  32.242  1.00  0.00     0.029 A 
ATOM     49  N   UNL A   1      44.471  30.483  32.141  1.00  0.00    -0.354 N 
ATOM     50  N   UNL A   1      44.564  28.164  28.448  1.00  0.00    -0.248 NA
ATOM     51  C   UNL A   1      43.798  26.760  30.146  1.00  0.00     0.031 C 
ATOM     52  C   UNL A   1      44.328  32.336  31.001  1.00  0.00     0.029 A 
ATOM     53  C   UNL A   1      44.636  30.979  30.877  1.00  0.00     0.049 A 
ATOM     54  H   UNL A   1      44.934  29.702  32.521  1.00  0.00     0.167 HD
ATOM     55  C   UNL A   1      44.773  28.808  29.660  1.00  0.00     0.074 A 
ATOM     56  C   UNL A   1      44.397  27.829  30.677  1.00  0.00     0.031 C 
ATOM     57  C   UNL A   1      44.939  30.163  29.719  1.00  0.00     0.034 A 
BRANCH  44  58
ATOM     58  C   UNL A   1      42.932  29.689  34.742  1.00  0.00     0.023 A 
ATOM     59  C   UNL A   1      43.588  30.310  35.829  1.00  0.00     0.012 A 
ATOM     60  C   UNL A   1      42.945  28.275  34.719  1.00  0.00     0.148 A 
ATOM     61  C   UNL A   1      44.296  29.573  36.784  1.00  0.00     0.002 A 
ATOM     62  C   UNL A   1      43.582  27.542  35.714  1.00  0.00     0.091 A 
ATOM     63  F   UNL A   1      42.455  27.605  33.675  1.00  0.00    -0.205 F 
ATOM     64  C   UNL A   1      44.292  28.186  36.727  1.00  0.00     0.022 A 
BRANCH  62  65
ATOM     65  S   UNL A   1      43.553  25.743  35.721  1.00  0.00     0.127 S 
ATOM     66  O   UNL A   1      44.400  25.433  34.572  1.00  0.00    -0.237 OA
ATOM     67  O   UNL A   1      44.143  25.441  37.025  1.00  0.00    -0.237 OA
ATOM     68  O   UNL A   1      42.149  25.371  35.602  1.00  0.00    -0.744 OA
ENDBRANCH  62  65
ENDBRANCH  44  58
BRANCH  45  69
ATOM     69  C   UNL A   1      42.644  25.297  27.348  1.00  0.00     0.023 A 
ATOM     70  C   UNL A   1      41.446  24.561  27.436  1.00  0.00     0.012 A 
ATOM     71  C   UNL A   1      43.674  24.794  26.522  1.00  0.00     0.148 A 
ATOM     72  C   UNL A   1      41.264  23.384  26.700  1.00  0.00     0.002 A 
ATOM     73  C   UNL A   1      43.492  23.619  25.798  1.00  0.00     0.091 A 
ATOM     74  F   UNL A   1      44.795  25.511  26.371  1.00  0.00    -0.205 F 
ATOM     75  C   UNL A   1      42.283  22.919  25.875  1.00  0.00     0.022 A 
BRANCH  73  76
ATOM     76  S   UNL A   1      44.752  22.971  24.689  1.00  0.00     0.127 S 
ATOM     77  O   UNL A   1      45.465  22.032  25.555  1.00  0.00    -0.237 OA
ATOM     78  O   UNL A   1      43.941  22.348  23.646  1.00  0.00    -0.237 OA
ATOM     79  O   UNL A   1      45.545  24.120  24.272  1.00  0.00    -0.744 OA
ENDBRANCH  73  76
ENDBRANCH  45  69
BRANCH  57  80
ATOM     80  C   UNL A   1      45.156  30.920  28.428  1.00  0.00     0.023 A 
ATOM     81  C   UNL A   1      44.077  31.409  27.664  1.00  0.00     0.012 A 
ATOM     82  C   UNL A   1      46.458  31.345  28.113  1.00  0.00     0.148 A 
ATOM     83  C   UNL A   1      44.290  32.296  26.604  1.00  0.00     0.002 A 
ATOM     84  C   UNL A   1      46.661  32.275  27.099  1.00  0.00     0.091 A 
ATOM     85  F   UNL A   1      47.476  30.871  28.847  1.00  0.00    -0.205 F 
ATOM     86  C   UNL A   1      45.581  32.745  26.335  1.00  0.00     0.022 A 
BRANCH  84  87
ATOM     87  S   UNL A   1      48.269  33.021  26.814  1.00  0.00     0.127 S 
ATOM     88  O   UNL A   1      49.079  31.867  26.431  1.00  0.00    -0.237 OA
ATOM     89  O   UNL A   1      47.990  33.962  25.728  1.00  0.00    -0.237 OA
ATOM     90  O   UNL A   1      48.643  33.660  28.070  1.00  0.00    -0.744 OA
ENDBRANCH  84  87
ENDBRANCH  57  80
ENDBRANCH  31  32
ENDBRANCH  24  26
ENDBRANCH  23  24
ENDBRANCH  22  23
ENDBRANCH   1  22
TORSDOF 19
ENDMDL
