MODEL 1
REMARK VINA RESULT:     -11.0      0.000      0.000
REMARK SMILES COc1cc2c(CC(=O)OCCOCCOC(=O)c3ccc(-c4c5nc(c(-c6cccc(S(=O)(=O)[O-])c6F)c6ccc([nH]6)c(-c6cccc(S(=O)(=O)[O-])c6F)c6nc(c(-c7cccc(S(=O)(=O)[O-])c7F)c7ccc4[nH]7)C=C6)C=C5)cc3)c(C)n(C(=O)c3ccc(Cl)cc3)c2cc1Cl
REMARK SMILES IDX 13 1 12 2 11 3 10 4 8 5 9 6 7 7 6 8 3 9 4 10 96 11 5 12
REMARK SMILES IDX 95 13 97 14 94 15 82 16 84 17 83 18 2 19 1 20 85 21 86 22
REMARK SMILES IDX 87 23 88 24 93 25 89 26 92 27 90 28 91 29 14 30 15 31 16 32
REMARK SMILES IDX 17 33 18 34 19 35 20 36 81 37 21 38 80 39 22 40 23 41 24 42
REMARK SMILES IDX 74 43 25 44 79 45 73 46 75 47 26 48 78 49 72 50 71 51 27 53
REMARK SMILES IDX 59 54 39 55 58 56 40 57 43 58 57 59 76 60 41 61 42 62 56 64
REMARK SMILES IDX 77 65 44 66 28 67 29 68 37 69 30 70 32 71 38 72 31 73 33 74
REMARK SMILES IDX 34 75 35 76 36 77 60 78 61 79 69 80 62 81 64 82 70 83 63 84
REMARK SMILES IDX 65 85 66 86 67 87 68 88 45 89 46 90 54 91 47 92 49 93 55 94
REMARK SMILES IDX 48 95 50 96 51 97 52 98 53 99
REMARK H PARENT 75 52 43 63
REMARK Flexibility Score: inf
ROOT
ATOM      1  O   UNL A   1      36.241  22.578  23.631  1.00  0.00    -0.374 OA
ENDROOT
BRANCH   1   2
ATOM      2  C   UNL A   1      34.844  22.607  23.896  1.00  0.00     0.202 C 
BRANCH   2   3
ATOM      3  C   UNL A   1      33.880  23.283  22.903  1.00  0.00     0.261 C 
BRANCH   3   4
ATOM      4  O   UNL A   1      34.238  24.622  22.506  1.00  0.00    -0.463 OA
BRANCH   4   5
ATOM      5  C   UNL A   1      33.211  25.346  21.991  1.00  0.00     0.310 C 
ATOM      6  O   UNL A   1      33.246  25.912  20.899  1.00  0.00    -0.252 OA
BRANCH   5   7
ATOM      7  C   UNL A   1      31.963  25.438  22.837  1.00  0.00     0.160 C 
BRANCH   7   8
ATOM      8  C   UNL A   1      31.764  26.569  23.819  1.00  0.00    -0.008 A 
ATOM      9  C   UNL A   1      29.831  29.613  22.474  1.00  0.00     0.138 A 
ATOM     10  C   UNL A   1      30.500  28.377  22.423  1.00  0.00     0.058 A 
ATOM     11  C   UNL A   1      29.970  30.390  23.614  1.00  0.00     0.085 A 
ATOM     12  C   UNL A   1      31.157  27.830  23.553  1.00  0.00     0.008 A 
ATOM     13  C   UNL A   1      30.757  29.933  24.683  1.00  0.00     0.051 A 
ATOM     14  Cl  UNL A   1      29.168  31.895  23.904  1.00  0.00    -0.080 Cl
ATOM     15  C   UNL A   1      31.286  28.623  24.694  1.00  0.00     0.058 A 
ATOM     16  C   UNL A   1      32.265  26.624  25.118  1.00  0.00     0.028 A 
ATOM     17  N   UNL A   1      31.991  27.888  25.670  1.00  0.00    -0.280 N 
ATOM     18  C   UNL A   1      32.999  25.515  25.808  1.00  0.00     0.065 C 
BRANCH   9  19
ATOM     19  O   UNL A   1      28.999  29.793  21.402  1.00  0.00    -0.495 OA
ATOM     20  C   UNL A   1      27.628  30.071  21.630  1.00  0.00     0.278 C 
ENDBRANCH   9  19
BRANCH  17  21
ATOM     21  C   UNL A   1      32.386  28.369  26.958  1.00  0.00     0.262 C 
ATOM     22  O   UNL A   1      31.848  27.919  27.968  1.00  0.00    -0.268 OA
BRANCH  21  23
ATOM     23  C   UNL A   1      33.473  29.331  27.213  1.00  0.00     0.040 A 
ATOM     24  C   UNL A   1      34.789  28.898  27.404  1.00  0.00     0.015 A 
ATOM     25  C   UNL A   1      33.143  30.688  27.318  1.00  0.00     0.015 A 
ATOM     26  C   UNL A   1      35.761  29.821  27.802  1.00  0.00     0.021 A 
ATOM     27  C   UNL A   1      34.120  31.606  27.702  1.00  0.00     0.021 A 
ATOM     28  C   UNL A   1      35.418  31.166  27.965  1.00  0.00     0.041 A 
ATOM     29  Cl  UNL A   1      36.598  32.288  28.522  1.00  0.00    -0.084 Cl
ENDBRANCH  21  23
ENDBRANCH  17  21
ENDBRANCH   7   8
ENDBRANCH   5   7
ENDBRANCH   4   5
ENDBRANCH   3   4
ENDBRANCH   2   3
ENDBRANCH   1   2
BRANCH   1  30
ATOM     30  C   UNL A   1      37.092  22.068  24.653  1.00  0.00     0.202 C 
BRANCH  30  31
ATOM     31  C   UNL A   1      37.232  22.824  25.986  1.00  0.00     0.261 C 
BRANCH  31  32
ATOM     32  O   UNL A   1      38.249  23.822  25.940  1.00  0.00    -0.460 OA
BRANCH  32  33
ATOM     33  C   UNL A   1      39.406  23.469  26.560  1.00  0.00     0.338 C 
ATOM     34  O   UNL A   1      40.076  22.467  26.374  1.00  0.00    -0.246 OA
BRANCH  33  35
ATOM     35  C   UNL A   1      39.874  24.715  27.181  1.00  0.00     0.060 A 
ATOM     36  C   UNL A   1      41.033  24.700  27.962  1.00  0.00     0.016 A 
ATOM     37  C   UNL A   1      38.933  25.753  27.272  1.00  0.00     0.016 A 
ATOM     38  C   UNL A   1      41.198  25.693  28.912  1.00  0.00     0.010 A 
ATOM     39  C   UNL A   1      39.091  26.730  28.245  1.00  0.00     0.010 A 
ATOM     40  C   UNL A   1      40.204  26.675  29.085  1.00  0.00    -0.014 A 
BRANCH  40  41
ATOM     41  C   UNL A   1      40.521  27.788  29.975  1.00  0.00     0.031 A 
ATOM     42  C   UNL A   1      41.643  28.601  29.436  1.00  0.00     0.074 A 
ATOM     43  C   UNL A   1      39.848  28.163  31.081  1.00  0.00     0.049 A 
ATOM     44  N   UNL A   1      42.833  28.722  29.925  1.00  0.00    -0.248 NA
ATOM     45  C   UNL A   1      41.474  29.182  28.094  1.00  0.00     0.031 C 
ATOM     46  C   UNL A   1      38.584  27.649  31.608  1.00  0.00     0.029 A 
ATOM     47  N   UNL A   1      40.125  29.206  31.919  1.00  0.00    -0.354 N 
ATOM     48  C   UNL A   1      43.500  29.572  29.050  1.00  0.00     0.074 A 
ATOM     49  C   UNL A   1      42.691  29.672  27.864  1.00  0.00     0.031 C 
ATOM     50  C   UNL A   1      38.092  28.526  32.517  1.00  0.00     0.029 A 
ATOM     51  C   UNL A   1      39.053  29.596  32.720  1.00  0.00     0.049 A 
ATOM     52  H   UNL A   1      41.006  29.643  31.955  1.00  0.00     0.167 HD
ATOM     53  C   UNL A   1      44.554  30.332  29.446  1.00  0.00     0.034 A 
ATOM     54  C   UNL A   1      38.958  30.752  33.429  1.00  0.00     0.034 A 
ATOM     55  C   UNL A   1      45.110  29.892  30.691  1.00  0.00     0.049 A 
ATOM     56  C   UNL A   1      40.339  31.260  33.608  1.00  0.00     0.074 A 
ATOM     57  C   UNL A   1      45.679  28.721  31.144  1.00  0.00     0.029 A 
ATOM     58  N   UNL A   1      44.773  30.615  31.810  1.00  0.00    -0.354 N 
ATOM     59  N   UNL A   1      41.229  30.678  34.361  1.00  0.00    -0.248 NA
ATOM     60  C   UNL A   1      40.858  32.210  32.635  1.00  0.00     0.031 C 
ATOM     61  C   UNL A   1      45.225  28.591  32.487  1.00  0.00     0.029 A 
ATOM     62  C   UNL A   1      44.447  29.712  32.783  1.00  0.00     0.049 A 
ATOM     63  H   UNL A   1      44.767  31.596  31.894  1.00  0.00     0.167 HD
ATOM     64  C   UNL A   1      42.421  30.848  33.673  1.00  0.00     0.074 A 
ATOM     65  C   UNL A   1      42.151  31.885  32.682  1.00  0.00     0.031 C 
ATOM     66  C   UNL A   1      43.424  29.932  33.779  1.00  0.00     0.034 A 
BRANCH  53  67
ATOM     67  C   UNL A   1      44.846  31.695  28.888  1.00  0.00     0.023 A 
ATOM     68  C   UNL A   1      46.146  31.951  28.408  1.00  0.00     0.012 A 
ATOM     69  C   UNL A   1      43.987  32.802  29.070  1.00  0.00     0.148 A 
ATOM     70  C   UNL A   1      46.574  33.255  28.137  1.00  0.00     0.002 A 
ATOM     71  C   UNL A   1      44.389  34.083  28.725  1.00  0.00     0.091 A 
ATOM     72  F   UNL A   1      42.825  32.644  29.715  1.00  0.00    -0.205 F 
ATOM     73  C   UNL A   1      45.691  34.320  28.281  1.00  0.00     0.022 A 
BRANCH  71  74
ATOM     74  S   UNL A   1      43.268  35.479  28.863  1.00  0.00     0.127 S 
ATOM     75  O   UNL A   1      44.120  36.581  28.425  1.00  0.00    -0.237 OA
ATOM     76  O   UNL A   1      42.206  35.104  27.931  1.00  0.00    -0.237 OA
ATOM     77  O   UNL A   1      42.853  35.503  30.260  1.00  0.00    -0.744 OA
ENDBRANCH  71  74
ENDBRANCH  53  67
BRANCH  54  78
ATOM     78  C   UNL A   1      37.789  31.584  33.824  1.00  0.00     0.023 A 
ATOM     79  C   UNL A   1      37.781  32.197  35.099  1.00  0.00     0.012 A 
ATOM     80  C   UNL A   1      36.837  32.024  32.881  1.00  0.00     0.148 A 
ATOM     81  C   UNL A   1      36.902  33.244  35.402  1.00  0.00     0.002 A 
ATOM     82  C   UNL A   1      35.956  33.061  33.190  1.00  0.00     0.091 A 
ATOM     83  F   UNL A   1      36.856  31.498  31.649  1.00  0.00    -0.205 F 
ATOM     84  C   UNL A   1      35.997  33.685  34.444  1.00  0.00     0.022 A 
BRANCH  82  85
ATOM     85  S   UNL A   1      34.766  33.694  31.998  1.00  0.00     0.127 S 
ATOM     86  O   UNL A   1      35.636  34.300  30.990  1.00  0.00    -0.237 OA
ATOM     87  O   UNL A   1      34.090  32.473  31.568  1.00  0.00    -0.237 OA
ATOM     88  O   UNL A   1      33.944  34.649  32.730  1.00  0.00    -0.744 OA
ENDBRANCH  82  85
ENDBRANCH  54  78
BRANCH  66  89
ATOM     89  C   UNL A   1      43.322  28.872  34.839  1.00  0.00     0.023 A 
ATOM     90  C   UNL A   1      42.639  27.659  34.614  1.00  0.00     0.012 A 
ATOM     91  C   UNL A   1      44.148  29.000  35.967  1.00  0.00     0.148 A 
ATOM     92  C   UNL A   1      42.793  26.585  35.493  1.00  0.00     0.002 A 
ATOM     93  C   UNL A   1      44.335  27.916  36.812  1.00  0.00     0.091 A 
ATOM     94  F   UNL A   1      44.792  30.163  36.147  1.00  0.00    -0.205 F 
ATOM     95  C   UNL A   1      43.657  26.708  36.581  1.00  0.00     0.022 A 
BRANCH  93  96
ATOM     96  S   UNL A   1      45.534  27.955  38.145  1.00  0.00     0.127 S 
ATOM     97  O   UNL A   1      45.030  29.045  38.978  1.00  0.00    -0.237 OA
ATOM     98  O   UNL A   1      45.385  26.620  38.728  1.00  0.00    -0.237 OA
ATOM     99  O   UNL A   1      46.829  28.199  37.524  1.00  0.00    -0.744 OA
ENDBRANCH  93  96
ENDBRANCH  66  89
ENDBRANCH  40  41
ENDBRANCH  33  35
ENDBRANCH  32  33
ENDBRANCH  31  32
ENDBRANCH  30  31
ENDBRANCH   1  30
TORSDOF 21
ENDMDL
MODEL 2
REMARK VINA RESULT:     -10.7      1.798      2.204
REMARK SMILES COc1cc2c(CC(=O)OCCOCCOC(=O)c3ccc(-c4c5nc(c(-c6cccc(S(=O)(=O)[O-])c6F)c6ccc([nH]6)c(-c6cccc(S(=O)(=O)[O-])c6F)c6nc(c(-c7cccc(S(=O)(=O)[O-])c7F)c7ccc4[nH]7)C=C6)C=C5)cc3)c(C)n(C(=O)c3ccc(Cl)cc3)c2cc1Cl
REMARK SMILES IDX 13 1 12 2 11 3 10 4 8 5 9 6 7 7 6 8 3 9 4 10 96 11 5 12
REMARK SMILES IDX 95 13 97 14 94 15 82 16 84 17 83 18 2 19 1 20 85 21 86 22
REMARK SMILES IDX 87 23 88 24 93 25 89 26 92 27 90 28 91 29 14 30 15 31 16 32
REMARK SMILES IDX 17 33 18 34 19 35 20 36 81 37 21 38 80 39 22 40 23 41 24 42
REMARK SMILES IDX 74 43 25 44 79 45 73 46 75 47 26 48 78 49 72 50 71 51 27 53
REMARK SMILES IDX 59 54 39 55 58 56 40 57 43 58 57 59 76 60 41 61 42 62 56 64
REMARK SMILES IDX 77 65 44 66 28 67 29 68 37 69 30 70 32 71 38 72 31 73 33 74
REMARK SMILES IDX 34 75 35 76 36 77 60 78 61 79 69 80 62 81 64 82 70 83 63 84
REMARK SMILES IDX 65 85 66 86 67 87 68 88 45 89 46 90 54 91 47 92 49 93 55 94
REMARK SMILES IDX 48 95 50 96 51 97 52 98 53 99
REMARK H PARENT 75 52 43 63
REMARK Flexibility Score: inf
ROOT
ATOM      1  O   UNL A   1      36.173  22.572  23.475  1.00  0.00    -0.374 OA
ENDROOT
BRANCH   1   2
ATOM      2  C   UNL A   1      34.812  22.891  23.737  1.00  0.00     0.202 C 
BRANCH   2   3
ATOM      3  C   UNL A   1      33.940  23.530  22.641  1.00  0.00     0.261 C 
BRANCH   3   4
ATOM      4  O   UNL A   1      34.110  24.950  22.464  1.00  0.00    -0.463 OA
BRANCH   4   5
ATOM      5  C   UNL A   1      33.088  25.558  21.807  1.00  0.00     0.310 C 
ATOM      6  O   UNL A   1      33.174  26.007  20.664  1.00  0.00    -0.252 OA
BRANCH   5   7
ATOM      7  C   UNL A   1      31.782  25.672  22.556  1.00  0.00     0.160 C 
BRANCH   7   8
ATOM      8  C   UNL A   1      31.542  26.783  23.550  1.00  0.00    -0.008 A 
ATOM      9  C   UNL A   1      29.470  29.754  22.249  1.00  0.00     0.138 A 
ATOM     10  C   UNL A   1      30.191  28.549  22.182  1.00  0.00     0.058 A 
ATOM     11  C   UNL A   1      29.585  30.526  23.396  1.00  0.00     0.085 A 
ATOM     12  C   UNL A   1      30.880  28.020  23.300  1.00  0.00     0.008 A 
ATOM     13  C   UNL A   1      30.398  30.093  24.455  1.00  0.00     0.051 A 
ATOM     14  Cl  UNL A   1      28.721  31.992  23.707  1.00  0.00    -0.080 Cl
ATOM     15  C   UNL A   1      30.983  28.807  24.449  1.00  0.00     0.058 A 
ATOM     16  C   UNL A   1      32.050  26.848  24.845  1.00  0.00     0.028 A 
ATOM     17  N   UNL A   1      31.727  28.094  25.412  1.00  0.00    -0.280 N 
ATOM     18  C   UNL A   1      32.837  25.764  25.519  1.00  0.00     0.065 C 
BRANCH   9  19
ATOM     19  O   UNL A   1      28.622  29.908  21.186  1.00  0.00    -0.495 OA
ATOM     20  C   UNL A   1      27.987  31.159  20.983  1.00  0.00     0.278 C 
ENDBRANCH   9  19
BRANCH  17  21
ATOM     21  C   UNL A   1      32.111  28.579  26.702  1.00  0.00     0.262 C 
ATOM     22  O   UNL A   1      31.391  28.361  27.674  1.00  0.00    -0.268 OA
BRANCH  21  23
ATOM     23  C   UNL A   1      33.374  29.274  27.010  1.00  0.00     0.040 A 
ATOM     24  C   UNL A   1      34.594  28.590  26.999  1.00  0.00     0.015 A 
ATOM     25  C   UNL A   1      33.313  30.625  27.374  1.00  0.00     0.015 A 
ATOM     26  C   UNL A   1      35.745  29.241  27.453  1.00  0.00     0.021 A 
ATOM     27  C   UNL A   1      34.468  31.272  27.813  1.00  0.00     0.021 A 
ATOM     28  C   UNL A   1      35.673  30.572  27.872  1.00  0.00     0.041 A 
ATOM     29  Cl  UNL A   1      37.076  31.350  28.495  1.00  0.00    -0.084 Cl
ENDBRANCH  21  23
ENDBRANCH  17  21
ENDBRANCH   7   8
ENDBRANCH   5   7
ENDBRANCH   4   5
ENDBRANCH   3   4
ENDBRANCH   2   3
ENDBRANCH   1   2
BRANCH   1  30
ATOM     30  C   UNL A   1      36.784  21.578  24.292  1.00  0.00     0.202 C 
BRANCH  30  31
ATOM     31  C   UNL A   1      37.225  21.925  25.725  1.00  0.00     0.261 C 
BRANCH  31  32
ATOM     32  O   UNL A   1      38.365  22.782  25.750  1.00  0.00    -0.460 OA
BRANCH  32  33
ATOM     33  C   UNL A   1      39.384  22.335  26.531  1.00  0.00     0.338 C 
ATOM     34  O   UNL A   1      39.809  21.195  26.622  1.00  0.00    -0.246 OA
BRANCH  33  35
ATOM     35  C   UNL A   1      40.102  23.556  26.915  1.00  0.00     0.060 A 
ATOM     36  C   UNL A   1      41.179  23.469  27.802  1.00  0.00     0.016 A 
ATOM     37  C   UNL A   1      39.436  24.768  26.676  1.00  0.00     0.016 A 
ATOM     38  C   UNL A   1      41.526  24.596  28.526  1.00  0.00     0.010 A 
ATOM     39  C   UNL A   1      39.772  25.887  27.425  1.00  0.00     0.010 A 
ATOM     40  C   UNL A   1      40.791  25.787  28.374  1.00  0.00    -0.014 A 
BRANCH  40  41
ATOM     41  C   UNL A   1      41.317  26.979  29.031  1.00  0.00     0.031 A 
ATOM     42  C   UNL A   1      42.716  27.250  28.606  1.00  0.00     0.074 A 
ATOM     43  C   UNL A   1      40.643  27.837  29.822  1.00  0.00     0.049 A 
ATOM     44  N   UNL A   1      43.786  27.174  29.327  1.00  0.00    -0.248 NA
ATOM     45  C   UNL A   1      42.964  27.430  27.166  1.00  0.00     0.031 C 
ATOM     46  C   UNL A   1      39.214  27.875  30.132  1.00  0.00     0.029 A 
ATOM     47  N   UNL A   1      41.117  28.961  30.437  1.00  0.00    -0.354 N 
ATOM     48  C   UNL A   1      44.827  27.506  28.468  1.00  0.00     0.074 A 
ATOM     49  C   UNL A   1      44.294  27.470  27.131  1.00  0.00     0.031 C 
ATOM     50  C   UNL A   1      38.907  29.083  30.665  1.00  0.00     0.029 A 
ATOM     51  C   UNL A   1      40.126  29.854  30.841  1.00  0.00     0.049 A 
ATOM     52  H   UNL A   1      42.077  29.126  30.583  1.00  0.00     0.167 HD
ATOM     53  C   UNL A   1      45.999  28.024  28.920  1.00  0.00     0.034 A 
ATOM     54  C   UNL A   1      40.312  31.146  31.218  1.00  0.00     0.034 A 
ATOM     55  C   UNL A   1      46.172  27.838  30.330  1.00  0.00     0.049 A 
ATOM     56  C   UNL A   1      41.737  31.279  31.603  1.00  0.00     0.074 A 
ATOM     57  C   UNL A   1      46.239  26.743  31.166  1.00  0.00     0.029 A 
ATOM     58  N   UNL A   1      45.926  28.923  31.134  1.00  0.00    -0.354 N 
ATOM     59  N   UNL A   1      42.252  30.724  32.663  1.00  0.00    -0.248 NA
ATOM     60  C   UNL A   1      42.689  31.714  30.592  1.00  0.00     0.031 C 
ATOM     61  C   UNL A   1      45.563  27.149  32.352  1.00  0.00     0.029 A 
ATOM     62  C   UNL A   1      45.168  28.478  32.181  1.00  0.00     0.049 A 
ATOM     63  H   UNL A   1      46.234  29.846  30.984  1.00  0.00     0.167 HD
ATOM     64  C   UNL A   1      43.525  30.343  32.265  1.00  0.00     0.074 A 
ATOM     65  C   UNL A   1      43.776  31.071  31.025  1.00  0.00     0.031 C 
ATOM     66  C   UNL A   1      44.135  29.259  32.820  1.00  0.00     0.034 A 
BRANCH  53  67
ATOM     67  C   UNL A   1      46.813  29.023  28.149  1.00  0.00     0.023 A 
ATOM     68  C   UNL A   1      48.187  28.766  27.975  1.00  0.00     0.012 A 
ATOM     69  C   UNL A   1      46.345  30.319  27.834  1.00  0.00     0.148 A 
ATOM     70  C   UNL A   1      49.058  29.762  27.522  1.00  0.00     0.002 A 
ATOM     71  C   UNL A   1      47.198  31.278  27.310  1.00  0.00     0.091 A 
ATOM     72  F   UNL A   1      45.103  30.679  28.175  1.00  0.00    -0.205 F 
ATOM     73  C   UNL A   1      48.562  31.014  27.175  1.00  0.00     0.022 A 
BRANCH  71  74
ATOM     74  S   UNL A   1      46.589  32.894  26.817  1.00  0.00     0.127 S 
ATOM     75  O   UNL A   1      47.837  33.610  26.567  1.00  0.00    -0.237 OA
ATOM     76  O   UNL A   1      45.807  32.570  25.625  1.00  0.00    -0.237 OA
ATOM     77  O   UNL A   1      45.792  33.365  27.943  1.00  0.00    -0.744 OA
ENDBRANCH  71  74
ENDBRANCH  53  67
BRANCH  54  78
ATOM     78  C   UNL A   1      39.442  32.349  31.114  1.00  0.00     0.023 A 
ATOM     79  C   UNL A   1      39.670  33.275  30.069  1.00  0.00     0.012 A 
ATOM     80  C   UNL A   1      38.227  32.451  31.825  1.00  0.00     0.148 A 
ATOM     81  C   UNL A   1      38.705  34.223  29.709  1.00  0.00     0.002 A 
ATOM     82  C   UNL A   1      37.273  33.405  31.469  1.00  0.00     0.091 A 
ATOM     83  F   UNL A   1      37.962  31.555  32.784  1.00  0.00    -0.205 F 
ATOM     84  C   UNL A   1      37.502  34.282  30.401  1.00  0.00     0.022 A 
BRANCH  82  85
ATOM     85  S   UNL A   1      35.688  33.532  32.309  1.00  0.00     0.127 S 
ATOM     86  O   UNL A   1      35.613  32.254  33.019  1.00  0.00    -0.237 OA
ATOM     87  O   UNL A   1      35.892  34.696  33.167  1.00  0.00    -0.237 OA
ATOM     88  O   UNL A   1      34.694  33.689  31.255  1.00  0.00    -0.744 OA
ENDBRANCH  82  85
ENDBRANCH  54  78
BRANCH  66  89
ATOM     89  C   UNL A   1      43.519  28.633  34.041  1.00  0.00     0.023 A 
ATOM     90  C   UNL A   1      42.444  27.724  33.948  1.00  0.00     0.012 A 
ATOM     91  C   UNL A   1      44.209  28.764  35.256  1.00  0.00     0.148 A 
ATOM     92  C   UNL A   1      42.076  26.948  35.048  1.00  0.00     0.002 A 
ATOM     93  C   UNL A   1      43.871  27.957  36.332  1.00  0.00     0.091 A 
ATOM     94  F   UNL A   1      45.233  29.630  35.308  1.00  0.00    -0.205 F 
ATOM     95  C   UNL A   1      42.803  27.050  36.234  1.00  0.00     0.022 A 
BRANCH  93  96
ATOM     96  S   UNL A   1      44.846  27.933  37.837  1.00  0.00     0.127 S 
ATOM     97  O   UNL A   1      44.678  29.298  38.332  1.00  0.00    -0.237 OA
ATOM     98  O   UNL A   1      44.165  26.907  38.626  1.00  0.00    -0.237 OA
ATOM     99  O   UNL A   1      46.204  27.584  37.439  1.00  0.00    -0.744 OA
ENDBRANCH  93  96
ENDBRANCH  66  89
ENDBRANCH  40  41
ENDBRANCH  33  35
ENDBRANCH  32  33
ENDBRANCH  31  32
ENDBRANCH  30  31
ENDBRANCH   1  30
TORSDOF 21
ENDMDL
MODEL 3
REMARK VINA RESULT:     -10.4      3.836      9.263
REMARK SMILES COc1cc2c(CC(=O)OCCOCCOC(=O)c3ccc(-c4c5nc(c(-c6cccc(S(=O)(=O)[O-])c6F)c6ccc([nH]6)c(-c6cccc(S(=O)(=O)[O-])c6F)c6nc(c(-c7cccc(S(=O)(=O)[O-])c7F)c7ccc4[nH]7)C=C6)C=C5)cc3)c(C)n(C(=O)c3ccc(Cl)cc3)c2cc1Cl
REMARK SMILES IDX 13 1 12 2 11 3 10 4 8 5 9 6 7 7 6 8 3 9 4 10 96 11 5 12
REMARK SMILES IDX 95 13 97 14 94 15 82 16 84 17 83 18 2 19 1 20 85 21 86 22
REMARK SMILES IDX 87 23 88 24 93 25 89 26 92 27 90 28 91 29 14 30 15 31 16 32
REMARK SMILES IDX 17 33 18 34 19 35 20 36 81 37 21 38 80 39 22 40 23 41 24 42
REMARK SMILES IDX 74 43 25 44 79 45 73 46 75 47 26 48 78 49 72 50 71 51 27 53
REMARK SMILES IDX 59 54 39 55 58 56 40 57 43 58 57 59 76 60 41 61 42 62 56 64
REMARK SMILES IDX 77 65 44 66 28 67 29 68 37 69 30 70 32 71 38 72 31 73 33 74
REMARK SMILES IDX 34 75 35 76 36 77 60 78 61 79 69 80 62 81 64 82 70 83 63 84
REMARK SMILES IDX 65 85 66 86 67 87 68 88 45 89 46 90 54 91 47 92 49 93 55 94
REMARK SMILES IDX 48 95 50 96 51 97 52 98 53 99
REMARK H PARENT 75 52 43 63
REMARK Flexibility Score: inf
ROOT
ATOM      1  O   UNL A   1      32.935  31.075  26.744  1.00  0.00    -0.374 OA
ENDROOT
BRANCH   1   2
ATOM      2  C   UNL A   1      33.604  29.826  26.861  1.00  0.00     0.202 C 
BRANCH   2   3
ATOM      3  C   UNL A   1      33.005  28.562  26.219  1.00  0.00     0.261 C 
BRANCH   3   4
ATOM      4  O   UNL A   1      33.943  27.713  25.528  1.00  0.00    -0.463 OA
BRANCH   4   5
ATOM      5  C   UNL A   1      33.795  27.697  24.178  1.00  0.00     0.310 C 
ATOM      6  O   UNL A   1      33.491  28.682  23.507  1.00  0.00    -0.252 OA
BRANCH   5   7
ATOM      7  C   UNL A   1      34.026  26.371  23.493  1.00  0.00     0.160 C 
BRANCH   7   8
ATOM      8  C   UNL A   1      33.724  25.066  24.189  1.00  0.00    -0.008 A 
ATOM      9  C   UNL A   1      30.309  24.880  25.954  1.00  0.00     0.138 A 
ATOM     10  C   UNL A   1      31.383  25.476  25.270  1.00  0.00     0.058 A 
ATOM     11  C   UNL A   1      30.497  23.621  26.505  1.00  0.00     0.085 A 
ATOM     12  C   UNL A   1      32.574  24.768  24.977  1.00  0.00     0.008 A 
ATOM     13  C   UNL A   1      31.733  22.971  26.363  1.00  0.00     0.051 A 
ATOM     14  Cl  UNL A   1      29.283  22.689  27.310  1.00  0.00    -0.080 Cl
ATOM     15  C   UNL A   1      32.747  23.500  25.535  1.00  0.00     0.058 A 
ATOM     16  C   UNL A   1      34.584  23.975  24.296  1.00  0.00     0.028 A 
ATOM     17  N   UNL A   1      34.004  23.004  25.131  1.00  0.00    -0.280 N 
ATOM     18  C   UNL A   1      35.926  23.866  23.637  1.00  0.00     0.065 C 
BRANCH   9  19
ATOM     19  O   UNL A   1      29.156  25.609  25.840  1.00  0.00    -0.495 OA
ATOM     20  C   UNL A   1      28.820  26.180  24.587  1.00  0.00     0.278 C 
ENDBRANCH   9  19
BRANCH  17  21
ATOM     21  C   UNL A   1      34.587  21.763  25.542  1.00  0.00     0.262 C 
ATOM     22  O   UNL A   1      35.311  21.729  26.535  1.00  0.00    -0.268 OA
BRANCH  21  23
ATOM     23  C   UNL A   1      34.331  20.453  24.918  1.00  0.00     0.040 A 
ATOM     24  C   UNL A   1      33.093  20.162  24.334  1.00  0.00     0.015 A 
ATOM     25  C   UNL A   1      35.340  19.484  24.978  1.00  0.00     0.015 A 
ATOM     26  C   UNL A   1      32.835  18.859  23.897  1.00  0.00     0.021 A 
ATOM     27  C   UNL A   1      35.080  18.190  24.528  1.00  0.00     0.021 A 
ATOM     28  C   UNL A   1      33.822  17.877  24.011  1.00  0.00     0.041 A 
ATOM     29  Cl  UNL A   1      33.478  16.259  23.538  1.00  0.00    -0.084 Cl
ENDBRANCH  21  23
ENDBRANCH  17  21
ENDBRANCH   7   8
ENDBRANCH   5   7
ENDBRANCH   4   5
ENDBRANCH   3   4
ENDBRANCH   2   3
ENDBRANCH   1   2
BRANCH   1  30
ATOM     30  C   UNL A   1      32.978  31.950  27.867  1.00  0.00     0.202 C 
BRANCH  30  31
ATOM     31  C   UNL A   1      34.062  33.039  27.953  1.00  0.00     0.261 C 
BRANCH  31  32
ATOM     32  O   UNL A   1      35.380  32.494  27.961  1.00  0.00    -0.460 OA
BRANCH  32  33
ATOM     33  C   UNL A   1      35.887  32.276  29.203  1.00  0.00     0.338 C 
ATOM     34  O   UNL A   1      35.285  32.275  30.265  1.00  0.00    -0.246 OA
BRANCH  33  35
ATOM     35  C   UNL A   1      37.193  31.655  28.953  1.00  0.00     0.060 A 
ATOM     36  C   UNL A   1      37.249  30.366  28.414  1.00  0.00     0.016 A 
ATOM     37  C   UNL A   1      38.289  32.229  29.616  1.00  0.00     0.016 A 
ATOM     38  C   UNL A   1      38.390  29.613  28.630  1.00  0.00     0.010 A 
ATOM     39  C   UNL A   1      39.420  31.458  29.852  1.00  0.00     0.010 A 
ATOM     40  C   UNL A   1      39.451  30.141  29.391  1.00  0.00    -0.014 A 
BRANCH  40  41
ATOM     41  C   UNL A   1      40.687  29.368  29.430  1.00  0.00     0.031 A 
ATOM     42  C   UNL A   1      41.077  29.053  30.830  1.00  0.00     0.074 A 
ATOM     43  C   UNL A   1      41.365  28.861  28.380  1.00  0.00     0.049 A 
ATOM     44  N   UNL A   1      42.101  29.500  31.481  1.00  0.00    -0.248 NA
ATOM     45  C   UNL A   1      40.105  28.318  31.655  1.00  0.00     0.031 C 
ATOM     46  C   UNL A   1      40.992  28.845  26.966  1.00  0.00     0.029 A 
ATOM     47  N   UNL A   1      42.518  28.129  28.399  1.00  0.00    -0.354 N 
ATOM     48  C   UNL A   1      42.008  28.924  32.743  1.00  0.00     0.074 A 
ATOM     49  C   UNL A   1      40.685  28.367  32.853  1.00  0.00     0.031 C 
ATOM     50  C   UNL A   1      41.766  27.943  26.313  1.00  0.00     0.029 A 
ATOM     51  C   UNL A   1      42.757  27.408  27.231  1.00  0.00     0.049 A 
ATOM     52  H   UNL A   1      43.127  28.111  29.173  1.00  0.00     0.167 HD
ATOM     53  C   UNL A   1      43.098  28.728  33.529  1.00  0.00     0.034 A 
ATOM     54  C   UNL A   1      43.658  26.402  27.076  1.00  0.00     0.034 A 
ATOM     55  C   UNL A   1      44.231  29.489  33.094  1.00  0.00     0.049 A 
ATOM     56  C   UNL A   1      44.654  26.548  28.164  1.00  0.00     0.074 A 
ATOM     57  C   UNL A   1      44.494  30.832  32.924  1.00  0.00     0.029 A 
ATOM     58  N   UNL A   1      45.200  28.814  32.392  1.00  0.00    -0.354 N 
ATOM     59  N   UNL A   1      45.511  27.527  28.230  1.00  0.00    -0.248 NA
ATOM     60  C   UNL A   1      44.441  25.810  29.400  1.00  0.00     0.031 C 
ATOM     61  C   UNL A   1      45.306  30.899  31.756  1.00  0.00     0.029 A 
ATOM     62  C   UNL A   1      45.524  29.592  31.315  1.00  0.00     0.049 A 
ATOM     63  H   UNL A   1      45.585  27.938  32.620  1.00  0.00     0.167 HD
ATOM     64  C   UNL A   1      45.606  27.806  29.586  1.00  0.00     0.074 A 
ATOM     65  C   UNL A   1      45.014  26.654  30.260  1.00  0.00     0.031 C 
ATOM     66  C   UNL A   1      45.889  29.066  30.021  1.00  0.00     0.034 A 
BRANCH  53  67
ATOM     67  C   UNL A   1      43.241  27.566  34.469  1.00  0.00     0.023 A 
ATOM     68  C   UNL A   1      43.287  27.832  35.852  1.00  0.00     0.012 A 
ATOM     69  C   UNL A   1      43.607  26.270  34.041  1.00  0.00     0.148 A 
ATOM     70  C   UNL A   1      43.694  26.855  36.765  1.00  0.00     0.002 A 
ATOM     71  C   UNL A   1      43.932  25.281  34.957  1.00  0.00     0.091 A 
ATOM     72  F   UNL A   1      43.783  26.024  32.738  1.00  0.00    -0.205 F 
ATOM     73  C   UNL A   1      44.002  25.574  36.319  1.00  0.00     0.022 A 
BRANCH  71  74
ATOM     74  S   UNL A   1      44.303  23.606  34.425  1.00  0.00     0.127 S 
ATOM     75  O   UNL A   1      45.677  23.450  34.893  1.00  0.00    -0.237 OA
ATOM     76  O   UNL A   1      43.303  22.830  35.157  1.00  0.00    -0.237 OA
ATOM     77  O   UNL A   1      44.113  23.610  32.979  1.00  0.00    -0.744 OA
ENDBRANCH  71  74
ENDBRANCH  53  67
BRANCH  54  78
ATOM     78  C   UNL A   1      43.667  25.200  26.198  1.00  0.00     0.023 A 
ATOM     79  C   UNL A   1      44.698  25.057  25.240  1.00  0.00     0.012 A 
ATOM     80  C   UNL A   1      42.872  24.069  26.478  1.00  0.00     0.148 A 
ATOM     81  C   UNL A   1      44.964  23.825  24.631  1.00  0.00     0.002 A 
ATOM     82  C   UNL A   1      43.134  22.845  25.861  1.00  0.00     0.091 A 
ATOM     83  F   UNL A   1      41.923  24.161  27.419  1.00  0.00    -0.205 F 
ATOM     84  C   UNL A   1      44.190  22.716  24.949  1.00  0.00     0.022 A 
BRANCH  82  85
ATOM     85  S   UNL A   1      42.185  21.363  26.232  1.00  0.00     0.127 S 
ATOM     86  O   UNL A   1      42.445  21.182  27.660  1.00  0.00    -0.237 OA
ATOM     87  O   UNL A   1      40.825  21.786  25.908  1.00  0.00    -0.237 OA
ATOM     88  O   UNL A   1      42.741  20.315  25.385  1.00  0.00    -0.744 OA
ENDBRANCH  82  85
ENDBRANCH  54  78
BRANCH  66  89
ATOM     89  C   UNL A   1      46.343  30.088  29.017  1.00  0.00     0.023 A 
ATOM     90  C   UNL A   1      47.665  30.109  28.523  1.00  0.00     0.012 A 
ATOM     91  C   UNL A   1      45.356  30.854  28.377  1.00  0.00     0.148 A 
ATOM     92  C   UNL A   1      47.989  30.872  27.399  1.00  0.00     0.002 A 
ATOM     93  C   UNL A   1      45.671  31.572  27.234  1.00  0.00     0.091 A 
ATOM     94  F   UNL A   1      44.107  30.803  28.865  1.00  0.00    -0.205 F 
ATOM     95  C   UNL A   1      46.987  31.587  26.743  1.00  0.00     0.022 A 
BRANCH  93  96
ATOM     96  S   UNL A   1      44.412  32.399  26.261  1.00  0.00     0.127 S 
ATOM     97  O   UNL A   1      45.172  32.850  25.097  1.00  0.00    -0.237 OA
ATOM     98  O   UNL A   1      43.469  31.312  25.993  1.00  0.00    -0.237 OA
ATOM     99  O   UNL A   1      43.880  33.464  27.101  1.00  0.00    -0.744 OA
ENDBRANCH  93  96
ENDBRANCH  66  89
ENDBRANCH  40  41
ENDBRANCH  33  35
ENDBRANCH  32  33
ENDBRANCH  31  32
ENDBRANCH  30  31
ENDBRANCH   1  30
TORSDOF 21
ENDMDL
