MODEL 1
REMARK VINA RESULT:      -9.5      0.000      0.000
REMARK SMILES CCN(C(=O)[C@H]1C=C[C@@H]([NH3+])C1)[C@H](C)CC(=O)OCCOCCOC(=O)c1ccc(-c2c3nc(c(-c4cccc(S(=O)(=O)[O-])c4F)c4ccc([nH]4)c(-c4cccc(S(=O)(=O)[O-])c4F)c4nc(c(-c5cccc(S(=O)(=O)[O-])c5F)c5ccc2[nH]5)C=C4)C=C3)cc1
REMARK SMILES IDX 19 1 18 2 17 3 15 4 16 5 14 6 12 7 13 8 3 9 2 10 1 11 4 12
REMARK SMILES IDX 5 13 6 14 7 15 11 16 8 17 9 18 10 19 20 23 21 24 22 25 23 26
REMARK SMILES IDX 24 27 25 28 26 29 27 30 88 31 28 32 87 33 29 34 30 35 31 36
REMARK SMILES IDX 81 37 32 38 86 39 80 40 82 41 33 42 85 43 79 44 78 45 34 47
REMARK SMILES IDX 66 48 46 49 65 50 47 51 50 52 64 53 83 54 48 55 49 56 63 58
REMARK SMILES IDX 84 59 51 60 35 61 36 62 44 63 37 64 39 65 45 66 38 67 40 68
REMARK SMILES IDX 41 69 42 70 43 71 67 72 68 73 76 74 69 75 71 76 77 77 70 78
REMARK SMILES IDX 72 79 73 80 74 81 75 82 52 83 53 84 61 85 54 86 56 87 62 88
REMARK SMILES IDX 55 89 57 90 58 91 59 92 60 93
REMARK H PARENT 10 20 10 21 10 22 82 46 50 57
REMARK Flexibility Score: inf
ROOT
ATOM      1  C   UNL A   1      38.824  23.727  26.531  1.00  0.00     0.202 C 
ENDROOT
BRANCH   1   2
ATOM      2  C   UNL A   1      37.403  23.462  26.026  1.00  0.00     0.261 C 
BRANCH   2   3
ATOM      3  O   UNL A   1      37.271  23.811  24.636  1.00  0.00    -0.463 OA
BRANCH   3   4
ATOM      4  C   UNL A   1      36.309  23.173  23.925  1.00  0.00     0.307 C 
ATOM      5  O   UNL A   1      36.354  22.950  22.721  1.00  0.00    -0.252 OA
BRANCH   4   6
ATOM      6  C   UNL A   1      35.145  22.771  24.793  1.00  0.00     0.147 C 
BRANCH   6   7
ATOM      7  C   UNL A   1      34.777  21.274  24.749  1.00  0.00     0.093 C 
ATOM      8  C   UNL A   1      35.966  20.320  24.926  1.00  0.00     0.031 C 
BRANCH   7   9
ATOM      9  N   UNL A   1      33.688  20.939  25.715  1.00  0.00    -0.339 N 
BRANCH   9  10
ATOM     10  C   UNL A   1      33.957  21.300  27.109  1.00  0.00     0.116 C 
ATOM     11  C   UNL A   1      33.036  22.418  27.587  1.00  0.00     0.027 C 
ENDBRANCH   9  10
BRANCH   9  12
ATOM     12  C   UNL A   1      32.534  20.345  25.217  1.00  0.00     0.229 C 
ATOM     13  O   UNL A   1      31.542  21.058  24.999  1.00  0.00    -0.274 OA
BRANCH  12  14
ATOM     14  C   UNL A   1      32.366  18.826  24.976  1.00  0.00     0.107 C 
ATOM     15  C   UNL A   1      32.964  18.507  23.617  1.00  0.00    -0.012 C 
ATOM     16  C   UNL A   1      33.072  17.773  25.832  1.00  0.00     0.087 C 
ATOM     17  C   UNL A   1      33.600  17.332  23.586  1.00  0.00     0.033 C 
ATOM     18  C   UNL A   1      33.484  16.634  24.891  1.00  0.00     0.205 C 
BRANCH  18  19
ATOM     19  N   UNL A   1      34.730  16.026  25.320  1.00  0.00    -0.352 N 
ATOM     20  H   UNL A   1      35.409  16.068  24.559  1.00  0.00     0.345 HD
ATOM     21  H   UNL A   1      34.565  15.052  25.573  1.00  0.00     0.345 HD
ATOM     22  H   UNL A   1      35.095  16.530  26.128  1.00  0.00     0.345 HD
ENDBRANCH  18  19
ENDBRANCH  12  14
ENDBRANCH   9  12
ENDBRANCH   7   9
ENDBRANCH   6   7
ENDBRANCH   4   6
ENDBRANCH   3   4
ENDBRANCH   2   3
ENDBRANCH   1   2
BRANCH   1  23
ATOM     23  O   UNL A   1      39.715  22.609  26.515  1.00  0.00    -0.374 OA
BRANCH  23  24
ATOM     24  C   UNL A   1      39.242  21.420  25.888  1.00  0.00     0.202 C 
BRANCH  24  25
ATOM     25  C   UNL A   1      39.874  20.105  26.360  1.00  0.00     0.261 C 
BRANCH  25  26
ATOM     26  O   UNL A   1      40.895  19.639  25.461  1.00  0.00    -0.460 OA
BRANCH  26  27
ATOM     27  C   UNL A   1      42.099  19.420  26.041  1.00  0.00     0.338 C 
ATOM     28  O   UNL A   1      42.636  18.333  26.226  1.00  0.00    -0.246 OA
BRANCH  27  29
ATOM     29  C   UNL A   1      42.799  20.696  26.279  1.00  0.00     0.060 A 
ATOM     30  C   UNL A   1      42.878  21.144  27.603  1.00  0.00     0.016 A 
ATOM     31  C   UNL A   1      43.306  21.474  25.235  1.00  0.00     0.016 A 
ATOM     32  C   UNL A   1      43.411  22.400  27.885  1.00  0.00     0.010 A 
ATOM     33  C   UNL A   1      43.837  22.738  25.522  1.00  0.00     0.010 A 
ATOM     34  C   UNL A   1      43.853  23.223  26.842  1.00  0.00    -0.014 A 
BRANCH  34  35
ATOM     35  C   UNL A   1      44.192  24.639  27.126  1.00  0.00     0.031 A 
ATOM     36  C   UNL A   1      45.596  25.122  26.879  1.00  0.00     0.074 A 
ATOM     37  C   UNL A   1      43.258  25.496  27.577  1.00  0.00     0.049 A 
ATOM     38  N   UNL A   1      46.102  26.317  27.035  1.00  0.00    -0.248 NA
ATOM     39  C   UNL A   1      46.558  24.120  26.390  1.00  0.00     0.031 C 
ATOM     40  C   UNL A   1      41.862  25.157  27.844  1.00  0.00     0.029 A 
ATOM     41  N   UNL A   1      43.350  26.826  27.901  1.00  0.00    -0.354 N 
ATOM     42  C   UNL A   1      47.446  26.208  26.698  1.00  0.00     0.074 A 
ATOM     43  C   UNL A   1      47.679  24.825  26.342  1.00  0.00     0.031 C 
ATOM     44  C   UNL A   1      41.228  26.251  28.300  1.00  0.00     0.029 A 
ATOM     45  C   UNL A   1      42.178  27.359  28.379  1.00  0.00     0.049 A 
ATOM     46  H   UNL A   1      44.179  27.350  27.799  1.00  0.00     0.167 HD
ATOM     47  C   UNL A   1      48.398  27.172  26.673  1.00  0.00     0.034 A 
ATOM     48  C   UNL A   1      41.905  28.597  28.838  1.00  0.00     0.034 A 
ATOM     49  C   UNL A   1      48.160  28.551  27.006  1.00  0.00     0.049 A 
ATOM     50  C   UNL A   1      42.991  29.642  28.835  1.00  0.00     0.074 A 
ATOM     51  C   UNL A   1      49.043  29.615  26.947  1.00  0.00     0.029 A 
ATOM     52  N   UNL A   1      46.959  29.055  27.479  1.00  0.00    -0.354 N 
ATOM     53  N   UNL A   1      44.221  29.556  28.391  1.00  0.00    -0.248 NA
ATOM     54  C   UNL A   1      42.639  30.967  29.369  1.00  0.00     0.031 C 
ATOM     55  C   UNL A   1      48.385  30.755  27.419  1.00  0.00     0.029 A 
ATOM     56  C   UNL A   1      47.081  30.409  27.740  1.00  0.00     0.049 A 
ATOM     57  H   UNL A   1      46.138  28.527  27.610  1.00  0.00     0.167 HD
ATOM     58  C   UNL A   1      44.778  30.820  28.555  1.00  0.00     0.074 A 
ATOM     59  C   UNL A   1      43.744  31.659  29.127  1.00  0.00     0.031 C 
ATOM     60  C   UNL A   1      46.033  31.247  28.265  1.00  0.00     0.034 A 
BRANCH  47  61
ATOM     61  C   UNL A   1      49.788  26.762  26.258  1.00  0.00     0.023 A 
ATOM     62  C   UNL A   1      50.597  26.026  27.148  1.00  0.00     0.012 A 
ATOM     63  C   UNL A   1      50.282  27.081  24.979  1.00  0.00     0.148 A 
ATOM     64  C   UNL A   1      51.892  25.654  26.787  1.00  0.00     0.002 A 
ATOM     65  C   UNL A   1      51.557  26.668  24.611  1.00  0.00     0.091 A 
ATOM     66  F   UNL A   1      49.510  27.803  24.155  1.00  0.00    -0.205 F 
ATOM     67  C   UNL A   1      52.368  25.966  25.517  1.00  0.00     0.022 A 
BRANCH  65  68
ATOM     68  S   UNL A   1      52.224  26.958  22.968  1.00  0.00     0.127 S 
ATOM     69  O   UNL A   1      53.193  25.870  22.846  1.00  0.00    -0.237 OA
ATOM     70  O   UNL A   1      51.039  26.816  22.121  1.00  0.00    -0.237 OA
ATOM     71  O   UNL A   1      52.784  28.301  22.999  1.00  0.00    -0.744 OA
ENDBRANCH  65  68
ENDBRANCH  47  61
BRANCH  48  72
ATOM     72  C   UNL A   1      40.525  28.935  29.287  1.00  0.00     0.023 A 
ATOM     73  C   UNL A   1      39.593  29.410  28.345  1.00  0.00     0.012 A 
ATOM     74  C   UNL A   1      40.124  28.765  30.626  1.00  0.00     0.148 A 
ATOM     75  C   UNL A   1      38.290  29.729  28.731  1.00  0.00     0.002 A 
ATOM     76  C   UNL A   1      38.813  29.036  30.994  1.00  0.00     0.091 A 
ATOM     77  F   UNL A   1      41.033  28.325  31.508  1.00  0.00    -0.205 F 
ATOM     78  C   UNL A   1      37.898  29.533  30.051  1.00  0.00     0.022 A 
BRANCH  76  79
ATOM     79  S   UNL A   1      38.180  28.706  32.642  1.00  0.00     0.127 S 
ATOM     80  O   UNL A   1      38.318  27.254  32.730  1.00  0.00    -0.237 OA
ATOM     81  O   UNL A   1      39.110  29.466  33.477  1.00  0.00    -0.237 OA
ATOM     82  O   UNL A   1      36.813  29.207  32.648  1.00  0.00    -0.744 OA
ENDBRANCH  76  79
ENDBRANCH  48  72
BRANCH  60  83
ATOM     83  C   UNL A   1      46.360  32.696  28.526  1.00  0.00     0.023 A 
ATOM     84  C   UNL A   1      46.109  33.664  27.533  1.00  0.00     0.012 A 
ATOM     85  C   UNL A   1      46.846  33.109  29.783  1.00  0.00     0.148 A 
ATOM     86  C   UNL A   1      46.366  35.013  27.775  1.00  0.00     0.002 A 
ATOM     87  C   UNL A   1      47.053  34.461  30.034  1.00  0.00     0.091 A 
ATOM     88  F   UNL A   1      47.096  32.173  30.711  1.00  0.00    -0.205 F 
ATOM     89  C   UNL A   1      46.826  35.413  29.028  1.00  0.00     0.022 A 
BRANCH  87  90
ATOM     90  S   UNL A   1      47.549  35.076  31.649  1.00  0.00     0.127 S 
ATOM     91  O   UNL A   1      48.875  34.481  31.800  1.00  0.00    -0.237 OA
ATOM     92  O   UNL A   1      47.552  36.524  31.441  1.00  0.00    -0.237 OA
ATOM     93  O   UNL A   1      46.539  34.602  32.586  1.00  0.00    -0.744 OA
ENDBRANCH  87  90
ENDBRANCH  60  83
ENDBRANCH  34  35
ENDBRANCH  27  29
ENDBRANCH  26  27
ENDBRANCH  25  26
ENDBRANCH  24  25
ENDBRANCH  23  24
ENDBRANCH   1  23
TORSDOF 23
ENDMDL
MODEL 2
REMARK VINA RESULT:      -9.5      3.958      5.167
REMARK SMILES CCN(C(=O)[C@H]1C=C[C@@H]([NH3+])C1)[C@H](C)CC(=O)OCCOCCOC(=O)c1ccc(-c2c3nc(c(-c4cccc(S(=O)(=O)[O-])c4F)c4ccc([nH]4)c(-c4cccc(S(=O)(=O)[O-])c4F)c4nc(c(-c5cccc(S(=O)(=O)[O-])c5F)c5ccc2[nH]5)C=C4)C=C3)cc1
REMARK SMILES IDX 19 1 18 2 17 3 15 4 16 5 14 6 12 7 13 8 3 9 2 10 1 11 4 12
REMARK SMILES IDX 5 13 6 14 7 15 11 16 8 17 9 18 10 19 20 23 21 24 22 25 23 26
REMARK SMILES IDX 24 27 25 28 26 29 27 30 88 31 28 32 87 33 29 34 30 35 31 36
REMARK SMILES IDX 81 37 32 38 86 39 80 40 82 41 33 42 85 43 79 44 78 45 34 47
REMARK SMILES IDX 66 48 46 49 65 50 47 51 50 52 64 53 83 54 48 55 49 56 63 58
REMARK SMILES IDX 84 59 51 60 35 61 36 62 44 63 37 64 39 65 45 66 38 67 40 68
REMARK SMILES IDX 41 69 42 70 43 71 67 72 68 73 76 74 69 75 71 76 77 77 70 78
REMARK SMILES IDX 72 79 73 80 74 81 75 82 52 83 53 84 61 85 54 86 56 87 62 88
REMARK SMILES IDX 55 89 57 90 58 91 59 92 60 93
REMARK H PARENT 10 20 10 21 10 22 82 46 50 57
REMARK Flexibility Score: inf
ROOT
ATOM      1  C   UNL A   1      35.688  21.770  24.648  1.00  0.00     0.202 C 
ENDROOT
BRANCH   1   2
ATOM      2  C   UNL A   1      35.252  22.858  23.663  1.00  0.00     0.261 C 
BRANCH   2   3
ATOM      3  O   UNL A   1      33.839  23.113  23.763  1.00  0.00    -0.463 OA
BRANCH   3   4
ATOM      4  C   UNL A   1      33.204  23.533  22.641  1.00  0.00     0.307 C 
ATOM      5  O   UNL A   1      33.606  23.359  21.496  1.00  0.00    -0.252 OA
BRANCH   4   6
ATOM      6  C   UNL A   1      31.927  24.265  22.961  1.00  0.00     0.147 C 
BRANCH   6   7
ATOM      7  C   UNL A   1      31.983  25.796  22.786  1.00  0.00     0.093 C 
ATOM      8  C   UNL A   1      31.436  26.304  21.445  1.00  0.00     0.031 C 
BRANCH   7   9
ATOM      9  N   UNL A   1      31.332  26.513  23.923  1.00  0.00    -0.339 N 
BRANCH   9  10
ATOM     10  C   UNL A   1      32.179  26.716  25.100  1.00  0.00     0.116 C 
ATOM     11  C   UNL A   1      31.428  27.439  26.214  1.00  0.00     0.027 C 
ENDBRANCH   9  10
BRANCH   9  12
ATOM     12  C   UNL A   1      30.016  26.930  23.762  1.00  0.00     0.229 C 
ATOM     13  O   UNL A   1      29.128  26.073  23.639  1.00  0.00    -0.274 OA
BRANCH  12  14
ATOM     14  C   UNL A   1      29.575  28.410  23.649  1.00  0.00     0.107 C 
ATOM     15  C   UNL A   1      30.578  29.121  22.757  1.00  0.00    -0.012 C 
ATOM     16  C   UNL A   1      28.270  28.832  22.973  1.00  0.00     0.087 C 
ATOM     17  C   UNL A   1      30.016  30.033  21.959  1.00  0.00     0.033 C 
ATOM     18  C   UNL A   1      28.558  30.136  22.219  1.00  0.00     0.205 C 
BRANCH  18  19
ATOM     19  N   UNL A   1      27.771  30.224  21.003  1.00  0.00    -0.352 N 
ATOM     20  H   UNL A   1      28.246  29.721  20.253  1.00  0.00     0.345 HD
ATOM     21  H   UNL A   1      27.660  31.202  20.738  1.00  0.00     0.345 HD
ATOM     22  H   UNL A   1      26.853  29.809  21.161  1.00  0.00     0.345 HD
ENDBRANCH  18  19
ENDBRANCH  12  14
ENDBRANCH   9  12
ENDBRANCH   7   9
ENDBRANCH   6   7
ENDBRANCH   4   6
ENDBRANCH   3   4
ENDBRANCH   2   3
ENDBRANCH   1   2
BRANCH   1  23
ATOM     23  O   UNL A   1      36.979  21.198  24.423  1.00  0.00    -0.374 OA
BRANCH  23  24
ATOM     24  C   UNL A   1      37.279  19.995  25.126  1.00  0.00     0.202 C 
BRANCH  24  25
ATOM     25  C   UNL A   1      38.746  19.547  25.112  1.00  0.00     0.261 C 
BRANCH  25  26
ATOM     26  O   UNL A   1      39.648  20.630  25.397  1.00  0.00    -0.460 OA
BRANCH  26  27
ATOM     27  C   UNL A   1      40.297  20.526  26.581  1.00  0.00     0.338 C 
ATOM     28  O   UNL A   1      40.745  19.501  27.084  1.00  0.00    -0.246 OA
BRANCH  27  29
ATOM     29  C   UNL A   1      40.569  21.862  27.142  1.00  0.00     0.060 A 
ATOM     30  C   UNL A   1      39.928  22.952  26.539  1.00  0.00     0.016 A 
ATOM     31  C   UNL A   1      41.477  22.063  28.184  1.00  0.00     0.016 A 
ATOM     32  C   UNL A   1      40.238  24.251  26.934  1.00  0.00     0.010 A 
ATOM     33  C   UNL A   1      41.790  23.370  28.575  1.00  0.00     0.010 A 
ATOM     34  C   UNL A   1      41.203  24.470  27.924  1.00  0.00    -0.014 A 
BRANCH  34  35
ATOM     35  C   UNL A   1      41.697  25.848  28.167  1.00  0.00     0.031 A 
ATOM     36  C   UNL A   1      43.076  26.228  27.700  1.00  0.00     0.074 A 
ATOM     37  C   UNL A   1      40.919  26.762  28.776  1.00  0.00     0.049 A 
ATOM     38  N   UNL A   1      43.695  27.376  27.787  1.00  0.00    -0.248 NA
ATOM     39  C   UNL A   1      43.864  25.169  27.048  1.00  0.00     0.031 C 
ATOM     40  C   UNL A   1      39.562  26.525  29.262  1.00  0.00     0.029 A 
ATOM     41  N   UNL A   1      41.169  28.072  29.097  1.00  0.00    -0.354 N 
ATOM     42  C   UNL A   1      44.954  27.173  27.235  1.00  0.00     0.074 A 
ATOM     43  C   UNL A   1      45.015  25.786  26.826  1.00  0.00     0.031 C 
ATOM     44  C   UNL A   1      39.100  27.652  29.830  1.00  0.00     0.029 A 
ATOM     45  C   UNL A   1      40.136  28.681  29.768  1.00  0.00     0.049 A 
ATOM     46  H   UNL A   1      42.009  28.533  28.868  1.00  0.00     0.167 HD
ATOM     47  C   UNL A   1      45.962  28.061  27.066  1.00  0.00     0.034 A 
ATOM     48  C   UNL A   1      40.041  29.924  30.282  1.00  0.00     0.034 A 
ATOM     49  C   UNL A   1      45.893  29.445  27.452  1.00  0.00     0.049 A 
ATOM     50  C   UNL A   1      41.191  30.882  30.115  1.00  0.00     0.074 A 
ATOM     51  C   UNL A   1      46.837  30.440  27.264  1.00  0.00     0.029 A 
ATOM     52  N   UNL A   1      44.828  30.028  28.122  1.00  0.00    -0.354 N 
ATOM     53  N   UNL A   1      42.323  30.714  29.475  1.00  0.00    -0.248 NA
ATOM     54  C   UNL A   1      41.037  32.216  30.717  1.00  0.00     0.031 C 
ATOM     55  C   UNL A   1      46.357  31.615  27.852  1.00  0.00     0.029 A 
ATOM     56  C   UNL A   1      45.099  31.361  28.377  1.00  0.00     0.049 A 
ATOM     57  H   UNL A   1      44.000  29.562  28.378  1.00  0.00     0.167 HD
ATOM     58  C   UNL A   1      42.998  31.927  29.562  1.00  0.00     0.074 A 
ATOM     59  C   UNL A   1      42.140  32.827  30.307  1.00  0.00     0.031 C 
ATOM     60  C   UNL A   1      44.220  32.263  29.078  1.00  0.00     0.034 A 
BRANCH  47  61
ATOM     61  C   UNL A   1      47.230  27.557  26.426  1.00  0.00     0.023 A 
ATOM     62  C   UNL A   1      47.497  27.849  25.073  1.00  0.00     0.012 A 
ATOM     63  C   UNL A   1      48.169  26.817  27.170  1.00  0.00     0.148 A 
ATOM     64  C   UNL A   1      48.657  27.376  24.459  1.00  0.00     0.002 A 
ATOM     65  C   UNL A   1      49.343  26.387  26.563  1.00  0.00     0.091 A 
ATOM     66  F   UNL A   1      47.889  26.526  28.448  1.00  0.00    -0.205 F 
ATOM     67  C   UNL A   1      49.583  26.654  25.206  1.00  0.00     0.022 A 
BRANCH  65  68
ATOM     68  S   UNL A   1      50.629  25.517  27.468  1.00  0.00     0.127 S 
ATOM     69  O   UNL A   1      49.949  24.272  27.823  1.00  0.00    -0.237 OA
ATOM     70  O   UNL A   1      51.677  25.371  26.457  1.00  0.00    -0.237 OA
ATOM     71  O   UNL A   1      50.984  26.382  28.584  1.00  0.00    -0.744 OA
ENDBRANCH  65  68
ENDBRANCH  47  61
BRANCH  48  72
ATOM     72  C   UNL A   1      38.783  30.355  30.954  1.00  0.00     0.023 A 
ATOM     73  C   UNL A   1      38.631  30.131  32.336  1.00  0.00     0.012 A 
ATOM     74  C   UNL A   1      37.755  31.005  30.246  1.00  0.00     0.148 A 
ATOM     75  C   UNL A   1      37.468  30.528  32.998  1.00  0.00     0.002 A 
ATOM     76  C   UNL A   1      36.622  31.444  30.919  1.00  0.00     0.091 A 
ATOM     77  F   UNL A   1      37.916  31.196  28.928  1.00  0.00    -0.205 F 
ATOM     78  C   UNL A   1      36.469  31.193  32.292  1.00  0.00     0.022 A 
BRANCH  76  79
ATOM     79  S   UNL A   1      35.334  32.410  30.123  1.00  0.00     0.127 S 
ATOM     80  O   UNL A   1      34.369  32.574  31.209  1.00  0.00    -0.237 OA
ATOM     81  O   UNL A   1      36.059  33.626  29.754  1.00  0.00    -0.237 OA
ATOM     82  O   UNL A   1      34.879  31.610  28.996  1.00  0.00    -0.744 OA
ENDBRANCH  76  79
ENDBRANCH  48  72
BRANCH  60  83
ATOM     83  C   UNL A   1      44.700  33.676  29.300  1.00  0.00     0.023 A 
ATOM     84  C   UNL A   1      45.359  34.014  30.498  1.00  0.00     0.012 A 
ATOM     85  C   UNL A   1      44.566  34.649  28.289  1.00  0.00     0.148 A 
ATOM     86  C   UNL A   1      45.848  35.305  30.700  1.00  0.00     0.002 A 
ATOM     87  C   UNL A   1      45.099  35.919  28.477  1.00  0.00     0.091 A 
ATOM     88  F   UNL A   1      43.920  34.315  27.162  1.00  0.00    -0.205 F 
ATOM     89  C   UNL A   1      45.728  36.253  29.687  1.00  0.00     0.022 A 
BRANCH  87  90
ATOM     90  S   UNL A   1      45.080  37.173  27.189  1.00  0.00     0.127 S 
ATOM     91  O   UNL A   1      45.961  36.581  26.184  1.00  0.00    -0.237 OA
ATOM     92  O   UNL A   1      43.667  37.210  26.814  1.00  0.00    -0.237 OA
ATOM     93  O   UNL A   1      45.572  38.394  27.811  1.00  0.00    -0.744 OA
ENDBRANCH  87  90
ENDBRANCH  60  83
ENDBRANCH  34  35
ENDBRANCH  27  29
ENDBRANCH  26  27
ENDBRANCH  25  26
ENDBRANCH  24  25
ENDBRANCH  23  24
ENDBRANCH   1  23
TORSDOF 23
ENDMDL
MODEL 3
REMARK VINA RESULT:      -9.4      1.808      2.405
REMARK SMILES CCN(C(=O)[C@H]1C=C[C@@H]([NH3+])C1)[C@H](C)CC(=O)OCCOCCOC(=O)c1ccc(-c2c3nc(c(-c4cccc(S(=O)(=O)[O-])c4F)c4ccc([nH]4)c(-c4cccc(S(=O)(=O)[O-])c4F)c4nc(c(-c5cccc(S(=O)(=O)[O-])c5F)c5ccc2[nH]5)C=C4)C=C3)cc1
REMARK SMILES IDX 19 1 18 2 17 3 15 4 16 5 14 6 12 7 13 8 3 9 2 10 1 11 4 12
REMARK SMILES IDX 5 13 6 14 7 15 11 16 8 17 9 18 10 19 20 23 21 24 22 25 23 26
REMARK SMILES IDX 24 27 25 28 26 29 27 30 88 31 28 32 87 33 29 34 30 35 31 36
REMARK SMILES IDX 81 37 32 38 86 39 80 40 82 41 33 42 85 43 79 44 78 45 34 47
REMARK SMILES IDX 66 48 46 49 65 50 47 51 50 52 64 53 83 54 48 55 49 56 63 58
REMARK SMILES IDX 84 59 51 60 35 61 36 62 44 63 37 64 39 65 45 66 38 67 40 68
REMARK SMILES IDX 41 69 42 70 43 71 67 72 68 73 76 74 69 75 71 76 77 77 70 78
REMARK SMILES IDX 72 79 73 80 74 81 75 82 52 83 53 84 61 85 54 86 56 87 62 88
REMARK SMILES IDX 55 89 57 90 58 91 59 92 60 93
REMARK H PARENT 10 20 10 21 10 22 82 46 50 57
REMARK Flexibility Score: inf
ROOT
ATOM      1  C   UNL A   1      38.203  23.467  26.039  1.00  0.00     0.202 C 
ENDROOT
BRANCH   1   2
ATOM      2  C   UNL A   1      36.949  23.533  25.164  1.00  0.00     0.261 C 
BRANCH   2   3
ATOM      3  O   UNL A   1      35.773  23.772  25.959  1.00  0.00    -0.463 OA
BRANCH   3   4
ATOM      4  C   UNL A   1      35.058  22.689  26.350  1.00  0.00     0.307 C 
ATOM      5  O   UNL A   1      35.356  21.524  26.113  1.00  0.00    -0.252 OA
BRANCH   4   6
ATOM      6  C   UNL A   1      33.820  23.082  27.115  1.00  0.00     0.147 C 
BRANCH   6   7
ATOM      7  C   UNL A   1      32.719  23.766  26.280  1.00  0.00     0.093 C 
ATOM      8  C   UNL A   1      32.962  25.256  26.004  1.00  0.00     0.031 C 
BRANCH   7   9
ATOM      9  N   UNL A   1      32.450  23.034  25.005  1.00  0.00    -0.339 N 
BRANCH   9  10
ATOM     10  C   UNL A   1      32.652  23.814  23.783  1.00  0.00     0.116 C 
ATOM     11  C   UNL A   1      33.914  23.383  23.043  1.00  0.00     0.027 C 
ENDBRANCH   9  10
BRANCH   9  12
ATOM     12  C   UNL A   1      32.061  21.702  25.089  1.00  0.00     0.229 C 
ATOM     13  O   UNL A   1      31.045  21.417  25.742  1.00  0.00    -0.274 OA
BRANCH  12  14
ATOM     14  C   UNL A   1      32.851  20.519  24.478  1.00  0.00     0.107 C 
ATOM     15  C   UNL A   1      32.604  19.302  25.352  1.00  0.00    -0.012 C 
ATOM     16  C   UNL A   1      32.524  19.932  23.104  1.00  0.00     0.087 C 
ATOM     17  C   UNL A   1      32.501  18.167  24.654  1.00  0.00     0.033 C 
ATOM     18  C   UNL A   1      32.722  18.415  23.208  1.00  0.00     0.205 C 
BRANCH  18  19
ATOM     19  N   UNL A   1      31.780  17.704  22.362  1.00  0.00    -0.352 N 
ATOM     20  H   UNL A   1      30.946  17.473  22.901  1.00  0.00     0.345 HD
ATOM     21  H   UNL A   1      32.211  16.846  22.018  1.00  0.00     0.345 HD
ATOM     22  H   UNL A   1      31.521  18.294  21.571  1.00  0.00     0.345 HD
ENDBRANCH  18  19
ENDBRANCH  12  14
ENDBRANCH   9  12
ENDBRANCH   7   9
ENDBRANCH   6   7
ENDBRANCH   4   6
ENDBRANCH   3   4
ENDBRANCH   2   3
ENDBRANCH   1   2
BRANCH   1  23
ATOM     23  O   UNL A   1      38.762  22.166  26.239  1.00  0.00    -0.374 OA
BRANCH  23  24
ATOM     24  C   UNL A   1      38.355  21.146  25.330  1.00  0.00     0.202 C 
BRANCH  24  25
ATOM     25  C   UNL A   1      39.110  19.814  25.419  1.00  0.00     0.261 C 
BRANCH  25  26
ATOM     26  O   UNL A   1      39.989  19.763  26.556  1.00  0.00    -0.460 OA
BRANCH  26  27
ATOM     27  C   UNL A   1      41.306  19.706  26.249  1.00  0.00     0.338 C 
ATOM     28  O   UNL A   1      41.902  18.759  25.748  1.00  0.00    -0.246 OA
BRANCH  27  29
ATOM     29  C   UNL A   1      41.938  21.026  26.431  1.00  0.00     0.060 A 
ATOM     30  C   UNL A   1      42.263  21.405  27.740  1.00  0.00     0.016 A 
ATOM     31  C   UNL A   1      42.145  21.907  25.367  1.00  0.00     0.016 A 
ATOM     32  C   UNL A   1      42.741  22.687  27.998  1.00  0.00     0.010 A 
ATOM     33  C   UNL A   1      42.623  23.196  25.630  1.00  0.00     0.010 A 
ATOM     34  C   UNL A   1      42.882  23.606  26.951  1.00  0.00    -0.014 A 
BRANCH  34  35
ATOM     35  C   UNL A   1      43.161  25.029  27.264  1.00  0.00     0.031 A 
ATOM     36  C   UNL A   1      44.505  25.609  26.912  1.00  0.00     0.074 A 
ATOM     37  C   UNL A   1      42.223  25.807  27.833  1.00  0.00     0.049 A 
ATOM     38  N   UNL A   1      44.950  26.827  27.072  1.00  0.00    -0.248 NA
ATOM     39  C   UNL A   1      45.476  24.689  26.296  1.00  0.00     0.031 C 
ATOM     40  C   UNL A   1      40.880  25.371  28.210  1.00  0.00     0.029 A 
ATOM     41  N   UNL A   1      42.265  27.127  28.203  1.00  0.00    -0.354 N 
ATOM     42  C   UNL A   1      46.262  26.817  26.612  1.00  0.00     0.074 A 
ATOM     43  C   UNL A   1      46.544  25.465  26.177  1.00  0.00     0.031 C 
ATOM     44  C   UNL A   1      40.227  26.404  28.767  1.00  0.00     0.029 A 
ATOM     45  C   UNL A   1      41.112  27.567  28.808  1.00  0.00     0.049 A 
ATOM     46  H   UNL A   1      43.047  27.706  28.050  1.00  0.00     0.167 HD
ATOM     47  C   UNL A   1      47.148  27.839  26.542  1.00  0.00     0.034 A 
ATOM     48  C   UNL A   1      40.809  28.767  29.342  1.00  0.00     0.034 A 
ATOM     49  C   UNL A   1      46.859  29.187  26.954  1.00  0.00     0.049 A 
ATOM     50  C   UNL A   1      41.825  29.878  29.286  1.00  0.00     0.074 A 
ATOM     51  C   UNL A   1      47.668  30.306  26.862  1.00  0.00     0.029 A 
ATOM     52  N   UNL A   1      45.679  29.595  27.555  1.00  0.00    -0.354 N 
ATOM     53  N   UNL A   1      43.012  29.888  28.730  1.00  0.00    -0.248 NA
ATOM     54  C   UNL A   1      41.445  31.157  29.906  1.00  0.00     0.031 C 
ATOM     55  C   UNL A   1      46.989  31.384  27.439  1.00  0.00     0.029 A 
ATOM     56  C   UNL A   1      45.744  30.944  27.861  1.00  0.00     0.049 A 
ATOM     57  H   UNL A   1      44.907  29.012  27.736  1.00  0.00     0.167 HD
ATOM     58  C   UNL A   1      43.505  31.177  28.897  1.00  0.00     0.074 A 
ATOM     59  C   UNL A   1      42.479  31.926  29.595  1.00  0.00     0.031 C 
ATOM     60  C   UNL A   1      44.700  31.694  28.514  1.00  0.00     0.034 A 
BRANCH  47  61
ATOM     61  C   UNL A   1      48.515  27.534  25.988  1.00  0.00     0.023 A 
ATOM     62  C   UNL A   1      49.556  27.149  26.858  1.00  0.00     0.012 A 
ATOM     63  C   UNL A   1      48.764  27.602  24.603  1.00  0.00     0.148 A 
ATOM     64  C   UNL A   1      50.832  26.880  26.363  1.00  0.00     0.002 A 
ATOM     65  C   UNL A   1      50.026  27.289  24.114  1.00  0.00     0.091 A 
ATOM     66  F   UNL A   1      47.771  27.994  23.792  1.00  0.00    -0.205 F 
ATOM     67  C   UNL A   1      51.065  26.941  24.992  1.00  0.00     0.022 A 
BRANCH  65  68
ATOM     68  S   UNL A   1      50.396  27.266  22.356  1.00  0.00     0.127 S 
ATOM     69  O   UNL A   1      50.307  28.685  22.016  1.00  0.00    -0.237 OA
ATOM     70  O   UNL A   1      51.752  26.717  22.330  1.00  0.00    -0.237 OA
ATOM     71  O   UNL A   1      49.388  26.408  21.749  1.00  0.00    -0.744 OA
ENDBRANCH  65  68
ENDBRANCH  47  61
BRANCH  48  72
ATOM     72  C   UNL A   1      39.459  29.000  29.927  1.00  0.00     0.023 A 
ATOM     73  C   UNL A   1      39.195  28.566  31.241  1.00  0.00     0.012 A 
ATOM     74  C   UNL A   1      38.449  29.666  29.207  1.00  0.00     0.148 A 
ATOM     75  C   UNL A   1      37.943  28.774  31.821  1.00  0.00     0.002 A 
ATOM     76  C   UNL A   1      37.222  29.915  29.808  1.00  0.00     0.091 A 
ATOM     77  F   UNL A   1      38.719  30.058  27.954  1.00  0.00    -0.205 F 
ATOM     78  C   UNL A   1      36.961  29.457  31.110  1.00  0.00     0.022 A 
BRANCH  76  79
ATOM     79  S   UNL A   1      35.935  30.887  29.018  1.00  0.00     0.127 S 
ATOM     80  O   UNL A   1      35.166  31.357  30.168  1.00  0.00    -0.237 OA
ATOM     81  O   UNL A   1      36.716  31.918  28.336  1.00  0.00    -0.237 OA
ATOM     82  O   UNL A   1      35.236  29.970  28.129  1.00  0.00    -0.744 OA
ENDBRANCH  76  79
ENDBRANCH  48  72
BRANCH  60  83
ATOM     83  C   UNL A   1      44.962  33.150  28.806  1.00  0.00     0.023 A 
ATOM     84  C   UNL A   1      44.625  34.130  27.852  1.00  0.00     0.012 A 
ATOM     85  C   UNL A   1      45.473  33.553  30.057  1.00  0.00     0.148 A 
ATOM     86  C   UNL A   1      44.822  35.484  28.125  1.00  0.00     0.002 A 
ATOM     87  C   UNL A   1      45.620  34.905  30.340  1.00  0.00     0.091 A 
ATOM     88  F   UNL A   1      45.805  32.605  30.947  1.00  0.00    -0.205 F 
ATOM     89  C   UNL A   1      45.308  35.872  29.371  1.00  0.00     0.022 A 
BRANCH  87  90
ATOM     90  S   UNL A   1      46.143  35.500  31.954  1.00  0.00     0.127 S 
ATOM     91  O   UNL A   1      46.430  36.906  31.674  1.00  0.00    -0.237 OA
ATOM     92  O   UNL A   1      44.952  35.272  32.770  1.00  0.00    -0.237 OA
ATOM     93  O   UNL A   1      47.295  34.689  32.326  1.00  0.00    -0.744 OA
ENDBRANCH  87  90
ENDBRANCH  60  83
ENDBRANCH  34  35
ENDBRANCH  27  29
ENDBRANCH  26  27
ENDBRANCH  25  26
ENDBRANCH  24  25
ENDBRANCH  23  24
ENDBRANCH   1  23
TORSDOF 23
ENDMDL
