MODEL 1
REMARK VINA RESULT:     -11.6      0.000      0.000
REMARK SMILES O=C(Cc1ccccc1Nc1c(F)cccc1C(F)(F)F)OCCOCCOC(=O)c1ccc(-c2c3nc(c(-c4cccc(S(=O)(=O)[O-])c4F)c4ccc([nH]4)c(-c4cccc(S(=O)(=O)[O-])c4F)c4nc(c(-c5cccc(S(=O)(=O)[O-])c5F)c5ccc2[nH]5)C=C4)C=C3)cc1
REMARK SMILES IDX 24 1 23 2 22 3 2 4 1 5 3 6 4 7 5 8 9 9 6 10 8 11 7 12 10 13
REMARK SMILES IDX 11 15 12 16 17 17 13 18 14 19 16 20 15 21 18 22 19 23 20 24
REMARK SMILES IDX 21 25 25 26 26 27 27 28 28 29 29 30 30 31 31 32 32 33 93 34
REMARK SMILES IDX 33 35 92 36 34 37 35 38 36 39 86 40 37 41 91 42 85 43 87 44
REMARK SMILES IDX 38 45 90 46 84 47 83 48 39 50 71 51 51 52 70 53 52 54 55 55
REMARK SMILES IDX 69 56 88 57 53 58 54 59 68 61 89 62 56 63 40 64 41 65 49 66
REMARK SMILES IDX 42 67 44 68 50 69 43 70 45 71 46 72 47 73 48 74 72 75 73 76
REMARK SMILES IDX 81 77 74 78 76 79 82 80 75 81 77 82 78 83 79 84 80 85 57 86
REMARK SMILES IDX 58 87 66 88 59 89 61 90 67 91 60 92 62 93 63 94 64 95 65 96
REMARK H PARENT 10 14 87 49 55 60
REMARK Flexibility Score: inf
ROOT
ATOM      1  C   UNL A   1      32.359  28.223  27.332  1.00  0.00     0.202 C 
ENDROOT
BRANCH   1   2
ATOM      2  C   UNL A   1      32.324  26.944  26.491  1.00  0.00     0.261 C 
BRANCH   2   3
ATOM      3  O   UNL A   1      31.098  26.208  26.519  1.00  0.00    -0.463 OA
BRANCH   3   4
ATOM      4  C   UNL A   1      31.032  24.867  26.339  1.00  0.00     0.310 C 
ATOM      5  O   UNL A   1      31.380  24.111  27.249  1.00  0.00    -0.252 OA
BRANCH   4   6
ATOM      6  C   UNL A   1      30.609  24.305  24.999  1.00  0.00     0.160 C 
BRANCH   6   7
ATOM      7  C   UNL A   1      31.478  24.755  23.860  1.00  0.00    -0.013 A 
ATOM      8  C   UNL A   1      30.987  25.702  22.946  1.00  0.00     0.006 A 
ATOM      9  C   UNL A   1      32.771  24.242  23.693  1.00  0.00     0.042 A 
ATOM     10  C   UNL A   1      31.690  26.013  21.791  1.00  0.00     0.000 A 
ATOM     11  C   UNL A   1      33.473  24.568  22.527  1.00  0.00     0.026 A 
ATOM     12  C   UNL A   1      32.925  25.420  21.567  1.00  0.00     0.002 A 
BRANCH   9  13
ATOM     13  N   UNL A   1      33.367  23.505  24.729  1.00  0.00    -0.352 N 
ATOM     14  H   UNL A   1      33.137  23.805  25.638  1.00  0.00     0.167 HD
BRANCH  13  15
ATOM     15  C   UNL A   1      34.243  22.406  24.672  1.00  0.00     0.087 A 
ATOM     16  C   UNL A   1      35.622  22.690  24.731  1.00  0.00     0.147 A 
ATOM     17  C   UNL A   1      33.848  21.054  24.648  1.00  0.00     0.082 A 
ATOM     18  F   UNL A   1      36.029  23.968  24.670  1.00  0.00    -0.205 F 
ATOM     19  C   UNL A   1      36.584  21.697  24.870  1.00  0.00     0.041 A 
ATOM     20  C   UNL A   1      34.832  20.054  24.835  1.00  0.00     0.015 A 
ATOM     21  C   UNL A   1      36.183  20.372  24.959  1.00  0.00     0.004 A 
BRANCH  17  22
ATOM     22  C   UNL A   1      32.439  20.578  24.366  1.00  0.00     0.418 C 
ATOM     23  F   UNL A   1      31.558  21.046  25.309  1.00  0.00    -0.166 F 
ATOM     24  F   UNL A   1      31.943  21.040  23.184  1.00  0.00    -0.166 F 
ATOM     25  F   UNL A   1      32.256  19.231  24.382  1.00  0.00    -0.166 F 
ENDBRANCH  17  22
ENDBRANCH  13  15
ENDBRANCH   9  13
ENDBRANCH   6   7
ENDBRANCH   4   6
ENDBRANCH   3   4
ENDBRANCH   2   3
ENDBRANCH   1   2
BRANCH   1  26
ATOM     26  O   UNL A   1      31.435  29.273  27.059  1.00  0.00    -0.374 OA
BRANCH  26  27
ATOM     27  C   UNL A   1      31.806  30.219  26.052  1.00  0.00     0.202 C 
BRANCH  27  28
ATOM     28  C   UNL A   1      31.821  31.684  26.491  1.00  0.00     0.261 C 
BRANCH  28  29
ATOM     29  O   UNL A   1      32.508  31.841  27.738  1.00  0.00    -0.460 OA
BRANCH  29  30
ATOM     30  C   UNL A   1      33.421  32.841  27.744  1.00  0.00     0.338 C 
ATOM     31  O   UNL A   1      33.202  34.041  27.691  1.00  0.00    -0.246 OA
BRANCH  30  32
ATOM     32  C   UNL A   1      34.745  32.273  28.070  1.00  0.00     0.060 A 
ATOM     33  C   UNL A   1      34.805  30.894  28.319  1.00  0.00     0.016 A 
ATOM     34  C   UNL A   1      35.906  33.050  28.079  1.00  0.00     0.016 A 
ATOM     35  C   UNL A   1      36.012  30.306  28.665  1.00  0.00     0.010 A 
ATOM     36  C   UNL A   1      37.119  32.460  28.435  1.00  0.00     0.010 A 
ATOM     37  C   UNL A   1      37.158  31.100  28.787  1.00  0.00    -0.014 A 
BRANCH  37  38
ATOM     38  C   UNL A   1      38.321  30.546  29.510  1.00  0.00     0.031 A 
ATOM     39  C   UNL A   1      38.537  30.979  30.934  1.00  0.00     0.074 A 
ATOM     40  C   UNL A   1      39.117  29.629  28.935  1.00  0.00     0.049 A 
ATOM     41  N   UNL A   1      39.449  30.597  31.786  1.00  0.00    -0.248 NA
ATOM     42  C   UNL A   1      37.596  31.980  31.470  1.00  0.00     0.031 C 
ATOM     43  C   UNL A   1      38.993  29.143  27.561  1.00  0.00     0.029 A 
ATOM     44  N   UNL A   1      40.198  28.956  29.438  1.00  0.00    -0.354 N 
ATOM     45  C   UNL A   1      39.201  31.316  32.949  1.00  0.00     0.074 A 
ATOM     46  C   UNL A   1      38.075  32.182  32.687  1.00  0.00     0.031 C 
ATOM     47  C   UNL A   1      39.980  28.264  27.322  1.00  0.00     0.029 A 
ATOM     48  C   UNL A   1      40.811  28.142  28.517  1.00  0.00     0.049 A 
ATOM     49  H   UNL A   1      40.507  29.047  30.368  1.00  0.00     0.167 HD
ATOM     50  C   UNL A   1      39.840  31.243  34.140  1.00  0.00     0.034 A 
ATOM     51  C   UNL A   1      41.931  27.400  28.630  1.00  0.00     0.034 A 
ATOM     52  C   UNL A   1      40.956  30.376  34.392  1.00  0.00     0.049 A 
ATOM     53  C   UNL A   1      42.636  27.351  29.959  1.00  0.00     0.074 A 
ATOM     54  C   UNL A   1      41.669  30.205  35.564  1.00  0.00     0.029 A 
ATOM     55  N   UNL A   1      41.530  29.535  33.448  1.00  0.00    -0.354 N 
ATOM     56  N   UNL A   1      42.331  27.959  31.081  1.00  0.00    -0.248 NA
ATOM     57  C   UNL A   1      43.815  26.479  30.051  1.00  0.00     0.031 C 
ATOM     58  C   UNL A   1      42.693  29.284  35.319  1.00  0.00     0.029 A 
ATOM     59  C   UNL A   1      42.591  28.849  34.008  1.00  0.00     0.049 A 
ATOM     60  H   UNL A   1      41.225  29.443  32.516  1.00  0.00     0.167 HD
ATOM     61  C   UNL A   1      43.260  27.522  32.019  1.00  0.00     0.074 A 
ATOM     62  C   UNL A   1      44.116  26.570  31.338  1.00  0.00     0.031 C 
ATOM     63  C   UNL A   1      43.405  27.880  33.319  1.00  0.00     0.034 A 
BRANCH  50  64
ATOM     64  C   UNL A   1      39.325  32.108  35.261  1.00  0.00     0.023 A 
ATOM     65  C   UNL A   1      38.335  31.606  36.133  1.00  0.00     0.012 A 
ATOM     66  C   UNL A   1      39.849  33.397  35.479  1.00  0.00     0.148 A 
ATOM     67  C   UNL A   1      37.852  32.386  37.184  1.00  0.00     0.002 A 
ATOM     68  C   UNL A   1      39.397  34.148  36.557  1.00  0.00     0.091 A 
ATOM     69  F   UNL A   1      40.768  33.865  34.625  1.00  0.00    -0.205 F 
ATOM     70  C   UNL A   1      38.391  33.651  37.402  1.00  0.00     0.022 A 
BRANCH  68  71
ATOM     71  S   UNL A   1      40.079  35.758  36.973  1.00  0.00     0.127 S 
ATOM     72  O   UNL A   1      41.506  35.456  37.075  1.00  0.00    -0.237 OA
ATOM     73  O   UNL A   1      39.706  36.557  35.805  1.00  0.00    -0.237 OA
ATOM     74  O   UNL A   1      39.438  36.157  38.217  1.00  0.00    -0.744 OA
ENDBRANCH  68  71
ENDBRANCH  50  64
BRANCH  51  75
ATOM     75  C   UNL A   1      42.439  26.634  27.457  1.00  0.00     0.023 A 
ATOM     76  C   UNL A   1      43.251  27.267  26.497  1.00  0.00     0.012 A 
ATOM     77  C   UNL A   1      42.121  25.272  27.296  1.00  0.00     0.148 A 
ATOM     78  C   UNL A   1      43.704  26.567  25.378  1.00  0.00     0.002 A 
ATOM     79  C   UNL A   1      42.626  24.565  26.213  1.00  0.00     0.091 A 
ATOM     80  F   UNL A   1      41.333  24.692  28.214  1.00  0.00    -0.205 F 
ATOM     81  C   UNL A   1      43.401  25.214  25.241  1.00  0.00     0.022 A 
BRANCH  79  82
ATOM     82  S   UNL A   1      42.397  22.793  26.035  1.00  0.00     0.127 S 
ATOM     83  O   UNL A   1      43.067  22.531  24.764  1.00  0.00    -0.237 OA
ATOM     84  O   UNL A   1      43.092  22.280  27.216  1.00  0.00    -0.237 OA
ATOM     85  O   UNL A   1      40.956  22.580  26.047  1.00  0.00    -0.744 OA
ENDBRANCH  79  82
ENDBRANCH  51  75
BRANCH  63  86
ATOM     86  C   UNL A   1      44.510  27.213  34.099  1.00  0.00     0.023 A 
ATOM     87  C   UNL A   1      45.774  27.827  34.195  1.00  0.00     0.012 A 
ATOM     88  C   UNL A   1      44.279  25.995  34.767  1.00  0.00     0.148 A 
ATOM     89  C   UNL A   1      46.808  27.211  34.900  1.00  0.00     0.002 A 
ATOM     90  C   UNL A   1      45.297  25.416  35.515  1.00  0.00     0.091 A 
ATOM     91  F   UNL A   1      43.073  25.418  34.653  1.00  0.00    -0.205 F 
ATOM     92  C   UNL A   1      46.567  26.012  35.567  1.00  0.00     0.022 A 
BRANCH  90  93
ATOM     93  S   UNL A   1      45.047  23.927  36.487  1.00  0.00     0.127 S 
ATOM     94  O   UNL A   1      43.997  23.249  35.728  1.00  0.00    -0.237 OA
ATOM     95  O   UNL A   1      46.361  23.287  36.416  1.00  0.00    -0.237 OA
ATOM     96  O   UNL A   1      44.668  24.377  37.819  1.00  0.00    -0.744 OA
ENDBRANCH  90  93
ENDBRANCH  63  86
ENDBRANCH  37  38
ENDBRANCH  30  32
ENDBRANCH  29  30
ENDBRANCH  28  29
ENDBRANCH  27  28
ENDBRANCH  26  27
ENDBRANCH   1  26
TORSDOF 21
ENDMDL
MODEL 2
REMARK VINA RESULT:     -11.4      5.083      8.229
REMARK SMILES O=C(Cc1ccccc1Nc1c(F)cccc1C(F)(F)F)OCCOCCOC(=O)c1ccc(-c2c3nc(c(-c4cccc(S(=O)(=O)[O-])c4F)c4ccc([nH]4)c(-c4cccc(S(=O)(=O)[O-])c4F)c4nc(c(-c5cccc(S(=O)(=O)[O-])c5F)c5ccc2[nH]5)C=C4)C=C3)cc1
REMARK SMILES IDX 24 1 23 2 22 3 2 4 1 5 3 6 4 7 5 8 9 9 6 10 8 11 7 12 10 13
REMARK SMILES IDX 11 15 12 16 17 17 13 18 14 19 16 20 15 21 18 22 19 23 20 24
REMARK SMILES IDX 21 25 25 26 26 27 27 28 28 29 29 30 30 31 31 32 32 33 93 34
REMARK SMILES IDX 33 35 92 36 34 37 35 38 36 39 86 40 37 41 91 42 85 43 87 44
REMARK SMILES IDX 38 45 90 46 84 47 83 48 39 50 71 51 51 52 70 53 52 54 55 55
REMARK SMILES IDX 69 56 88 57 53 58 54 59 68 61 89 62 56 63 40 64 41 65 49 66
REMARK SMILES IDX 42 67 44 68 50 69 43 70 45 71 46 72 47 73 48 74 72 75 73 76
REMARK SMILES IDX 81 77 74 78 76 79 82 80 75 81 77 82 78 83 79 84 80 85 57 86
REMARK SMILES IDX 58 87 66 88 59 89 61 90 67 91 60 92 62 93 63 94 64 95 65 96
REMARK H PARENT 10 14 87 49 55 60
REMARK Flexibility Score: inf
ROOT
ATOM      1  C   UNL A   1      35.252  23.099  26.041  1.00  0.00     0.202 C 
ENDROOT
BRANCH   1   2
ATOM      2  C   UNL A   1      34.690  23.604  24.709  1.00  0.00     0.261 C 
BRANCH   2   3
ATOM      3  O   UNL A   1      34.623  25.025  24.555  1.00  0.00    -0.463 OA
BRANCH   3   4
ATOM      4  C   UNL A   1      33.503  25.747  24.800  1.00  0.00     0.310 C 
ATOM      5  O   UNL A   1      32.595  25.256  25.473  1.00  0.00    -0.252 OA
BRANCH   4   6
ATOM      6  C   UNL A   1      33.341  27.118  24.180  1.00  0.00     0.160 C 
BRANCH   6   7
ATOM      7  C   UNL A   1      33.161  28.215  25.190  1.00  0.00    -0.013 A 
ATOM      8  C   UNL A   1      34.061  28.322  26.263  1.00  0.00     0.006 A 
ATOM      9  C   UNL A   1      32.108  29.131  25.079  1.00  0.00     0.042 A 
ATOM     10  C   UNL A   1      33.830  29.210  27.304  1.00  0.00     0.000 A 
ATOM     11  C   UNL A   1      31.889  30.026  26.132  1.00  0.00     0.026 A 
ATOM     12  C   UNL A   1      32.723  30.045  27.251  1.00  0.00     0.002 A 
BRANCH   9  13
ATOM     13  N   UNL A   1      31.367  29.201  23.888  1.00  0.00    -0.352 N 
ATOM     14  H   UNL A   1      31.904  29.198  23.064  1.00  0.00     0.167 HD
BRANCH  13  15
ATOM     15  C   UNL A   1      29.976  29.274  23.689  1.00  0.00     0.087 A 
ATOM     16  C   UNL A   1      29.416  30.563  23.595  1.00  0.00     0.147 A 
ATOM     17  C   UNL A   1      29.125  28.169  23.492  1.00  0.00     0.082 A 
ATOM     18  F   UNL A   1      30.185  31.631  23.862  1.00  0.00    -0.205 F 
ATOM     19  C   UNL A   1      28.096  30.779  23.217  1.00  0.00     0.041 A 
ATOM     20  C   UNL A   1      27.796  28.400  23.064  1.00  0.00     0.015 A 
ATOM     21  C   UNL A   1      27.291  29.691  22.915  1.00  0.00     0.004 A 
BRANCH  17  22
ATOM     22  C   UNL A   1      29.509  26.731  23.772  1.00  0.00     0.418 C 
ATOM     23  F   UNL A   1      30.556  26.333  22.979  1.00  0.00    -0.166 F 
ATOM     24  F   UNL A   1      29.956  26.533  25.043  1.00  0.00    -0.166 F 
ATOM     25  F   UNL A   1      28.543  25.805  23.533  1.00  0.00    -0.166 F 
ENDBRANCH  17  22
ENDBRANCH  13  15
ENDBRANCH   9  13
ENDBRANCH   6   7
ENDBRANCH   4   6
ENDBRANCH   3   4
ENDBRANCH   2   3
ENDBRANCH   1   2
BRANCH   1  26
ATOM     26  O   UNL A   1      35.447  21.702  26.241  1.00  0.00    -0.374 OA
BRANCH  26  27
ATOM     27  C   UNL A   1      35.708  20.910  25.079  1.00  0.00     0.202 C 
BRANCH  27  28
ATOM     28  C   UNL A   1      37.104  20.291  24.998  1.00  0.00     0.261 C 
BRANCH  28  29
ATOM     29  O   UNL A   1      38.119  21.296  25.103  1.00  0.00    -0.460 OA
BRANCH  29  30
ATOM     30  C   UNL A   1      39.124  20.980  25.954  1.00  0.00     0.338 C 
ATOM     31  O   UNL A   1      39.654  19.888  26.098  1.00  0.00    -0.246 OA
BRANCH  30  32
ATOM     32  C   UNL A   1      39.667  22.226  26.532  1.00  0.00     0.060 A 
ATOM     33  C   UNL A   1      39.068  23.429  26.131  1.00  0.00     0.016 A 
ATOM     34  C   UNL A   1      40.692  22.221  27.481  1.00  0.00     0.016 A 
ATOM     35  C   UNL A   1      39.554  24.637  26.611  1.00  0.00     0.010 A 
ATOM     36  C   UNL A   1      41.186  23.436  27.958  1.00  0.00     0.010 A 
ATOM     37  C   UNL A   1      40.655  24.643  27.475  1.00  0.00    -0.014 A 
BRANCH  37  38
ATOM     38  C   UNL A   1      41.385  25.914  27.668  1.00  0.00     0.031 A 
ATOM     39  C   UNL A   1      40.690  27.018  28.416  1.00  0.00     0.074 A 
ATOM     40  C   UNL A   1      42.654  26.049  27.251  1.00  0.00     0.049 A 
ATOM     41  N   UNL A   1      41.137  28.197  28.754  1.00  0.00    -0.248 NA
ATOM     42  C   UNL A   1      39.302  26.758  28.841  1.00  0.00     0.031 C 
ATOM     43  C   UNL A   1      43.417  25.039  26.517  1.00  0.00     0.029 A 
ATOM     44  N   UNL A   1      43.519  27.104  27.376  1.00  0.00    -0.354 N 
ATOM     45  C   UNL A   1      40.087  28.821  29.417  1.00  0.00     0.074 A 
ATOM     46  C   UNL A   1      38.969  27.906  29.406  1.00  0.00     0.031 C 
ATOM     47  C   UNL A   1      44.633  25.536  26.233  1.00  0.00     0.029 A 
ATOM     48  C   UNL A   1      44.725  26.899  26.750  1.00  0.00     0.049 A 
ATOM     49  H   UNL A   1      43.298  27.929  27.866  1.00  0.00     0.167 HD
ATOM     50  C   UNL A   1      40.065  30.039  30.005  1.00  0.00     0.034 A 
ATOM     51  C   UNL A   1      45.772  27.733  26.598  1.00  0.00     0.034 A 
ATOM     52  C   UNL A   1      41.183  30.939  30.014  1.00  0.00     0.049 A 
ATOM     53  C   UNL A   1      45.714  29.092  27.244  1.00  0.00     0.074 A 
ATOM     54  C   UNL A   1      41.279  32.190  30.595  1.00  0.00     0.029 A 
ATOM     55  N   UNL A   1      42.403  30.686  29.403  1.00  0.00    -0.354 N 
ATOM     56  N   UNL A   1      44.752  29.631  27.955  1.00  0.00    -0.248 NA
ATOM     57  C   UNL A   1      46.905  29.942  27.105  1.00  0.00     0.031 C 
ATOM     58  C   UNL A   1      42.547  32.706  30.308  1.00  0.00     0.029 A 
ATOM     59  C   UNL A   1      43.256  31.758  29.586  1.00  0.00     0.049 A 
ATOM     60  H   UNL A   1      42.627  29.863  28.910  1.00  0.00     0.167 HD
ATOM     61  C   UNL A   1      45.231  30.868  28.373  1.00  0.00     0.074 A 
ATOM     62  C   UNL A   1      46.583  30.981  27.863  1.00  0.00     0.031 C 
ATOM     63  C   UNL A   1      44.610  31.831  29.099  1.00  0.00     0.034 A 
BRANCH  50  64
ATOM     64  C   UNL A   1      38.796  30.450  30.707  1.00  0.00     0.023 A 
ATOM     65  C   UNL A   1      38.591  30.082  32.053  1.00  0.00     0.012 A 
ATOM     66  C   UNL A   1      37.828  31.236  30.051  1.00  0.00     0.148 A 
ATOM     67  C   UNL A   1      37.429  30.462  32.725  1.00  0.00     0.002 A 
ATOM     68  C   UNL A   1      36.696  31.650  30.741  1.00  0.00     0.091 A 
ATOM     69  F   UNL A   1      38.029  31.553  28.764  1.00  0.00    -0.205 F 
ATOM     70  C   UNL A   1      36.488  31.254  32.073  1.00  0.00     0.022 A 
BRANCH  68  71
ATOM     71  S   UNL A   1      35.461  32.736  30.019  1.00  0.00     0.127 S 
ATOM     72  O   UNL A   1      35.131  32.027  28.783  1.00  0.00    -0.237 OA
ATOM     73  O   UNL A   1      34.408  32.716  31.034  1.00  0.00    -0.237 OA
ATOM     74  O   UNL A   1      36.113  34.025  29.839  1.00  0.00    -0.744 OA
ENDBRANCH  68  71
ENDBRANCH  50  64
BRANCH  51  75
ATOM     75  C   UNL A   1      46.964  27.299  25.818  1.00  0.00     0.023 A 
ATOM     76  C   UNL A   1      47.938  26.475  26.414  1.00  0.00     0.012 A 
ATOM     77  C   UNL A   1      47.130  27.699  24.478  1.00  0.00     0.148 A 
ATOM     78  C   UNL A   1      49.075  26.090  25.701  1.00  0.00     0.002 A 
ATOM     79  C   UNL A   1      48.232  27.261  23.756  1.00  0.00     0.091 A 
ATOM     80  F   UNL A   1      46.200  28.496  23.935  1.00  0.00    -0.205 F 
ATOM     81  C   UNL A   1      49.217  26.474  24.370  1.00  0.00     0.022 A 
BRANCH  79  82
ATOM     82  S   UNL A   1      48.423  27.596  22.002  1.00  0.00     0.127 S 
ATOM     83  O   UNL A   1      47.145  28.223  21.675  1.00  0.00    -0.237 OA
ATOM     84  O   UNL A   1      49.574  28.500  21.992  1.00  0.00    -0.237 OA
ATOM     85  O   UNL A   1      48.672  26.302  21.379  1.00  0.00    -0.744 OA
ENDBRANCH  79  82
ENDBRANCH  51  75
BRANCH  63  86
ATOM     86  C   UNL A   1      45.402  33.075  29.414  1.00  0.00     0.023 A 
ATOM     87  C   UNL A   1      46.242  33.109  30.544  1.00  0.00     0.012 A 
ATOM     88  C   UNL A   1      45.340  34.196  28.563  1.00  0.00     0.148 A 
ATOM     89  C   UNL A   1      46.966  34.259  30.855  1.00  0.00     0.002 A 
ATOM     90  C   UNL A   1      46.109  35.318  28.848  1.00  0.00     0.091 A 
ATOM     91  F   UNL A   1      44.525  34.151  27.499  1.00  0.00    -0.205 F 
ATOM     92  C   UNL A   1      46.908  35.359  30.002  1.00  0.00     0.022 A 
BRANCH  90  93
ATOM     93  S   UNL A   1      46.173  36.740  27.753  1.00  0.00     0.127 S 
ATOM     94  O   UNL A   1      44.832  37.299  27.912  1.00  0.00    -0.237 OA
ATOM     95  O   UNL A   1      47.243  37.542  28.348  1.00  0.00    -0.237 OA
ATOM     96  O   UNL A   1      46.481  36.214  26.430  1.00  0.00    -0.744 OA
ENDBRANCH  90  93
ENDBRANCH  63  86
ENDBRANCH  37  38
ENDBRANCH  30  32
ENDBRANCH  29  30
ENDBRANCH  28  29
ENDBRANCH  27  28
ENDBRANCH  26  27
ENDBRANCH   1  26
TORSDOF 21
ENDMDL
MODEL 3
REMARK VINA RESULT:     -11.3      5.070      7.966
REMARK SMILES O=C(Cc1ccccc1Nc1c(F)cccc1C(F)(F)F)OCCOCCOC(=O)c1ccc(-c2c3nc(c(-c4cccc(S(=O)(=O)[O-])c4F)c4ccc([nH]4)c(-c4cccc(S(=O)(=O)[O-])c4F)c4nc(c(-c5cccc(S(=O)(=O)[O-])c5F)c5ccc2[nH]5)C=C4)C=C3)cc1
REMARK SMILES IDX 24 1 23 2 22 3 2 4 1 5 3 6 4 7 5 8 9 9 6 10 8 11 7 12 10 13
REMARK SMILES IDX 11 15 12 16 17 17 13 18 14 19 16 20 15 21 18 22 19 23 20 24
REMARK SMILES IDX 21 25 25 26 26 27 27 28 28 29 29 30 30 31 31 32 32 33 93 34
REMARK SMILES IDX 33 35 92 36 34 37 35 38 36 39 86 40 37 41 91 42 85 43 87 44
REMARK SMILES IDX 38 45 90 46 84 47 83 48 39 50 71 51 51 52 70 53 52 54 55 55
REMARK SMILES IDX 69 56 88 57 53 58 54 59 68 61 89 62 56 63 40 64 41 65 49 66
REMARK SMILES IDX 42 67 44 68 50 69 43 70 45 71 46 72 47 73 48 74 72 75 73 76
REMARK SMILES IDX 81 77 74 78 76 79 82 80 75 81 77 82 78 83 79 84 80 85 57 86
REMARK SMILES IDX 58 87 66 88 59 89 61 90 67 91 60 92 62 93 63 94 64 95 65 96
REMARK H PARENT 10 14 87 49 55 60
REMARK Flexibility Score: inf
ROOT
ATOM      1  C   UNL A   1      34.480  22.397  26.388  1.00  0.00     0.202 C 
ENDROOT
BRANCH   1   2
ATOM      2  C   UNL A   1      33.209  22.584  27.221  1.00  0.00     0.261 C 
BRANCH   2   3
ATOM      3  O   UNL A   1      31.983  22.204  26.589  1.00  0.00    -0.463 OA
BRANCH   3   4
ATOM      4  C   UNL A   1      30.946  23.056  26.404  1.00  0.00     0.310 C 
ATOM      5  O   UNL A   1      30.207  23.333  27.351  1.00  0.00    -0.252 OA
BRANCH   4   6
ATOM      6  C   UNL A   1      30.654  23.600  25.022  1.00  0.00     0.160 C 
BRANCH   6   7
ATOM      7  C   UNL A   1      31.861  24.172  24.336  1.00  0.00    -0.013 A 
ATOM      8  C   UNL A   1      32.473  23.451  23.297  1.00  0.00     0.006 A 
ATOM      9  C   UNL A   1      32.387  25.413  24.717  1.00  0.00     0.042 A 
ATOM     10  C   UNL A   1      33.682  23.864  22.757  1.00  0.00     0.000 A 
ATOM     11  C   UNL A   1      33.604  25.821  24.161  1.00  0.00     0.026 A 
ATOM     12  C   UNL A   1      34.265  25.038  23.213  1.00  0.00     0.002 A 
BRANCH   9  13
ATOM     13  N   UNL A   1      31.644  26.255  25.561  1.00  0.00    -0.352 N 
ATOM     14  H   UNL A   1      31.225  25.807  26.330  1.00  0.00     0.167 HD
BRANCH  13  15
ATOM     15  C   UNL A   1      31.404  27.639  25.477  1.00  0.00     0.087 A 
ATOM     16  C   UNL A   1      31.925  28.436  26.515  1.00  0.00     0.147 A 
ATOM     17  C   UNL A   1      30.766  28.289  24.402  1.00  0.00     0.082 A 
ATOM     18  F   UNL A   1      32.463  27.839  27.590  1.00  0.00    -0.205 F 
ATOM     19  C   UNL A   1      31.923  29.825  26.463  1.00  0.00     0.041 A 
ATOM     20  C   UNL A   1      30.809  29.702  24.339  1.00  0.00     0.015 A 
ATOM     21  C   UNL A   1      31.393  30.461  25.351  1.00  0.00     0.004 A 
BRANCH  17  22
ATOM     22  C   UNL A   1      29.966  27.582  23.328  1.00  0.00     0.418 C 
ATOM     23  F   UNL A   1      30.789  26.947  22.432  1.00  0.00    -0.166 F 
ATOM     24  F   UNL A   1      29.171  26.590  23.817  1.00  0.00    -0.166 F 
ATOM     25  F   UNL A   1      29.186  28.381  22.553  1.00  0.00    -0.166 F 
ENDBRANCH  17  22
ENDBRANCH  13  15
ENDBRANCH   9  13
ENDBRANCH   6   7
ENDBRANCH   4   6
ENDBRANCH   3   4
ENDBRANCH   2   3
ENDBRANCH   1   2
BRANCH   1  26
ATOM     26  O   UNL A   1      35.077  21.107  26.291  1.00  0.00    -0.374 OA
BRANCH  26  27
ATOM     27  C   UNL A   1      35.643  20.747  25.027  1.00  0.00     0.202 C 
BRANCH  27  28
ATOM     28  C   UNL A   1      37.162  20.573  25.006  1.00  0.00     0.261 C 
BRANCH  28  29
ATOM     29  O   UNL A   1      37.815  21.669  25.655  1.00  0.00    -0.460 OA
BRANCH  29  30
ATOM     30  C   UNL A   1      39.053  21.378  26.121  1.00  0.00     0.338 C 
ATOM     31  O   UNL A   1      39.682  20.345  25.950  1.00  0.00    -0.246 OA
BRANCH  30  32
ATOM     32  C   UNL A   1      39.650  22.607  26.684  1.00  0.00     0.060 A 
ATOM     33  C   UNL A   1      39.007  23.819  26.394  1.00  0.00     0.016 A 
ATOM     34  C   UNL A   1      40.772  22.575  27.516  1.00  0.00     0.016 A 
ATOM     35  C   UNL A   1      39.537  25.012  26.863  1.00  0.00     0.010 A 
ATOM     36  C   UNL A   1      41.309  23.775  27.981  1.00  0.00     0.010 A 
ATOM     37  C   UNL A   1      40.725  24.996  27.603  1.00  0.00    -0.014 A 
BRANCH  37  38
ATOM     38  C   UNL A   1      41.467  26.264  27.764  1.00  0.00     0.031 A 
ATOM     39  C   UNL A   1      40.778  27.397  28.473  1.00  0.00     0.074 A 
ATOM     40  C   UNL A   1      42.740  26.374  27.352  1.00  0.00     0.049 A 
ATOM     41  N   UNL A   1      41.235  28.582  28.778  1.00  0.00    -0.248 NA
ATOM     42  C   UNL A   1      39.385  27.164  28.894  1.00  0.00     0.031 C 
ATOM     43  C   UNL A   1      43.497  25.334  26.654  1.00  0.00     0.029 A 
ATOM     44  N   UNL A   1      43.615  27.423  27.451  1.00  0.00    -0.354 N 
ATOM     45  C   UNL A   1      40.187  29.236  29.414  1.00  0.00     0.074 A 
ATOM     46  C   UNL A   1      39.059  28.333  29.422  1.00  0.00     0.031 C 
ATOM     47  C   UNL A   1      44.720  25.809  26.365  1.00  0.00     0.029 A 
ATOM     48  C   UNL A   1      44.823  27.187  26.840  1.00  0.00     0.049 A 
ATOM     49  H   UNL A   1      43.399  28.264  27.914  1.00  0.00     0.167 HD
ATOM     50  C   UNL A   1      40.173  30.471  29.965  1.00  0.00     0.034 A 
ATOM     51  C   UNL A   1      45.880  28.005  26.672  1.00  0.00     0.034 A 
ATOM     52  C   UNL A   1      41.301  31.360  29.955  1.00  0.00     0.049 A 
ATOM     53  C   UNL A   1      45.832  29.383  27.276  1.00  0.00     0.074 A 
ATOM     54  C   UNL A   1      41.406  32.627  30.499  1.00  0.00     0.029 A 
ATOM     55  N   UNL A   1      42.522  31.076  29.361  1.00  0.00    -0.354 N 
ATOM     56  N   UNL A   1      44.870  29.953  27.964  1.00  0.00    -0.248 NA
ATOM     57  C   UNL A   1      47.033  30.217  27.120  1.00  0.00     0.031 C 
ATOM     58  C   UNL A   1      42.681  33.120  30.206  1.00  0.00     0.029 A 
ATOM     59  C   UNL A   1      43.385  32.144  29.519  1.00  0.00     0.049 A 
ATOM     60  H   UNL A   1      42.741  30.236  28.895  1.00  0.00     0.167 HD
ATOM     61  C   UNL A   1      45.359  31.197  28.347  1.00  0.00     0.074 A 
ATOM     62  C   UNL A   1      46.716  31.281  27.844  1.00  0.00     0.031 C 
ATOM     63  C   UNL A   1      44.743  32.188  29.039  1.00  0.00     0.034 A 
BRANCH  50  64
ATOM     64  C   UNL A   1      38.904  30.916  30.645  1.00  0.00     0.023 A 
ATOM     65  C   UNL A   1      38.779  30.792  32.044  1.00  0.00     0.012 A 
ATOM     66  C   UNL A   1      37.854  31.497  29.907  1.00  0.00     0.148 A 
ATOM     67  C   UNL A   1      37.618  31.208  32.695  1.00  0.00     0.002 A 
ATOM     68  C   UNL A   1      36.720  31.953  30.568  1.00  0.00     0.091 A 
ATOM     69  F   UNL A   1      37.980  31.582  28.576  1.00  0.00    -0.205 F 
ATOM     70  C   UNL A   1      36.594  31.798  31.959  1.00  0.00     0.022 A 
BRANCH  68  71
ATOM     71  S   UNL A   1      35.377  32.797  29.724  1.00  0.00     0.127 S 
ATOM     72  O   UNL A   1      34.326  32.768  30.741  1.00  0.00    -0.237 OA
ATOM     73  O   UNL A   1      35.954  34.119  29.481  1.00  0.00    -0.237 OA
ATOM     74  O   UNL A   1      35.102  32.019  28.525  1.00  0.00    -0.744 OA
ENDBRANCH  68  71
ENDBRANCH  50  64
BRANCH  51  75
ATOM     75  C   UNL A   1      47.073  27.535  25.914  1.00  0.00     0.023 A 
ATOM     76  C   UNL A   1      48.067  26.774  26.559  1.00  0.00     0.012 A 
ATOM     77  C   UNL A   1      47.221  27.838  24.547  1.00  0.00     0.148 A 
ATOM     78  C   UNL A   1      49.204  26.357  25.865  1.00  0.00     0.002 A 
ATOM     79  C   UNL A   1      48.324  27.368  23.847  1.00  0.00     0.091 A 
ATOM     80  F   UNL A   1      46.271  28.578  23.955  1.00  0.00    -0.205 F 
ATOM     81  C   UNL A   1      49.328  26.645  24.509  1.00  0.00     0.022 A 
BRANCH  79  82
ATOM     82  S   UNL A   1      48.494  27.576  22.072  1.00  0.00     0.127 S 
ATOM     83  O   UNL A   1      49.696  28.399  21.980  1.00  0.00    -0.237 OA
ATOM     84  O   UNL A   1      48.656  26.193  21.622  1.00  0.00    -0.237 OA
ATOM     85  O   UNL A   1      47.257  28.209  21.631  1.00  0.00    -0.744 OA
ENDBRANCH  79  82
ENDBRANCH  51  75
BRANCH  63  86
ATOM     86  C   UNL A   1      45.546  33.433  29.322  1.00  0.00     0.023 A 
ATOM     87  C   UNL A   1      46.331  33.515  30.489  1.00  0.00     0.012 A 
ATOM     88  C   UNL A   1      45.550  34.504  28.408  1.00  0.00     0.148 A 
ATOM     89  C   UNL A   1      47.064  34.667  30.770  1.00  0.00     0.002 A 
ATOM     90  C   UNL A   1      46.329  35.626  28.667  1.00  0.00     0.091 A 
ATOM     91  F   UNL A   1      44.787  34.414  27.310  1.00  0.00    -0.205 F 
ATOM     92  C   UNL A   1      47.071  35.717  29.855  1.00  0.00     0.022 A 
BRANCH  90  93
ATOM     93  S   UNL A   1      46.476  36.982  27.498  1.00  0.00     0.127 S 
ATOM     94  O   UNL A   1      47.087  36.318  26.348  1.00  0.00    -0.237 OA
ATOM     95  O   UNL A   1      45.081  37.378  27.305  1.00  0.00    -0.237 OA
ATOM     96  O   UNL A   1      47.302  37.987  28.153  1.00  0.00    -0.744 OA
ENDBRANCH  90  93
ENDBRANCH  63  86
ENDBRANCH  37  38
ENDBRANCH  30  32
ENDBRANCH  29  30
ENDBRANCH  28  29
ENDBRANCH  27  28
ENDBRANCH  26  27
ENDBRANCH   1  26
TORSDOF 21
ENDMDL
