MODEL 1
REMARK VINA RESULT:     -11.4      0.000      0.000
REMARK SMILES Cn1cc(NC(=O)N2Cc3nc[nH]c3C[C@@H]2C(=O)OCCOCCOC(=O)c2ccc(-c3c4nc(c(-c5cccc(S(=O)(=O)[O-])c5F)c5ccc([nH]5)c(-c5cccc(S(=O)(=O)[O-])c5F)c5nc(c(-c6cccc(S(=O)(=O)[O-])c6F)c6ccc3[nH]6)C=C5)C=C4)cc2)cn1
REMARK SMILES IDX 23 1 22 2 21 3 20 4 19 5 17 6 18 7 16 8 8 9 9 10 10 11 15 12
REMARK SMILES IDX 11 13 14 14 12 15 13 16 6 18 5 19 7 21 4 22 1 23 2 24 3 25
REMARK SMILES IDX 92 26 91 27 24 28 25 29 26 30 27 31 28 32 29 33 90 34 30 35
REMARK SMILES IDX 89 36 31 37 32 38 33 39 83 40 34 41 88 42 82 43 84 44 35 45
REMARK SMILES IDX 87 46 81 47 80 48 36 50 68 51 48 52 67 53 49 54 52 55 66 56
REMARK SMILES IDX 85 57 50 58 51 59 65 61 86 62 53 63 37 64 38 65 46 66 39 67
REMARK SMILES IDX 41 68 47 69 40 70 42 71 43 72 44 73 45 74 69 75 70 76 78 77
REMARK SMILES IDX 71 78 73 79 79 80 72 81 74 82 75 83 76 84 77 85 54 86 55 87
REMARK SMILES IDX 63 88 56 89 58 90 64 91 57 92 59 93 60 94 61 95 62 96
REMARK H PARENT 13 17 5 20 84 49 52 60
REMARK Flexibility Score: inf
ROOT
ATOM      1  C   UNL A   1      36.589  21.555  24.854  1.00  0.00     0.202 C 
ENDROOT
BRANCH   1   2
ATOM      2  O   UNL A   1      35.667  21.465  25.932  1.00  0.00    -0.374 OA
BRANCH   2   3
ATOM      3  C   UNL A   1      34.399  22.117  25.857  1.00  0.00     0.202 C 
BRANCH   3   4
ATOM      4  C   UNL A   1      33.772  22.374  24.483  1.00  0.00     0.261 C 
BRANCH   4   5
ATOM      5  O   UNL A   1      33.103  23.644  24.420  1.00  0.00    -0.462 OA
BRANCH   5   6
ATOM      6  C   UNL A   1      33.921  24.735  24.296  1.00  0.00     0.329 C 
ATOM      7  O   UNL A   1      35.048  24.698  23.822  1.00  0.00    -0.250 OA
BRANCH   6   8
ATOM      8  C   UNL A   1      33.167  26.015  24.727  1.00  0.00     0.203 C 
ATOM      9  N   UNL A   1      33.276  27.078  23.658  1.00  0.00    -0.304 N 
ATOM     10  C   UNL A   1      33.518  28.496  23.946  1.00  0.00     0.180 C 
ATOM     11  C   UNL A   1      33.502  28.781  25.393  1.00  0.00     0.081 A 
ATOM     12  C   UNL A   1      33.658  26.381  26.153  1.00  0.00     0.093 C 
ATOM     13  N   UNL A   1      33.405  30.033  25.937  1.00  0.00    -0.240 NA
ATOM     14  C   UNL A   1      33.546  27.830  26.377  1.00  0.00     0.042 A 
ATOM     15  C   UNL A   1      33.379  29.838  27.239  1.00  0.00     0.197 A 
ATOM     16  N   UNL A   1      33.460  28.507  27.558  1.00  0.00    -0.348 N 
ATOM     17  H   UNL A   1      33.456  28.116  28.462  1.00  0.00     0.167 HD
BRANCH   9  18
ATOM     18  C   UNL A   1      33.002  26.825  22.335  1.00  0.00     0.323 C 
ATOM     19  N   UNL A   1      31.713  26.625  21.946  1.00  0.00    -0.305 N 
ATOM     20  H   UNL A   1      31.573  25.969  21.226  1.00  0.00     0.171 HD
ATOM     21  O   UNL A   1      33.888  26.820  21.479  1.00  0.00    -0.248 OA
BRANCH  19  22
ATOM     22  C   UNL A   1      30.576  27.236  22.445  1.00  0.00     0.081 A 
ATOM     23  C   UNL A   1      28.168  29.905  22.655  1.00  0.00     0.173 C 
ATOM     24  N   UNL A   1      29.021  28.747  22.767  1.00  0.00    -0.274 N 
ATOM     25  C   UNL A   1      30.212  28.528  22.137  1.00  0.00     0.134 A 
ATOM     26  N   UNL A   1      28.618  27.711  23.517  1.00  0.00    -0.180 NA
ATOM     27  C   UNL A   1      29.582  26.804  23.351  1.00  0.00     0.161 A 
ENDBRANCH  19  22
ENDBRANCH   9  18
ENDBRANCH   6   8
ENDBRANCH   5   6
ENDBRANCH   4   5
ENDBRANCH   3   4
ENDBRANCH   2   3
ENDBRANCH   1   2
BRANCH   1  28
ATOM     28  C   UNL A   1      37.848  20.697  24.855  1.00  0.00     0.261 C 
BRANCH  28  29
ATOM     29  O   UNL A   1      38.804  21.150  25.790  1.00  0.00    -0.460 OA
BRANCH  29  30
ATOM     30  C   UNL A   1      39.886  20.353  25.852  1.00  0.00     0.338 C 
ATOM     31  O   UNL A   1      39.950  19.158  25.551  1.00  0.00    -0.246 OA
BRANCH  30  32
ATOM     32  C   UNL A   1      40.973  21.084  26.484  1.00  0.00     0.060 A 
ATOM     33  C   UNL A   1      41.035  20.995  27.876  1.00  0.00     0.016 A 
ATOM     34  C   UNL A   1      41.566  22.130  25.762  1.00  0.00     0.016 A 
ATOM     35  C   UNL A   1      41.408  22.121  28.561  1.00  0.00     0.010 A 
ATOM     36  C   UNL A   1      41.928  23.254  26.449  1.00  0.00     0.010 A 
ATOM     37  C   UNL A   1      41.728  23.269  27.825  1.00  0.00    -0.014 A 
BRANCH  37  38
ATOM     38  C   UNL A   1      42.047  24.477  28.543  1.00  0.00     0.031 A 
ATOM     39  C   UNL A   1      40.972  25.467  28.319  1.00  0.00     0.074 A 
ATOM     40  C   UNL A   1      43.117  24.574  29.356  1.00  0.00     0.049 A 
ATOM     41  N   UNL A   1      40.989  26.445  27.473  1.00  0.00    -0.248 NA
ATOM     42  C   UNL A   1      39.623  25.139  28.817  1.00  0.00     0.031 C 
ATOM     43  C   UNL A   1      44.034  23.518  29.800  1.00  0.00     0.029 A 
ATOM     44  N   UNL A   1      43.556  25.647  30.059  1.00  0.00    -0.354 N 
ATOM     45  C   UNL A   1      39.737  27.032  27.611  1.00  0.00     0.074 A 
ATOM     46  C   UNL A   1      38.879  26.014  28.140  1.00  0.00     0.031 C 
ATOM     47  C   UNL A   1      44.717  23.951  30.889  1.00  0.00     0.029 A 
ATOM     48  C   UNL A   1      44.380  25.342  31.139  1.00  0.00     0.049 A 
ATOM     49  H   UNL A   1      43.311  26.570  29.824  1.00  0.00     0.167 HD
ATOM     50  C   UNL A   1      39.629  28.386  27.690  1.00  0.00     0.034 A 
ATOM     51  C   UNL A   1      44.671  26.164  32.186  1.00  0.00     0.034 A 
ATOM     52  C   UNL A   1      40.832  29.018  27.198  1.00  0.00     0.049 A 
ATOM     53  C   UNL A   1      44.321  27.543  31.765  1.00  0.00     0.074 A 
ATOM     54  C   UNL A   1      41.532  28.991  26.008  1.00  0.00     0.029 A 
ATOM     55  N   UNL A   1      41.715  29.458  28.155  1.00  0.00    -0.354 N 
ATOM     56  N   UNL A   1      44.947  28.174  30.810  1.00  0.00    -0.248 NA
ATOM     57  C   UNL A   1      42.967  28.000  32.041  1.00  0.00     0.031 C 
ATOM     58  C   UNL A   1      42.906  28.987  26.388  1.00  0.00     0.029 A 
ATOM     59  C   UNL A   1      42.983  29.113  27.776  1.00  0.00     0.049 A 
ATOM     60  H   UNL A   1      41.473  29.944  28.977  1.00  0.00     0.167 HD
ATOM     61  C   UNL A   1      43.928  28.747  30.060  1.00  0.00     0.074 A 
ATOM     62  C   UNL A   1      42.737  28.673  30.910  1.00  0.00     0.031 C 
ATOM     63  C   UNL A   1      44.067  28.918  28.713  1.00  0.00     0.034 A 
BRANCH  50  64
ATOM     64  C   UNL A   1      38.683  29.112  28.631  1.00  0.00     0.023 A 
ATOM     65  C   UNL A   1      37.967  30.196  28.083  1.00  0.00     0.012 A 
ATOM     66  C   UNL A   1      38.657  28.985  30.043  1.00  0.00     0.148 A 
ATOM     67  C   UNL A   1      37.327  31.139  28.894  1.00  0.00     0.002 A 
ATOM     68  C   UNL A   1      37.962  29.881  30.842  1.00  0.00     0.091 A 
ATOM     69  F   UNL A   1      39.403  28.071  30.662  1.00  0.00    -0.205 F 
ATOM     70  C   UNL A   1      37.322  30.981  30.275  1.00  0.00     0.022 A 
BRANCH  68  71
ATOM     71  S   UNL A   1      37.902  29.701  32.632  1.00  0.00     0.127 S 
ATOM     72  O   UNL A   1      36.995  30.784  33.004  1.00  0.00    -0.237 OA
ATOM     73  O   UNL A   1      37.354  28.353  32.773  1.00  0.00    -0.237 OA
ATOM     74  O   UNL A   1      39.277  29.838  33.098  1.00  0.00    -0.744 OA
ENDBRANCH  68  71
ENDBRANCH  50  64
BRANCH  51  75
ATOM     75  C   UNL A   1      44.865  25.837  33.627  1.00  0.00     0.023 A 
ATOM     76  C   UNL A   1      46.169  25.725  34.160  1.00  0.00     0.012 A 
ATOM     77  C   UNL A   1      43.792  25.945  34.539  1.00  0.00     0.148 A 
ATOM     78  C   UNL A   1      46.395  25.744  35.546  1.00  0.00     0.002 A 
ATOM     79  C   UNL A   1      44.019  25.963  35.913  1.00  0.00     0.091 A 
ATOM     80  F   UNL A   1      42.557  26.127  34.057  1.00  0.00    -0.205 F 
ATOM     81  C   UNL A   1      45.321  25.873  36.422  1.00  0.00     0.022 A 
BRANCH  79  82
ATOM     82  S   UNL A   1      42.683  26.171  37.099  1.00  0.00     0.127 S 
ATOM     83  O   UNL A   1      42.052  27.405  36.628  1.00  0.00    -0.237 OA
ATOM     84  O   UNL A   1      41.896  24.960  36.884  1.00  0.00    -0.237 OA
ATOM     85  O   UNL A   1      43.322  26.282  38.404  1.00  0.00    -0.744 OA
ENDBRANCH  79  82
ENDBRANCH  51  75
BRANCH  63  86
ATOM     86  C   UNL A   1      45.437  28.718  28.112  1.00  0.00     0.023 A 
ATOM     87  C   UNL A   1      46.461  29.690  28.156  1.00  0.00     0.012 A 
ATOM     88  C   UNL A   1      45.737  27.434  27.639  1.00  0.00     0.148 A 
ATOM     89  C   UNL A   1      47.754  29.381  27.719  1.00  0.00     0.002 A 
ATOM     90  C   UNL A   1      47.030  27.118  27.251  1.00  0.00     0.091 A 
ATOM     91  F   UNL A   1      44.749  26.527  27.609  1.00  0.00    -0.205 F 
ATOM     92  C   UNL A   1      48.042  28.090  27.278  1.00  0.00     0.022 A 
BRANCH  90  93
ATOM     93  S   UNL A   1      47.476  25.443  26.797  1.00  0.00     0.127 S 
ATOM     94  O   UNL A   1      48.908  25.569  26.540  1.00  0.00    -0.237 OA
ATOM     95  O   UNL A   1      47.132  24.691  28.006  1.00  0.00    -0.237 OA
ATOM     96  O   UNL A   1      46.658  25.108  25.637  1.00  0.00    -0.744 OA
ENDBRANCH  90  93
ENDBRANCH  63  86
ENDBRANCH  37  38
ENDBRANCH  30  32
ENDBRANCH  29  30
ENDBRANCH  28  29
ENDBRANCH   1  28
TORSDOF 19
ENDMDL
MODEL 2
REMARK VINA RESULT:     -10.8      1.749      2.069
REMARK SMILES Cn1cc(NC(=O)N2Cc3nc[nH]c3C[C@@H]2C(=O)OCCOCCOC(=O)c2ccc(-c3c4nc(c(-c5cccc(S(=O)(=O)[O-])c5F)c5ccc([nH]5)c(-c5cccc(S(=O)(=O)[O-])c5F)c5nc(c(-c6cccc(S(=O)(=O)[O-])c6F)c6ccc3[nH]6)C=C5)C=C4)cc2)cn1
REMARK SMILES IDX 23 1 22 2 21 3 20 4 19 5 17 6 18 7 16 8 8 9 9 10 10 11 15 12
REMARK SMILES IDX 11 13 14 14 12 15 13 16 6 18 5 19 7 21 4 22 1 23 2 24 3 25
REMARK SMILES IDX 92 26 91 27 24 28 25 29 26 30 27 31 28 32 29 33 90 34 30 35
REMARK SMILES IDX 89 36 31 37 32 38 33 39 83 40 34 41 88 42 82 43 84 44 35 45
REMARK SMILES IDX 87 46 81 47 80 48 36 50 68 51 48 52 67 53 49 54 52 55 66 56
REMARK SMILES IDX 85 57 50 58 51 59 65 61 86 62 53 63 37 64 38 65 46 66 39 67
REMARK SMILES IDX 41 68 47 69 40 70 42 71 43 72 44 73 45 74 69 75 70 76 78 77
REMARK SMILES IDX 71 78 73 79 79 80 72 81 74 82 75 83 76 84 77 85 54 86 55 87
REMARK SMILES IDX 63 88 56 89 58 90 64 91 57 92 59 93 60 94 61 95 62 96
REMARK H PARENT 13 17 5 20 84 49 52 60
REMARK Flexibility Score: inf
ROOT
ATOM      1  C   UNL A   1      37.844  20.774  25.022  1.00  0.00     0.202 C 
ENDROOT
BRANCH   1   2
ATOM      2  O   UNL A   1      36.583  21.400  24.828  1.00  0.00    -0.374 OA
BRANCH   2   3
ATOM      3  C   UNL A   1      36.369  22.744  25.258  1.00  0.00     0.202 C 
BRANCH   3   4
ATOM      4  C   UNL A   1      34.947  23.202  25.598  1.00  0.00     0.261 C 
BRANCH   4   5
ATOM      5  O   UNL A   1      34.727  24.584  25.270  1.00  0.00    -0.462 OA
BRANCH   5   6
ATOM      6  C   UNL A   1      33.677  24.828  24.426  1.00  0.00     0.329 C 
ATOM      7  O   UNL A   1      33.285  24.043  23.573  1.00  0.00    -0.250 OA
BRANCH   6   8
ATOM      8  C   UNL A   1      33.002  26.169  24.793  1.00  0.00     0.203 C 
ATOM      9  N   UNL A   1      33.281  27.210  23.734  1.00  0.00    -0.304 N 
ATOM     10  C   UNL A   1      33.618  28.606  24.036  1.00  0.00     0.180 C 
ATOM     11  C   UNL A   1      33.514  28.904  25.476  1.00  0.00     0.081 A 
ATOM     12  C   UNL A   1      33.410  26.506  26.253  1.00  0.00     0.093 C 
ATOM     13  N   UNL A   1      33.479  30.165  26.008  1.00  0.00    -0.240 NA
ATOM     14  C   UNL A   1      33.402  27.962  26.463  1.00  0.00     0.042 A 
ATOM     15  C   UNL A   1      33.337  29.984  27.304  1.00  0.00     0.197 A 
ATOM     16  N   UNL A   1      33.281  28.654  27.632  1.00  0.00    -0.348 N 
ATOM     17  H   UNL A   1      33.175  28.273  28.535  1.00  0.00     0.167 HD
BRANCH   9  18
ATOM     18  C   UNL A   1      33.091  26.969  22.394  1.00  0.00     0.323 C 
ATOM     19  N   UNL A   1      31.828  26.986  21.886  1.00  0.00    -0.305 N 
ATOM     20  H   UNL A   1      31.642  26.343  21.164  1.00  0.00     0.171 HD
ATOM     21  O   UNL A   1      34.037  26.783  21.627  1.00  0.00    -0.248 OA
BRANCH  19  22
ATOM     22  C   UNL A   1      30.776  27.801  22.264  1.00  0.00     0.081 A 
ATOM     23  C   UNL A   1      27.518  28.432  23.662  1.00  0.00     0.173 C 
ATOM     24  N   UNL A   1      28.816  28.412  23.033  1.00  0.00    -0.274 N 
ATOM     25  C   UNL A   1      29.565  27.318  22.707  1.00  0.00     0.134 A 
ATOM     26  N   UNL A   1      29.432  29.574  22.772  1.00  0.00    -0.180 NA
ATOM     27  C   UNL A   1      30.610  29.203  22.269  1.00  0.00     0.161 A 
ENDBRANCH  19  22
ENDBRANCH   9  18
ENDBRANCH   6   8
ENDBRANCH   5   6
ENDBRANCH   4   5
ENDBRANCH   3   4
ENDBRANCH   2   3
ENDBRANCH   1   2
BRANCH   1  28
ATOM     28  C   UNL A   1      38.949  21.503  25.776  1.00  0.00     0.261 C 
BRANCH  28  29
ATOM     29  O   UNL A   1      39.694  20.638  26.606  1.00  0.00    -0.460 OA
BRANCH  29  30
ATOM     30  C   UNL A   1      40.910  20.358  26.104  1.00  0.00     0.338 C 
ATOM     31  O   UNL A   1      41.213  19.419  25.363  1.00  0.00    -0.246 OA
BRANCH  30  32
ATOM     32  C   UNL A   1      41.883  21.265  26.693  1.00  0.00     0.060 A 
ATOM     33  C   UNL A   1      41.987  21.220  28.084  1.00  0.00     0.016 A 
ATOM     34  C   UNL A   1      42.290  22.372  25.935  1.00  0.00     0.016 A 
ATOM     35  C   UNL A   1      42.194  22.407  28.736  1.00  0.00     0.010 A 
ATOM     36  C   UNL A   1      42.485  23.555  26.589  1.00  0.00     0.010 A 
ATOM     37  C   UNL A   1      42.315  23.572  27.969  1.00  0.00    -0.014 A 
BRANCH  37  38
ATOM     38  C   UNL A   1      42.456  24.833  28.653  1.00  0.00     0.031 A 
ATOM     39  C   UNL A   1      41.283  25.679  28.350  1.00  0.00     0.074 A 
ATOM     40  C   UNL A   1      43.470  25.084  29.505  1.00  0.00     0.049 A 
ATOM     41  N   UNL A   1      41.221  26.624  27.469  1.00  0.00    -0.248 NA
ATOM     42  C   UNL A   1      39.961  25.207  28.805  1.00  0.00     0.031 C 
ATOM     43  C   UNL A   1      44.485  24.161  30.024  1.00  0.00     0.029 A 
ATOM     44  N   UNL A   1      43.747  26.224  30.184  1.00  0.00    -0.354 N 
ATOM     45  C   UNL A   1      39.903  27.060  27.535  1.00  0.00     0.074 A 
ATOM     46  C   UNL A   1      39.149  25.964  28.067  1.00  0.00     0.031 C 
ATOM     47  C   UNL A   1      45.064  24.708  31.123  1.00  0.00     0.029 A 
ATOM     48  C   UNL A   1      44.553  26.055  31.307  1.00  0.00     0.049 A 
ATOM     49  H   UNL A   1      43.405  27.103  29.905  1.00  0.00     0.167 HD
ATOM     50  C   UNL A   1      39.631  28.393  27.559  1.00  0.00     0.034 A 
ATOM     51  C   UNL A   1      44.698  26.939  32.333  1.00  0.00     0.034 A 
ATOM     52  C   UNL A   1      40.772  29.148  27.092  1.00  0.00     0.049 A 
ATOM     53  C   UNL A   1      44.206  28.252  31.847  1.00  0.00     0.074 A 
ATOM     54  C   UNL A   1      41.522  29.168  25.933  1.00  0.00     0.029 A 
ATOM     55  N   UNL A   1      41.553  29.723  28.066  1.00  0.00    -0.354 N 
ATOM     56  N   UNL A   1      44.794  28.923  30.895  1.00  0.00    -0.248 NA
ATOM     57  C   UNL A   1      42.796  28.552  32.051  1.00  0.00     0.031 C 
ATOM     58  C   UNL A   1      42.869  29.341  26.367  1.00  0.00     0.029 A 
ATOM     59  C   UNL A   1      42.868  29.520  27.752  1.00  0.00     0.049 A 
ATOM     60  H   UNL A   1      41.219  30.202  28.860  1.00  0.00     0.167 HD
ATOM     61  C   UNL A   1      43.748  29.345  30.084  1.00  0.00     0.074 A 
ATOM     62  C   UNL A   1      42.538  29.155  30.888  1.00  0.00     0.031 C 
ATOM     63  C   UNL A   1      43.926  29.487  28.738  1.00  0.00     0.034 A 
BRANCH  50  64
ATOM     64  C   UNL A   1      38.566  29.030  28.433  1.00  0.00     0.023 A 
ATOM     65  C   UNL A   1      37.703  29.948  27.798  1.00  0.00     0.012 A 
ATOM     66  C   UNL A   1      38.530  29.004  29.850  1.00  0.00     0.148 A 
ATOM     67  C   UNL A   1      36.908  30.836  28.530  1.00  0.00     0.002 A 
ATOM     68  C   UNL A   1      37.688  29.837  30.573  1.00  0.00     0.091 A 
ATOM     69  F   UNL A   1      39.393  28.263  30.543  1.00  0.00    -0.205 F 
ATOM     70  C   UNL A   1      36.898  30.780  29.919  1.00  0.00     0.022 A 
BRANCH  68  71
ATOM     71  S   UNL A   1      37.618  29.780  32.371  1.00  0.00     0.127 S 
ATOM     72  O   UNL A   1      37.321  28.370  32.607  1.00  0.00    -0.237 OA
ATOM     73  O   UNL A   1      38.972  30.201  32.730  1.00  0.00    -0.237 OA
ATOM     74  O   UNL A   1      36.577  30.722  32.765  1.00  0.00    -0.744 OA
ENDBRANCH  68  71
ENDBRANCH  50  64
BRANCH  51  75
ATOM     75  C   UNL A   1      44.865  26.685  33.792  1.00  0.00     0.023 A 
ATOM     76  C   UNL A   1      46.083  27.008  34.434  1.00  0.00     0.012 A 
ATOM     77  C   UNL A   1      43.744  26.424  34.609  1.00  0.00     0.148 A 
ATOM     78  C   UNL A   1      46.170  27.091  35.832  1.00  0.00     0.002 A 
ATOM     79  C   UNL A   1      43.834  26.507  35.997  1.00  0.00     0.091 A 
ATOM     80  F   UNL A   1      42.564  26.190  34.022  1.00  0.00    -0.205 F 
ATOM     81  C   UNL A   1      45.044  26.850  36.614  1.00  0.00     0.022 A 
BRANCH  79  82
ATOM     82  S   UNL A   1      42.408  26.252  37.063  1.00  0.00     0.127 S 
ATOM     83  O   UNL A   1      42.072  24.855  36.787  1.00  0.00    -0.237 OA
ATOM     84  O   UNL A   1      42.974  26.495  38.388  1.00  0.00    -0.237 OA
ATOM     85  O   UNL A   1      41.404  27.211  36.622  1.00  0.00    -0.744 OA
ENDBRANCH  79  82
ENDBRANCH  51  75
BRANCH  63  86
ATOM     86  C   UNL A   1      45.334  29.435  28.201  1.00  0.00     0.023 A 
ATOM     87  C   UNL A   1      45.943  28.259  27.709  1.00  0.00     0.012 A 
ATOM     88  C   UNL A   1      45.994  30.661  28.038  1.00  0.00     0.148 A 
ATOM     89  C   UNL A   1      47.193  28.313  27.082  1.00  0.00     0.002 A 
ATOM     90  C   UNL A   1      47.210  30.717  27.374  1.00  0.00     0.091 A 
ATOM     91  F   UNL A   1      45.395  31.764  28.510  1.00  0.00    -0.205 F 
ATOM     92  C   UNL A   1      47.821  29.545  26.903  1.00  0.00     0.022 A 
BRANCH  90  93
ATOM     93  S   UNL A   1      47.993  32.287  27.010  1.00  0.00     0.127 S 
ATOM     94  O   UNL A   1      47.186  32.776  25.895  1.00  0.00    -0.237 OA
ATOM     95  O   UNL A   1      47.816  33.021  28.265  1.00  0.00    -0.237 OA
ATOM     96  O   UNL A   1      49.382  31.980  26.692  1.00  0.00    -0.744 OA
ENDBRANCH  90  93
ENDBRANCH  63  86
ENDBRANCH  37  38
ENDBRANCH  30  32
ENDBRANCH  29  30
ENDBRANCH  28  29
ENDBRANCH   1  28
TORSDOF 19
ENDMDL
MODEL 3
REMARK VINA RESULT:     -10.6      3.210      7.571
REMARK SMILES Cn1cc(NC(=O)N2Cc3nc[nH]c3C[C@@H]2C(=O)OCCOCCOC(=O)c2ccc(-c3c4nc(c(-c5cccc(S(=O)(=O)[O-])c5F)c5ccc([nH]5)c(-c5cccc(S(=O)(=O)[O-])c5F)c5nc(c(-c6cccc(S(=O)(=O)[O-])c6F)c6ccc3[nH]6)C=C5)C=C4)cc2)cn1
REMARK SMILES IDX 23 1 22 2 21 3 20 4 19 5 17 6 18 7 16 8 8 9 9 10 10 11 15 12
REMARK SMILES IDX 11 13 14 14 12 15 13 16 6 18 5 19 7 21 4 22 1 23 2 24 3 25
REMARK SMILES IDX 92 26 91 27 24 28 25 29 26 30 27 31 28 32 29 33 90 34 30 35
REMARK SMILES IDX 89 36 31 37 32 38 33 39 83 40 34 41 88 42 82 43 84 44 35 45
REMARK SMILES IDX 87 46 81 47 80 48 36 50 68 51 48 52 67 53 49 54 52 55 66 56
REMARK SMILES IDX 85 57 50 58 51 59 65 61 86 62 53 63 37 64 38 65 46 66 39 67
REMARK SMILES IDX 41 68 47 69 40 70 42 71 43 72 44 73 45 74 69 75 70 76 78 77
REMARK SMILES IDX 71 78 73 79 79 80 72 81 74 82 75 83 76 84 77 85 54 86 55 87
REMARK SMILES IDX 63 88 56 89 58 90 64 91 57 92 59 93 60 94 61 95 62 96
REMARK H PARENT 13 17 5 20 84 49 52 60
REMARK Flexibility Score: inf
ROOT
ATOM      1  C   UNL A   1      34.026  29.639  26.964  1.00  0.00     0.202 C 
ENDROOT
BRANCH   1   2
ATOM      2  O   UNL A   1      32.973  28.928  26.326  1.00  0.00    -0.374 OA
BRANCH   2   3
ATOM      3  C   UNL A   1      31.760  29.592  25.974  1.00  0.00     0.202 C 
BRANCH   3   4
ATOM      4  C   UNL A   1      31.309  29.597  24.510  1.00  0.00     0.261 C 
BRANCH   4   5
ATOM      5  O   UNL A   1      31.832  28.476  23.776  1.00  0.00    -0.462 OA
BRANCH   5   6
ATOM      6  C   UNL A   1      30.965  27.430  23.604  1.00  0.00     0.329 C 
ATOM      7  O   UNL A   1      30.064  27.415  22.776  1.00  0.00    -0.250 OA
BRANCH   6   8
ATOM      8  C   UNL A   1      31.373  26.248  24.513  1.00  0.00     0.203 C 
ATOM      9  N   UNL A   1      31.826  25.071  23.680  1.00  0.00    -0.304 N 
ATOM     10  C   UNL A   1      31.456  23.681  23.970  1.00  0.00     0.180 C 
ATOM     11  C   UNL A   1      30.715  23.556  25.238  1.00  0.00     0.081 A 
ATOM     12  C   UNL A   1      30.208  26.012  25.511  1.00  0.00     0.093 C 
ATOM     13  N   UNL A   1      30.503  22.377  25.901  1.00  0.00    -0.240 NA
ATOM     14  C   UNL A   1      30.174  24.604  25.934  1.00  0.00     0.042 A 
ATOM     15  C   UNL A   1      29.850  22.713  26.993  1.00  0.00     0.197 A 
ATOM     16  N   UNL A   1      29.627  24.064  27.061  1.00  0.00    -0.348 N 
ATOM     17  H   UNL A   1      29.163  24.550  27.782  1.00  0.00     0.167 HD
BRANCH   9  18
ATOM     18  C   UNL A   1      32.751  25.195  22.670  1.00  0.00     0.323 C 
ATOM     19  N   UNL A   1      34.077  25.138  22.969  1.00  0.00    -0.305 N 
ATOM     20  H   UNL A   1      34.668  25.717  22.434  1.00  0.00     0.171 HD
ATOM     21  O   UNL A   1      32.412  25.308  21.491  1.00  0.00    -0.248 OA
BRANCH  19  22
ATOM     22  C   UNL A   1      34.693  24.365  23.937  1.00  0.00     0.081 A 
ATOM     23  C   UNL A   1      36.591  21.527  25.081  1.00  0.00     0.173 C 
ATOM     24  N   UNL A   1      35.792  22.707  24.858  1.00  0.00    -0.274 N 
ATOM     25  C   UNL A   1      35.236  23.125  23.684  1.00  0.00     0.134 A 
ATOM     26  N   UNL A   1      35.593  23.560  25.874  1.00  0.00    -0.180 NA
ATOM     27  C   UNL A   1      34.892  24.552  25.323  1.00  0.00     0.161 A 
ENDBRANCH  19  22
ENDBRANCH   9  18
ENDBRANCH   6   8
ENDBRANCH   5   6
ENDBRANCH   4   5
ENDBRANCH   3   4
ENDBRANCH   2   3
ENDBRANCH   1   2
BRANCH   1  28
ATOM     28  C   UNL A   1      33.800  31.070  27.437  1.00  0.00     0.261 C 
BRANCH  28  29
ATOM     29  O   UNL A   1      34.477  31.348  28.644  1.00  0.00    -0.460 OA
BRANCH  29  30
ATOM     30  C   UNL A   1      35.668  31.942  28.446  1.00  0.00     0.338 C 
ATOM     31  O   UNL A   1      35.938  32.812  27.613  1.00  0.00    -0.246 OA
BRANCH  30  32
ATOM     32  C   UNL A   1      36.663  31.291  29.283  1.00  0.00     0.060 A 
ATOM     33  C   UNL A   1      37.763  32.074  29.638  1.00  0.00     0.016 A 
ATOM     34  C   UNL A   1      36.692  29.889  29.296  1.00  0.00     0.016 A 
ATOM     35  C   UNL A   1      38.984  31.455  29.689  1.00  0.00     0.010 A 
ATOM     36  C   UNL A   1      37.913  29.277  29.338  1.00  0.00     0.010 A 
ATOM     37  C   UNL A   1      39.043  30.084  29.414  1.00  0.00    -0.014 A 
BRANCH  37  38
ATOM     38  C   UNL A   1      40.334  29.444  29.392  1.00  0.00     0.031 A 
ATOM     39  C   UNL A   1      40.821  29.294  30.780  1.00  0.00     0.074 A 
ATOM     40  C   UNL A   1      40.894  28.984  28.256  1.00  0.00     0.049 A 
ATOM     41  N   UNL A   1      41.663  30.064  31.389  1.00  0.00    -0.248 NA
ATOM     42  C   UNL A   1      40.044  28.430  31.690  1.00  0.00     0.031 C 
ATOM     43  C   UNL A   1      40.305  28.879  26.917  1.00  0.00     0.029 A 
ATOM     44  N   UNL A   1      42.105  28.399  28.081  1.00  0.00    -0.354 N 
ATOM     45  C   UNL A   1      41.738  29.534  32.671  1.00  0.00     0.074 A 
ATOM     46  C   UNL A   1      40.515  28.817  32.876  1.00  0.00     0.031 C 
ATOM     47  C   UNL A   1      41.049  28.027  26.168  1.00  0.00     0.029 A 
ATOM     48  C   UNL A   1      42.222  27.629  26.927  1.00  0.00     0.049 A 
ATOM     49  H   UNL A   1      42.844  28.510  28.720  1.00  0.00     0.167 HD
ATOM     50  C   UNL A   1      42.951  29.369  33.266  1.00  0.00     0.034 A 
ATOM     51  C   UNL A   1      43.171  26.682  26.685  1.00  0.00     0.034 A 
ATOM     52  C   UNL A   1      43.952  30.171  32.600  1.00  0.00     0.049 A 
ATOM     53  C   UNL A   1      44.276  26.921  27.646  1.00  0.00     0.074 A 
ATOM     54  C   UNL A   1      44.101  31.515  32.324  1.00  0.00     0.029 A 
ATOM     55  N   UNL A   1      44.768  29.503  31.718  1.00  0.00    -0.354 N 
ATOM     56  N   UNL A   1      45.021  27.991  27.620  1.00  0.00    -0.248 NA
ATOM     57  C   UNL A   1      44.204  26.234  28.927  1.00  0.00     0.031 C 
ATOM     58  C   UNL A   1      44.649  31.564  31.008  1.00  0.00     0.029 A 
ATOM     59  C   UNL A   1      44.903  30.258  30.585  1.00  0.00     0.049 A 
ATOM     60  H   UNL A   1      45.188  28.626  31.878  1.00  0.00     0.167 HD
ATOM     61  C   UNL A   1      45.104  28.378  28.951  1.00  0.00     0.074 A 
ATOM     62  C   UNL A   1      44.648  27.215  29.717  1.00  0.00     0.031 C 
ATOM     63  C   UNL A   1      45.208  29.697  29.287  1.00  0.00     0.034 A 
BRANCH  50  64
ATOM     64  C   UNL A   1      43.333  28.159  34.099  1.00  0.00     0.023 A 
ATOM     65  C   UNL A   1      43.770  28.419  35.415  1.00  0.00     0.012 A 
ATOM     66  C   UNL A   1      43.555  26.848  33.607  1.00  0.00     0.148 A 
ATOM     67  C   UNL A   1      44.452  27.457  36.167  1.00  0.00     0.002 A 
ATOM     68  C   UNL A   1      44.167  25.872  34.381  1.00  0.00     0.091 A 
ATOM     69  F   UNL A   1      43.292  26.540  32.338  1.00  0.00    -0.205 F 
ATOM     70  C   UNL A   1      44.649  26.181  35.652  1.00  0.00     0.022 A 
BRANCH  68  71
ATOM     71  S   UNL A   1      44.418  24.198  33.768  1.00  0.00     0.127 S 
ATOM     72  O   UNL A   1      43.182  23.545  34.189  1.00  0.00    -0.237 OA
ATOM     73  O   UNL A   1      44.542  24.430  32.329  1.00  0.00    -0.237 OA
ATOM     74  O   UNL A   1      45.638  23.715  34.402  1.00  0.00    -0.744 OA
ENDBRANCH  68  71
ENDBRANCH  50  64
BRANCH  51  75
ATOM     75  C   UNL A   1      43.057  25.380  25.969  1.00  0.00     0.023 A 
ATOM     76  C   UNL A   1      44.045  24.994  25.034  1.00  0.00     0.012 A 
ATOM     77  C   UNL A   1      42.162  24.387  26.424  1.00  0.00     0.148 A 
ATOM     78  C   UNL A   1      44.151  23.666  24.592  1.00  0.00     0.002 A 
ATOM     79  C   UNL A   1      42.269  23.070  25.982  1.00  0.00     0.091 A 
ATOM     80  F   UNL A   1      41.267  24.712  27.363  1.00  0.00    -0.205 F 
ATOM     81  C   UNL A   1      43.269  22.702  25.072  1.00  0.00     0.022 A 
BRANCH  79  82
ATOM     82  S   UNL A   1      41.193  21.766  26.596  1.00  0.00     0.127 S 
ATOM     83  O   UNL A   1      41.650  20.611  25.822  1.00  0.00    -0.237 OA
ATOM     84  O   UNL A   1      41.540  21.730  28.014  1.00  0.00    -0.237 OA
ATOM     85  O   UNL A   1      39.834  22.195  26.292  1.00  0.00    -0.744 OA
ENDBRANCH  79  82
ENDBRANCH  51  75
BRANCH  63  86
ATOM     86  C   UNL A   1      45.499  30.686  28.187  1.00  0.00     0.023 A 
ATOM     87  C   UNL A   1      44.498  31.377  27.469  1.00  0.00     0.012 A 
ATOM     88  C   UNL A   1      46.840  31.046  27.999  1.00  0.00     0.148 A 
ATOM     89  C   UNL A   1      44.839  32.395  26.571  1.00  0.00     0.002 A 
ATOM     90  C   UNL A   1      47.172  32.086  27.145  1.00  0.00     0.091 A 
ATOM     91  F   UNL A   1      47.774  30.378  28.694  1.00  0.00    -0.205 F 
ATOM     92  C   UNL A   1      46.176  32.759  26.419  1.00  0.00     0.022 A 
BRANCH  90  93
ATOM     93  S   UNL A   1      48.860  32.671  27.012  1.00  0.00     0.127 S 
ATOM     94  O   UNL A   1      49.543  31.502  26.464  1.00  0.00    -0.237 OA
ATOM     95  O   UNL A   1      48.727  33.797  26.084  1.00  0.00    -0.237 OA
ATOM     96  O   UNL A   1      49.260  33.057  28.360  1.00  0.00    -0.744 OA
ENDBRANCH  90  93
ENDBRANCH  63  86
ENDBRANCH  37  38
ENDBRANCH  30  32
ENDBRANCH  29  30
ENDBRANCH  28  29
ENDBRANCH   1  28
TORSDOF 19
ENDMDL
