MODEL 1
REMARK VINA RESULT:     -12.7      0.000      0.000
REMARK SMILES O=C(OCCOCCOC(=O)[C@H]1[C@H]2CC[C@H](CC2)[C@@H]1C(=O)Nc1ccc(Cc2ccncc2)cc1)c1ccc(-c2c3nc(c(-c4cccc(S(=O)(=O)[O-])c4F)c4ccc([nH]4)c(-c4cccc(S(=O)(=O)[O-])c4F)c4nc(c(-c5cccc(S(=O)(=O)[O-])c5F)c5ccc2[nH]5)C=C4)C=C3)cc1
REMARK SMILES IDX 7 1 6 2 5 3 4 4 3 5 2 6 1 7 36 8 37 9 98 10 38 11 97 12
REMARK SMILES IDX 39 13 40 14 41 15 91 16 42 17 96 18 90 19 92 20 43 21 95 22
REMARK SMILES IDX 89 23 88 24 44 26 76 27 56 28 75 29 57 30 60 31 74 32 93 33
REMARK SMILES IDX 58 34 59 35 73 37 94 38 61 39 45 40 46 41 54 42 47 43 49 44
REMARK SMILES IDX 55 45 48 46 50 47 51 48 52 49 53 50 77 51 78 52 86 53 79 54
REMARK SMILES IDX 81 55 87 56 80 57 82 58 83 59 84 60 85 61 62 62 63 63 71 64
REMARK SMILES IDX 64 65 66 66 72 67 65 68 67 69 68 70 69 71 70 72 8 73 9 74
REMARK SMILES IDX 10 75 11 76 12 77 13 78 19 79 18 80 14 81 16 82 17 83 15 84
REMARK SMILES IDX 20 85 21 86 22 87 23 89 24 90 35 91 25 92 34 93 26 94 27 95
REMARK SMILES IDX 28 96 29 97 33 98 30 99 32 100 31 101
REMARK H PARENT 92 25 60 36 22 88
REMARK Flexibility Score: inf
ROOT
ATOM      1  C   UNL A   1      36.732  21.908  25.563  1.00  0.00     0.202 C 
ENDROOT
BRANCH   1   2
ATOM      2  O   UNL A   1      38.092  21.457  25.561  1.00  0.00    -0.374 OA
BRANCH   2   3
ATOM      3  C   UNL A   1      38.437  20.180  25.015  1.00  0.00     0.202 C 
BRANCH   3   4
ATOM      4  C   UNL A   1      39.206  19.168  25.869  1.00  0.00     0.261 C 
BRANCH   4   5
ATOM      5  O   UNL A   1      40.619  19.296  25.681  1.00  0.00    -0.460 OA
BRANCH   5   6
ATOM      6  C   UNL A   1      41.506  19.782  26.584  1.00  0.00     0.338 C 
ATOM      7  O   UNL A   1      42.113  18.989  27.300  1.00  0.00    -0.246 OA
BRANCH   6   8
ATOM      8  C   UNL A   1      41.735  21.247  26.781  1.00  0.00     0.060 A 
ATOM      9  C   UNL A   1      41.514  22.225  25.805  1.00  0.00     0.016 A 
ATOM     10  C   UNL A   1      42.092  21.674  28.065  1.00  0.00     0.016 A 
ATOM     11  C   UNL A   1      41.650  23.568  26.054  1.00  0.00     0.010 A 
ATOM     12  C   UNL A   1      42.240  23.033  28.337  1.00  0.00     0.010 A 
ATOM     13  C   UNL A   1      42.025  23.969  27.319  1.00  0.00    -0.014 A 
BRANCH  13  14
ATOM     14  C   UNL A   1      42.357  25.381  27.469  1.00  0.00     0.031 A 
ATOM     15  C   UNL A   1      43.649  25.835  26.890  1.00  0.00     0.074 A 
ATOM     16  C   UNL A   1      41.447  26.215  27.993  1.00  0.00     0.049 A 
ATOM     17  N   UNL A   1      44.234  26.990  26.992  1.00  0.00    -0.248 NA
ATOM     18  C   UNL A   1      44.382  24.849  26.072  1.00  0.00     0.031 C 
ATOM     19  C   UNL A   1      40.099  25.833  28.418  1.00  0.00     0.029 A 
ATOM     20  N   UNL A   1      41.527  27.549  28.266  1.00  0.00    -0.354 N 
ATOM     21  C   UNL A   1      45.442  26.847  26.328  1.00  0.00     0.074 A 
ATOM     22  C   UNL A   1      45.489  25.511  25.784  1.00  0.00     0.031 C 
ATOM     23  C   UNL A   1      39.493  26.905  28.953  1.00  0.00     0.029 A 
ATOM     24  C   UNL A   1      40.442  28.011  28.969  1.00  0.00     0.049 A 
ATOM     25  H   UNL A   1      42.281  28.119  27.990  1.00  0.00     0.167 HD
ATOM     26  C   UNL A   1      46.430  27.760  26.224  1.00  0.00     0.034 A 
ATOM     27  C   UNL A   1      40.286  29.176  29.622  1.00  0.00     0.034 A 
ATOM     28  C   UNL A   1      46.324  29.068  26.802  1.00  0.00     0.049 A 
ATOM     29  C   UNL A   1      41.424  30.158  29.552  1.00  0.00     0.074 A 
ATOM     30  C   UNL A   1      47.248  30.091  26.809  1.00  0.00     0.029 A 
ATOM     31  N   UNL A   1      45.208  29.521  27.500  1.00  0.00    -0.354 N 
ATOM     32  N   UNL A   1      42.577  30.032  28.936  1.00  0.00    -0.248 NA
ATOM     33  C   UNL A   1      41.245  31.436  30.245  1.00  0.00     0.031 C 
ATOM     34  C   UNL A   1      46.708  31.146  27.551  1.00  0.00     0.029 A 
ATOM     35  C   UNL A   1      45.425  30.802  27.960  1.00  0.00     0.049 A 
ATOM     36  H   UNL A   1      44.384  29.001  27.646  1.00  0.00     0.167 HD
ATOM     37  C   UNL A   1      43.253  31.226  29.136  1.00  0.00     0.074 A 
ATOM     38  C   UNL A   1      42.372  32.064  29.932  1.00  0.00     0.031 C 
ATOM     39  C   UNL A   1      44.485  31.602  28.709  1.00  0.00     0.034 A 
BRANCH  26  40
ATOM     40  C   UNL A   1      47.700  27.314  25.557  1.00  0.00     0.023 A 
ATOM     41  C   UNL A   1      48.747  26.741  26.310  1.00  0.00     0.012 A 
ATOM     42  C   UNL A   1      47.884  27.538  24.179  1.00  0.00     0.148 A 
ATOM     43  C   UNL A   1      49.974  26.453  25.712  1.00  0.00     0.002 A 
ATOM     44  C   UNL A   1      49.092  27.201  23.581  1.00  0.00     0.091 A 
ATOM     45  F   UNL A   1      46.894  28.120  23.487  1.00  0.00    -0.205 F 
ATOM     46  C   UNL A   1      50.144  26.677  24.348  1.00  0.00     0.022 A 
BRANCH  44  47
ATOM     47  S   UNL A   1      49.380  27.394  21.820  1.00  0.00     0.127 S 
ATOM     48  O   UNL A   1      48.252  26.658  21.252  1.00  0.00    -0.237 OA
ATOM     49  O   UNL A   1      49.305  28.847  21.657  1.00  0.00    -0.237 OA
ATOM     50  O   UNL A   1      50.695  26.823  21.562  1.00  0.00    -0.744 OA
ENDBRANCH  44  47
ENDBRANCH  26  40
BRANCH  27  51
ATOM     51  C   UNL A   1      39.044  29.422  30.403  1.00  0.00     0.023 A 
ATOM     52  C   UNL A   1      38.866  28.805  31.653  1.00  0.00     0.012 A 
ATOM     53  C   UNL A   1      38.077  30.344  29.946  1.00  0.00     0.148 A 
ATOM     54  C   UNL A   1      37.740  29.089  32.429  1.00  0.00     0.002 A 
ATOM     55  C   UNL A   1      36.988  30.663  30.747  1.00  0.00     0.091 A 
ATOM     56  F   UNL A   1      38.263  30.916  28.748  1.00  0.00    -0.205 F 
ATOM     57  C   UNL A   1      36.810  30.026  31.984  1.00  0.00     0.022 A 
BRANCH  55  58
ATOM     58  S   UNL A   1      35.812  31.952  30.315  1.00  0.00     0.127 S 
ATOM     59  O   UNL A   1      36.690  33.102  30.115  1.00  0.00    -0.237 OA
ATOM     60  O   UNL A   1      35.214  31.414  29.093  1.00  0.00    -0.237 OA
ATOM     61  O   UNL A   1      34.897  32.050  31.443  1.00  0.00    -0.744 OA
ENDBRANCH  55  58
ENDBRANCH  27  51
BRANCH  39  62
ATOM     62  C   UNL A   1      44.930  32.998  29.037  1.00  0.00     0.023 A 
ATOM     63  C   UNL A   1      45.721  33.237  30.175  1.00  0.00     0.012 A 
ATOM     64  C   UNL A   1      44.686  34.035  28.117  1.00  0.00     0.148 A 
ATOM     65  C   UNL A   1      46.260  34.503  30.396  1.00  0.00     0.002 A 
ATOM     66  C   UNL A   1      45.273  35.275  28.314  1.00  0.00     0.091 A 
ATOM     67  F   UNL A   1      43.914  33.775  27.051  1.00  0.00    -0.205 F 
ATOM     68  C   UNL A   1      46.052  35.514  29.458  1.00  0.00     0.022 A 
BRANCH  66  69
ATOM     69  S   UNL A   1      45.164  36.590  27.099  1.00  0.00     0.127 S 
ATOM     70  O   UNL A   1      46.069  36.107  26.057  1.00  0.00    -0.237 OA
ATOM     71  O   UNL A   1      43.746  36.560  26.740  1.00  0.00    -0.237 OA
ATOM     72  O   UNL A   1      45.593  37.807  27.777  1.00  0.00    -0.744 OA
ENDBRANCH  66  69
ENDBRANCH  39  62
ENDBRANCH  13  14
ENDBRANCH   6   8
ENDBRANCH   5   6
ENDBRANCH   4   5
ENDBRANCH   3   4
ENDBRANCH   2   3
ENDBRANCH   1   2
BRANCH   1  73
ATOM     73  C   UNL A   1      36.675  23.362  25.071  1.00  0.00     0.261 C 
BRANCH  73  74
ATOM     74  O   UNL A   1      35.640  24.043  25.780  1.00  0.00    -0.463 OA
BRANCH  74  75
ATOM     75  C   UNL A   1      34.714  24.585  24.957  1.00  0.00     0.310 C 
ATOM     76  O   UNL A   1      34.710  24.447  23.744  1.00  0.00    -0.252 OA
BRANCH  75  77
ATOM     77  C   UNL A   1      33.698  25.413  25.722  1.00  0.00     0.115 C 
ATOM     78  C   UNL A   1      33.908  26.971  25.795  1.00  0.00     0.004 C 
ATOM     79  C   UNL A   1      32.291  25.062  25.167  1.00  0.00     0.096 C 
ATOM     80  C   UNL A   1      33.867  27.649  24.424  1.00  0.00     0.005 C 
ATOM     81  C   UNL A   1      32.741  27.549  26.618  1.00  0.00     0.005 C 
ATOM     82  C   UNL A   1      31.709  26.405  24.648  1.00  0.00     0.002 C 
ATOM     83  C   UNL A   1      32.705  27.053  23.652  1.00  0.00     0.005 C 
ATOM     84  C   UNL A   1      31.454  27.367  25.818  1.00  0.00     0.005 C 
BRANCH  79  85
ATOM     85  C   UNL A   1      31.519  24.232  26.239  1.00  0.00     0.228 C 
ATOM     86  O   UNL A   1      30.660  24.745  26.966  1.00  0.00    -0.274 OA
ATOM     87  N   UNL A   1      31.751  22.903  26.481  1.00  0.00    -0.326 N 
ATOM     88  H   UNL A   1      31.481  22.547  27.358  1.00  0.00     0.169 HD
BRANCH  87  89
ATOM     89  C   UNL A   1      32.337  22.022  25.581  1.00  0.00     0.041 A 
ATOM     90  C   UNL A   1      33.046  20.955  26.128  1.00  0.00     0.026 A 
ATOM     91  C   UNL A   1      32.028  22.070  24.224  1.00  0.00     0.026 A 
ATOM     92  C   UNL A   1      33.204  19.806  25.368  1.00  0.00     0.006 A 
ATOM     93  C   UNL A   1      32.250  20.935  23.443  1.00  0.00     0.006 A 
ATOM     94  C   UNL A   1      32.739  19.764  24.044  1.00  0.00    -0.043 A 
BRANCH  94  95
ATOM     95  C   UNL A   1      32.723  18.452  23.299  1.00  0.00     0.071 C 
BRANCH  95  96
ATOM     96  C   UNL A   1      33.310  17.345  24.123  1.00  0.00    -0.041 A 
ATOM     97  C   UNL A   1      34.695  17.208  24.243  1.00  0.00     0.024 A 
ATOM     98  C   UNL A   1      32.487  16.378  24.699  1.00  0.00     0.024 A 
ATOM     99  C   UNL A   1      35.196  16.096  24.893  1.00  0.00     0.111 A 
ATOM    100  C   UNL A   1      33.085  15.311  25.345  1.00  0.00     0.111 A 
ATOM    101  N   UNL A   1      34.421  15.144  25.452  1.00  0.00    -0.265 NA
ENDBRANCH  95  96
ENDBRANCH  94  95
ENDBRANCH  87  89
ENDBRANCH  79  85
ENDBRANCH  75  77
ENDBRANCH  74  75
ENDBRANCH  73  74
ENDBRANCH   1  73
TORSDOF 21
ENDMDL
MODEL 2
REMARK VINA RESULT:     -11.2      5.060      9.400
REMARK SMILES O=C(OCCOCCOC(=O)[C@H]1[C@H]2CC[C@H](CC2)[C@@H]1C(=O)Nc1ccc(Cc2ccncc2)cc1)c1ccc(-c2c3nc(c(-c4cccc(S(=O)(=O)[O-])c4F)c4ccc([nH]4)c(-c4cccc(S(=O)(=O)[O-])c4F)c4nc(c(-c5cccc(S(=O)(=O)[O-])c5F)c5ccc2[nH]5)C=C4)C=C3)cc1
REMARK SMILES IDX 7 1 6 2 5 3 4 4 3 5 2 6 1 7 36 8 37 9 98 10 38 11 97 12
REMARK SMILES IDX 39 13 40 14 41 15 91 16 42 17 96 18 90 19 92 20 43 21 95 22
REMARK SMILES IDX 89 23 88 24 44 26 76 27 56 28 75 29 57 30 60 31 74 32 93 33
REMARK SMILES IDX 58 34 59 35 73 37 94 38 61 39 45 40 46 41 54 42 47 43 49 44
REMARK SMILES IDX 55 45 48 46 50 47 51 48 52 49 53 50 77 51 78 52 86 53 79 54
REMARK SMILES IDX 81 55 87 56 80 57 82 58 83 59 84 60 85 61 62 62 63 63 71 64
REMARK SMILES IDX 64 65 66 66 72 67 65 68 67 69 68 70 69 71 70 72 8 73 9 74
REMARK SMILES IDX 10 75 11 76 12 77 13 78 19 79 18 80 14 81 16 82 17 83 15 84
REMARK SMILES IDX 20 85 21 86 22 87 23 89 24 90 35 91 25 92 34 93 26 94 27 95
REMARK SMILES IDX 28 96 29 97 33 98 30 99 32 100 31 101
REMARK H PARENT 92 25 60 36 22 88
REMARK Flexibility Score: inf
ROOT
ATOM      1  C   UNL A   1      40.083  21.856  26.374  1.00  0.00     0.202 C 
ENDROOT
BRANCH   1   2
ATOM      2  O   UNL A   1      41.266  21.460  25.669  1.00  0.00    -0.374 OA
BRANCH   2   3
ATOM      3  C   UNL A   1      42.551  21.954  26.063  1.00  0.00     0.202 C 
BRANCH   3   4
ATOM      4  C   UNL A   1      43.544  22.429  24.999  1.00  0.00     0.261 C 
BRANCH   4   5
ATOM      5  O   UNL A   1      43.325  23.803  24.660  1.00  0.00    -0.460 OA
BRANCH   5   6
ATOM      6  C   UNL A   1      43.939  24.873  25.222  1.00  0.00     0.338 C 
ATOM      7  O   UNL A   1      45.050  25.198  24.811  1.00  0.00    -0.246 OA
BRANCH   6   8
ATOM      8  C   UNL A   1      43.341  25.640  26.358  1.00  0.00     0.060 A 
ATOM      9  C   UNL A   1      43.740  26.923  26.749  1.00  0.00     0.016 A 
ATOM     10  C   UNL A   1      42.235  25.074  27.004  1.00  0.00     0.016 A 
ATOM     11  C   UNL A   1      43.106  27.629  27.741  1.00  0.00     0.010 A 
ATOM     12  C   UNL A   1      41.580  25.773  28.016  1.00  0.00     0.010 A 
ATOM     13  C   UNL A   1      42.031  27.046  28.381  1.00  0.00    -0.014 A 
BRANCH  13  14
ATOM     14  C   UNL A   1      41.533  27.747  29.558  1.00  0.00     0.031 A 
ATOM     15  C   UNL A   1      40.257  28.496  29.409  1.00  0.00     0.074 A 
ATOM     16  C   UNL A   1      42.163  27.585  30.731  1.00  0.00     0.049 A 
ATOM     17  N   UNL A   1      39.671  29.295  30.248  1.00  0.00    -0.248 NA
ATOM     18  C   UNL A   1      39.535  28.310  28.136  1.00  0.00     0.031 C 
ATOM     19  C   UNL A   1      43.324  26.720  30.953  1.00  0.00     0.029 A 
ATOM     20  N   UNL A   1      41.919  28.149  31.949  1.00  0.00    -0.354 N 
ATOM     21  C   UNL A   1      38.558  29.776  29.577  1.00  0.00     0.074 A 
ATOM     22  C   UNL A   1      38.521  29.145  28.279  1.00  0.00     0.031 C 
ATOM     23  C   UNL A   1      43.728  26.855  32.225  1.00  0.00     0.029 A 
ATOM     24  C   UNL A   1      42.899  27.866  32.869  1.00  0.00     0.049 A 
ATOM     25  H   UNL A   1      41.128  28.701  32.148  1.00  0.00     0.167 HD
ATOM     26  C   UNL A   1      37.673  30.695  30.015  1.00  0.00     0.034 A 
ATOM     27  C   UNL A   1      43.132  28.436  34.064  1.00  0.00     0.034 A 
ATOM     28  C   UNL A   1      37.777  31.294  31.314  1.00  0.00     0.049 A 
ATOM     29  C   UNL A   1      42.176  29.507  34.510  1.00  0.00     0.074 A 
ATOM     30  C   UNL A   1      36.979  32.261  31.889  1.00  0.00     0.029 A 
ATOM     31  N   UNL A   1      38.771  30.983  32.236  1.00  0.00    -0.354 N 
ATOM     32  N   UNL A   1      41.124  29.980  33.881  1.00  0.00    -0.248 NA
ATOM     33  C   UNL A   1      42.418  30.113  35.822  1.00  0.00     0.031 C 
ATOM     34  C   UNL A   1      37.519  32.565  33.143  1.00  0.00     0.029 A 
ATOM     35  C   UNL A   1      38.621  31.750  33.372  1.00  0.00     0.049 A 
ATOM     36  H   UNL A   1      39.480  30.314  32.098  1.00  0.00     0.167 HD
ATOM     37  C   UNL A   1      40.555  30.916  34.731  1.00  0.00     0.074 A 
ATOM     38  C   UNL A   1      41.384  30.940  35.924  1.00  0.00     0.031 C 
ATOM     39  C   UNL A   1      39.456  31.691  34.549  1.00  0.00     0.034 A 
BRANCH  26  40
ATOM     40  C   UNL A   1      36.621  31.144  29.042  1.00  0.00     0.023 A 
ATOM     41  C   UNL A   1      36.506  32.503  28.681  1.00  0.00     0.012 A 
ATOM     42  C   UNL A   1      35.688  30.216  28.541  1.00  0.00     0.148 A 
ATOM     43  C   UNL A   1      35.446  32.937  27.884  1.00  0.00     0.002 A 
ATOM     44  C   UNL A   1      34.665  30.649  27.706  1.00  0.00     0.091 A 
ATOM     45  F   UNL A   1      35.788  28.936  28.926  1.00  0.00    -0.205 F 
ATOM     46  C   UNL A   1      34.530  32.011  27.393  1.00  0.00     0.022 A 
BRANCH  44  47
ATOM     47  S   UNL A   1      33.477  29.519  26.975  1.00  0.00     0.127 S 
ATOM     48  O   UNL A   1      32.502  30.445  26.403  1.00  0.00    -0.237 OA
ATOM     49  O   UNL A   1      34.297  28.810  25.991  1.00  0.00    -0.237 OA
ATOM     50  O   UNL A   1      32.988  28.688  28.067  1.00  0.00    -0.744 OA
ENDBRANCH  44  47
ENDBRANCH  26  40
BRANCH  27  51
ATOM     51  C   UNL A   1      44.323  28.026  34.855  1.00  0.00     0.023 A 
ATOM     52  C   UNL A   1      45.449  28.866  34.919  1.00  0.00     0.012 A 
ATOM     53  C   UNL A   1      44.305  26.840  35.621  1.00  0.00     0.148 A 
ATOM     54  C   UNL A   1      46.541  28.527  35.722  1.00  0.00     0.002 A 
ATOM     55  C   UNL A   1      45.371  26.537  36.458  1.00  0.00     0.091 A 
ATOM     56  F   UNL A   1      43.225  26.050  35.540  1.00  0.00    -0.205 F 
ATOM     57  C   UNL A   1      46.497  27.372  36.500  1.00  0.00     0.022 A 
BRANCH  55  58
ATOM     58  S   UNL A   1      45.346  25.143  37.593  1.00  0.00     0.127 S 
ATOM     59  O   UNL A   1      44.204  25.471  38.443  1.00  0.00    -0.237 OA
ATOM     60  O   UNL A   1      45.133  24.018  36.682  1.00  0.00    -0.237 OA
ATOM     61  O   UNL A   1      46.642  25.146  38.256  1.00  0.00    -0.744 OA
ENDBRANCH  55  58
ENDBRANCH  27  51
BRANCH  39  62
ATOM     62  C   UNL A   1      39.046  32.581  35.686  1.00  0.00     0.023 A 
ATOM     63  C   UNL A   1      38.206  32.089  36.701  1.00  0.00     0.012 A 
ATOM     64  C   UNL A   1      39.633  33.855  35.812  1.00  0.00     0.148 A 
ATOM     65  C   UNL A   1      37.950  32.863  37.830  1.00  0.00     0.002 A 
ATOM     66  C   UNL A   1      39.419  34.594  36.964  1.00  0.00     0.091 A 
ATOM     67  F   UNL A   1      40.415  34.299  34.817  1.00  0.00    -0.205 F 
ATOM     68  C   UNL A   1      38.569  34.105  37.970  1.00  0.00     0.022 A 
BRANCH  66  69
ATOM     69  S   UNL A   1      40.273  36.139  37.284  1.00  0.00     0.127 S 
ATOM     70  O   UNL A   1      39.956  36.907  36.081  1.00  0.00    -0.237 OA
ATOM     71  O   UNL A   1      39.612  36.609  38.502  1.00  0.00    -0.237 OA
ATOM     72  O   UNL A   1      41.680  35.799  37.450  1.00  0.00    -0.744 OA
ENDBRANCH  66  69
ENDBRANCH  39  62
ENDBRANCH  13  14
ENDBRANCH   6   8
ENDBRANCH   5   6
ENDBRANCH   4   5
ENDBRANCH   3   4
ENDBRANCH   2   3
ENDBRANCH   1   2
BRANCH   1  73
ATOM     73  C   UNL A   1      38.880  21.805  25.422  1.00  0.00     0.261 C 
BRANCH  73  74
ATOM     74  O   UNL A   1      37.683  21.906  26.193  1.00  0.00    -0.463 OA
BRANCH  74  75
ATOM     75  C   UNL A   1      36.874  22.904  25.773  1.00  0.00     0.310 C 
ATOM     76  O   UNL A   1      37.112  24.091  25.929  1.00  0.00    -0.252 OA
BRANCH  75  77
ATOM     77  C   UNL A   1      35.618  22.369  25.110  1.00  0.00     0.115 C 
ATOM     78  C   UNL A   1      34.897  21.133  25.766  1.00  0.00     0.004 C 
ATOM     79  C   UNL A   1      34.637  23.560  24.929  1.00  0.00     0.096 C 
ATOM     80  C   UNL A   1      34.385  21.415  27.180  1.00  0.00     0.005 C 
ATOM     81  C   UNL A   1      33.665  20.813  24.897  1.00  0.00     0.005 C 
ATOM     82  C   UNL A   1      33.357  23.158  25.710  1.00  0.00     0.002 C 
ATOM     83  C   UNL A   1      33.732  22.784  27.167  1.00  0.00     0.005 C 
ATOM     84  C   UNL A   1      32.670  21.961  25.034  1.00  0.00     0.005 C 
BRANCH  79  85
ATOM     85  C   UNL A   1      34.555  23.918  23.413  1.00  0.00     0.228 C 
ATOM     86  O   UNL A   1      35.355  23.459  22.590  1.00  0.00    -0.274 OA
ATOM     87  N   UNL A   1      33.629  24.781  22.887  1.00  0.00    -0.326 N 
ATOM     88  H   UNL A   1      33.840  25.203  22.022  1.00  0.00     0.169 HD
BRANCH  87  89
ATOM     89  C   UNL A   1      32.417  25.107  23.482  1.00  0.00     0.041 A 
ATOM     90  C   UNL A   1      32.391  26.271  24.245  1.00  0.00     0.026 A 
ATOM     91  C   UNL A   1      31.245  24.438  23.135  1.00  0.00     0.026 A 
ATOM     92  C   UNL A   1      31.177  26.918  24.425  1.00  0.00     0.006 A 
ATOM     93  C   UNL A   1      30.020  25.059  23.379  1.00  0.00     0.006 A 
ATOM     94  C   UNL A   1      29.993  26.351  23.927  1.00  0.00    -0.043 A 
BRANCH  94  95
ATOM     95  C   UNL A   1      28.717  27.156  23.940  1.00  0.00     0.071 C 
BRANCH  95  96
ATOM     96  C   UNL A   1      28.832  28.385  23.089  1.00  0.00    -0.041 A 
ATOM     97  C   UNL A   1      27.697  29.132  22.764  1.00  0.00     0.024 A 
ATOM     98  C   UNL A   1      30.057  28.745  22.528  1.00  0.00     0.024 A 
ATOM     99  C   UNL A   1      27.826  30.173  21.865  1.00  0.00     0.111 A 
ATOM    100  C   UNL A   1      30.085  29.816  21.653  1.00  0.00     0.111 A 
ATOM    101  N   UNL A   1      28.997  30.537  21.304  1.00  0.00    -0.265 NA
ENDBRANCH  95  96
ENDBRANCH  94  95
ENDBRANCH  87  89
ENDBRANCH  79  85
ENDBRANCH  75  77
ENDBRANCH  74  75
ENDBRANCH  73  74
ENDBRANCH   1  73
TORSDOF 21
ENDMDL
MODEL 3
REMARK VINA RESULT:     -10.9      2.317      2.692
REMARK SMILES O=C(OCCOCCOC(=O)[C@H]1[C@H]2CC[C@H](CC2)[C@@H]1C(=O)Nc1ccc(Cc2ccncc2)cc1)c1ccc(-c2c3nc(c(-c4cccc(S(=O)(=O)[O-])c4F)c4ccc([nH]4)c(-c4cccc(S(=O)(=O)[O-])c4F)c4nc(c(-c5cccc(S(=O)(=O)[O-])c5F)c5ccc2[nH]5)C=C4)C=C3)cc1
REMARK SMILES IDX 7 1 6 2 5 3 4 4 3 5 2 6 1 7 36 8 37 9 98 10 38 11 97 12
REMARK SMILES IDX 39 13 40 14 41 15 91 16 42 17 96 18 90 19 92 20 43 21 95 22
REMARK SMILES IDX 89 23 88 24 44 26 76 27 56 28 75 29 57 30 60 31 74 32 93 33
REMARK SMILES IDX 58 34 59 35 73 37 94 38 61 39 45 40 46 41 54 42 47 43 49 44
REMARK SMILES IDX 55 45 48 46 50 47 51 48 52 49 53 50 77 51 78 52 86 53 79 54
REMARK SMILES IDX 81 55 87 56 80 57 82 58 83 59 84 60 85 61 62 62 63 63 71 64
REMARK SMILES IDX 64 65 66 66 72 67 65 68 67 69 68 70 69 71 70 72 8 73 9 74
REMARK SMILES IDX 10 75 11 76 12 77 13 78 19 79 18 80 14 81 16 82 17 83 15 84
REMARK SMILES IDX 20 85 21 86 22 87 23 89 24 90 35 91 25 92 34 93 26 94 27 95
REMARK SMILES IDX 28 96 29 97 33 98 30 99 32 100 31 101
REMARK H PARENT 92 25 60 36 22 88
REMARK Flexibility Score: inf
ROOT
ATOM      1  C   UNL A   1      36.896  22.351  25.528  1.00  0.00     0.202 C 
ENDROOT
BRANCH   1   2
ATOM      2  O   UNL A   1      37.807  21.515  24.805  1.00  0.00    -0.374 OA
BRANCH   2   3
ATOM      3  C   UNL A   1      38.649  20.584  25.495  1.00  0.00     0.202 C 
BRANCH   3   4
ATOM      4  C   UNL A   1      39.811  21.096  26.351  1.00  0.00     0.261 C 
BRANCH   4   5
ATOM      5  O   UNL A   1      41.067  20.904  25.692  1.00  0.00    -0.460 OA
BRANCH   5   6
ATOM      6  C   UNL A   1      42.257  21.433  26.067  1.00  0.00     0.338 C 
ATOM      7  O   UNL A   1      43.255  20.716  26.041  1.00  0.00    -0.246 OA
BRANCH   6   8
ATOM      8  C   UNL A   1      42.395  22.837  26.565  1.00  0.00     0.060 A 
ATOM      9  C   UNL A   1      42.272  23.979  25.766  1.00  0.00     0.016 A 
ATOM     10  C   UNL A   1      42.551  23.017  27.944  1.00  0.00     0.016 A 
ATOM     11  C   UNL A   1      42.315  25.252  26.278  1.00  0.00     0.010 A 
ATOM     12  C   UNL A   1      42.602  24.301  28.483  1.00  0.00     0.010 A 
ATOM     13  C   UNL A   1      42.492  25.411  27.637  1.00  0.00    -0.014 A 
BRANCH  13  14
ATOM     14  C   UNL A   1      42.741  26.773  28.093  1.00  0.00     0.031 A 
ATOM     15  C   UNL A   1      44.132  27.283  27.971  1.00  0.00     0.074 A 
ATOM     16  C   UNL A   1      41.705  27.535  28.473  1.00  0.00     0.049 A 
ATOM     17  N   UNL A   1      44.642  28.393  28.411  1.00  0.00    -0.248 NA
ATOM     18  C   UNL A   1      45.082  26.421  27.241  1.00  0.00     0.031 C 
ATOM     19  C   UNL A   1      40.299  27.123  28.446  1.00  0.00     0.029 A 
ATOM     20  N   UNL A   1      41.678  28.807  28.965  1.00  0.00    -0.354 N 
ATOM     21  C   UNL A   1      45.988  28.328  28.090  1.00  0.00     0.074 A 
ATOM     22  C   UNL A   1      46.211  27.094  27.375  1.00  0.00     0.031 C 
ATOM     23  C   UNL A   1      39.548  28.110  28.956  1.00  0.00     0.029 A 
ATOM     24  C   UNL A   1      40.432  29.178  29.408  1.00  0.00     0.049 A 
ATOM     25  H   UNL A   1      42.467  29.396  29.001  1.00  0.00     0.167 HD
ATOM     26  C   UNL A   1      46.948  29.223  28.407  1.00  0.00     0.034 A 
ATOM     27  C   UNL A   1      40.079  30.229  30.168  1.00  0.00     0.034 A 
ATOM     28  C   UNL A   1      46.659  30.425  29.133  1.00  0.00     0.049 A 
ATOM     29  C   UNL A   1      41.171  31.182  30.570  1.00  0.00     0.074 A 
ATOM     30  C   UNL A   1      47.525  31.412  29.555  1.00  0.00     0.029 A 
ATOM     31  N   UNL A   1      45.386  30.788  29.561  1.00  0.00    -0.354 N 
ATOM     32  N   UNL A   1      42.451  31.127  30.282  1.00  0.00    -0.248 NA
ATOM     33  C   UNL A   1      40.782  32.339  31.380  1.00  0.00     0.031 C 
ATOM     34  C   UNL A   1      46.780  32.349  30.278  1.00  0.00     0.029 A 
ATOM     35  C   UNL A   1      45.441  31.975  30.259  1.00  0.00     0.049 A 
ATOM     36  H   UNL A   1      44.565  30.271  29.391  1.00  0.00     0.167 HD
ATOM     37  C   UNL A   1      43.021  32.259  30.846  1.00  0.00     0.074 A 
ATOM     38  C   UNL A   1      41.938  32.982  31.492  1.00  0.00     0.031 C 
ATOM     39  C   UNL A   1      44.315  32.669  30.839  1.00  0.00     0.034 A 
BRANCH  26  40
ATOM     40  C   UNL A   1      48.361  28.858  28.053  1.00  0.00     0.023 A 
ATOM     41  C   UNL A   1      48.940  29.304  26.846  1.00  0.00     0.012 A 
ATOM     42  C   UNL A   1      49.095  27.998  28.893  1.00  0.00     0.148 A 
ATOM     43  C   UNL A   1      50.202  28.853  26.457  1.00  0.00     0.002 A 
ATOM     44  C   UNL A   1      50.371  27.594  28.522  1.00  0.00     0.091 A 
ATOM     45  F   UNL A   1      48.514  27.551  30.016  1.00  0.00    -0.205 F 
ATOM     46  C   UNL A   1      50.919  28.005  27.296  1.00  0.00     0.022 A 
BRANCH  44  47
ATOM     47  S   UNL A   1      51.393  26.554  29.568  1.00  0.00     0.127 S 
ATOM     48  O   UNL A   1      52.613  26.441  28.771  1.00  0.00    -0.237 OA
ATOM     49  O   UNL A   1      51.525  27.371  30.775  1.00  0.00    -0.237 OA
ATOM     50  O   UNL A   1      50.648  25.316  29.754  1.00  0.00    -0.744 OA
ENDBRANCH  44  47
ENDBRANCH  26  40
BRANCH  27  51
ATOM     51  C   UNL A   1      38.665  30.377  30.607  1.00  0.00     0.023 A 
ATOM     52  C   UNL A   1      38.222  29.738  31.778  1.00  0.00     0.012 A 
ATOM     53  C   UNL A   1      37.781  31.230  29.910  1.00  0.00     0.148 A 
ATOM     54  C   UNL A   1      36.919  29.934  32.242  1.00  0.00     0.002 A 
ATOM     55  C   UNL A   1      36.505  31.462  30.407  1.00  0.00     0.091 A 
ATOM     56  F   UNL A   1      38.222  31.823  28.793  1.00  0.00    -0.205 F 
ATOM     57  C   UNL A   1      36.066  30.804  31.565  1.00  0.00     0.022 A 
BRANCH  55  58
ATOM     58  S   UNL A   1      35.386  32.665  29.677  1.00  0.00     0.127 S 
ATOM     59  O   UNL A   1      36.256  33.830  29.529  1.00  0.00    -0.237 OA
ATOM     60  O   UNL A   1      35.016  32.009  28.423  1.00  0.00    -0.237 OA
ATOM     61  O   UNL A   1      34.291  32.817  30.626  1.00  0.00    -0.744 OA
ENDBRANCH  55  58
ENDBRANCH  27  51
BRANCH  39  62
ATOM     62  C   UNL A   1      44.624  33.984  31.493  1.00  0.00     0.023 A 
ATOM     63  C   UNL A   1      45.103  34.020  32.814  1.00  0.00     0.012 A 
ATOM     64  C   UNL A   1      44.581  35.164  30.726  1.00  0.00     0.148 A 
ATOM     65  C   UNL A   1      45.533  35.224  33.368  1.00  0.00     0.002 A 
ATOM     66  C   UNL A   1      45.064  36.346  31.265  1.00  0.00     0.091 A 
ATOM     67  F   UNL A   1      44.102  35.095  29.475  1.00  0.00    -0.205 F 
ATOM     68  C   UNL A   1      45.531  36.381  32.589  1.00  0.00     0.022 A 
BRANCH  66  69
ATOM     69  S   UNL A   1      45.217  37.848  30.295  1.00  0.00     0.127 S 
ATOM     70  O   UNL A   1      43.815  38.194  30.061  1.00  0.00    -0.237 OA
ATOM     71  O   UNL A   1      45.920  38.739  31.218  1.00  0.00    -0.237 OA
ATOM     72  O   UNL A   1      45.974  37.488  29.103  1.00  0.00    -0.744 OA
ENDBRANCH  66  69
ENDBRANCH  39  62
ENDBRANCH  13  14
ENDBRANCH   6   8
ENDBRANCH   5   6
ENDBRANCH   4   5
ENDBRANCH   3   4
ENDBRANCH   2   3
ENDBRANCH   1   2
BRANCH   1  73
ATOM     73  C   UNL A   1      36.508  23.555  24.658  1.00  0.00     0.261 C 
BRANCH  73  74
ATOM     74  O   UNL A   1      35.636  24.400  25.409  1.00  0.00    -0.463 OA
BRANCH  74  75
ATOM     75  C   UNL A   1      34.530  24.755  24.718  1.00  0.00     0.310 C 
ATOM     76  O   UNL A   1      34.345  24.495  23.539  1.00  0.00    -0.252 OA
BRANCH  75  77
ATOM     77  C   UNL A   1      33.561  25.546  25.576  1.00  0.00     0.115 C 
ATOM     78  C   UNL A   1      33.782  27.098  25.716  1.00  0.00     0.004 C 
ATOM     79  C   UNL A   1      32.124  25.227  25.079  1.00  0.00     0.096 C 
ATOM     80  C   UNL A   1      33.672  27.845  24.384  1.00  0.00     0.005 C 
ATOM     81  C   UNL A   1      32.663  27.636  26.627  1.00  0.00     0.005 C 
ATOM     82  C   UNL A   1      31.523  26.595  24.660  1.00  0.00     0.002 C 
ATOM     83  C   UNL A   1      32.468  27.291  23.647  1.00  0.00     0.005 C 
ATOM     84  C   UNL A   1      31.335  27.498  25.889  1.00  0.00     0.005 C 
BRANCH  79  85
ATOM     85  C   UNL A   1      31.406  24.346  26.148  1.00  0.00     0.228 C 
ATOM     86  O   UNL A   1      30.555  24.814  26.913  1.00  0.00    -0.274 OA
ATOM     87  N   UNL A   1      31.680  23.018  26.344  1.00  0.00    -0.326 N 
ATOM     88  H   UNL A   1      31.445  22.629  27.218  1.00  0.00     0.169 HD
BRANCH  87  89
ATOM     89  C   UNL A   1      32.263  22.178  25.404  1.00  0.00     0.041 A 
ATOM     90  C   UNL A   1      33.143  21.215  25.890  1.00  0.00     0.026 A 
ATOM     91  C   UNL A   1      31.808  22.150  24.087  1.00  0.00     0.026 A 
ATOM     92  C   UNL A   1      33.348  20.066  25.140  1.00  0.00     0.006 A 
ATOM     93  C   UNL A   1      32.073  21.022  23.309  1.00  0.00     0.006 A 
ATOM     94  C   UNL A   1      32.752  19.932  23.875  1.00  0.00    -0.043 A 
BRANCH  94  95
ATOM     95  C   UNL A   1      32.807  18.603  23.163  1.00  0.00     0.071 C 
BRANCH  95  96
ATOM     96  C   UNL A   1      33.265  17.506  24.077  1.00  0.00    -0.041 A 
ATOM     97  C   UNL A   1      34.612  17.136  24.121  1.00  0.00     0.024 A 
ATOM     98  C   UNL A   1      32.342  16.773  24.821  1.00  0.00     0.024 A 
ATOM     99  C   UNL A   1      34.970  16.032  24.870  1.00  0.00     0.111 A 
ATOM    100  C   UNL A   1      32.803  15.694  25.554  1.00  0.00     0.111 A 
ATOM    101  N   UNL A   1      34.095  15.302  25.593  1.00  0.00    -0.265 NA
ENDBRANCH  95  96
ENDBRANCH  94  95
ENDBRANCH  87  89
ENDBRANCH  79  85
ENDBRANCH  75  77
ENDBRANCH  74  75
ENDBRANCH  73  74
ENDBRANCH   1  73
TORSDOF 21
ENDMDL
