MODEL 1
REMARK VINA RESULT:     -10.8      0.000      0.000
REMARK SMILES CCOc1cc(/C=C(/F)C(=O)OCCOCCOC(=O)c2ccc(-c3c4nc(c(-c5cccc(S(=O)(=O)[O-])c5F)c5ccc([nH]5)c(-c5cccc(S(=O)(=O)[O-])c5F)c5nc(c(-c6cccc(S(=O)(=O)[O-])c6F)c6ccc3[nH]6)C=C5)C=C4)cc2)ccc1O
REMARK SMILES IDX 15 1 14 2 13 3 12 4 10 5 11 6 8 7 7 8 9 9 6 10 4 11 5 12
REMARK SMILES IDX 86 13 85 14 84 15 3 16 2 17 1 18 87 19 16 21 17 22 18 23
REMARK SMILES IDX 19 24 20 25 21 26 22 27 83 28 23 29 82 30 24 31 25 32 26 33
REMARK SMILES IDX 76 34 27 35 81 36 75 37 77 38 28 39 80 40 74 41 73 42 29 44
REMARK SMILES IDX 61 45 41 46 60 47 42 48 45 49 59 50 78 51 43 52 44 53 58 55
REMARK SMILES IDX 79 56 46 57 30 58 31 59 39 60 32 61 34 62 40 63 33 64 35 65
REMARK SMILES IDX 36 66 37 67 38 68 62 69 63 70 71 71 64 72 66 73 72 74 65 75
REMARK SMILES IDX 67 76 68 77 69 78 70 79 47 80 48 81 56 82 49 83 51 84 57 85
REMARK SMILES IDX 50 86 52 87 53 88 54 89 55 90
REMARK H PARENT 87 20 77 43 45 54
REMARK Flexibility Score: inf
ROOT
ATOM      1  O   UNL A   1      35.605  21.783  25.885  1.00  0.00    -0.374 OA
ENDROOT
BRANCH   1   2
ATOM      2  C   UNL A   1      34.462  21.766  26.751  1.00  0.00     0.202 C 
BRANCH   2   3
ATOM      3  C   UNL A   1      33.822  23.146  26.932  1.00  0.00     0.261 C 
BRANCH   3   4
ATOM      4  O   UNL A   1      32.446  22.958  27.292  1.00  0.00    -0.458 OA
BRANCH   4   5
ATOM      5  C   UNL A   1      31.560  23.786  26.687  1.00  0.00     0.367 C 
ATOM      6  O   UNL A   1      31.403  24.974  26.895  1.00  0.00    -0.243 OA
BRANCH   5   7
ATOM      7  C   UNL A   1      30.949  23.022  25.581  1.00  0.00     0.208 C 
ATOM      8  C   UNL A   1      30.982  23.334  24.277  1.00  0.00     0.055 C 
ATOM      9  F   UNL A   1      30.425  21.832  25.952  1.00  0.00    -0.199 F 
BRANCH   8  10
ATOM     10  C   UNL A   1      31.557  24.487  23.551  1.00  0.00    -0.019 A 
ATOM     11  C   UNL A   1      31.505  26.669  22.481  1.00  0.00     0.161 A 
ATOM     12  C   UNL A   1      30.866  25.660  23.206  1.00  0.00     0.058 A 
ATOM     13  C   UNL A   1      32.835  26.528  22.098  1.00  0.00     0.157 A 
ATOM     14  C   UNL A   1      33.558  25.412  22.479  1.00  0.00     0.051 A 
ATOM     15  C   UNL A   1      32.919  24.398  23.199  1.00  0.00     0.012 A 
BRANCH  11  16
ATOM     16  O   UNL A   1      30.813  27.759  22.027  1.00  0.00    -0.490 OA
BRANCH  16  17
ATOM     17  C   UNL A   1      29.687  28.077  22.858  1.00  0.00     0.226 C 
ATOM     18  C   UNL A   1      29.057  29.354  22.322  1.00  0.00     0.049 C 
ENDBRANCH  16  17
ENDBRANCH  11  16
BRANCH  13  19
ATOM     19  O   UNL A   1      33.439  27.476  21.325  1.00  0.00    -0.504 OA
ATOM     20  H   UNL A   1      34.130  27.233  20.740  1.00  0.00     0.293 HD
ENDBRANCH  13  19
ENDBRANCH   8  10
ENDBRANCH   5   7
ENDBRANCH   4   5
ENDBRANCH   3   4
ENDBRANCH   2   3
ENDBRANCH   1   2
BRANCH   1  21
ATOM     21  C   UNL A   1      35.777  20.617  25.069  1.00  0.00     0.202 C 
BRANCH  21  22
ATOM     22  C   UNL A   1      37.217  20.101  24.993  1.00  0.00     0.261 C 
BRANCH  22  23
ATOM     23  O   UNL A   1      38.148  21.184  25.152  1.00  0.00    -0.460 OA
BRANCH  23  24
ATOM     24  C   UNL A   1      39.208  20.919  25.952  1.00  0.00     0.338 C 
ATOM     25  O   UNL A   1      39.806  19.861  26.051  1.00  0.00    -0.246 OA
BRANCH  24  26
ATOM     26  C   UNL A   1      39.682  22.175  26.574  1.00  0.00     0.060 A 
ATOM     27  C   UNL A   1      39.077  23.365  26.152  1.00  0.00     0.016 A 
ATOM     28  C   UNL A   1      40.699  22.199  27.533  1.00  0.00     0.016 A 
ATOM     29  C   UNL A   1      39.519  24.588  26.651  1.00  0.00     0.010 A 
ATOM     30  C   UNL A   1      41.147  23.427  28.028  1.00  0.00     0.010 A 
ATOM     31  C   UNL A   1      40.582  24.627  27.563  1.00  0.00    -0.014 A 
BRANCH  31  32
ATOM     32  C   UNL A   1      41.194  25.930  27.908  1.00  0.00     0.031 A 
ATOM     33  C   UNL A   1      42.620  26.188  27.509  1.00  0.00     0.074 A 
ATOM     34  C   UNL A   1      40.488  26.873  28.558  1.00  0.00     0.049 A 
ATOM     35  N   UNL A   1      43.346  27.260  27.683  1.00  0.00    -0.248 NA
ATOM     36  C   UNL A   1      43.323  25.089  26.824  1.00  0.00     0.031 C 
ATOM     37  C   UNL A   1      39.103  26.732  29.004  1.00  0.00     0.029 A 
ATOM     38  N   UNL A   1      40.852  28.129  28.971  1.00  0.00    -0.354 N 
ATOM     39  C   UNL A   1      44.592  26.963  27.143  1.00  0.00     0.074 A 
ATOM     40  C   UNL A   1      44.530  25.605  26.651  1.00  0.00     0.031 C 
ATOM     41  C   UNL A   1      38.742  27.852  29.655  1.00  0.00     0.029 A 
ATOM     42  C   UNL A   1      39.870  28.780  29.679  1.00  0.00     0.049 A 
ATOM     43  H   UNL A   1      41.732  28.526  28.781  1.00  0.00     0.167 HD
ATOM     44  C   UNL A   1      45.683  27.759  27.045  1.00  0.00     0.034 A 
ATOM     45  C   UNL A   1      39.888  29.986  30.282  1.00  0.00     0.034 A 
ATOM     46  C   UNL A   1      45.736  29.115  27.516  1.00  0.00     0.049 A 
ATOM     47  C   UNL A   1      41.120  30.844  30.174  1.00  0.00     0.074 A 
ATOM     48  C   UNL A   1      46.777  30.021  27.413  1.00  0.00     0.029 A 
ATOM     49  N   UNL A   1      44.710  29.757  28.190  1.00  0.00    -0.354 N 
ATOM     50  N   UNL A   1      42.238  30.606  29.532  1.00  0.00    -0.248 NA
ATOM     51  C   UNL A   1      41.082  32.153  30.845  1.00  0.00     0.031 C 
ATOM     52  C   UNL A   1      46.383  31.209  28.039  1.00  0.00     0.029 A 
ATOM     53  C   UNL A   1      45.095  31.044  28.523  1.00  0.00     0.049 A 
ATOM     54  H   UNL A   1      43.836  29.357  28.401  1.00  0.00     0.167 HD
ATOM     55  C   UNL A   1      43.025  31.741  29.698  1.00  0.00     0.074 A 
ATOM     56  C   UNL A   1      42.245  32.678  30.481  1.00  0.00     0.031 C 
ATOM     57  C   UNL A   1      44.285  31.981  29.258  1.00  0.00     0.034 A 
BRANCH  44  58
ATOM     58  C   UNL A   1      46.893  27.191  26.358  1.00  0.00     0.023 A 
ATOM     59  C   UNL A   1      47.024  27.335  24.961  1.00  0.00     0.012 A 
ATOM     60  C   UNL A   1      47.916  26.557  27.088  1.00  0.00     0.148 A 
ATOM     61  C   UNL A   1      48.142  26.833  24.298  1.00  0.00     0.002 A 
ATOM     62  C   UNL A   1      49.044  26.088  26.423  1.00  0.00     0.091 A 
ATOM     63  F   UNL A   1      47.757  26.403  28.410  1.00  0.00    -0.205 F 
ATOM     64  C   UNL A   1      49.156  26.220  25.029  1.00  0.00     0.022 A 
BRANCH  62  65
ATOM     65  S   UNL A   1      50.427  25.337  27.289  1.00  0.00     0.127 S 
ATOM     66  O   UNL A   1      49.796  24.164  27.890  1.00  0.00    -0.237 OA
ATOM     67  O   UNL A   1      51.353  25.038  26.196  1.00  0.00    -0.237 OA
ATOM     68  O   UNL A   1      50.905  26.346  28.225  1.00  0.00    -0.744 OA
ENDBRANCH  62  65
ENDBRANCH  44  58
BRANCH  45  69
ATOM     69  C   UNL A   1      38.676  30.473  31.002  1.00  0.00     0.023 A 
ATOM     70  C   UNL A   1      38.556  30.250  32.386  1.00  0.00     0.012 A 
ATOM     71  C   UNL A   1      37.659  31.176  30.328  1.00  0.00     0.148 A 
ATOM     72  C   UNL A   1      37.434  30.699  33.083  1.00  0.00     0.002 A 
ATOM     73  C   UNL A   1      36.568  31.664  31.037  1.00  0.00     0.091 A 
ATOM     74  F   UNL A   1      37.779  31.356  29.004  1.00  0.00    -0.205 F 
ATOM     75  C   UNL A   1      36.446  31.416  32.413  1.00  0.00     0.022 A 
BRANCH  73  76
ATOM     76  S   UNL A   1      35.318  32.703  30.271  1.00  0.00     0.127 S 
ATOM     77  O   UNL A   1      34.833  31.842  29.195  1.00  0.00    -0.237 OA
ATOM     78  O   UNL A   1      34.373  32.907  31.369  1.00  0.00    -0.237 OA
ATOM     79  O   UNL A   1      36.020  33.909  29.856  1.00  0.00    -0.744 OA
ENDBRANCH  73  76
ENDBRANCH  45  69
BRANCH  57  80
ATOM     80  C   UNL A   1      44.904  33.311  29.599  1.00  0.00     0.023 A 
ATOM     81  C   UNL A   1      45.659  33.439  30.781  1.00  0.00     0.012 A 
ATOM     82  C   UNL A   1      44.813  34.402  28.714  1.00  0.00     0.148 A 
ATOM     83  C   UNL A   1      46.296  34.641  31.089  1.00  0.00     0.002 A 
ATOM     84  C   UNL A   1      45.485  35.584  29.007  1.00  0.00     0.091 A 
ATOM     85  F   UNL A   1      44.072  34.268  27.604  1.00  0.00    -0.205 F 
ATOM     86  C   UNL A   1      46.220  35.707  30.197  1.00  0.00     0.022 A 
BRANCH  84  87
ATOM     87  S   UNL A   1      45.514  36.974  27.867  1.00  0.00     0.127 S 
ATOM     88  O   UNL A   1      44.263  37.655  28.196  1.00  0.00    -0.237 OA
ATOM     89  O   UNL A   1      46.723  37.691  28.274  1.00  0.00    -0.237 OA
ATOM     90  O   UNL A   1      45.583  36.391  26.534  1.00  0.00    -0.744 OA
ENDBRANCH  84  87
ENDBRANCH  57  80
ENDBRANCH  31  32
ENDBRANCH  24  26
ENDBRANCH  23  24
ENDBRANCH  22  23
ENDBRANCH  21  22
ENDBRANCH   1  21
TORSDOF 21
ENDMDL
MODEL 2
REMARK VINA RESULT:     -10.6      4.619      9.759
REMARK SMILES CCOc1cc(/C=C(/F)C(=O)OCCOCCOC(=O)c2ccc(-c3c4nc(c(-c5cccc(S(=O)(=O)[O-])c5F)c5ccc([nH]5)c(-c5cccc(S(=O)(=O)[O-])c5F)c5nc(c(-c6cccc(S(=O)(=O)[O-])c6F)c6ccc3[nH]6)C=C5)C=C4)cc2)ccc1O
REMARK SMILES IDX 15 1 14 2 13 3 12 4 10 5 11 6 8 7 7 8 9 9 6 10 4 11 5 12
REMARK SMILES IDX 86 13 85 14 84 15 3 16 2 17 1 18 87 19 16 21 17 22 18 23
REMARK SMILES IDX 19 24 20 25 21 26 22 27 83 28 23 29 82 30 24 31 25 32 26 33
REMARK SMILES IDX 76 34 27 35 81 36 75 37 77 38 28 39 80 40 74 41 73 42 29 44
REMARK SMILES IDX 61 45 41 46 60 47 42 48 45 49 59 50 78 51 43 52 44 53 58 55
REMARK SMILES IDX 79 56 46 57 30 58 31 59 39 60 32 61 34 62 40 63 33 64 35 65
REMARK SMILES IDX 36 66 37 67 38 68 62 69 63 70 71 71 64 72 66 73 72 74 65 75
REMARK SMILES IDX 67 76 68 77 69 78 70 79 47 80 48 81 56 82 49 83 51 84 57 85
REMARK SMILES IDX 50 86 52 87 53 88 54 89 55 90
REMARK H PARENT 87 20 77 43 45 54
REMARK Flexibility Score: inf
ROOT
ATOM      1  O   UNL A   1      32.222  28.576  26.334  1.00  0.00    -0.374 OA
ENDROOT
BRANCH   1   2
ATOM      2  C   UNL A   1      32.057  27.308  25.684  1.00  0.00     0.202 C 
BRANCH   2   3
ATOM      3  C   UNL A   1      32.661  26.144  26.474  1.00  0.00     0.261 C 
BRANCH   3   4
ATOM      4  O   UNL A   1      31.614  25.205  26.760  1.00  0.00    -0.458 OA
BRANCH   4   5
ATOM      5  C   UNL A   1      31.950  23.896  26.650  1.00  0.00     0.367 C 
ATOM      6  O   UNL A   1      32.873  23.325  27.198  1.00  0.00    -0.243 OA
BRANCH   5   7
ATOM      7  C   UNL A   1      30.866  23.241  25.890  1.00  0.00     0.208 C 
ATOM      8  C   UNL A   1      30.618  23.368  24.578  1.00  0.00     0.055 C 
ATOM      9  F   UNL A   1      30.157  22.337  26.602  1.00  0.00    -0.199 F 
BRANCH   8  10
ATOM     10  C   UNL A   1      31.265  24.179  23.523  1.00  0.00    -0.019 A 
ATOM     11  C   UNL A   1      31.545  26.131  22.104  1.00  0.00     0.161 A 
ATOM     12  C   UNL A   1      30.884  25.476  23.146  1.00  0.00     0.058 A 
ATOM     13  C   UNL A   1      32.592  25.509  21.432  1.00  0.00     0.157 A 
ATOM     14  C   UNL A   1      33.030  24.257  21.824  1.00  0.00     0.051 A 
ATOM     15  C   UNL A   1      32.366  23.597  22.864  1.00  0.00     0.012 A 
BRANCH  11  16
ATOM     16  O   UNL A   1      31.106  27.342  21.639  1.00  0.00    -0.490 OA
BRANCH  16  17
ATOM     17  C   UNL A   1      30.122  27.934  22.499  1.00  0.00     0.226 C 
ATOM     18  C   UNL A   1      30.208  29.444  22.336  1.00  0.00     0.049 C 
ENDBRANCH  16  17
ENDBRANCH  11  16
BRANCH  13  19
ATOM     19  O   UNL A   1      33.190  26.114  20.365  1.00  0.00    -0.504 OA
ATOM     20  H   UNL A   1      34.120  26.230  20.352  1.00  0.00     0.293 HD
ENDBRANCH  13  19
ENDBRANCH   8  10
ENDBRANCH   5   7
ENDBRANCH   4   5
ENDBRANCH   3   4
ENDBRANCH   2   3
ENDBRANCH   1   2
BRANCH   1  21
ATOM     21  C   UNL A   1      32.160  29.722  25.474  1.00  0.00     0.202 C 
BRANCH  21  22
ATOM     22  C   UNL A   1      31.767  31.024  26.178  1.00  0.00     0.261 C 
BRANCH  22  23
ATOM     23  O   UNL A   1      32.444  31.139  27.440  1.00  0.00    -0.460 OA
BRANCH  23  24
ATOM     24  C   UNL A   1      33.285  32.195  27.548  1.00  0.00     0.338 C 
ATOM     25  O   UNL A   1      32.994  33.376  27.461  1.00  0.00    -0.246 OA
BRANCH  24  26
ATOM     26  C   UNL A   1      34.616  31.722  27.986  1.00  0.00     0.060 A 
ATOM     27  C   UNL A   1      34.754  30.353  28.250  1.00  0.00     0.016 A 
ATOM     28  C   UNL A   1      35.702  32.586  28.151  1.00  0.00     0.016 A 
ATOM     29  C   UNL A   1      35.962  29.852  28.725  1.00  0.00     0.010 A 
ATOM     30  C   UNL A   1      36.913  32.083  28.635  1.00  0.00     0.010 A 
ATOM     31  C   UNL A   1      37.036  30.721  28.957  1.00  0.00    -0.014 A 
BRANCH  31  32
ATOM     32  C   UNL A   1      38.231  30.222  29.676  1.00  0.00     0.031 A 
ATOM     33  C   UNL A   1      38.480  30.695  31.081  1.00  0.00     0.074 A 
ATOM     34  C   UNL A   1      39.076  29.355  29.090  1.00  0.00     0.049 A 
ATOM     35  N   UNL A   1      39.441  30.372  31.904  1.00  0.00    -0.248 NA
ATOM     36  C   UNL A   1      37.515  31.664  31.631  1.00  0.00     0.031 C 
ATOM     37  C   UNL A   1      38.943  28.836  27.730  1.00  0.00     0.029 A 
ATOM     38  N   UNL A   1      40.225  28.776  29.564  1.00  0.00    -0.354 N 
ATOM     39  C   UNL A   1      39.209  31.104  33.062  1.00  0.00     0.074 A 
ATOM     40  C   UNL A   1      38.025  31.902  32.831  1.00  0.00     0.031 C 
ATOM     41  C   UNL A   1      39.990  28.033  27.469  1.00  0.00     0.029 A 
ATOM     42  C   UNL A   1      40.866  27.989  28.637  1.00  0.00     0.049 A 
ATOM     43  H   UNL A   1      40.560  28.911  30.480  1.00  0.00     0.167 HD
ATOM     44  C   UNL A   1      39.905  31.095  34.223  1.00  0.00     0.034 A 
ATOM     45  C   UNL A   1      42.034  27.320  28.723  1.00  0.00     0.034 A 
ATOM     46  C   UNL A   1      41.069  30.286  34.459  1.00  0.00     0.049 A 
ATOM     47  C   UNL A   1      42.799  27.341  30.021  1.00  0.00     0.074 A 
ATOM     48  C   UNL A   1      41.812  30.165  35.619  1.00  0.00     0.029 A 
ATOM     49  N   UNL A   1      41.667  29.470  33.511  1.00  0.00    -0.354 N 
ATOM     50  N   UNL A   1      42.487  27.921  31.154  1.00  0.00    -0.248 NA
ATOM     51  C   UNL A   1      44.062  26.587  30.062  1.00  0.00     0.031 C 
ATOM     52  C   UNL A   1      42.869  29.284  35.369  1.00  0.00     0.029 A 
ATOM     53  C   UNL A   1      42.778  28.851  34.055  1.00  0.00     0.049 A 
ATOM     54  H   UNL A   1      41.347  29.348  32.588  1.00  0.00     0.167 HD
ATOM     55  C   UNL A   1      43.496  27.582  32.049  1.00  0.00     0.074 A 
ATOM     56  C   UNL A   1      44.419  26.725  31.332  1.00  0.00     0.031 C 
ATOM     57  C   UNL A   1      43.656  27.959  33.342  1.00  0.00     0.034 A 
BRANCH  44  58
ATOM     58  C   UNL A   1      39.392  31.956  35.343  1.00  0.00     0.023 A 
ATOM     59  C   UNL A   1      38.456  31.420  36.252  1.00  0.00     0.012 A 
ATOM     60  C   UNL A   1      39.860  33.271  35.526  1.00  0.00     0.148 A 
ATOM     61  C   UNL A   1      37.975  32.188  37.310  1.00  0.00     0.002 A 
ATOM     62  C   UNL A   1      39.400  34.020  36.604  1.00  0.00     0.091 A 
ATOM     63  F   UNL A   1      40.726  33.771  34.633  1.00  0.00    -0.205 F 
ATOM     64  C   UNL A   1      38.453  33.483  37.492  1.00  0.00     0.022 A 
BRANCH  62  65
ATOM     65  S   UNL A   1      40.003  35.675  36.951  1.00  0.00     0.127 S 
ATOM     66  O   UNL A   1      39.288  35.996  38.185  1.00  0.00    -0.237 OA
ATOM     67  O   UNL A   1      41.440  35.454  37.120  1.00  0.00    -0.237 OA
ATOM     68  O   UNL A   1      39.650  36.479  35.789  1.00  0.00    -0.744 OA
ENDBRANCH  62  65
ENDBRANCH  44  58
BRANCH  45  69
ATOM     69  C   UNL A   1      42.524  26.530  27.558  1.00  0.00     0.023 A 
ATOM     70  C   UNL A   1      43.377  27.138  26.619  1.00  0.00     0.012 A 
ATOM     71  C   UNL A   1      42.170  25.177  27.391  1.00  0.00     0.148 A 
ATOM     72  C   UNL A   1      43.852  26.420  25.521  1.00  0.00     0.002 A 
ATOM     73  C   UNL A   1      42.688  24.453  26.324  1.00  0.00     0.091 A 
ATOM     74  F   UNL A   1      41.336  24.622  28.282  1.00  0.00    -0.205 F 
ATOM     75  C   UNL A   1      43.518  25.075  25.379  1.00  0.00     0.022 A 
BRANCH  73  76
ATOM     76  S   UNL A   1      42.406  22.688  26.141  1.00  0.00     0.127 S 
ATOM     77  O   UNL A   1      43.057  22.155  27.335  1.00  0.00    -0.237 OA
ATOM     78  O   UNL A   1      40.945  22.609  26.150  1.00  0.00    -0.237 OA
ATOM     79  O   UNL A   1      43.015  22.330  24.868  1.00  0.00    -0.744 OA
ENDBRANCH  73  76
ENDBRANCH  45  69
BRANCH  57  80
ATOM     80  C   UNL A   1      44.865  27.444  34.077  1.00  0.00     0.023 A 
ATOM     81  C   UNL A   1      46.046  28.211  34.089  1.00  0.00     0.012 A 
ATOM     82  C   UNL A   1      44.807  26.251  34.822  1.00  0.00     0.148 A 
ATOM     83  C   UNL A   1      47.158  27.789  34.815  1.00  0.00     0.002 A 
ATOM     84  C   UNL A   1      45.906  25.856  35.577  1.00  0.00     0.091 A 
ATOM     85  F   UNL A   1      43.681  25.522  34.781  1.00  0.00    -0.205 F 
ATOM     86  C   UNL A   1      47.085  26.619  35.568  1.00  0.00     0.022 A 
BRANCH  84  87
ATOM     87  S   UNL A   1      45.862  24.412  36.645  1.00  0.00     0.127 S 
ATOM     88  O   UNL A   1      47.197  24.439  37.240  1.00  0.00    -0.237 OA
ATOM     89  O   UNL A   1      44.776  24.736  37.572  1.00  0.00    -0.237 OA
ATOM     90  O   UNL A   1      45.585  23.281  35.771  1.00  0.00    -0.744 OA
ENDBRANCH  84  87
ENDBRANCH  57  80
ENDBRANCH  31  32
ENDBRANCH  24  26
ENDBRANCH  23  24
ENDBRANCH  22  23
ENDBRANCH  21  22
ENDBRANCH   1  21
TORSDOF 21
ENDMDL
MODEL 3
REMARK VINA RESULT:     -10.3      2.175      2.449
REMARK SMILES CCOc1cc(/C=C(/F)C(=O)OCCOCCOC(=O)c2ccc(-c3c4nc(c(-c5cccc(S(=O)(=O)[O-])c5F)c5ccc([nH]5)c(-c5cccc(S(=O)(=O)[O-])c5F)c5nc(c(-c6cccc(S(=O)(=O)[O-])c6F)c6ccc3[nH]6)C=C5)C=C4)cc2)ccc1O
REMARK SMILES IDX 15 1 14 2 13 3 12 4 10 5 11 6 8 7 7 8 9 9 6 10 4 11 5 12
REMARK SMILES IDX 86 13 85 14 84 15 3 16 2 17 1 18 87 19 16 21 17 22 18 23
REMARK SMILES IDX 19 24 20 25 21 26 22 27 83 28 23 29 82 30 24 31 25 32 26 33
REMARK SMILES IDX 76 34 27 35 81 36 75 37 77 38 28 39 80 40 74 41 73 42 29 44
REMARK SMILES IDX 61 45 41 46 60 47 42 48 45 49 59 50 78 51 43 52 44 53 58 55
REMARK SMILES IDX 79 56 46 57 30 58 31 59 39 60 32 61 34 62 40 63 33 64 35 65
REMARK SMILES IDX 36 66 37 67 38 68 62 69 63 70 71 71 64 72 66 73 72 74 65 75
REMARK SMILES IDX 67 76 68 77 69 78 70 79 47 80 48 81 56 82 49 83 51 84 57 85
REMARK SMILES IDX 50 86 52 87 53 88 54 89 55 90
REMARK H PARENT 87 20 77 43 45 54
REMARK Flexibility Score: inf
ROOT
ATOM      1  O   UNL A   1      35.352  21.713  26.513  1.00  0.00    -0.374 OA
ENDROOT
BRANCH   1   2
ATOM      2  C   UNL A   1      34.054  21.451  27.065  1.00  0.00     0.202 C 
BRANCH   2   3
ATOM      3  C   UNL A   1      33.574  22.546  28.021  1.00  0.00     0.261 C 
BRANCH   3   4
ATOM      4  O   UNL A   1      32.212  22.860  27.697  1.00  0.00    -0.458 OA
BRANCH   4   5
ATOM      5  C   UNL A   1      32.033  23.698  26.647  1.00  0.00     0.367 C 
ATOM      6  O   UNL A   1      32.748  24.624  26.316  1.00  0.00    -0.243 OA
BRANCH   5   7
ATOM      7  C   UNL A   1      30.909  23.157  25.857  1.00  0.00     0.208 C 
ATOM      8  C   UNL A   1      30.644  23.407  24.567  1.00  0.00     0.055 C 
ATOM      9  F   UNL A   1      30.174  22.224  26.504  1.00  0.00    -0.199 F 
BRANCH   8  10
ATOM     10  C   UNL A   1      31.306  24.278  23.572  1.00  0.00    -0.019 A 
ATOM     11  C   UNL A   1      31.649  26.334  22.322  1.00  0.00     0.161 A 
ATOM     12  C   UNL A   1      30.979  25.620  23.318  1.00  0.00     0.058 A 
ATOM     13  C   UNL A   1      32.653  25.728  21.574  1.00  0.00     0.157 A 
ATOM     14  C   UNL A   1      33.039  24.429  21.845  1.00  0.00     0.051 A 
ATOM     15  C   UNL A   1      32.366  23.709  22.837  1.00  0.00     0.012 A 
BRANCH  11  16
ATOM     16  O   UNL A   1      31.258  27.600  21.976  1.00  0.00    -0.490 OA
BRANCH  16  17
ATOM     17  C   UNL A   1      30.143  28.060  22.753  1.00  0.00     0.226 C 
ATOM     18  C   UNL A   1      29.604  29.322  22.096  1.00  0.00     0.049 C 
ENDBRANCH  16  17
ENDBRANCH  11  16
BRANCH  13  19
ATOM     19  O   UNL A   1      33.256  26.398  20.550  1.00  0.00    -0.504 OA
ATOM     20  H   UNL A   1      33.345  27.330  20.588  1.00  0.00     0.293 HD
ENDBRANCH  13  19
ENDBRANCH   8  10
ENDBRANCH   5   7
ENDBRANCH   4   5
ENDBRANCH   3   4
ENDBRANCH   2   3
ENDBRANCH   1   2
BRANCH   1  21
ATOM     21  C   UNL A   1      35.621  21.092  25.250  1.00  0.00     0.202 C 
BRANCH  21  22
ATOM     22  C   UNL A   1      37.102  20.811  24.982  1.00  0.00     0.261 C 
BRANCH  22  23
ATOM     23  O   UNL A   1      37.906  21.939  25.364  1.00  0.00    -0.460 OA
BRANCH  23  24
ATOM     24  C   UNL A   1      38.983  21.646  26.131  1.00  0.00     0.338 C 
ATOM     25  O   UNL A   1      39.514  20.556  26.263  1.00  0.00    -0.246 OA
BRANCH  24  26
ATOM     26  C   UNL A   1      39.566  22.897  26.661  1.00  0.00     0.060 A 
ATOM     27  C   UNL A   1      39.036  24.102  26.182  1.00  0.00     0.016 A 
ATOM     28  C   UNL A   1      40.610  22.903  27.590  1.00  0.00     0.016 A 
ATOM     29  C   UNL A   1      39.582  25.316  26.593  1.00  0.00     0.010 A 
ATOM     30  C   UNL A   1      41.161  24.122  27.996  1.00  0.00     0.010 A 
ATOM     31  C   UNL A   1      40.672  25.330  27.472  1.00  0.00    -0.014 A 
BRANCH  31  32
ATOM     32  C   UNL A   1      41.388  26.603  27.719  1.00  0.00     0.031 A 
ATOM     33  C   UNL A   1      42.780  26.767  27.175  1.00  0.00     0.074 A 
ATOM     34  C   UNL A   1      40.805  27.599  28.409  1.00  0.00     0.049 A 
ATOM     35  N   UNL A   1      43.579  27.798  27.247  1.00  0.00    -0.248 NA
ATOM     36  C   UNL A   1      43.347  25.614  26.455  1.00  0.00     0.031 C 
ATOM     37  C   UNL A   1      39.465  27.550  28.993  1.00  0.00     0.029 A 
ATOM     38  N   UNL A   1      41.279  28.840  28.750  1.00  0.00    -0.354 N 
ATOM     39  C   UNL A   1      44.746  27.417  26.596  1.00  0.00     0.074 A 
ATOM     40  C   UNL A   1      44.559  26.054  26.150  1.00  0.00     0.031 C 
ATOM     41  C   UNL A   1      39.235  28.703  29.645  1.00  0.00     0.029 A 
ATOM     42  C   UNL A   1      40.410  29.563  29.532  1.00  0.00     0.049 A 
ATOM     43  H   UNL A   1      42.156  29.180  28.463  1.00  0.00     0.167 HD
ATOM     44  C   UNL A   1      45.865  28.145  26.369  1.00  0.00     0.034 A 
ATOM     45  C   UNL A   1      40.556  30.779  30.098  1.00  0.00     0.034 A 
ATOM     46  C   UNL A   1      46.041  29.505  26.796  1.00  0.00     0.049 A 
ATOM     47  C   UNL A   1      41.818  31.561  29.845  1.00  0.00     0.074 A 
ATOM     48  C   UNL A   1      47.116  30.346  26.566  1.00  0.00     0.029 A 
ATOM     49  N   UNL A   1      45.125  30.221  27.550  1.00  0.00    -0.354 N 
ATOM     50  N   UNL A   1      42.851  31.243  29.104  1.00  0.00    -0.248 NA
ATOM     51  C   UNL A   1      41.921  32.884  30.481  1.00  0.00     0.031 C 
ATOM     52  C   UNL A   1      46.854  31.568  27.195  1.00  0.00     0.029 A 
ATOM     53  C   UNL A   1      45.613  31.489  27.808  1.00  0.00     0.049 A 
ATOM     54  H   UNL A   1      44.255  29.877  27.856  1.00  0.00     0.167 HD
ATOM     55  C   UNL A   1      43.713  32.333  29.160  1.00  0.00     0.074 A 
ATOM     56  C   UNL A   1      43.070  33.331  29.990  1.00  0.00     0.031 C 
ATOM     57  C   UNL A   1      44.934  32.489  28.592  1.00  0.00     0.034 A 
BRANCH  44  58
ATOM     58  C   UNL A   1      46.967  27.491  25.583  1.00  0.00     0.023 A 
ATOM     59  C   UNL A   1      47.743  26.483  26.191  1.00  0.00     0.012 A 
ATOM     60  C   UNL A   1      47.210  27.838  24.241  1.00  0.00     0.148 A 
ATOM     61  C   UNL A   1      48.760  25.847  25.483  1.00  0.00     0.002 A 
ATOM     62  C   UNL A   1      48.205  27.176  23.530  1.00  0.00     0.091 A 
ATOM     63  F   UNL A   1      46.482  28.821  23.692  1.00  0.00    -0.205 F 
ATOM     64  C   UNL A   1      48.985  26.186  24.151  1.00  0.00     0.022 A 
BRANCH  62  65
ATOM     65  S   UNL A   1      48.527  27.504  21.794  1.00  0.00     0.127 S 
ATOM     66  O   UNL A   1      48.952  26.188  21.320  1.00  0.00    -0.237 OA
ATOM     67  O   UNL A   1      47.215  27.932  21.310  1.00  0.00    -0.237 OA
ATOM     68  O   UNL A   1      49.548  28.544  21.769  1.00  0.00    -0.744 OA
ENDBRANCH  62  65
ENDBRANCH  44  58
BRANCH  45  69
ATOM     69  C   UNL A   1      39.451  31.352  30.919  1.00  0.00     0.023 A 
ATOM     70  C   UNL A   1      38.365  31.976  30.280  1.00  0.00     0.012 A 
ATOM     71  C   UNL A   1      39.460  31.258  32.324  1.00  0.00     0.148 A 
ATOM     72  C   UNL A   1      37.317  32.517  31.025  1.00  0.00     0.002 A 
ATOM     73  C   UNL A   1      38.389  31.754  33.058  1.00  0.00     0.091 A 
ATOM     74  F   UNL A   1      40.516  30.682  32.917  1.00  0.00    -0.205 F 
ATOM     75  C   UNL A   1      37.322  32.396  32.412  1.00  0.00     0.022 A 
BRANCH  73  76
ATOM     76  S   UNL A   1      38.263  31.526  34.836  1.00  0.00     0.127 S 
ATOM     77  O   UNL A   1      38.285  30.071  34.954  1.00  0.00    -0.237 OA
ATOM     78  O   UNL A   1      39.468  32.202  35.317  1.00  0.00    -0.237 OA
ATOM     79  O   UNL A   1      37.019  32.179  35.221  1.00  0.00    -0.744 OA
ENDBRANCH  73  76
ENDBRANCH  45  69
BRANCH  57  80
ATOM     80  C   UNL A   1      45.659  33.787  28.834  1.00  0.00     0.023 A 
ATOM     81  C   UNL A   1      46.552  33.889  29.918  1.00  0.00     0.012 A 
ATOM     82  C   UNL A   1      45.523  34.870  27.945  1.00  0.00     0.148 A 
ATOM     83  C   UNL A   1      47.283  35.057  30.127  1.00  0.00     0.002 A 
ATOM     84  C   UNL A   1      46.286  36.017  28.135  1.00  0.00     0.091 A 
ATOM     85  F   UNL A   1      44.651  34.763  26.931  1.00  0.00    -0.205 F 
ATOM     86  C   UNL A   1      47.160  36.115  29.230  1.00  0.00     0.022 A 
BRANCH  84  87
ATOM     87  S   UNL A   1      46.255  37.389  26.975  1.00  0.00     0.127 S 
ATOM     88  O   UNL A   1      47.178  38.332  27.602  1.00  0.00    -0.237 OA
ATOM     89  O   UNL A   1      46.754  36.774  25.744  1.00  0.00    -0.237 OA
ATOM     90  O   UNL A   1      44.864  37.818  26.908  1.00  0.00    -0.744 OA
ENDBRANCH  84  87
ENDBRANCH  57  80
ENDBRANCH  31  32
ENDBRANCH  24  26
ENDBRANCH  23  24
ENDBRANCH  22  23
ENDBRANCH  21  22
ENDBRANCH   1  21
TORSDOF 21
ENDMDL
