MODEL 1
REMARK VINA RESULT:     -10.7      0.000      0.000
REMARK SMILES COc1c(C)cccc1C(=O)NCc1ccc(C(=O)OCCOCCOC(=O)c2ccc(-c3c4nc(c(-c5cccc(S(=O)(=O)[O-])c5F)c5ccc([nH]5)c(-c5cccc(S(=O)(=O)[O-])c5F)c5nc(c(-c6cccc(S(=O)(=O)[O-])c6F)c6ccc3[nH]6)C=C5)C=C4)cc2)cc1
REMARK SMILES IDX 22 1 21 2 20 3 18 4 19 5 17 6 14 7 15 8 93 9 16 10 92 11
REMARK SMILES IDX 13 12 12 13 10 14 11 15 9 17 3 18 4 19 5 20 6 21 8 22 7 23
REMARK SMILES IDX 2 24 1 25 23 26 24 27 25 28 26 29 27 30 28 31 29 32 30 33
REMARK SMILES IDX 91 34 31 35 90 36 32 37 33 38 34 39 84 40 35 41 89 42 83 43
REMARK SMILES IDX 85 44 36 45 88 46 82 47 81 48 37 50 69 51 49 52 68 53 50 54
REMARK SMILES IDX 53 55 67 56 86 57 51 58 52 59 66 61 87 62 54 63 38 64 39 65
REMARK SMILES IDX 47 66 40 67 42 68 48 69 41 70 43 71 44 72 45 73 46 74 70 75
REMARK SMILES IDX 71 76 79 77 72 78 74 79 80 80 73 81 75 82 76 83 77 84 78 85
REMARK SMILES IDX 55 86 56 87 64 88 57 89 59 90 65 91 58 92 60 93 61 94 62 95
REMARK SMILES IDX 63 96
REMARK H PARENT 12 16 85 49 53 60
REMARK Flexibility Score: inf
ROOT
ATOM      1  C   UNL A   1      30.614  29.701  23.935  1.00  0.00     0.202 C 
ENDROOT
BRANCH   1   2
ATOM      2  C   UNL A   1      30.964  28.670  22.812  1.00  0.00     0.261 C 
BRANCH   2   3
ATOM      3  O   UNL A   1      31.912  27.655  23.081  1.00  0.00    -0.460 OA
BRANCH   3   4
ATOM      4  C   UNL A   1      31.582  26.367  22.865  1.00  0.00     0.338 C 
ATOM      5  O   UNL A   1      31.470  25.798  21.798  1.00  0.00    -0.246 OA
BRANCH   4   6
ATOM      6  C   UNL A   1      31.650  25.737  24.206  1.00  0.00     0.060 A 
ATOM      7  C   UNL A   1      32.181  23.998  26.326  1.00  0.00    -0.029 A 
ATOM      8  C   UNL A   1      31.053  23.812  25.496  1.00  0.00     0.006 A 
ATOM      9  C   UNL A   1      32.913  25.177  26.204  1.00  0.00     0.006 A 
ATOM     10  C   UNL A   1      30.765  24.698  24.458  1.00  0.00     0.016 A 
ATOM     11  C   UNL A   1      32.700  25.999  25.101  1.00  0.00     0.016 A 
BRANCH   7  12
ATOM     12  C   UNL A   1      32.605  22.877  27.245  1.00  0.00     0.152 C 
BRANCH  12  13
ATOM     13  N   UNL A   1      34.002  22.422  27.218  1.00  0.00    -0.348 N 
ATOM     14  C   UNL A   1      34.853  21.979  26.225  1.00  0.00     0.255 C 
ATOM     15  O   UNL A   1      35.957  21.538  26.548  1.00  0.00    -0.269 OA
ATOM     16  H   UNL A   1      34.425  22.435  28.107  1.00  0.00     0.164 HD
BRANCH  14  17
ATOM     17  C   UNL A   1      34.557  22.171  24.788  1.00  0.00     0.082 A 
ATOM     18  C   UNL A   1      33.588  21.408  24.120  1.00  0.00     0.134 A 
ATOM     19  C   UNL A   1      33.011  21.992  22.995  1.00  0.00    -0.008 A 
ATOM     20  C   UNL A   1      31.643  21.599  22.549  1.00  0.00     0.048 C 
ATOM     21  C   UNL A   1      33.612  23.130  22.395  1.00  0.00     0.007 A 
ATOM     22  C   UNL A   1      35.163  23.299  24.189  1.00  0.00     0.018 A 
ATOM     23  C   UNL A   1      34.714  23.757  22.962  1.00  0.00     0.001 A 
BRANCH  18  24
ATOM     24  O   UNL A   1      33.224  20.250  24.736  1.00  0.00    -0.496 OA
ATOM     25  C   UNL A   1      33.764  18.966  24.473  1.00  0.00     0.278 C 
ENDBRANCH  18  24
ENDBRANCH  14  17
ENDBRANCH  12  13
ENDBRANCH   7  12
ENDBRANCH   4   6
ENDBRANCH   3   4
ENDBRANCH   2   3
ENDBRANCH   1   2
BRANCH   1  26
ATOM     26  O   UNL A   1      31.345  29.703  25.135  1.00  0.00    -0.374 OA
BRANCH  26  27
ATOM     27  C   UNL A   1      31.208  30.950  25.749  1.00  0.00     0.202 C 
BRANCH  27  28
ATOM     28  C   UNL A   1      32.117  31.410  26.920  1.00  0.00     0.261 C 
BRANCH  28  29
ATOM     29  O   UNL A   1      33.514  30.866  27.319  1.00  0.00    -0.460 OA
BRANCH  29  30
ATOM     30  C   UNL A   1      34.731  30.433  27.734  1.00  0.00     0.338 C 
ATOM     31  O   UNL A   1      35.102  29.345  27.294  1.00  0.00    -0.246 OA
BRANCH  30  32
ATOM     32  C   UNL A   1      35.630  31.091  28.786  1.00  0.00     0.060 A 
ATOM     33  C   UNL A   1      36.553  32.084  28.455  1.00  0.00     0.016 A 
ATOM     34  C   UNL A   1      35.775  30.663  30.072  1.00  0.00     0.016 A 
ATOM     35  C   UNL A   1      37.857  32.061  28.993  1.00  0.00     0.010 A 
ATOM     36  C   UNL A   1      37.088  30.446  30.470  1.00  0.00     0.010 A 
ATOM     37  C   UNL A   1      38.177  31.015  29.811  1.00  0.00    -0.014 A 
BRANCH  37  38
ATOM     38  C   UNL A   1      39.483  30.475  30.195  1.00  0.00     0.031 A 
ATOM     39  C   UNL A   1      39.802  29.170  29.556  1.00  0.00     0.074 A 
ATOM     40  C   UNL A   1      40.421  31.201  30.874  1.00  0.00     0.049 A 
ATOM     41  N   UNL A   1      40.610  28.297  30.040  1.00  0.00    -0.248 NA
ATOM     42  C   UNL A   1      39.130  28.670  28.342  1.00  0.00     0.031 C 
ATOM     43  C   UNL A   1      41.881  31.003  30.867  1.00  0.00     0.029 A 
ATOM     44  N   UNL A   1      40.294  32.316  31.705  1.00  0.00    -0.354 N 
ATOM     45  C   UNL A   1      40.859  27.418  29.003  1.00  0.00     0.074 A 
ATOM     46  C   UNL A   1      39.736  27.506  28.132  1.00  0.00     0.031 C 
ATOM     47  C   UNL A   1      42.473  31.802  31.776  1.00  0.00     0.029 A 
ATOM     48  C   UNL A   1      41.424  32.464  32.527  1.00  0.00     0.049 A 
ATOM     49  H   UNL A   1      39.515  32.919  31.715  1.00  0.00     0.167 HD
ATOM     50  C   UNL A   1      42.114  26.932  28.838  1.00  0.00     0.034 A 
ATOM     51  C   UNL A   1      41.334  32.442  33.894  1.00  0.00     0.034 A 
ATOM     52  C   UNL A   1      42.957  27.358  29.969  1.00  0.00     0.049 A 
ATOM     53  C   UNL A   1      41.800  31.090  34.408  1.00  0.00     0.074 A 
ATOM     54  C   UNL A   1      44.005  28.252  30.088  1.00  0.00     0.029 A 
ATOM     55  N   UNL A   1      42.511  27.114  31.269  1.00  0.00    -0.354 N 
ATOM     56  N   UNL A   1      42.152  30.131  33.597  1.00  0.00    -0.248 NA
ATOM     57  C   UNL A   1      41.976  30.697  35.804  1.00  0.00     0.031 C 
ATOM     58  C   UNL A   1      44.109  28.617  31.468  1.00  0.00     0.029 A 
ATOM     59  C   UNL A   1      43.148  27.926  32.194  1.00  0.00     0.049 A 
ATOM     60  H   UNL A   1      41.826  26.446  31.502  1.00  0.00     0.167 HD
ATOM     61  C   UNL A   1      42.502  29.015  34.269  1.00  0.00     0.074 A 
ATOM     62  C   UNL A   1      42.415  29.429  35.662  1.00  0.00     0.031 C 
ATOM     63  C   UNL A   1      42.785  27.847  33.616  1.00  0.00     0.034 A 
BRANCH  50  64
ATOM     64  C   UNL A   1      42.644  26.248  27.582  1.00  0.00     0.023 A 
ATOM     65  C   UNL A   1      43.358  27.082  26.698  1.00  0.00     0.012 A 
ATOM     66  C   UNL A   1      42.498  24.891  27.167  1.00  0.00     0.148 A 
ATOM     67  C   UNL A   1      43.919  26.613  25.505  1.00  0.00     0.002 A 
ATOM     68  C   UNL A   1      43.125  24.404  26.012  1.00  0.00     0.091 A 
ATOM     69  F   UNL A   1      41.679  24.062  27.819  1.00  0.00    -0.205 F 
ATOM     70  C   UNL A   1      43.828  25.269  25.175  1.00  0.00     0.022 A 
BRANCH  68  71
ATOM     71  S   UNL A   1      43.119  22.658  25.538  1.00  0.00     0.127 S 
ATOM     72  O   UNL A   1      41.711  22.296  25.706  1.00  0.00    -0.237 OA
ATOM     73  O   UNL A   1      43.566  22.713  24.146  1.00  0.00    -0.237 OA
ATOM     74  O   UNL A   1      44.042  21.981  26.440  1.00  0.00    -0.744 OA
ENDBRANCH  68  71
ENDBRANCH  50  64
BRANCH  51  75
ATOM     75  C   UNL A   1      40.180  33.270  34.359  1.00  0.00     0.023 A 
ATOM     76  C   UNL A   1      38.916  32.617  34.324  1.00  0.00     0.012 A 
ATOM     77  C   UNL A   1      40.397  34.286  35.301  1.00  0.00     0.148 A 
ATOM     78  C   UNL A   1      37.994  32.795  35.355  1.00  0.00     0.002 A 
ATOM     79  C   UNL A   1      39.473  34.453  36.326  1.00  0.00     0.091 A 
ATOM     80  F   UNL A   1      41.549  34.967  35.255  1.00  0.00    -0.205 F 
ATOM     81  C   UNL A   1      38.303  33.671  36.385  1.00  0.00     0.022 A 
BRANCH  79  82
ATOM     82  S   UNL A   1      39.850  35.449  37.764  1.00  0.00     0.127 S 
ATOM     83  O   UNL A   1      39.710  36.811  37.264  1.00  0.00    -0.237 OA
ATOM     84  O   UNL A   1      38.785  35.041  38.673  1.00  0.00    -0.237 OA
ATOM     85  O   UNL A   1      41.193  35.058  38.163  1.00  0.00    -0.744 OA
ENDBRANCH  79  82
ENDBRANCH  51  75
BRANCH  63  86
ATOM     86  C   UNL A   1      42.760  26.512  34.316  1.00  0.00     0.023 A 
ATOM     87  C   UNL A   1      41.597  26.041  34.955  1.00  0.00     0.012 A 
ATOM     88  C   UNL A   1      43.859  25.623  34.252  1.00  0.00     0.148 A 
ATOM     89  C   UNL A   1      41.574  24.832  35.644  1.00  0.00     0.002 A 
ATOM     90  C   UNL A   1      43.780  24.357  34.813  1.00  0.00     0.091 A 
ATOM     91  F   UNL A   1      45.001  26.003  33.663  1.00  0.00    -0.205 F 
ATOM     92  C   UNL A   1      42.666  23.984  35.566  1.00  0.00     0.022 A 
BRANCH  90  93
ATOM     93  S   UNL A   1      45.032  23.110  34.506  1.00  0.00     0.127 S 
ATOM     94  O   UNL A   1      45.253  23.265  33.069  1.00  0.00    -0.237 OA
ATOM     95  O   UNL A   1      46.135  23.576  35.348  1.00  0.00    -0.237 OA
ATOM     96  O   UNL A   1      44.450  21.843  34.925  1.00  0.00    -0.744 OA
ENDBRANCH  90  93
ENDBRANCH  63  86
ENDBRANCH  37  38
ENDBRANCH  30  32
ENDBRANCH  29  30
ENDBRANCH  28  29
ENDBRANCH  27  28
ENDBRANCH  26  27
ENDBRANCH   1  26
TORSDOF 21
ENDMDL
MODEL 2
REMARK VINA RESULT:     -10.7      1.712      2.307
REMARK SMILES COc1c(C)cccc1C(=O)NCc1ccc(C(=O)OCCOCCOC(=O)c2ccc(-c3c4nc(c(-c5cccc(S(=O)(=O)[O-])c5F)c5ccc([nH]5)c(-c5cccc(S(=O)(=O)[O-])c5F)c5nc(c(-c6cccc(S(=O)(=O)[O-])c6F)c6ccc3[nH]6)C=C5)C=C4)cc2)cc1
REMARK SMILES IDX 22 1 21 2 20 3 18 4 19 5 17 6 14 7 15 8 93 9 16 10 92 11
REMARK SMILES IDX 13 12 12 13 10 14 11 15 9 17 3 18 4 19 5 20 6 21 8 22 7 23
REMARK SMILES IDX 2 24 1 25 23 26 24 27 25 28 26 29 27 30 28 31 29 32 30 33
REMARK SMILES IDX 91 34 31 35 90 36 32 37 33 38 34 39 84 40 35 41 89 42 83 43
REMARK SMILES IDX 85 44 36 45 88 46 82 47 81 48 37 50 69 51 49 52 68 53 50 54
REMARK SMILES IDX 53 55 67 56 86 57 51 58 52 59 66 61 87 62 54 63 38 64 39 65
REMARK SMILES IDX 47 66 40 67 42 68 48 69 41 70 43 71 44 72 45 73 46 74 70 75
REMARK SMILES IDX 71 76 79 77 72 78 74 79 80 80 73 81 75 82 76 83 77 84 78 85
REMARK SMILES IDX 55 86 56 87 64 88 57 89 59 90 65 91 58 92 60 93 61 94 62 95
REMARK SMILES IDX 63 96
REMARK H PARENT 12 16 85 49 53 60
REMARK Flexibility Score: inf
ROOT
ATOM      1  C   UNL A   1      30.768  29.337  23.977  1.00  0.00     0.202 C 
ENDROOT
BRANCH   1   2
ATOM      2  C   UNL A   1      30.889  28.086  23.046  1.00  0.00     0.261 C 
BRANCH   2   3
ATOM      3  O   UNL A   1      31.599  26.951  23.505  1.00  0.00    -0.460 OA
BRANCH   3   4
ATOM      4  C   UNL A   1      32.537  26.394  22.717  1.00  0.00     0.338 C 
ATOM      5  O   UNL A   1      33.569  26.898  22.320  1.00  0.00    -0.246 OA
BRANCH   4   6
ATOM      6  C   UNL A   1      32.172  24.957  22.663  1.00  0.00     0.060 A 
ATOM      7  C   UNL A   1      32.086  22.197  23.080  1.00  0.00    -0.029 A 
ATOM      8  C   UNL A   1      32.943  22.761  22.109  1.00  0.00     0.006 A 
ATOM      9  C   UNL A   1      31.132  23.014  23.684  1.00  0.00     0.006 A 
ATOM     10  C   UNL A   1      32.964  24.136  21.874  1.00  0.00     0.016 A 
ATOM     11  C   UNL A   1      31.229  24.395  23.539  1.00  0.00     0.016 A 
BRANCH   7  12
ATOM     12  C   UNL A   1      32.293  20.759  23.491  1.00  0.00     0.152 C 
BRANCH  12  13
ATOM     13  N   UNL A   1      32.517  20.448  24.910  1.00  0.00    -0.348 N 
ATOM     14  C   UNL A   1      33.449  20.842  25.848  1.00  0.00     0.255 C 
ATOM     15  O   UNL A   1      33.445  20.293  26.952  1.00  0.00    -0.269 OA
ATOM     16  H   UNL A   1      31.853  19.817  25.272  1.00  0.00     0.164 HD
BRANCH  14  17
ATOM     17  C   UNL A   1      34.337  22.008  25.639  1.00  0.00     0.082 A 
ATOM     18  C   UNL A   1      35.435  21.958  24.768  1.00  0.00     0.134 A 
ATOM     19  C   UNL A   1      35.854  23.173  24.232  1.00  0.00    -0.008 A 
ATOM     20  C   UNL A   1      36.571  23.224  22.925  1.00  0.00     0.048 C 
ATOM     21  C   UNL A   1      35.401  24.395  24.797  1.00  0.00     0.007 A 
ATOM     22  C   UNL A   1      33.891  23.221  26.209  1.00  0.00     0.018 A 
ATOM     23  C   UNL A   1      34.457  24.421  25.815  1.00  0.00     0.001 A 
BRANCH  18  24
ATOM     24  O   UNL A   1      35.870  20.710  24.439  1.00  0.00    -0.496 OA
ATOM     25  C   UNL A   1      36.769  19.919  25.196  1.00  0.00     0.278 C 
ENDBRANCH  18  24
ENDBRANCH  14  17
ENDBRANCH  12  13
ENDBRANCH   7  12
ENDBRANCH   4   6
ENDBRANCH   3   4
ENDBRANCH   2   3
ENDBRANCH   1   2
BRANCH   1  26
ATOM     26  O   UNL A   1      31.476  29.376  25.191  1.00  0.00    -0.374 OA
BRANCH  26  27
ATOM     27  C   UNL A   1      31.453  30.681  25.689  1.00  0.00     0.202 C 
BRANCH  27  28
ATOM     28  C   UNL A   1      32.356  31.143  26.863  1.00  0.00     0.261 C 
BRANCH  28  29
ATOM     29  O   UNL A   1      33.776  30.642  27.235  1.00  0.00    -0.460 OA
BRANCH  29  30
ATOM     30  C   UNL A   1      35.016  30.251  27.623  1.00  0.00     0.338 C 
ATOM     31  O   UNL A   1      35.477  29.259  27.057  1.00  0.00    -0.246 OA
BRANCH  30  32
ATOM     32  C   UNL A   1      35.844  30.830  28.775  1.00  0.00     0.060 A 
ATOM     33  C   UNL A   1      36.728  31.894  28.589  1.00  0.00     0.016 A 
ATOM     34  C   UNL A   1      35.966  30.273  30.012  1.00  0.00     0.016 A 
ATOM     35  C   UNL A   1      38.012  31.873  29.172  1.00  0.00     0.010 A 
ATOM     36  C   UNL A   1      37.273  30.074  30.437  1.00  0.00     0.010 A 
ATOM     37  C   UNL A   1      38.354  30.760  29.886  1.00  0.00    -0.014 A 
BRANCH  37  38
ATOM     38  C   UNL A   1      39.671  30.241  30.263  1.00  0.00     0.031 A 
ATOM     39  C   UNL A   1      40.022  28.958  29.597  1.00  0.00     0.074 A 
ATOM     40  C   UNL A   1      40.591  30.973  30.960  1.00  0.00     0.049 A 
ATOM     41  N   UNL A   1      40.848  28.093  30.063  1.00  0.00    -0.248 NA
ATOM     42  C   UNL A   1      39.364  28.470  28.369  1.00  0.00     0.031 C 
ATOM     43  C   UNL A   1      42.055  30.808  30.953  1.00  0.00     0.029 A 
ATOM     44  N   UNL A   1      40.436  32.067  31.815  1.00  0.00    -0.354 N 
ATOM     45  C   UNL A   1      41.119  27.243  29.008  1.00  0.00     0.074 A 
ATOM     46  C   UNL A   1      39.998  27.325  28.136  1.00  0.00     0.031 C 
ATOM     47  C   UNL A   1      42.626  31.600  31.881  1.00  0.00     0.029 A 
ATOM     48  C   UNL A   1      41.561  32.223  32.643  1.00  0.00     0.049 A 
ATOM     49  H   UNL A   1      39.644  32.651  31.835  1.00  0.00     0.167 HD
ATOM     50  C   UNL A   1      42.385  26.790  28.836  1.00  0.00     0.034 A 
ATOM     51  C   UNL A   1      41.467  32.168  34.009  1.00  0.00     0.034 A 
ATOM     52  C   UNL A   1      43.216  27.210  29.979  1.00  0.00     0.049 A 
ATOM     53  C   UNL A   1      41.963  30.816  34.496  1.00  0.00     0.074 A 
ATOM     54  C   UNL A   1      44.243  28.125  30.121  1.00  0.00     0.029 A 
ATOM     55  N   UNL A   1      42.772  26.927  31.272  1.00  0.00    -0.354 N 
ATOM     56  N   UNL A   1      42.339  29.884  33.664  1.00  0.00    -0.248 NA
ATOM     57  C   UNL A   1      42.144  30.397  35.883  1.00  0.00     0.031 C 
ATOM     58  C   UNL A   1      44.335  28.461  31.509  1.00  0.00     0.029 A 
ATOM     59  C   UNL A   1      43.388  27.733  32.217  1.00  0.00     0.049 A 
ATOM     60  H   UNL A   1      42.101  26.239  31.488  1.00  0.00     0.167 HD
ATOM     61  C   UNL A   1      42.712  28.761  34.313  1.00  0.00     0.074 A 
ATOM     62  C   UNL A   1      42.612  29.143  35.715  1.00  0.00     0.031 C 
ATOM     63  C   UNL A   1      43.023  27.614  33.635  1.00  0.00     0.034 A 
BRANCH  50  64
ATOM     64  C   UNL A   1      42.935  26.146  27.568  1.00  0.00     0.023 A 
ATOM     65  C   UNL A   1      43.709  26.992  26.749  1.00  0.00     0.012 A 
ATOM     66  C   UNL A   1      42.753  24.816  27.083  1.00  0.00     0.148 A 
ATOM     67  C   UNL A   1      44.294  26.558  25.555  1.00  0.00     0.002 A 
ATOM     68  C   UNL A   1      43.403  24.360  25.928  1.00  0.00     0.091 A 
ATOM     69  F   UNL A   1      41.883  23.989  27.667  1.00  0.00    -0.205 F 
ATOM     70  C   UNL A   1      44.166  25.236  25.157  1.00  0.00     0.022 A 
BRANCH  68  71
ATOM     71  S   UNL A   1      43.350  22.640  25.371  1.00  0.00     0.127 S 
ATOM     72  O   UNL A   1      44.317  21.995  26.261  1.00  0.00    -0.237 OA
ATOM     73  O   UNL A   1      41.957  22.273  25.627  1.00  0.00    -0.237 OA
ATOM     74  O   UNL A   1      43.721  22.650  23.961  1.00  0.00    -0.744 OA
ENDBRANCH  68  71
ENDBRANCH  50  64
BRANCH  51  75
ATOM     75  C   UNL A   1      40.294  32.960  34.489  1.00  0.00     0.023 A 
ATOM     76  C   UNL A   1      40.465  34.372  34.457  1.00  0.00     0.012 A 
ATOM     77  C   UNL A   1      39.004  32.426  34.359  1.00  0.00     0.148 A 
ATOM     78  C   UNL A   1      39.422  35.206  34.055  1.00  0.00     0.002 A 
ATOM     79  C   UNL A   1      37.972  33.266  33.955  1.00  0.00     0.091 A 
ATOM     80  F   UNL A   1      38.839  31.104  34.498  1.00  0.00    -0.205 F 
ATOM     81  C   UNL A   1      38.193  34.642  33.748  1.00  0.00     0.022 A 
BRANCH  79  82
ATOM     82  S   UNL A   1      36.402  32.610  33.402  1.00  0.00     0.127 S 
ATOM     83  O   UNL A   1      35.468  33.113  34.401  1.00  0.00    -0.237 OA
ATOM     84  O   UNL A   1      36.276  33.252  32.098  1.00  0.00    -0.237 OA
ATOM     85  O   UNL A   1      36.576  31.166  33.371  1.00  0.00    -0.744 OA
ENDBRANCH  79  82
ENDBRANCH  51  75
BRANCH  63  86
ATOM     86  C   UNL A   1      43.027  26.264  34.306  1.00  0.00     0.023 A 
ATOM     87  C   UNL A   1      41.892  25.781  34.986  1.00  0.00     0.012 A 
ATOM     88  C   UNL A   1      44.120  25.376  34.173  1.00  0.00     0.148 A 
ATOM     89  C   UNL A   1      41.898  24.556  35.649  1.00  0.00     0.002 A 
ATOM     90  C   UNL A   1      44.063  24.098  34.709  1.00  0.00     0.091 A 
ATOM     91  F   UNL A   1      45.235  25.767  33.542  1.00  0.00    -0.205 F 
ATOM     92  C   UNL A   1      42.983  23.709  35.503  1.00  0.00     0.022 A 
BRANCH  90  93
ATOM     93  S   UNL A   1      45.297  22.856  34.318  1.00  0.00     0.127 S 
ATOM     94  O   UNL A   1      46.509  23.466  34.861  1.00  0.00    -0.237 OA
ATOM     95  O   UNL A   1      44.806  21.698  35.066  1.00  0.00    -0.237 OA
ATOM     96  O   UNL A   1      45.261  22.695  32.871  1.00  0.00    -0.744 OA
ENDBRANCH  90  93
ENDBRANCH  63  86
ENDBRANCH  37  38
ENDBRANCH  30  32
ENDBRANCH  29  30
ENDBRANCH  28  29
ENDBRANCH  27  28
ENDBRANCH  26  27
ENDBRANCH   1  26
TORSDOF 21
ENDMDL
MODEL 3
REMARK VINA RESULT:     -10.4      3.896      9.580
REMARK SMILES COc1c(C)cccc1C(=O)NCc1ccc(C(=O)OCCOCCOC(=O)c2ccc(-c3c4nc(c(-c5cccc(S(=O)(=O)[O-])c5F)c5ccc([nH]5)c(-c5cccc(S(=O)(=O)[O-])c5F)c5nc(c(-c6cccc(S(=O)(=O)[O-])c6F)c6ccc3[nH]6)C=C5)C=C4)cc2)cc1
REMARK SMILES IDX 22 1 21 2 20 3 18 4 19 5 17 6 14 7 15 8 93 9 16 10 92 11
REMARK SMILES IDX 13 12 12 13 10 14 11 15 9 17 3 18 4 19 5 20 6 21 8 22 7 23
REMARK SMILES IDX 2 24 1 25 23 26 24 27 25 28 26 29 27 30 28 31 29 32 30 33
REMARK SMILES IDX 91 34 31 35 90 36 32 37 33 38 34 39 84 40 35 41 89 42 83 43
REMARK SMILES IDX 85 44 36 45 88 46 82 47 81 48 37 50 69 51 49 52 68 53 50 54
REMARK SMILES IDX 53 55 67 56 86 57 51 58 52 59 66 61 87 62 54 63 38 64 39 65
REMARK SMILES IDX 47 66 40 67 42 68 48 69 41 70 43 71 44 72 45 73 46 74 70 75
REMARK SMILES IDX 71 76 79 77 72 78 74 79 80 80 73 81 75 82 76 83 77 84 78 85
REMARK SMILES IDX 55 86 56 87 64 88 57 89 59 90 65 91 58 92 60 93 61 94 62 95
REMARK SMILES IDX 63 96
REMARK H PARENT 12 16 85 49 53 60
REMARK Flexibility Score: inf
ROOT
ATOM      1  C   UNL A   1      37.533  20.110  25.146  1.00  0.00     0.202 C 
ENDROOT
BRANCH   1   2
ATOM      2  C   UNL A   1      36.118  20.768  25.035  1.00  0.00     0.261 C 
BRANCH   2   3
ATOM      3  O   UNL A   1      35.574  21.423  26.165  1.00  0.00    -0.460 OA
BRANCH   3   4
ATOM      4  C   UNL A   1      34.279  21.794  26.155  1.00  0.00     0.338 C 
ATOM      5  O   UNL A   1      33.440  21.583  27.007  1.00  0.00    -0.246 OA
BRANCH   4   6
ATOM      6  C   UNL A   1      34.173  22.738  25.016  1.00  0.00     0.060 A 
ATOM      7  C   UNL A   1      33.250  24.634  23.185  1.00  0.00    -0.029 A 
ATOM      8  C   UNL A   1      32.976  23.259  23.011  1.00  0.00     0.006 A 
ATOM      9  C   UNL A   1      34.161  25.014  24.168  1.00  0.00     0.006 A 
ATOM     10  C   UNL A   1      33.464  22.306  23.905  1.00  0.00     0.016 A 
ATOM     11  C   UNL A   1      34.554  24.086  25.127  1.00  0.00     0.016 A 
BRANCH   7  12
ATOM     12  C   UNL A   1      32.481  25.642  22.365  1.00  0.00     0.152 C 
BRANCH  12  13
ATOM     13  N   UNL A   1      31.079  25.919  22.706  1.00  0.00    -0.348 N 
ATOM     14  C   UNL A   1      30.442  26.455  23.808  1.00  0.00     0.255 C 
ATOM     15  O   UNL A   1      29.210  26.440  23.844  1.00  0.00    -0.269 OA
ATOM     16  H   UNL A   1      30.453  25.664  21.990  1.00  0.00     0.164 HD
BRANCH  14  17
ATOM     17  C   UNL A   1      31.173  27.195  24.861  1.00  0.00     0.082 A 
ATOM     18  C   UNL A   1      31.539  28.540  24.706  1.00  0.00     0.134 A 
ATOM     19  C   UNL A   1      31.708  29.272  25.879  1.00  0.00    -0.008 A 
ATOM     20  C   UNL A   1      31.526  30.752  25.885  1.00  0.00     0.048 C 
ATOM     21  C   UNL A   1      31.824  28.604  27.126  1.00  0.00     0.007 A 
ATOM     22  C   UNL A   1      31.296  26.525  26.100  1.00  0.00     0.018 A 
ATOM     23  C   UNL A   1      31.665  27.228  27.233  1.00  0.00     0.001 A 
BRANCH  18  24
ATOM     24  O   UNL A   1      31.544  29.004  23.427  1.00  0.00    -0.496 OA
ATOM     25  C   UNL A   1      30.438  29.576  22.747  1.00  0.00     0.278 C 
ENDBRANCH  18  24
ENDBRANCH  14  17
ENDBRANCH  12  13
ENDBRANCH   7  12
ENDBRANCH   4   6
ENDBRANCH   3   4
ENDBRANCH   2   3
ENDBRANCH   1   2
BRANCH   1  26
ATOM     26  O   UNL A   1      38.676  20.921  25.249  1.00  0.00    -0.374 OA
BRANCH  26  27
ATOM     27  C   UNL A   1      39.646  20.248  25.996  1.00  0.00     0.202 C 
BRANCH  27  28
ATOM     28  C   UNL A   1      41.009  20.890  26.367  1.00  0.00     0.261 C 
BRANCH  28  29
ATOM     29  O   UNL A   1      41.323  22.386  26.634  1.00  0.00    -0.460 OA
BRANCH  29  30
ATOM     30  C   UNL A   1      41.660  23.671  26.908  1.00  0.00     0.338 C 
ATOM     31  O   UNL A   1      42.828  23.869  27.246  1.00  0.00    -0.246 OA
BRANCH  30  32
ATOM     32  C   UNL A   1      40.715  24.876  26.969  1.00  0.00     0.060 A 
ATOM     33  C   UNL A   1      40.953  26.040  26.237  1.00  0.00     0.016 A 
ATOM     34  C   UNL A   1      39.692  25.027  27.857  1.00  0.00     0.016 A 
ATOM     35  C   UNL A   1      40.785  27.309  26.831  1.00  0.00     0.010 A 
ATOM     36  C   UNL A   1      39.713  26.217  28.574  1.00  0.00     0.010 A 
ATOM     37  C   UNL A   1      40.420  27.339  28.147  1.00  0.00    -0.014 A 
BRANCH  37  38
ATOM     38  C   UNL A   1      40.548  28.405  29.143  1.00  0.00     0.031 A 
ATOM     39  C   UNL A   1      39.569  29.511  28.966  1.00  0.00     0.074 A 
ATOM     40  C   UNL A   1      41.317  28.288  30.268  1.00  0.00     0.049 A 
ATOM     41  N   UNL A   1      39.745  30.716  29.373  1.00  0.00    -0.248 NA
ATOM     42  C   UNL A   1      38.323  29.380  28.187  1.00  0.00     0.031 C 
ATOM     43  C   UNL A   1      41.145  29.001  31.545  1.00  0.00     0.029 A 
ATOM     44  N   UNL A   1      42.417  27.473  30.547  1.00  0.00    -0.354 N 
ATOM     45  C   UNL A   1      38.499  31.309  29.300  1.00  0.00     0.074 A 
ATOM     46  C   UNL A   1      37.771  30.582  28.317  1.00  0.00     0.031 C 
ATOM     47  C   UNL A   1      42.181  28.754  32.370  1.00  0.00     0.029 A 
ATOM     48  C   UNL A   1      43.158  27.980  31.628  1.00  0.00     0.049 A 
ATOM     49  H   UNL A   1      42.643  26.653  30.052  1.00  0.00     0.167 HD
ATOM     50  C   UNL A   1      38.116  32.160  30.285  1.00  0.00     0.034 A 
ATOM     51  C   UNL A   1      44.475  28.336  31.500  1.00  0.00     0.034 A 
ATOM     52  C   UNL A   1      39.250  32.397  31.196  1.00  0.00     0.049 A 
ATOM     53  C   UNL A   1      44.583  29.849  31.410  1.00  0.00     0.074 A 
ATOM     54  C   UNL A   1      39.515  32.020  32.499  1.00  0.00     0.029 A 
ATOM     55  N   UNL A   1      40.473  32.800  30.656  1.00  0.00    -0.354 N 
ATOM     56  N   UNL A   1      43.525  30.613  31.397  1.00  0.00    -0.248 NA
ATOM     57  C   UNL A   1      45.810  30.640  31.388  1.00  0.00     0.031 C 
ATOM     58  C   UNL A   1      40.930  32.107  32.696  1.00  0.00     0.029 A 
ATOM     59  C   UNL A   1      41.525  32.563  31.527  1.00  0.00     0.049 A 
ATOM     60  H   UNL A   1      40.577  33.205  29.764  1.00  0.00     0.167 HD
ATOM     61  C   UNL A   1      43.855  31.916  31.283  1.00  0.00     0.074 A 
ATOM     62  C   UNL A   1      45.311  31.892  31.322  1.00  0.00     0.031 C 
ATOM     63  C   UNL A   1      42.901  32.883  31.123  1.00  0.00     0.034 A 
BRANCH  50  64
ATOM     64  C   UNL A   1      36.689  32.625  30.552  1.00  0.00     0.023 A 
ATOM     65  C   UNL A   1      36.187  32.323  31.834  1.00  0.00     0.012 A 
ATOM     66  C   UNL A   1      35.784  33.299  29.679  1.00  0.00     0.148 A 
ATOM     67  C   UNL A   1      34.900  32.686  32.246  1.00  0.00     0.002 A 
ATOM     68  C   UNL A   1      34.525  33.731  30.117  1.00  0.00     0.091 A 
ATOM     69  F   UNL A   1      36.074  33.459  28.386  1.00  0.00    -0.205 F 
ATOM     70  C   UNL A   1      34.079  33.414  31.399  1.00  0.00     0.022 A 
BRANCH  68  71
ATOM     71  S   UNL A   1      33.414  34.742  29.109  1.00  0.00     0.127 S 
ATOM     72  O   UNL A   1      32.471  35.254  30.104  1.00  0.00    -0.237 OA
ATOM     73  O   UNL A   1      34.322  35.752  28.563  1.00  0.00    -0.237 OA
ATOM     74  O   UNL A   1      32.835  33.852  28.111  1.00  0.00    -0.744 OA
ENDBRANCH  68  71
ENDBRANCH  50  64
BRANCH  51  75
ATOM     75  C   UNL A   1      45.228  27.299  30.730  1.00  0.00     0.023 A 
ATOM     76  C   UNL A   1      45.036  25.961  31.174  1.00  0.00     0.012 A 
ATOM     77  C   UNL A   1      45.540  27.533  29.383  1.00  0.00     0.148 A 
ATOM     78  C   UNL A   1      44.908  24.918  30.256  1.00  0.00     0.002 A 
ATOM     79  C   UNL A   1      45.407  26.487  28.477  1.00  0.00     0.091 A 
ATOM     80  F   UNL A   1      45.824  28.784  28.999  1.00  0.00    -0.205 F 
ATOM     81  C   UNL A   1      45.037  25.197  28.904  1.00  0.00     0.022 A 
BRANCH  79  82
ATOM     82  S   UNL A   1      45.413  26.781  26.711  1.00  0.00     0.127 S 
ATOM     83  O   UNL A   1      46.690  27.448  26.496  1.00  0.00    -0.237 OA
ATOM     84  O   UNL A   1      45.364  25.415  26.201  1.00  0.00    -0.237 OA
ATOM     85  O   UNL A   1      44.229  27.586  26.451  1.00  0.00    -0.744 OA
ENDBRANCH  79  82
ENDBRANCH  51  75
BRANCH  63  86
ATOM     86  C   UNL A   1      43.230  34.250  30.580  1.00  0.00     0.023 A 
ATOM     87  C   UNL A   1      43.590  35.311  31.435  1.00  0.00     0.012 A 
ATOM     88  C   UNL A   1      43.315  34.492  29.189  1.00  0.00     0.148 A 
ATOM     89  C   UNL A   1      43.850  36.590  30.950  1.00  0.00     0.002 A 
ATOM     90  C   UNL A   1      43.721  35.729  28.709  1.00  0.00     0.091 A 
ATOM     91  F   UNL A   1      42.985  33.532  28.315  1.00  0.00    -0.205 F 
ATOM     92  C   UNL A   1      43.924  36.798  29.584  1.00  0.00     0.022 A 
BRANCH  90  93
ATOM     93  S   UNL A   1      44.116  35.984  26.977  1.00  0.00     0.127 S 
ATOM     94  O   UNL A   1      45.022  34.867  26.716  1.00  0.00    -0.237 OA
ATOM     95  O   UNL A   1      42.800  35.866  26.348  1.00  0.00    -0.237 OA
ATOM     96  O   UNL A   1      44.705  37.313  26.891  1.00  0.00    -0.744 OA
ENDBRANCH  90  93
ENDBRANCH  63  86
ENDBRANCH  37  38
ENDBRANCH  30  32
ENDBRANCH  29  30
ENDBRANCH  28  29
ENDBRANCH  27  28
ENDBRANCH  26  27
ENDBRANCH   1  26
TORSDOF 21
ENDMDL
