MODEL 1
REMARK VINA RESULT:     -11.2      0.000      0.000
REMARK SMILES O=C(OCCOCCOC(=O)[C@H](CCc1ccccn1)c1ccccc1Br)c1ccc(-c2c3nc(c(-c4cccc(S(=O)(=O)[O-])c4F)c4ccc([nH]4)c(-c4cccc(S(=O)(=O)[O-])c4F)c4nc(c(-c5cccc(S(=O)(=O)[O-])c5F)c5ccc2[nH]5)C=C4)C=C3)cc1
REMARK SMILES IDX 6 1 5 2 4 3 3 4 2 5 1 6 28 7 29 8 90 9 30 10 89 11 31 12
REMARK SMILES IDX 32 13 33 14 83 15 34 16 88 17 82 18 84 19 35 20 87 21 81 22
REMARK SMILES IDX 80 23 36 25 68 26 48 27 67 28 49 29 52 30 66 31 85 32 50 33
REMARK SMILES IDX 51 34 65 36 86 37 53 38 37 39 38 40 46 41 39 42 41 43 47 44
REMARK SMILES IDX 40 45 42 46 43 47 44 48 45 49 69 50 70 51 78 52 71 53 73 54
REMARK SMILES IDX 79 55 72 56 74 57 75 58 76 59 77 60 54 61 55 62 63 63 56 64
REMARK SMILES IDX 58 65 64 66 57 67 59 68 60 69 61 70 62 71 7 72 8 73 9 74
REMARK SMILES IDX 10 75 11 76 12 77 21 78 22 79 26 80 23 81 25 82 27 83 24 84
REMARK SMILES IDX 13 85 14 86 15 87 16 88 20 89 17 90 19 91 18 92
REMARK H PARENT 84 24 52 35
REMARK Flexibility Score: inf
ROOT
ATOM      1  O   UNL A   1      35.116  22.440  25.205  1.00  0.00    -0.374 OA
ENDROOT
BRANCH   1   2
ATOM      2  C   UNL A   1      35.593  21.217  25.741  1.00  0.00     0.202 C 
BRANCH   2   3
ATOM      3  C   UNL A   1      36.763  20.620  24.970  1.00  0.00     0.261 C 
BRANCH   3   4
ATOM      4  O   UNL A   1      37.886  21.499  25.025  1.00  0.00    -0.460 OA
BRANCH   4   5
ATOM      5  C   UNL A   1      38.876  21.423  25.947  1.00  0.00     0.338 C 
ATOM      6  O   UNL A   1      39.351  20.325  26.224  1.00  0.00    -0.246 OA
BRANCH   5   7
ATOM      7  C   UNL A   1      39.480  22.638  26.566  1.00  0.00     0.060 A 
ATOM      8  C   UNL A   1      40.528  22.620  27.491  1.00  0.00     0.016 A 
ATOM      9  C   UNL A   1      39.036  23.876  26.087  1.00  0.00     0.016 A 
ATOM     10  C   UNL A   1      41.126  23.779  27.940  1.00  0.00     0.010 A 
ATOM     11  C   UNL A   1      39.661  25.052  26.501  1.00  0.00     0.010 A 
ATOM     12  C   UNL A   1      40.723  24.994  27.412  1.00  0.00    -0.014 A 
BRANCH  12  13
ATOM     13  C   UNL A   1      41.437  26.189  27.869  1.00  0.00     0.031 A 
ATOM     14  C   UNL A   1      40.696  27.173  28.704  1.00  0.00     0.074 A 
ATOM     15  C   UNL A   1      42.747  26.309  27.586  1.00  0.00     0.049 A 
ATOM     16  N   UNL A   1      41.072  28.350  29.103  1.00  0.00    -0.248 NA
ATOM     17  C   UNL A   1      39.350  26.774  29.158  1.00  0.00     0.031 C 
ATOM     18  C   UNL A   1      43.555  25.310  26.875  1.00  0.00     0.029 A 
ATOM     19  N   UNL A   1      43.631  27.317  27.852  1.00  0.00    -0.354 N 
ATOM     20  C   UNL A   1      39.981  28.875  29.778  1.00  0.00     0.074 A 
ATOM     21  C   UNL A   1      38.946  27.868  29.786  1.00  0.00     0.031 C 
ATOM     22  C   UNL A   1      44.809  25.766  26.745  1.00  0.00     0.029 A 
ATOM     23  C   UNL A   1      44.866  27.120  27.278  1.00  0.00     0.049 A 
ATOM     24  H   UNL A   1      43.407  28.105  28.399  1.00  0.00     0.167 HD
ATOM     25  C   UNL A   1      39.865  30.110  30.308  1.00  0.00     0.034 A 
ATOM     26  C   UNL A   1      45.892  27.977  27.136  1.00  0.00     0.034 A 
ATOM     27  C   UNL A   1      40.934  31.066  30.287  1.00  0.00     0.049 A 
ATOM     28  C   UNL A   1      45.708  29.362  27.694  1.00  0.00     0.074 A 
ATOM     29  C   UNL A   1      40.950  32.351  30.791  1.00  0.00     0.029 A 
ATOM     30  N   UNL A   1      42.175  30.840  29.707  1.00  0.00    -0.354 N 
ATOM     31  N   UNL A   1      44.692  29.849  28.370  1.00  0.00    -0.248 NA
ATOM     32  C   UNL A   1      46.799  30.318  27.475  1.00  0.00     0.031 C 
ATOM     33  C   UNL A   1      42.188  32.917  30.476  1.00  0.00     0.029 A 
ATOM     34  C   UNL A   1      42.958  31.972  29.811  1.00  0.00     0.049 A 
ATOM     35  H   UNL A   1      42.456  29.997  29.283  1.00  0.00     0.167 HD
ATOM     36  C   UNL A   1      45.025  31.162  28.667  1.00  0.00     0.074 A 
ATOM     37  C   UNL A   1      46.356  31.380  28.131  1.00  0.00     0.031 C 
ATOM     38  C   UNL A   1      44.297  32.115  29.298  1.00  0.00     0.034 A 
BRANCH  25  39
ATOM     39  C   UNL A   1      38.533  30.505  30.870  1.00  0.00     0.023 A 
ATOM     40  C   UNL A   1      38.212  30.246  32.216  1.00  0.00     0.012 A 
ATOM     41  C   UNL A   1      37.599  31.164  30.046  1.00  0.00     0.148 A 
ATOM     42  C   UNL A   1      36.970  30.620  32.729  1.00  0.00     0.002 A 
ATOM     43  C   UNL A   1      36.382  31.573  30.575  1.00  0.00     0.091 A 
ATOM     44  F   UNL A   1      37.916  31.366  28.759  1.00  0.00    -0.205 F 
ATOM     45  C   UNL A   1      36.061  31.292  31.913  1.00  0.00     0.022 A 
BRANCH  43  46
ATOM     46  S   UNL A   1      35.175  32.498  29.622  1.00  0.00     0.127 S 
ATOM     47  O   UNL A   1      34.187  32.836  30.647  1.00  0.00    -0.237 OA
ATOM     48  O   UNL A   1      35.971  33.628  29.146  1.00  0.00    -0.237 OA
ATOM     49  O   UNL A   1      34.699  31.596  28.582  1.00  0.00    -0.744 OA
ENDBRANCH  43  46
ENDBRANCH  25  39
BRANCH  26  50
ATOM     50  C   UNL A   1      47.123  27.589  26.386  1.00  0.00     0.023 A 
ATOM     51  C   UNL A   1      48.212  27.019  27.074  1.00  0.00     0.012 A 
ATOM     52  C   UNL A   1      47.231  27.798  24.995  1.00  0.00     0.148 A 
ATOM     53  C   UNL A   1      49.395  26.707  26.401  1.00  0.00     0.002 A 
ATOM     54  C   UNL A   1      48.390  27.429  24.321  1.00  0.00     0.091 A 
ATOM     55  F   UNL A   1      46.198  28.363  24.352  1.00  0.00    -0.205 F 
ATOM     56  C   UNL A   1      49.481  26.904  25.024  1.00  0.00     0.022 A 
BRANCH  54  57
ATOM     57  S   UNL A   1      48.532  27.534  22.532  1.00  0.00     0.127 S 
ATOM     58  O   UNL A   1      49.823  28.199  22.374  1.00  0.00    -0.237 OA
ATOM     59  O   UNL A   1      48.514  26.124  22.140  1.00  0.00    -0.237 OA
ATOM     60  O   UNL A   1      47.368  28.290  22.093  1.00  0.00    -0.744 OA
ENDBRANCH  54  57
ENDBRANCH  26  50
BRANCH  38  61
ATOM     61  C   UNL A   1      44.935  33.465  29.457  1.00  0.00     0.023 A 
ATOM     62  C   UNL A   1      45.745  33.724  30.578  1.00  0.00     0.012 A 
ATOM     63  C   UNL A   1      44.815  34.428  28.439  1.00  0.00     0.148 A 
ATOM     64  C   UNL A   1      46.411  34.941  30.696  1.00  0.00     0.002 A 
ATOM     65  C   UNL A   1      45.529  35.613  28.535  1.00  0.00     0.091 A 
ATOM     66  F   UNL A   1      44.025  34.156  27.391  1.00  0.00    -0.205 F 
ATOM     67  C   UNL A   1      46.316  35.877  29.668  1.00  0.00     0.022 A 
BRANCH  65  68
ATOM     68  S   UNL A   1      45.559  36.824  27.212  1.00  0.00     0.127 S 
ATOM     69  O   UNL A   1      46.274  36.100  26.162  1.00  0.00    -0.237 OA
ATOM     70  O   UNL A   1      44.135  37.032  26.952  1.00  0.00    -0.237 OA
ATOM     71  O   UNL A   1      46.255  37.989  27.745  1.00  0.00    -0.744 OA
ENDBRANCH  65  68
ENDBRANCH  38  61
ENDBRANCH  12  13
ENDBRANCH   5   7
ENDBRANCH   4   5
ENDBRANCH   3   4
ENDBRANCH   2   3
ENDBRANCH   1   2
BRANCH   1  72
ATOM     72  C   UNL A   1      34.544  22.441  23.903  1.00  0.00     0.202 C 
BRANCH  72  73
ATOM     73  C   UNL A   1      34.673  23.860  23.359  1.00  0.00     0.261 C 
BRANCH  73  74
ATOM     74  O   UNL A   1      33.414  24.533  23.541  1.00  0.00    -0.463 OA
BRANCH  74  75
ATOM     75  C   UNL A   1      33.238  25.652  22.770  1.00  0.00     0.313 C 
ATOM     76  O   UNL A   1      33.909  25.976  21.805  1.00  0.00    -0.252 OA
BRANCH  75  77
ATOM     77  C   UNL A   1      32.040  26.450  23.290  1.00  0.00     0.131 C 
BRANCH  77  78
ATOM     78  C   UNL A   1      32.442  27.099  24.614  1.00  0.00    -0.020 A 
ATOM     79  C   UNL A   1      33.605  27.881  24.723  1.00  0.00     0.006 A 
ATOM     80  C   UNL A   1      31.703  26.877  25.798  1.00  0.00     0.022 A 
ATOM     81  C   UNL A   1      34.000  28.442  25.940  1.00  0.00     0.000 A 
ATOM     82  C   UNL A   1      32.131  27.396  27.025  1.00  0.00     0.016 A 
ATOM     83  Br  UNL A   1      30.077  25.887  25.853  1.00  0.00    -0.051 Br
ATOM     84  C   UNL A   1      33.272  28.188  27.093  1.00  0.00     0.001 A 
ENDBRANCH  77  78
BRANCH  77  85
ATOM     85  C   UNL A   1      31.568  27.346  22.112  1.00  0.00     0.026 C 
BRANCH  85  86
ATOM     86  C   UNL A   1      31.288  28.826  22.404  1.00  0.00     0.057 C 
BRANCH  86  87
ATOM     87  C   UNL A   1      29.829  29.152  22.468  1.00  0.00     0.040 A 
ATOM     88  C   UNL A   1      28.938  28.223  22.996  1.00  0.00     0.024 A 
ATOM     89  N   UNL A   1      29.466  30.414  22.131  1.00  0.00    -0.261 NA
ATOM     90  C   UNL A   1      27.637  28.627  23.259  1.00  0.00     0.003 A 
ATOM     91  C   UNL A   1      28.190  30.772  22.381  1.00  0.00     0.111 A 
ATOM     92  C   UNL A   1      27.255  29.929  22.958  1.00  0.00     0.020 A 
ENDBRANCH  86  87
ENDBRANCH  85  86
ENDBRANCH  77  85
ENDBRANCH  75  77
ENDBRANCH  74  75
ENDBRANCH  73  74
ENDBRANCH  72  73
ENDBRANCH   1  72
TORSDOF 21
ENDMDL
MODEL 2
REMARK VINA RESULT:     -10.6      2.436      8.557
REMARK SMILES O=C(OCCOCCOC(=O)[C@H](CCc1ccccn1)c1ccccc1Br)c1ccc(-c2c3nc(c(-c4cccc(S(=O)(=O)[O-])c4F)c4ccc([nH]4)c(-c4cccc(S(=O)(=O)[O-])c4F)c4nc(c(-c5cccc(S(=O)(=O)[O-])c5F)c5ccc2[nH]5)C=C4)C=C3)cc1
REMARK SMILES IDX 6 1 5 2 4 3 3 4 2 5 1 6 28 7 29 8 90 9 30 10 89 11 31 12
REMARK SMILES IDX 32 13 33 14 83 15 34 16 88 17 82 18 84 19 35 20 87 21 81 22
REMARK SMILES IDX 80 23 36 25 68 26 48 27 67 28 49 29 52 30 66 31 85 32 50 33
REMARK SMILES IDX 51 34 65 36 86 37 53 38 37 39 38 40 46 41 39 42 41 43 47 44
REMARK SMILES IDX 40 45 42 46 43 47 44 48 45 49 69 50 70 51 78 52 71 53 73 54
REMARK SMILES IDX 79 55 72 56 74 57 75 58 76 59 77 60 54 61 55 62 63 63 56 64
REMARK SMILES IDX 58 65 64 66 57 67 59 68 60 69 61 70 62 71 7 72 8 73 9 74
REMARK SMILES IDX 10 75 11 76 12 77 21 78 22 79 26 80 23 81 25 82 27 83 24 84
REMARK SMILES IDX 13 85 14 86 15 87 16 88 20 89 17 90 19 91 18 92
REMARK H PARENT 84 24 52 35
REMARK Flexibility Score: inf
ROOT
ATOM      1  O   UNL A   1      37.659  21.088  24.841  1.00  0.00    -0.374 OA
ENDROOT
BRANCH   1   2
ATOM      2  C   UNL A   1      38.064  19.740  24.672  1.00  0.00     0.202 C 
BRANCH   2   3
ATOM      3  C   UNL A   1      38.765  19.148  25.888  1.00  0.00     0.261 C 
BRANCH   3   4
ATOM      4  O   UNL A   1      40.159  19.450  25.845  1.00  0.00    -0.460 OA
BRANCH   4   5
ATOM      5  C   UNL A   1      40.868  19.953  26.884  1.00  0.00     0.338 C 
ATOM      6  O   UNL A   1      41.185  19.208  27.808  1.00  0.00    -0.246 OA
BRANCH   5   7
ATOM      7  C   UNL A   1      41.365  21.359  26.901  1.00  0.00     0.060 A 
ATOM      8  C   UNL A   1      41.058  22.321  25.935  1.00  0.00     0.016 A 
ATOM      9  C   UNL A   1      42.087  21.758  28.032  1.00  0.00     0.016 A 
ATOM     10  C   UNL A   1      41.447  23.638  26.065  1.00  0.00     0.010 A 
ATOM     11  C   UNL A   1      42.449  23.095  28.195  1.00  0.00     0.010 A 
ATOM     12  C   UNL A   1      42.105  24.036  27.217  1.00  0.00    -0.014 A 
BRANCH  12  13
ATOM     13  C   UNL A   1      42.435  25.458  27.339  1.00  0.00     0.031 A 
ATOM     14  C   UNL A   1      43.688  25.945  26.700  1.00  0.00     0.074 A 
ATOM     15  C   UNL A   1      41.559  26.276  27.949  1.00  0.00     0.049 A 
ATOM     16  N   UNL A   1      44.247  27.115  26.790  1.00  0.00    -0.248 NA
ATOM     17  C   UNL A   1      44.406  24.988  25.838  1.00  0.00     0.031 C 
ATOM     18  C   UNL A   1      40.252  25.871  28.484  1.00  0.00     0.029 A 
ATOM     19  N   UNL A   1      41.628  27.612  28.229  1.00  0.00    -0.354 N 
ATOM     20  C   UNL A   1      45.428  27.012  26.073  1.00  0.00     0.074 A 
ATOM     21  C   UNL A   1      45.482  25.685  25.504  1.00  0.00     0.031 C 
ATOM     22  C   UNL A   1      39.655  26.932  29.045  1.00  0.00     0.029 A 
ATOM     23  C   UNL A   1      40.572  28.061  28.990  1.00  0.00     0.049 A 
ATOM     24  H   UNL A   1      42.358  28.195  27.918  1.00  0.00     0.167 HD
ATOM     25  C   UNL A   1      46.389  27.950  25.942  1.00  0.00     0.034 A 
ATOM     26  C   UNL A   1      40.416  29.232  29.632  1.00  0.00     0.034 A 
ATOM     27  C   UNL A   1      46.275  29.261  26.514  1.00  0.00     0.049 A 
ATOM     28  C   UNL A   1      41.530  30.235  29.506  1.00  0.00     0.074 A 
ATOM     29  C   UNL A   1      47.173  30.307  26.454  1.00  0.00     0.029 A 
ATOM     30  N   UNL A   1      45.195  29.692  27.273  1.00  0.00    -0.354 N 
ATOM     31  N   UNL A   1      42.631  30.157  28.794  1.00  0.00    -0.248 NA
ATOM     32  C   UNL A   1      41.391  31.483  30.266  1.00  0.00     0.031 C 
ATOM     33  C   UNL A   1      46.654  31.358  27.215  1.00  0.00     0.029 A 
ATOM     34  C   UNL A   1      45.416  30.981  27.716  1.00  0.00     0.049 A 
ATOM     35  H   UNL A   1      44.391  29.158  27.467  1.00  0.00     0.167 HD
ATOM     36  C   UNL A   1      43.310  31.347  29.009  1.00  0.00     0.074 A 
ATOM     37  C   UNL A   1      42.475  32.145  29.887  1.00  0.00     0.031 C 
ATOM     38  C   UNL A   1      44.524  31.743  28.552  1.00  0.00     0.034 A 
BRANCH  25  39
ATOM     39  C   UNL A   1      47.650  27.563  25.230  1.00  0.00     0.023 A 
ATOM     40  C   UNL A   1      48.713  26.956  25.925  1.00  0.00     0.012 A 
ATOM     41  C   UNL A   1      47.763  27.790  23.845  1.00  0.00     0.148 A 
ATOM     42  C   UNL A   1      49.882  26.597  25.252  1.00  0.00     0.002 A 
ATOM     43  C   UNL A   1      48.911  27.391  23.173  1.00  0.00     0.091 A 
ATOM     44  F   UNL A   1      46.750  28.402  23.214  1.00  0.00    -0.205 F 
ATOM     45  C   UNL A   1      49.976  26.805  23.877  1.00  0.00     0.022 A 
BRANCH  43  46
ATOM     46  S   UNL A   1      49.100  27.558  21.396  1.00  0.00     0.127 S 
ATOM     47  O   UNL A   1      49.523  28.952  21.274  1.00  0.00    -0.237 OA
ATOM     48  O   UNL A   1      50.146  26.575  21.112  1.00  0.00    -0.237 OA
ATOM     49  O   UNL A   1      47.798  27.257  20.818  1.00  0.00    -0.744 OA
ENDBRANCH  43  46
ENDBRANCH  25  39
BRANCH  26  50
ATOM     50  C   UNL A   1      39.224  29.486  30.494  1.00  0.00     0.023 A 
ATOM     51  C   UNL A   1      39.080  28.793  31.712  1.00  0.00     0.012 A 
ATOM     52  C   UNL A   1      38.221  30.399  30.108  1.00  0.00     0.148 A 
ATOM     53  C   UNL A   1      37.941  28.970  32.502  1.00  0.00     0.002 A 
ATOM     54  C   UNL A   1      37.119  30.615  30.929  1.00  0.00     0.091 A 
ATOM     55  F   UNL A   1      38.355  31.037  28.936  1.00  0.00    -0.205 F 
ATOM     56  C   UNL A   1      36.966  29.886  32.115  1.00  0.00     0.022 A 
BRANCH  54  57
ATOM     57  S   UNL A   1      35.884  31.868  30.564  1.00  0.00     0.127 S 
ATOM     58  O   UNL A   1      35.236  31.313  29.379  1.00  0.00    -0.237 OA
ATOM     59  O   UNL A   1      35.065  31.854  31.776  1.00  0.00    -0.237 OA
ATOM     60  O   UNL A   1      36.629  33.103  30.362  1.00  0.00    -0.744 OA
ENDBRANCH  54  57
ENDBRANCH  26  50
BRANCH  38  61
ATOM     61  C   UNL A   1      45.000  33.102  28.978  1.00  0.00     0.023 A 
ATOM     62  C   UNL A   1      45.758  33.236  30.156  1.00  0.00     0.012 A 
ATOM     63  C   UNL A   1      44.785  34.218  28.149  1.00  0.00     0.148 A 
ATOM     64  C   UNL A   1      46.277  34.476  30.518  1.00  0.00     0.002 A 
ATOM     65  C   UNL A   1      45.356  35.436  28.486  1.00  0.00     0.091 A 
ATOM     66  F   UNL A   1      44.047  34.060  27.042  1.00  0.00    -0.205 F 
ATOM     67  C   UNL A   1      46.090  35.571  29.676  1.00  0.00     0.022 A 
BRANCH  65  68
ATOM     68  S   UNL A   1      45.266  36.868  27.408  1.00  0.00     0.127 S 
ATOM     69  O   UNL A   1      46.062  36.428  26.263  1.00  0.00    -0.237 OA
ATOM     70  O   UNL A   1      43.830  36.970  27.151  1.00  0.00    -0.237 OA
ATOM     71  O   UNL A   1      45.829  37.980  28.164  1.00  0.00    -0.744 OA
ENDBRANCH  65  68
ENDBRANCH  38  61
ENDBRANCH  12  13
ENDBRANCH   5   7
ENDBRANCH   4   5
ENDBRANCH   3   4
ENDBRANCH   2   3
ENDBRANCH   1   2
BRANCH   1  72
ATOM     72  C   UNL A   1      36.430  21.356  25.504  1.00  0.00     0.202 C 
BRANCH  72  73
ATOM     73  C   UNL A   1      35.895  22.669  24.942  1.00  0.00     0.261 C 
BRANCH  73  74
ATOM     74  O   UNL A   1      35.575  22.472  23.553  1.00  0.00    -0.463 OA
BRANCH  74  75
ATOM     75  C   UNL A   1      34.312  22.861  23.189  1.00  0.00     0.313 C 
ATOM     76  O   UNL A   1      34.014  23.512  22.203  1.00  0.00    -0.252 OA
BRANCH  75  77
ATOM     77  C   UNL A   1      33.300  22.334  24.210  1.00  0.00     0.131 C 
BRANCH  77  78
ATOM     78  C   UNL A   1      32.205  23.386  24.377  1.00  0.00    -0.020 A 
ATOM     79  C   UNL A   1      31.581  23.978  23.265  1.00  0.00     0.006 A 
ATOM     80  C   UNL A   1      31.829  23.862  25.654  1.00  0.00     0.022 A 
ATOM     81  C   UNL A   1      30.609  24.971  23.412  1.00  0.00     0.000 A 
ATOM     82  C   UNL A   1      30.894  24.894  25.794  1.00  0.00     0.016 A 
ATOM     83  Br  UNL A   1      32.522  23.160  27.284  1.00  0.00    -0.051 Br
ATOM     84  C   UNL A   1      30.276  25.439  24.675  1.00  0.00     0.001 A 
ENDBRANCH  77  78
BRANCH  77  85
ATOM     85  C   UNL A   1      32.919  20.902  23.746  1.00  0.00     0.026 C 
BRANCH  85  86
ATOM     86  C   UNL A   1      32.229  19.980  24.760  1.00  0.00     0.057 C 
BRANCH  86  87
ATOM     87  C   UNL A   1      32.597  18.538  24.597  1.00  0.00     0.040 A 
ATOM     88  C   UNL A   1      33.225  18.115  23.430  1.00  0.00     0.024 A 
ATOM     89  N   UNL A   1      32.422  17.734  25.673  1.00  0.00    -0.261 NA
ATOM     90  C   UNL A   1      33.763  16.837  23.392  1.00  0.00     0.003 A 
ATOM     91  C   UNL A   1      32.939  16.490  25.600  1.00  0.00     0.111 A 
ATOM     92  C   UNL A   1      33.630  16.010  24.500  1.00  0.00     0.020 A 
ENDBRANCH  86  87
ENDBRANCH  85  86
ENDBRANCH  77  85
ENDBRANCH  75  77
ENDBRANCH  74  75
ENDBRANCH  73  74
ENDBRANCH  72  73
ENDBRANCH   1  72
TORSDOF 21
ENDMDL
MODEL 3
REMARK VINA RESULT:     -10.6      1.434      2.689
REMARK SMILES O=C(OCCOCCOC(=O)[C@H](CCc1ccccn1)c1ccccc1Br)c1ccc(-c2c3nc(c(-c4cccc(S(=O)(=O)[O-])c4F)c4ccc([nH]4)c(-c4cccc(S(=O)(=O)[O-])c4F)c4nc(c(-c5cccc(S(=O)(=O)[O-])c5F)c5ccc2[nH]5)C=C4)C=C3)cc1
REMARK SMILES IDX 6 1 5 2 4 3 3 4 2 5 1 6 28 7 29 8 90 9 30 10 89 11 31 12
REMARK SMILES IDX 32 13 33 14 83 15 34 16 88 17 82 18 84 19 35 20 87 21 81 22
REMARK SMILES IDX 80 23 36 25 68 26 48 27 67 28 49 29 52 30 66 31 85 32 50 33
REMARK SMILES IDX 51 34 65 36 86 37 53 38 37 39 38 40 46 41 39 42 41 43 47 44
REMARK SMILES IDX 40 45 42 46 43 47 44 48 45 49 69 50 70 51 78 52 71 53 73 54
REMARK SMILES IDX 79 55 72 56 74 57 75 58 76 59 77 60 54 61 55 62 63 63 56 64
REMARK SMILES IDX 58 65 64 66 57 67 59 68 60 69 61 70 62 71 7 72 8 73 9 74
REMARK SMILES IDX 10 75 11 76 12 77 21 78 22 79 26 80 23 81 25 82 27 83 24 84
REMARK SMILES IDX 13 85 14 86 15 87 16 88 20 89 17 90 19 91 18 92
REMARK H PARENT 84 24 52 35
REMARK Flexibility Score: inf
ROOT
ATOM      1  O   UNL A   1      35.733  22.097  24.285  1.00  0.00    -0.374 OA
ENDROOT
BRANCH   1   2
ATOM      2  C   UNL A   1      36.002  20.911  25.013  1.00  0.00     0.202 C 
BRANCH   2   3
ATOM      3  C   UNL A   1      37.445  20.437  24.909  1.00  0.00     0.261 C 
BRANCH   3   4
ATOM      4  O   UNL A   1      38.337  21.516  25.191  1.00  0.00    -0.460 OA
BRANCH   4   5
ATOM      5  C   UNL A   1      39.260  21.510  26.184  1.00  0.00     0.338 C 
ATOM      6  O   UNL A   1      39.726  20.438  26.559  1.00  0.00    -0.246 OA
BRANCH   5   7
ATOM      7  C   UNL A   1      39.804  22.768  26.770  1.00  0.00     0.060 A 
ATOM      8  C   UNL A   1      40.793  22.822  27.757  1.00  0.00     0.016 A 
ATOM      9  C   UNL A   1      39.373  23.969  26.195  1.00  0.00     0.016 A 
ATOM     10  C   UNL A   1      41.343  24.015  28.176  1.00  0.00     0.010 A 
ATOM     11  C   UNL A   1      39.952  25.178  26.580  1.00  0.00     0.010 A 
ATOM     12  C   UNL A   1      40.956  25.191  27.557  1.00  0.00    -0.014 A 
BRANCH  12  13
ATOM     13  C   UNL A   1      41.620  26.423  27.988  1.00  0.00     0.031 A 
ATOM     14  C   UNL A   1      40.821  27.423  28.746  1.00  0.00     0.074 A 
ATOM     15  C   UNL A   1      42.938  26.563  27.756  1.00  0.00     0.049 A 
ATOM     16  N   UNL A   1      41.152  28.627  29.107  1.00  0.00    -0.248 NA
ATOM     17  C   UNL A   1      39.466  27.012  29.159  1.00  0.00     0.031 C 
ATOM     18  C   UNL A   1      43.800  25.554  27.127  1.00  0.00     0.029 A 
ATOM     19  N   UNL A   1      43.786  27.604  28.014  1.00  0.00    -0.354 N 
ATOM     20  C   UNL A   1      40.020  29.153  29.709  1.00  0.00     0.074 A 
ATOM     21  C   UNL A   1      39.010  28.122  29.720  1.00  0.00     0.031 C 
ATOM     22  C   UNL A   1      45.047  26.036  27.029  1.00  0.00     0.029 A 
ATOM     23  C   UNL A   1      45.050  27.412  27.502  1.00  0.00     0.049 A 
ATOM     24  H   UNL A   1      43.521  28.409  28.514  1.00  0.00     0.167 HD
ATOM     25  C   UNL A   1      39.852  30.407  30.177  1.00  0.00     0.034 A 
ATOM     26  C   UNL A   1      46.061  28.288  27.365  1.00  0.00     0.034 A 
ATOM     27  C   UNL A   1      40.899  31.388  30.158  1.00  0.00     0.049 A 
ATOM     28  C   UNL A   1      45.820  29.691  27.851  1.00  0.00     0.074 A 
ATOM     29  C   UNL A   1      40.863  32.694  30.604  1.00  0.00     0.029 A 
ATOM     30  N   UNL A   1      42.169  31.168  29.642  1.00  0.00    -0.354 N 
ATOM     31  N   UNL A   1      44.764  30.182  28.460  1.00  0.00    -0.248 NA
ATOM     32  C   UNL A   1      46.897  30.664  27.635  1.00  0.00     0.031 C 
ATOM     33  C   UNL A   1      42.100  33.277  30.316  1.00  0.00     0.029 A 
ATOM     34  C   UNL A   1      42.920  32.323  29.729  1.00  0.00     0.049 A 
ATOM     35  H   UNL A   1      42.487  30.314  29.270  1.00  0.00     0.167 HD
ATOM     36  C   UNL A   1      45.053  31.515  28.711  1.00  0.00     0.074 A 
ATOM     37  C   UNL A   1      46.400  31.743  28.223  1.00  0.00     0.031 C 
ATOM     38  C   UNL A   1      44.276  32.477  29.266  1.00  0.00     0.034 A 
BRANCH  25  39
ATOM     39  C   UNL A   1      38.488  30.793  30.664  1.00  0.00     0.023 A 
ATOM     40  C   UNL A   1      38.081  30.498  31.978  1.00  0.00     0.012 A 
ATOM     41  C   UNL A   1      37.611  31.479  29.801  1.00  0.00     0.148 A 
ATOM     42  C   UNL A   1      36.809  30.864  32.421  1.00  0.00     0.002 A 
ATOM     43  C   UNL A   1      36.365  31.879  30.261  1.00  0.00     0.091 A 
ATOM     44  F   UNL A   1      38.011  31.716  28.543  1.00  0.00    -0.205 F 
ATOM     45  C   UNL A   1      35.957  31.563  31.568  1.00  0.00     0.022 A 
BRANCH  43  46
ATOM     46  S   UNL A   1      35.224  32.837  29.260  1.00  0.00     0.127 S 
ATOM     47  O   UNL A   1      34.035  32.862  30.110  1.00  0.00    -0.237 OA
ATOM     48  O   UNL A   1      35.923  34.117  29.149  1.00  0.00    -0.237 OA
ATOM     49  O   UNL A   1      35.070  32.108  28.008  1.00  0.00    -0.744 OA
ENDBRANCH  43  46
ENDBRANCH  25  39
BRANCH  26  50
ATOM     50  C   UNL A   1      47.332  27.899  26.687  1.00  0.00     0.023 A 
ATOM     51  C   UNL A   1      48.471  27.591  27.456  1.00  0.00     0.012 A 
ATOM     52  C   UNL A   1      47.426  27.847  25.281  1.00  0.00     0.148 A 
ATOM     53  C   UNL A   1      49.686  27.286  26.839  1.00  0.00     0.002 A 
ATOM     54  C   UNL A   1      48.624  27.483  24.673  1.00  0.00     0.091 A 
ATOM     55  F   UNL A   1      46.344  28.163  24.555  1.00  0.00    -0.205 F 
ATOM     56  C   UNL A   1      49.760  27.223  25.449  1.00  0.00     0.022 A 
BRANCH  54  57
ATOM     57  S   UNL A   1      48.767  27.257  22.896  1.00  0.00     0.127 S 
ATOM     58  O   UNL A   1      48.234  25.909  22.722  1.00  0.00    -0.237 OA
ATOM     59  O   UNL A   1      47.912  28.328  22.382  1.00  0.00    -0.237 OA
ATOM     60  O   UNL A   1      50.181  27.427  22.595  1.00  0.00    -0.744 OA
ENDBRANCH  54  57
ENDBRANCH  26  50
BRANCH  38  61
ATOM     61  C   UNL A   1      44.876  33.848  29.391  1.00  0.00     0.023 A 
ATOM     62  C   UNL A   1      45.623  34.180  30.536  1.00  0.00     0.012 A 
ATOM     63  C   UNL A   1      44.784  34.759  28.323  1.00  0.00     0.148 A 
ATOM     64  C   UNL A   1      46.255  35.417  30.627  1.00  0.00     0.002 A 
ATOM     65  C   UNL A   1      45.465  35.964  28.397  1.00  0.00     0.091 A 
ATOM     66  F   UNL A   1      44.052  34.419  27.253  1.00  0.00    -0.205 F 
ATOM     67  C   UNL A   1      46.189  36.301  29.552  1.00  0.00     0.022 A 
BRANCH  65  68
ATOM     68  S   UNL A   1      45.533  37.113  27.019  1.00  0.00     0.127 S 
ATOM     69  O   UNL A   1      46.411  38.157  27.546  1.00  0.00    -0.237 OA
ATOM     70  O   UNL A   1      46.124  36.292  25.963  1.00  0.00    -0.237 OA
ATOM     71  O   UNL A   1      44.158  37.527  26.769  1.00  0.00    -0.744 OA
ENDBRANCH  65  68
ENDBRANCH  38  61
ENDBRANCH  12  13
ENDBRANCH   5   7
ENDBRANCH   4   5
ENDBRANCH   3   4
ENDBRANCH   2   3
ENDBRANCH   1   2
BRANCH   1  72
ATOM     72  C   UNL A   1      35.666  23.331  24.989  1.00  0.00     0.202 C 
BRANCH  72  73
ATOM     73  C   UNL A   1      34.980  23.050  26.322  1.00  0.00     0.261 C 
BRANCH  73  74
ATOM     74  O   UNL A   1      33.923  24.011  26.500  1.00  0.00    -0.463 OA
BRANCH  74  75
ATOM     75  C   UNL A   1      32.703  23.475  26.825  1.00  0.00     0.313 C 
ATOM     76  O   UNL A   1      32.404  22.955  27.886  1.00  0.00    -0.252 OA
BRANCH  75  77
ATOM     77  C   UNL A   1      31.740  23.643  25.648  1.00  0.00     0.131 C 
BRANCH  77  78
ATOM     78  C   UNL A   1      31.968  22.482  24.680  1.00  0.00    -0.020 A 
ATOM     79  C   UNL A   1      31.983  21.149  25.127  1.00  0.00     0.006 A 
ATOM     80  C   UNL A   1      32.248  22.706  23.313  1.00  0.00     0.022 A 
ATOM     81  C   UNL A   1      32.232  20.087  24.254  1.00  0.00     0.000 A 
ATOM     82  C   UNL A   1      32.550  21.643  22.454  1.00  0.00     0.016 A 
ATOM     83  Br  UNL A   1      32.230  24.430  22.505  1.00  0.00    -0.051 Br
ATOM     84  C   UNL A   1      32.530  20.334  22.921  1.00  0.00     0.001 A 
ENDBRANCH  77  78
BRANCH  77  85
ATOM     85  C   UNL A   1      30.331  23.858  26.264  1.00  0.00     0.026 C 
BRANCH  85  86
ATOM     86  C   UNL A   1      29.945  25.279  26.696  1.00  0.00     0.057 C 
BRANCH  86  87
ATOM     87  C   UNL A   1      30.163  26.303  25.627  1.00  0.00     0.040 A 
ATOM     88  C   UNL A   1      31.229  27.192  25.732  1.00  0.00     0.024 A 
ATOM     89  N   UNL A   1      29.380  26.217  24.525  1.00  0.00    -0.261 NA
ATOM     90  C   UNL A   1      31.551  27.974  24.632  1.00  0.00     0.003 A 
ATOM     91  C   UNL A   1      29.706  27.003  23.478  1.00  0.00     0.111 A 
ATOM     92  C   UNL A   1      30.785  27.872  23.477  1.00  0.00     0.020 A 
ENDBRANCH  86  87
ENDBRANCH  85  86
ENDBRANCH  77  85
ENDBRANCH  75  77
ENDBRANCH  74  75
ENDBRANCH  73  74
ENDBRANCH  72  73
ENDBRANCH   1  72
TORSDOF 21
ENDMDL
