MODEL 1
REMARK VINA RESULT:     -11.7      0.000      0.000
REMARK SMILES CCOc1ccc(-c2cc(Cl)cc3c2O[C@@H](C(F)(F)F)C(C(=O)OCCOCCOC(=O)c2ccc(-c4c5nc(c(-c6cccc(S(=O)(=O)[O-])c6F)c6ccc([nH]6)c(-c6cccc(S(=O)(=O)[O-])c6F)c6nc(c(-c7cccc(S(=O)(=O)[O-])c7F)c7ccc4[nH]7)C=C6)C=C5)cc2)=C3)cc1
REMARK SMILES IDX 27 1 26 2 25 3 24 4 22 5 23 6 21 7 8 8 9 9 14 10 10 11 13 12
REMARK SMILES IDX 15 13 11 14 12 15 96 16 16 17 7 18 4 19 5 20 98 21 6 22
REMARK SMILES IDX 97 23 3 24 2 25 1 26 17 27 18 28 19 29 20 30 28 31 29 32
REMARK SMILES IDX 30 33 31 34 32 35 33 36 34 37 95 38 35 39 94 40 36 41 37 42
REMARK SMILES IDX 38 43 88 44 39 45 93 46 87 47 89 48 40 49 92 50 86 51 85 52
REMARK SMILES IDX 41 54 73 55 53 56 72 57 54 58 57 59 71 60 90 61 55 62 56 63
REMARK SMILES IDX 70 65 91 66 58 67 42 68 43 69 51 70 44 71 46 72 52 73 45 74
REMARK SMILES IDX 47 75 48 76 49 77 50 78 74 79 75 80 83 81 76 82 78 83 84 84
REMARK SMILES IDX 77 85 79 86 80 87 81 88 82 89 59 90 60 91 68 92 61 93 63 94
REMARK SMILES IDX 69 95 62 96 64 97 65 98 66 99 67 100
REMARK H PARENT 89 53 57 64
REMARK Flexibility Score: inf
ROOT
ATOM      1  O   UNL A   1      37.012  20.152  24.712  1.00  0.00    -0.374 OA
ENDROOT
BRANCH   1   2
ATOM      2  C   UNL A   1      35.735  20.627  25.121  1.00  0.00     0.202 C 
BRANCH   2   3
ATOM      3  C   UNL A   1      35.660  21.888  25.995  1.00  0.00     0.261 C 
BRANCH   3   4
ATOM      4  O   UNL A   1      35.573  23.103  25.234  1.00  0.00    -0.460 OA
BRANCH   4   5
ATOM      5  C   UNL A   1      34.370  23.375  24.696  1.00  0.00     0.338 C 
ATOM      6  O   UNL A   1      33.842  22.746  23.789  1.00  0.00    -0.246 OA
BRANCH   5   7
ATOM      7  C   UNL A   1      33.633  24.423  25.443  1.00  0.00     0.087 C 
ATOM      8  C   UNL A   1      30.642  26.381  23.321  1.00  0.00     0.026 A 
ATOM      9  C   UNL A   1      30.975  26.158  21.968  1.00  0.00     0.033 A 
ATOM     10  C   UNL A   1      31.584  25.891  24.252  1.00  0.00     0.135 A 
ATOM     11  C   UNL A   1      32.288  25.873  21.595  1.00  0.00     0.042 A 
ATOM     12  C   UNL A   1      32.940  25.873  23.893  1.00  0.00     0.019 A 
ATOM     13  O   UNL A   1      31.176  24.961  25.232  1.00  0.00    -0.475 OA
ATOM     14  Cl  UNL A   1      32.678  25.691  19.932  1.00  0.00    -0.084 Cl
ATOM     15  C   UNL A   1      33.294  25.836  22.550  1.00  0.00     0.032 A 
ATOM     16  C   UNL A   1      33.946  25.633  24.949  1.00  0.00     0.027 C 
ATOM     17  C   UNL A   1      32.253  24.340  26.061  1.00  0.00     0.316 C 
BRANCH   8  18
ATOM     18  C   UNL A   1      29.855  27.662  23.525  1.00  0.00    -0.014 A 
ATOM     19  C   UNL A   1      28.538  30.193  23.213  1.00  0.00     0.119 A 
ATOM     20  C   UNL A   1      27.847  29.003  23.013  1.00  0.00     0.047 A 
ATOM     21  C   UNL A   1      29.865  30.134  23.624  1.00  0.00     0.047 A 
ATOM     22  C   UNL A   1      28.492  27.759  23.172  1.00  0.00     0.013 A 
ATOM     23  C   UNL A   1      30.511  28.886  23.778  1.00  0.00     0.013 A 
BRANCH  19  24
ATOM     24  O   UNL A   1      27.826  31.358  23.143  1.00  0.00    -0.494 OA
BRANCH  24  25
ATOM     25  C   UNL A   1      28.339  32.376  22.274  1.00  0.00     0.226 C 
ATOM     26  C   UNL A   1      28.907  33.554  23.051  1.00  0.00     0.049 C 
ENDBRANCH  24  25
ENDBRANCH  19  24
ENDBRANCH   8  18
BRANCH  17  27
ATOM     27  C   UNL A   1      31.915  23.000  26.754  1.00  0.00     0.430 C 
ATOM     28  F   UNL A   1      30.737  23.134  27.426  1.00  0.00    -0.167 F 
ATOM     29  F   UNL A   1      31.726  22.007  25.852  1.00  0.00    -0.167 F 
ATOM     30  F   UNL A   1      32.826  22.565  27.640  1.00  0.00    -0.167 F 
ENDBRANCH  17  27
ENDBRANCH   5   7
ENDBRANCH   4   5
ENDBRANCH   3   4
ENDBRANCH   2   3
ENDBRANCH   1   2
BRANCH   1  31
ATOM     31  C   UNL A   1      38.169  20.761  25.283  1.00  0.00     0.202 C 
BRANCH  31  32
ATOM     32  C   UNL A   1      39.419  19.908  25.516  1.00  0.00     0.261 C 
BRANCH  32  33
ATOM     33  O   UNL A   1      40.580  20.672  25.871  1.00  0.00    -0.460 OA
BRANCH  33  34
ATOM     34  C   UNL A   1      40.847  20.708  27.198  1.00  0.00     0.338 C 
ATOM     35  O   UNL A   1      41.003  19.752  27.950  1.00  0.00    -0.246 OA
BRANCH  34  36
ATOM     36  C   UNL A   1      41.099  22.091  27.621  1.00  0.00     0.060 A 
ATOM     37  C   UNL A   1      40.658  23.126  26.786  1.00  0.00     0.016 A 
ATOM     38  C   UNL A   1      41.845  22.363  28.769  1.00  0.00     0.016 A 
ATOM     39  C   UNL A   1      40.998  24.444  27.077  1.00  0.00     0.010 A 
ATOM     40  C   UNL A   1      42.191  23.686  29.053  1.00  0.00     0.010 A 
ATOM     41  C   UNL A   1      41.801  24.725  28.190  1.00  0.00    -0.014 A 
BRANCH  41  42
ATOM     42  C   UNL A   1      42.340  26.091  28.379  1.00  0.00     0.031 A 
ATOM     43  C   UNL A   1      41.462  27.144  28.996  1.00  0.00     0.074 A 
ATOM     44  C   UNL A   1      43.596  26.386  27.999  1.00  0.00     0.049 A 
ATOM     45  N   UNL A   1      41.712  28.408  29.211  1.00  0.00    -0.248 NA
ATOM     46  C   UNL A   1      40.119  26.715  29.421  1.00  0.00     0.031 C 
ATOM     47  C   UNL A   1      44.537  25.443  27.396  1.00  0.00     0.029 A 
ATOM     48  N   UNL A   1      44.282  27.572  28.039  1.00  0.00    -0.354 N 
ATOM     49  C   UNL A   1      40.550  28.935  29.762  1.00  0.00     0.074 A 
ATOM     50  C   UNL A   1      39.591  27.856  29.839  1.00  0.00     0.031 C 
ATOM     51  C   UNL A   1      45.673  26.095  27.096  1.00  0.00     0.029 A 
ATOM     52  C   UNL A   1      45.526  27.504  27.457  1.00  0.00     0.049 A 
ATOM     53  H   UNL A   1      43.920  28.393  28.445  1.00  0.00     0.167 HD
ATOM     54  C   UNL A   1      40.309  30.202  30.177  1.00  0.00     0.034 A 
ATOM     55  C   UNL A   1      46.428  28.474  27.218  1.00  0.00     0.034 A 
ATOM     56  C   UNL A   1      41.276  31.265  30.109  1.00  0.00     0.049 A 
ATOM     57  C   UNL A   1      46.127  29.881  27.665  1.00  0.00     0.074 A 
ATOM     58  C   UNL A   1      41.150  32.571  30.548  1.00  0.00     0.029 A 
ATOM     59  N   UNL A   1      42.539  31.151  29.549  1.00  0.00    -0.354 N 
ATOM     60  N   UNL A   1      45.069  30.341  28.286  1.00  0.00    -0.248 NA
ATOM     61  C   UNL A   1      47.160  30.894  27.407  1.00  0.00     0.031 C 
ATOM     62  C   UNL A   1      42.324  33.257  30.217  1.00  0.00     0.029 A 
ATOM     63  C   UNL A   1      43.198  32.367  29.615  1.00  0.00     0.049 A 
ATOM     64  H   UNL A   1      42.913  30.327  29.161  1.00  0.00     0.167 HD
ATOM     65  C   UNL A   1      45.322  31.687  28.529  1.00  0.00     0.074 A 
ATOM     66  C   UNL A   1      46.643  31.962  28.001  1.00  0.00     0.031 C 
ATOM     67  C   UNL A   1      44.531  32.613  29.126  1.00  0.00     0.034 A 
BRANCH  54  68
ATOM     68  C   UNL A   1      38.948  30.504  30.749  1.00  0.00     0.023 A 
ATOM     69  C   UNL A   1      38.689  30.265  32.114  1.00  0.00     0.012 A 
ATOM     70  C   UNL A   1      37.938  31.066  29.944  1.00  0.00     0.148 A 
ATOM     71  C   UNL A   1      37.435  30.543  32.659  1.00  0.00     0.002 A 
ATOM     72  C   UNL A   1      36.707  31.386  30.505  1.00  0.00     0.091 A 
ATOM     73  F   UNL A   1      38.195  31.266  28.642  1.00  0.00    -0.205 F 
ATOM     74  C   UNL A   1      36.451  31.113  31.858  1.00  0.00     0.022 A 
BRANCH  72  75
ATOM     75  S   UNL A   1      35.401  32.195  29.576  1.00  0.00     0.127 S 
ATOM     76  O   UNL A   1      36.093  33.377  29.062  1.00  0.00    -0.237 OA
ATOM     77  O   UNL A   1      35.079  31.191  28.561  1.00  0.00    -0.237 OA
ATOM     78  O   UNL A   1      34.333  32.462  30.529  1.00  0.00    -0.744 OA
ENDBRANCH  72  75
ENDBRANCH  54  68
BRANCH  55  79
ATOM     79  C   UNL A   1      47.717  28.141  26.546  1.00  0.00     0.023 A 
ATOM     80  C   UNL A   1      48.879  27.961  27.320  1.00  0.00     0.012 A 
ATOM     81  C   UNL A   1      47.789  27.980  25.148  1.00  0.00     0.148 A 
ATOM     82  C   UNL A   1      50.096  27.655  26.712  1.00  0.00     0.002 A 
ATOM     83  C   UNL A   1      48.992  27.620  24.555  1.00  0.00     0.091 A 
ATOM     84  F   UNL A   1      46.673  28.167  24.430  1.00  0.00    -0.205 F 
ATOM     85  C   UNL A   1      50.151  27.475  25.332  1.00  0.00     0.022 A 
BRANCH  83  86
ATOM     86  S   UNL A   1      49.132  27.245  22.804  1.00  0.00     0.127 S 
ATOM     87  O   UNL A   1      50.559  26.963  22.672  1.00  0.00    -0.237 OA
ATOM     88  O   UNL A   1      48.258  26.079  22.677  1.00  0.00    -0.237 OA
ATOM     89  O   UNL A   1      48.658  28.432  22.106  1.00  0.00    -0.744 OA
ENDBRANCH  83  86
ENDBRANCH  55  79
BRANCH  67  90
ATOM     90  C   UNL A   1      45.086  34.005  29.290  1.00  0.00     0.023 A 
ATOM     91  C   UNL A   1      45.802  34.349  30.453  1.00  0.00     0.012 A 
ATOM     92  C   UNL A   1      44.960  34.950  28.251  1.00  0.00     0.148 A 
ATOM     93  C   UNL A   1      46.352  35.624  30.597  1.00  0.00     0.002 A 
ATOM     94  C   UNL A   1      45.557  36.199  28.378  1.00  0.00     0.091 A 
ATOM     95  F   UNL A   1      44.262  34.610  27.158  1.00  0.00    -0.205 F 
ATOM     96  C   UNL A   1      46.239  36.543  29.556  1.00  0.00     0.022 A 
BRANCH  94  97
ATOM     97  S   UNL A   1      45.552  37.409  27.050  1.00  0.00     0.127 S 
ATOM     98  O   UNL A   1      46.303  38.512  27.651  1.00  0.00    -0.237 OA
ATOM     99  O   UNL A   1      46.259  36.700  25.984  1.00  0.00    -0.237 OA
ATOM    100  O   UNL A   1      44.151  37.691  26.766  1.00  0.00    -0.744 OA
ENDBRANCH  94  97
ENDBRANCH  67  90
ENDBRANCH  41  42
ENDBRANCH  34  36
ENDBRANCH  33  34
ENDBRANCH  32  33
ENDBRANCH  31  32
ENDBRANCH   1  31
TORSDOF 21
ENDMDL
MODEL 2
REMARK VINA RESULT:     -11.5      4.733      8.941
REMARK SMILES CCOc1ccc(-c2cc(Cl)cc3c2O[C@@H](C(F)(F)F)C(C(=O)OCCOCCOC(=O)c2ccc(-c4c5nc(c(-c6cccc(S(=O)(=O)[O-])c6F)c6ccc([nH]6)c(-c6cccc(S(=O)(=O)[O-])c6F)c6nc(c(-c7cccc(S(=O)(=O)[O-])c7F)c7ccc4[nH]7)C=C6)C=C5)cc2)=C3)cc1
REMARK SMILES IDX 27 1 26 2 25 3 24 4 22 5 23 6 21 7 8 8 9 9 14 10 10 11 13 12
REMARK SMILES IDX 15 13 11 14 12 15 96 16 16 17 7 18 4 19 5 20 98 21 6 22
REMARK SMILES IDX 97 23 3 24 2 25 1 26 17 27 18 28 19 29 20 30 28 31 29 32
REMARK SMILES IDX 30 33 31 34 32 35 33 36 34 37 95 38 35 39 94 40 36 41 37 42
REMARK SMILES IDX 38 43 88 44 39 45 93 46 87 47 89 48 40 49 92 50 86 51 85 52
REMARK SMILES IDX 41 54 73 55 53 56 72 57 54 58 57 59 71 60 90 61 55 62 56 63
REMARK SMILES IDX 70 65 91 66 58 67 42 68 43 69 51 70 44 71 46 72 52 73 45 74
REMARK SMILES IDX 47 75 48 76 49 77 50 78 74 79 75 80 83 81 76 82 78 83 84 84
REMARK SMILES IDX 77 85 79 86 80 87 81 88 82 89 59 90 60 91 68 92 61 93 63 94
REMARK SMILES IDX 69 95 62 96 64 97 65 98 66 99 67 100
REMARK H PARENT 89 53 57 64
REMARK Flexibility Score: inf
ROOT
ATOM      1  O   UNL A   1      31.115  29.303  25.071  1.00  0.00    -0.374 OA
ENDROOT
BRANCH   1   2
ATOM      2  C   UNL A   1      31.104  29.363  23.650  1.00  0.00     0.202 C 
BRANCH   2   3
ATOM      3  C   UNL A   1      30.731  28.099  22.860  1.00  0.00     0.261 C 
BRANCH   3   4
ATOM      4  O   UNL A   1      31.872  27.339  22.430  1.00  0.00    -0.460 OA
BRANCH   4   5
ATOM      5  C   UNL A   1      32.309  26.400  23.289  1.00  0.00     0.338 C 
ATOM      6  O   UNL A   1      33.239  26.534  24.073  1.00  0.00    -0.246 OA
BRANCH   5   7
ATOM      7  C   UNL A   1      31.423  25.210  23.334  1.00  0.00     0.087 C 
ATOM      8  C   UNL A   1      33.186  21.704  24.704  1.00  0.00     0.026 A 
ATOM      9  C   UNL A   1      34.570  21.920  24.528  1.00  0.00     0.033 A 
ATOM     10  C   UNL A   1      32.357  22.733  24.207  1.00  0.00     0.135 A 
ATOM     11  C   UNL A   1      35.033  22.838  23.587  1.00  0.00     0.042 A 
ATOM     12  C   UNL A   1      32.782  23.455  23.082  1.00  0.00     0.019 A 
ATOM     13  O   UNL A   1      31.459  23.386  25.078  1.00  0.00    -0.475 OA
ATOM     14  Cl  UNL A   1      36.723  23.017  23.335  1.00  0.00    -0.084 Cl
ATOM     15  C   UNL A   1      34.136  23.531  22.785  1.00  0.00     0.032 A 
ATOM     16  C   UNL A   1      31.805  24.328  22.396  1.00  0.00     0.027 C 
ATOM     17  C   UNL A   1      30.752  24.586  24.539  1.00  0.00     0.316 C 
BRANCH   8  18
ATOM     18  C   UNL A   1      32.814  20.234  24.653  1.00  0.00    -0.014 A 
ATOM     19  C   UNL A   1      32.827  17.363  24.629  1.00  0.00     0.119 A 
ATOM     20  C   UNL A   1      32.646  18.064  25.817  1.00  0.00     0.047 A 
ATOM     21  C   UNL A   1      32.944  18.080  23.443  1.00  0.00     0.047 A 
ATOM     22  C   UNL A   1      32.633  19.474  25.829  1.00  0.00     0.013 A 
ATOM     23  C   UNL A   1      32.936  19.493  23.458  1.00  0.00     0.013 A 
BRANCH  19  24
ATOM     24  O   UNL A   1      32.725  16.001  24.675  1.00  0.00    -0.494 OA
BRANCH  24  25
ATOM     25  C   UNL A   1      33.746  15.302  25.399  1.00  0.00     0.226 C 
ATOM     26  C   UNL A   1      35.136  15.826  25.071  1.00  0.00     0.049 C 
ENDBRANCH  24  25
ENDBRANCH  19  24
ENDBRANCH   8  18
BRANCH  17  27
ATOM     27  C   UNL A   1      30.184  25.585  25.575  1.00  0.00     0.430 C 
ATOM     28  F   UNL A   1      29.234  26.353  24.973  1.00  0.00    -0.167 F 
ATOM     29  F   UNL A   1      29.565  24.946  26.595  1.00  0.00    -0.167 F 
ATOM     30  F   UNL A   1      31.082  26.424  26.116  1.00  0.00    -0.167 F 
ENDBRANCH  17  27
ENDBRANCH   5   7
ENDBRANCH   4   5
ENDBRANCH   3   4
ENDBRANCH   2   3
ENDBRANCH   1   2
BRANCH   1  31
ATOM     31  C   UNL A   1      31.845  30.303  25.779  1.00  0.00     0.202 C 
BRANCH  31  32
ATOM     32  C   UNL A   1      33.227  29.957  26.341  1.00  0.00     0.261 C 
BRANCH  32  33
ATOM     33  O   UNL A   1      33.492  30.545  27.622  1.00  0.00    -0.460 OA
BRANCH  33  34
ATOM     34  C   UNL A   1      34.609  31.309  27.670  1.00  0.00     0.338 C 
ATOM     35  O   UNL A   1      34.677  32.530  27.587  1.00  0.00    -0.246 OA
BRANCH  34  36
ATOM     36  C   UNL A   1      35.769  30.477  28.011  1.00  0.00     0.060 A 
ATOM     37  C   UNL A   1      35.720  29.730  29.196  1.00  0.00     0.016 A 
ATOM     38  C   UNL A   1      36.926  30.508  27.231  1.00  0.00     0.016 A 
ATOM     39  C   UNL A   1      36.848  29.041  29.628  1.00  0.00     0.010 A 
ATOM     40  C   UNL A   1      38.059  29.821  27.671  1.00  0.00     0.010 A 
ATOM     41  C   UNL A   1      38.035  29.116  28.888  1.00  0.00    -0.014 A 
BRANCH  41  42
ATOM     42  C   UNL A   1      39.288  28.564  29.452  1.00  0.00     0.031 A 
ATOM     43  C   UNL A   1      39.893  29.217  30.664  1.00  0.00     0.074 A 
ATOM     44  C   UNL A   1      39.880  27.499  28.884  1.00  0.00     0.049 A 
ATOM     45  N   UNL A   1      41.002  28.930  31.291  1.00  0.00    -0.248 NA
ATOM     46  C   UNL A   1      39.149  30.349  31.242  1.00  0.00     0.031 C 
ATOM     47  C   UNL A   1      39.379  26.784  27.711  1.00  0.00     0.029 A 
ATOM     48  N   UNL A   1      41.045  26.853  29.204  1.00  0.00    -0.354 N 
ATOM     49  C   UNL A   1      41.111  29.865  32.314  1.00  0.00     0.074 A 
ATOM     50  C   UNL A   1      39.959  30.735  32.217  1.00  0.00     0.031 C 
ATOM     51  C   UNL A   1      40.249  25.811  27.391  1.00  0.00     0.029 A 
ATOM     52  C   UNL A   1      41.380  25.857  28.316  1.00  0.00     0.049 A 
ATOM     53  H   UNL A   1      41.591  27.079  29.992  1.00  0.00     0.167 HD
ATOM     54  C   UNL A   1      42.077  29.981  33.256  1.00  0.00     0.034 A 
ATOM     55  C   UNL A   1      42.485  25.092  28.245  1.00  0.00     0.034 A 
ATOM     56  C   UNL A   1      43.212  29.102  33.352  1.00  0.00     0.049 A 
ATOM     57  C   UNL A   1      43.560  25.256  29.288  1.00  0.00     0.074 A 
ATOM     58  C   UNL A   1      44.222  29.101  34.299  1.00  0.00     0.029 A 
ATOM     59  N   UNL A   1      43.499  28.079  32.460  1.00  0.00    -0.354 N 
ATOM     60  N   UNL A   1      43.595  26.070  30.315  1.00  0.00    -0.248 NA
ATOM     61  C   UNL A   1      44.729  24.374  29.180  1.00  0.00     0.031 C 
ATOM     62  C   UNL A   1      45.140  28.103  33.954  1.00  0.00     0.029 A 
ATOM     63  C   UNL A   1      44.678  27.452  32.822  1.00  0.00     0.049 A 
ATOM     64  H   UNL A   1      42.945  27.836  31.683  1.00  0.00     0.167 HD
ATOM     65  C   UNL A   1      44.769  25.772  30.999  1.00  0.00     0.074 A 
ATOM     66  C   UNL A   1      45.407  24.691  30.276  1.00  0.00     0.031 C 
ATOM     67  C   UNL A   1      45.278  26.347  32.117  1.00  0.00     0.034 A 
BRANCH  54  68
ATOM     68  C   UNL A   1      41.944  31.095  34.262  1.00  0.00     0.023 A 
ATOM     69  C   UNL A   1      41.340  30.846  35.511  1.00  0.00     0.012 A 
ATOM     70  C   UNL A   1      42.458  32.377  33.987  1.00  0.00     0.148 A 
ATOM     71  C   UNL A   1      41.213  31.866  36.455  1.00  0.00     0.002 A 
ATOM     72  C   UNL A   1      42.372  33.375  34.951  1.00  0.00     0.091 A 
ATOM     73  F   UNL A   1      43.011  32.602  32.786  1.00  0.00    -0.205 F 
ATOM     74  C   UNL A   1      41.738  33.125  36.179  1.00  0.00     0.022 A 
BRANCH  72  75
ATOM     75  S   UNL A   1      43.088  35.006  34.723  1.00  0.00     0.127 S 
ATOM     76  O   UNL A   1      44.435  34.675  34.259  1.00  0.00    -0.237 OA
ATOM     77  O   UNL A   1      42.217  35.583  33.698  1.00  0.00    -0.237 OA
ATOM     78  O   UNL A   1      43.019  35.663  36.020  1.00  0.00    -0.744 OA
ENDBRANCH  72  75
ENDBRANCH  54  68
BRANCH  55  79
ATOM     79  C   UNL A   1      42.617  24.078  27.160  1.00  0.00     0.023 A 
ATOM     80  C   UNL A   1      43.344  24.395  25.996  1.00  0.00     0.012 A 
ATOM     81  C   UNL A   1      42.047  22.796  27.287  1.00  0.00     0.148 A 
ATOM     82  C   UNL A   1      43.476  23.464  24.966  1.00  0.00     0.002 A 
ATOM     83  C   UNL A   1      42.229  21.855  26.282  1.00  0.00     0.091 A 
ATOM     84  F   UNL A   1      41.350  22.520  28.398  1.00  0.00    -0.205 F 
ATOM     85  C   UNL A   1      42.927  22.192  25.113  1.00  0.00     0.022 A 
BRANCH  83  86
ATOM     86  S   UNL A   1      41.668  20.156  26.436  1.00  0.00     0.127 S 
ATOM     87  O   UNL A   1      40.222  20.305  26.295  1.00  0.00    -0.237 OA
ATOM     88  O   UNL A   1      42.335  19.517  25.301  1.00  0.00    -0.237 OA
ATOM     89  O   UNL A   1      42.130  19.703  27.740  1.00  0.00    -0.744 OA
ENDBRANCH  83  86
ENDBRANCH  55  79
BRANCH  67  90
ATOM     90  C   UNL A   1      46.567  25.789  32.665  1.00  0.00     0.023 A 
ATOM     91  C   UNL A   1      47.801  26.345  32.274  1.00  0.00     0.012 A 
ATOM     92  C   UNL A   1      46.546  24.761  33.630  1.00  0.00     0.148 A 
ATOM     93  C   UNL A   1      48.997  25.860  32.805  1.00  0.00     0.002 A 
ATOM     94  C   UNL A   1      47.737  24.321  34.194  1.00  0.00     0.091 A 
ATOM     95  F   UNL A   1      45.363  24.234  33.978  1.00  0.00    -0.205 F 
ATOM     96  C   UNL A   1      48.964  24.858  33.773  1.00  0.00     0.022 A 
BRANCH  94  97
ATOM     97  S   UNL A   1      47.786  23.109  35.520  1.00  0.00     0.127 S 
ATOM     98  O   UNL A   1      48.540  23.824  36.549  1.00  0.00    -0.237 OA
ATOM     99  O   UNL A   1      46.366  22.924  35.821  1.00  0.00    -0.237 OA
ATOM    100  O   UNL A   1      48.445  21.933  34.967  1.00  0.00    -0.744 OA
ENDBRANCH  94  97
ENDBRANCH  67  90
ENDBRANCH  41  42
ENDBRANCH  34  36
ENDBRANCH  33  34
ENDBRANCH  32  33
ENDBRANCH  31  32
ENDBRANCH   1  31
TORSDOF 21
ENDMDL
MODEL 3
REMARK VINA RESULT:     -11.1      2.208      7.690
REMARK SMILES CCOc1ccc(-c2cc(Cl)cc3c2O[C@@H](C(F)(F)F)C(C(=O)OCCOCCOC(=O)c2ccc(-c4c5nc(c(-c6cccc(S(=O)(=O)[O-])c6F)c6ccc([nH]6)c(-c6cccc(S(=O)(=O)[O-])c6F)c6nc(c(-c7cccc(S(=O)(=O)[O-])c7F)c7ccc4[nH]7)C=C6)C=C5)cc2)=C3)cc1
REMARK SMILES IDX 27 1 26 2 25 3 24 4 22 5 23 6 21 7 8 8 9 9 14 10 10 11 13 12
REMARK SMILES IDX 15 13 11 14 12 15 96 16 16 17 7 18 4 19 5 20 98 21 6 22
REMARK SMILES IDX 97 23 3 24 2 25 1 26 17 27 18 28 19 29 20 30 28 31 29 32
REMARK SMILES IDX 30 33 31 34 32 35 33 36 34 37 95 38 35 39 94 40 36 41 37 42
REMARK SMILES IDX 38 43 88 44 39 45 93 46 87 47 89 48 40 49 92 50 86 51 85 52
REMARK SMILES IDX 41 54 73 55 53 56 72 57 54 58 57 59 71 60 90 61 55 62 56 63
REMARK SMILES IDX 70 65 91 66 58 67 42 68 43 69 51 70 44 71 46 72 52 73 45 74
REMARK SMILES IDX 47 75 48 76 49 77 50 78 74 79 75 80 83 81 76 82 78 83 84 84
REMARK SMILES IDX 77 85 79 86 80 87 81 88 82 89 59 90 60 91 68 92 61 93 63 94
REMARK SMILES IDX 69 95 62 96 64 97 65 98 66 99 67 100
REMARK H PARENT 89 53 57 64
REMARK Flexibility Score: inf
ROOT
ATOM      1  O   UNL A   1      34.706  21.641  24.645  1.00  0.00    -0.374 OA
ENDROOT
BRANCH   1   2
ATOM      2  C   UNL A   1      33.651  21.130  23.838  1.00  0.00     0.202 C 
BRANCH   2   3
ATOM      3  C   UNL A   1      32.941  22.081  22.861  1.00  0.00     0.261 C 
BRANCH   3   4
ATOM      4  O   UNL A   1      31.594  22.392  23.250  1.00  0.00    -0.460 OA
BRANCH   4   5
ATOM      5  C   UNL A   1      31.371  23.663  23.632  1.00  0.00     0.338 C 
ATOM      6  O   UNL A   1      30.331  24.284  23.455  1.00  0.00    -0.246 OA
BRANCH   5   7
ATOM      7  C   UNL A   1      32.464  24.206  24.475  1.00  0.00     0.087 C 
ATOM      8  C   UNL A   1      32.042  28.177  25.631  1.00  0.00     0.026 A 
ATOM      9  C   UNL A   1      31.132  28.715  24.695  1.00  0.00     0.033 A 
ATOM     10  C   UNL A   1      32.430  26.842  25.381  1.00  0.00     0.135 A 
ATOM     11  C   UNL A   1      30.978  28.135  23.437  1.00  0.00     0.042 A 
ATOM     12  C   UNL A   1      32.499  26.399  24.052  1.00  0.00     0.019 A 
ATOM     13  O   UNL A   1      32.211  25.857  26.368  1.00  0.00    -0.475 OA
ATOM     14  Cl  UNL A   1      29.928  28.863  22.289  1.00  0.00    -0.084 Cl
ATOM     15  C   UNL A   1      31.744  27.035  23.075  1.00  0.00     0.032 A 
ATOM     16  C   UNL A   1      33.168  25.110  23.773  1.00  0.00     0.027 C 
ATOM     17  C   UNL A   1      32.467  24.440  25.972  1.00  0.00     0.316 C 
BRANCH   8  18
ATOM     18  C   UNL A   1      32.977  29.224  26.205  1.00  0.00    -0.014 A 
ATOM     19  C   UNL A   1      34.439  31.005  27.917  1.00  0.00     0.119 A 
ATOM     20  C   UNL A   1      34.948  29.751  27.594  1.00  0.00     0.047 A 
ATOM     21  C   UNL A   1      33.236  31.404  27.347  1.00  0.00     0.047 A 
ATOM     22  C   UNL A   1      34.234  28.879  26.748  1.00  0.00     0.013 A 
ATOM     23  C   UNL A   1      32.518  30.526  26.503  1.00  0.00     0.013 A 
BRANCH  19  24
ATOM     24  O   UNL A   1      35.232  31.838  28.656  1.00  0.00    -0.494 OA
BRANCH  24  25
ATOM     25  C   UNL A   1      34.692  32.306  29.899  1.00  0.00     0.226 C 
ATOM     26  C   UNL A   1      34.449  33.808  29.886  1.00  0.00     0.049 C 
ENDBRANCH  24  25
ENDBRANCH  19  24
ENDBRANCH   8  18
BRANCH  17  27
ATOM     27  C   UNL A   1      31.775  23.344  26.816  1.00  0.00     0.430 C 
ATOM     28  F   UNL A   1      30.459  23.663  26.962  1.00  0.00    -0.167 F 
ATOM     29  F   UNL A   1      31.808  22.142  26.194  1.00  0.00    -0.167 F 
ATOM     30  F   UNL A   1      32.276  23.168  28.050  1.00  0.00    -0.167 F 
ENDBRANCH  17  27
ENDBRANCH   5   7
ENDBRANCH   4   5
ENDBRANCH   3   4
ENDBRANCH   2   3
ENDBRANCH   1   2
BRANCH   1  31
ATOM     31  C   UNL A   1      35.683  20.722  25.130  1.00  0.00     0.202 C 
BRANCH  31  32
ATOM     32  C   UNL A   1      37.167  21.032  24.913  1.00  0.00     0.261 C 
BRANCH  32  33
ATOM     33  O   UNL A   1      37.677  22.052  25.784  1.00  0.00    -0.460 OA
BRANCH  33  34
ATOM     34  C   UNL A   1      38.957  21.865  26.182  1.00  0.00     0.338 C 
ATOM     35  O   UNL A   1      39.644  20.862  26.024  1.00  0.00    -0.246 OA
BRANCH  34  36
ATOM     36  C   UNL A   1      39.506  23.120  26.708  1.00  0.00     0.060 A 
ATOM     37  C   UNL A   1      39.004  24.325  26.197  1.00  0.00     0.016 A 
ATOM     38  C   UNL A   1      40.566  23.113  27.616  1.00  0.00     0.016 A 
ATOM     39  C   UNL A   1      39.592  25.532  26.563  1.00  0.00     0.010 A 
ATOM     40  C   UNL A   1      41.158  24.326  27.975  1.00  0.00     0.010 A 
ATOM     41  C   UNL A   1      40.698  25.534  27.422  1.00  0.00    -0.014 A 
BRANCH  41  42
ATOM     42  C   UNL A   1      41.454  26.788  27.642  1.00  0.00     0.031 A 
ATOM     43  C   UNL A   1      42.837  26.917  27.065  1.00  0.00     0.074 A 
ATOM     44  C   UNL A   1      40.914  27.793  28.353  1.00  0.00     0.049 A 
ATOM     45  N   UNL A   1      43.689  27.901  27.173  1.00  0.00    -0.248 NA
ATOM     46  C   UNL A   1      43.325  25.782  26.264  1.00  0.00     0.031 C 
ATOM     47  C   UNL A   1      39.581  27.780  28.953  1.00  0.00     0.029 A 
ATOM     48  N   UNL A   1      41.435  29.009  28.711  1.00  0.00    -0.354 N 
ATOM     49  C   UNL A   1      44.827  27.492  26.487  1.00  0.00     0.074 A 
ATOM     50  C   UNL A   1      44.559  26.166  25.975  1.00  0.00     0.031 C 
ATOM     51  C   UNL A   1      39.398  28.924  29.632  1.00  0.00     0.029 A 
ATOM     52  C   UNL A   1      40.611  29.735  29.539  1.00  0.00     0.049 A 
ATOM     53  H   UNL A   1      42.314  29.332  28.407  1.00  0.00     0.167 HD
ATOM     54  C   UNL A   1      45.986  28.166  26.292  1.00  0.00     0.034 A 
ATOM     55  C   UNL A   1      40.824  30.905  30.170  1.00  0.00     0.034 A 
ATOM     56  C   UNL A   1      46.236  29.490  26.795  1.00  0.00     0.049 A 
ATOM     57  C   UNL A   1      42.131  31.624  29.959  1.00  0.00     0.074 A 
ATOM     58  C   UNL A   1      47.357  30.282  26.611  1.00  0.00     0.029 A 
ATOM     59  N   UNL A   1      45.364  30.212  27.596  1.00  0.00    -0.354 N 
ATOM     60  N   UNL A   1      43.154  31.277  29.217  1.00  0.00    -0.248 NA
ATOM     61  C   UNL A   1      42.297  32.912  30.647  1.00  0.00     0.031 C 
ATOM     62  C   UNL A   1      47.177  31.466  27.334  1.00  0.00     0.029 A 
ATOM     63  C   UNL A   1      45.926  31.432  27.930  1.00  0.00     0.049 A 
ATOM     64  H   UNL A   1      44.475  29.902  27.884  1.00  0.00     0.167 HD
ATOM     65  C   UNL A   1      44.070  32.319  29.316  1.00  0.00     0.074 A 
ATOM     66  C   UNL A   1      43.471  33.317  30.178  1.00  0.00     0.031 C 
ATOM     67  C   UNL A   1      45.298  32.435  28.752  1.00  0.00     0.034 A 
BRANCH  54  68
ATOM     68  C   UNL A   1      47.067  27.482  25.496  1.00  0.00     0.023 A 
ATOM     69  C   UNL A   1      47.833  26.456  26.085  1.00  0.00     0.012 A 
ATOM     70  C   UNL A   1      47.295  27.827  24.149  1.00  0.00     0.148 A 
ATOM     71  C   UNL A   1      48.834  25.810  25.359  1.00  0.00     0.002 A 
ATOM     72  C   UNL A   1      48.262  27.146  23.418  1.00  0.00     0.091 A 
ATOM     73  F   UNL A   1      46.572  28.820  23.611  1.00  0.00    -0.205 F 
ATOM     74  C   UNL A   1      49.041  26.148  24.025  1.00  0.00     0.022 A 
BRANCH  72  75
ATOM     75  S   UNL A   1      48.549  27.452  21.672  1.00  0.00     0.127 S 
ATOM     76  O   UNL A   1      49.553  28.514  21.719  1.00  0.00    -0.237 OA
ATOM     77  O   UNL A   1      49.053  26.157  21.213  1.00  0.00    -0.237 OA
ATOM     78  O   UNL A   1      47.260  27.835  21.112  1.00  0.00    -0.744 OA
ENDBRANCH  72  75
ENDBRANCH  54  68
BRANCH  55  79
ATOM     79  C   UNL A   1      39.760  31.485  31.039  1.00  0.00     0.023 A 
ATOM     80  C   UNL A   1      38.779  32.321  30.474  1.00  0.00     0.012 A 
ATOM     81  C   UNL A   1      39.704  31.191  32.416  1.00  0.00     0.148 A 
ATOM     82  C   UNL A   1      37.778  32.879  31.269  1.00  0.00     0.002 A 
ATOM     83  C   UNL A   1      38.673  31.705  33.191  1.00  0.00     0.091 A 
ATOM     84  F   UNL A   1      40.655  30.402  32.935  1.00  0.00    -0.205 F 
ATOM     85  C   UNL A   1      37.719  32.563  32.624  1.00  0.00     0.022 A 
BRANCH  83  86
ATOM     86  S   UNL A   1      38.444  31.255  34.914  1.00  0.00     0.127 S 
ATOM     87  O   UNL A   1      37.223  31.982  35.253  1.00  0.00    -0.237 OA
ATOM     88  O   UNL A   1      38.292  29.803  34.827  1.00  0.00    -0.237 OA
ATOM     89  O   UNL A   1      39.649  31.696  35.602  1.00  0.00    -0.744 OA
ENDBRANCH  83  86
ENDBRANCH  55  79
BRANCH  67  90
ATOM     90  C   UNL A   1      46.065  33.707  29.005  1.00  0.00     0.023 A 
ATOM     91  C   UNL A   1      46.897  33.820  30.137  1.00  0.00     0.012 A 
ATOM     92  C   UNL A   1      46.019  34.766  28.074  1.00  0.00     0.148 A 
ATOM     93  C   UNL A   1      47.640  34.980  30.359  1.00  0.00     0.002 A 
ATOM     94  C   UNL A   1      46.803  35.895  28.274  1.00  0.00     0.091 A 
ATOM     95  F   UNL A   1      45.210  34.647  27.011  1.00  0.00    -0.205 F 
ATOM     96  C   UNL A   1      47.602  36.011  29.422  1.00  0.00     0.022 A 
BRANCH  94  97
ATOM     97  S   UNL A   1      46.898  37.227  27.072  1.00  0.00     0.127 S 
ATOM     98  O   UNL A   1      45.519  37.717  27.062  1.00  0.00    -0.237 OA
ATOM     99  O   UNL A   1      47.863  38.134  27.692  1.00  0.00    -0.237 OA
ATOM    100  O   UNL A   1      47.351  36.618  25.828  1.00  0.00    -0.744 OA
ENDBRANCH  94  97
ENDBRANCH  67  90
ENDBRANCH  41  42
ENDBRANCH  34  36
ENDBRANCH  33  34
ENDBRANCH  32  33
ENDBRANCH  31  32
ENDBRANCH   1  31
TORSDOF 21
ENDMDL
