MODEL 1
REMARK VINA RESULT:     -12.0      0.000      0.000
REMARK SMILES CC1(C)CCCC[C@H]1NC(=O)Nc1ccccc1C(=O)OCCOCCOC(=O)c1ccc(-c2c3nc(c(-c4cccc(S(=O)(=O)[O-])c4F)c4ccc([nH]4)c(-c4cccc(S(=O)(=O)[O-])c4F)c4nc(c(-c5cccc(S(=O)(=O)[O-])c5F)c5ccc2[nH]5)C=C4)C=C3)cc1
REMARK SMILES IDX 25 1 24 2 23 3 22 4 21 5 19 6 20 7 18 8 13 9 14 10 15 11
REMARK SMILES IDX 17 12 16 13 12 14 9 15 10 16 11 18 8 20 1 21 2 22 3 23 4 24
REMARK SMILES IDX 5 25 7 26 6 27 26 28 27 29 28 30 29 31 30 32 31 33 92 34
REMARK SMILES IDX 32 35 91 36 33 37 34 38 35 39 85 40 36 41 90 42 84 43 86 44
REMARK SMILES IDX 37 45 89 46 83 47 82 48 38 50 70 51 50 52 69 53 51 54 54 55
REMARK SMILES IDX 68 56 87 57 52 58 53 59 67 61 88 62 55 63 39 64 40 65 48 66
REMARK SMILES IDX 41 67 43 68 49 69 42 70 44 71 45 72 46 73 47 74 71 75 72 76
REMARK SMILES IDX 80 77 73 78 75 79 81 80 74 81 76 82 77 83 78 84 79 85 56 86
REMARK SMILES IDX 57 87 65 88 58 89 60 90 66 91 59 92 61 93 62 94 63 95 64 96
REMARK H PARENT 9 17 12 19 86 49 54 60
REMARK Flexibility Score: inf
ROOT
ATOM      1  C   UNL A   1      35.833  20.138  24.981  1.00  0.00     0.202 C 
ENDROOT
BRANCH   1   2
ATOM      2  O   UNL A   1      34.890  19.158  24.592  1.00  0.00    -0.374 OA
BRANCH   2   3
ATOM      3  C   UNL A   1      33.525  19.294  24.924  1.00  0.00     0.202 C 
BRANCH   3   4
ATOM      4  C   UNL A   1      32.486  19.820  23.931  1.00  0.00     0.261 C 
BRANCH   4   5
ATOM      5  O   UNL A   1      32.506  21.195  23.525  1.00  0.00    -0.460 OA
BRANCH   5   6
ATOM      6  C   UNL A   1      32.239  22.082  24.509  1.00  0.00     0.340 C 
ATOM      7  O   UNL A   1      31.145  22.300  25.007  1.00  0.00    -0.246 OA
BRANCH   6   8
ATOM      8  C   UNL A   1      33.449  22.777  24.997  1.00  0.00     0.083 A 
ATOM      9  C   UNL A   1      34.300  23.569  24.209  1.00  0.00     0.057 A 
ATOM     10  C   UNL A   1      35.460  24.097  24.805  1.00  0.00     0.027 A 
ATOM     11  C   UNL A   1      35.695  23.968  26.176  1.00  0.00     0.002 A 
ATOM     12  C   UNL A   1      33.690  22.660  26.381  1.00  0.00     0.018 A 
ATOM     13  C   UNL A   1      34.795  23.269  26.971  1.00  0.00     0.001 A 
BRANCH   9  14
ATOM     14  N   UNL A   1      34.117  23.927  22.862  1.00  0.00    -0.307 N 
ATOM     15  N   UNL A   1      32.835  25.929  22.752  1.00  0.00    -0.335 N 
ATOM     16  C   UNL A   1      33.312  24.790  22.212  1.00  0.00     0.319 C 
ATOM     17  H   UNL A   1      32.147  26.365  22.199  1.00  0.00     0.165 HD
ATOM     18  O   UNL A   1      33.065  24.586  21.022  1.00  0.00    -0.248 OA
ATOM     19  H   UNL A   1      34.716  23.436  22.253  1.00  0.00     0.171 HD
BRANCH  15  20
ATOM     20  C   UNL A   1      33.124  26.651  23.986  1.00  0.00     0.089 C 
ATOM     21  C   UNL A   1      31.775  28.781  23.446  1.00  0.00     0.013 C 
ATOM     22  C   UNL A   1      33.150  28.201  23.839  1.00  0.00    -0.015 C 
ATOM     23  C   UNL A   1      34.165  28.634  22.763  1.00  0.00     0.013 C 
ATOM     24  C   UNL A   1      33.608  28.778  25.210  1.00  0.00     0.008 C 
ATOM     25  C   UNL A   1      32.791  28.283  26.411  1.00  0.00     0.001 C 
ATOM     26  C   UNL A   1      32.142  26.245  25.098  1.00  0.00     0.025 C 
ATOM     27  C   UNL A   1      32.635  26.770  26.438  1.00  0.00     0.002 C 
ENDBRANCH  15  20
ENDBRANCH   9  14
ENDBRANCH   6   8
ENDBRANCH   5   6
ENDBRANCH   4   5
ENDBRANCH   3   4
ENDBRANCH   2   3
ENDBRANCH   1   2
BRANCH   1  28
ATOM     28  C   UNL A   1      37.354  19.898  24.977  1.00  0.00     0.261 C 
BRANCH  28  29
ATOM     29  O   UNL A   1      38.196  21.037  25.157  1.00  0.00    -0.460 OA
BRANCH  29  30
ATOM     30  C   UNL A   1      39.284  20.809  25.931  1.00  0.00     0.338 C 
ATOM     31  O   UNL A   1      39.935  19.780  25.996  1.00  0.00    -0.246 OA
BRANCH  30  32
ATOM     32  C   UNL A   1      39.686  22.059  26.602  1.00  0.00     0.060 A 
ATOM     33  C   UNL A   1      39.086  23.253  26.181  1.00  0.00     0.016 A 
ATOM     34  C   UNL A   1      40.711  22.068  27.549  1.00  0.00     0.016 A 
ATOM     35  C   UNL A   1      39.562  24.472  26.656  1.00  0.00     0.010 A 
ATOM     36  C   UNL A   1      41.199  23.293  28.011  1.00  0.00     0.010 A 
ATOM     37  C   UNL A   1      40.659  24.496  27.525  1.00  0.00    -0.014 A 
BRANCH  37  38
ATOM     38  C   UNL A   1      41.369  25.776  27.747  1.00  0.00     0.031 A 
ATOM     39  C   UNL A   1      40.655  26.869  28.495  1.00  0.00     0.074 A 
ATOM     40  C   UNL A   1      42.629  25.953  27.313  1.00  0.00     0.049 A 
ATOM     41  N   UNL A   1      41.077  28.063  28.821  1.00  0.00    -0.248 NA
ATOM     42  C   UNL A   1      39.279  26.578  28.937  1.00  0.00     0.031 C 
ATOM     43  C   UNL A   1      43.419  24.961  26.586  1.00  0.00     0.029 A 
ATOM     44  N   UNL A   1      43.457  27.041  27.413  1.00  0.00    -0.354 N 
ATOM     45  C   UNL A   1      40.014  28.674  29.477  1.00  0.00     0.074 A 
ATOM     46  C   UNL A   1      38.925  27.725  29.499  1.00  0.00     0.031 C 
ATOM     47  C   UNL A   1      44.614  25.496  26.283  1.00  0.00     0.029 A 
ATOM     48  C   UNL A   1      44.665  26.871  26.780  1.00  0.00     0.049 A 
ATOM     49  H   UNL A   1      43.210  27.866  27.891  1.00  0.00     0.167 HD
ATOM     50  C   UNL A   1      39.958  29.909  30.027  1.00  0.00     0.034 A 
ATOM     51  C   UNL A   1      45.686  27.735  26.612  1.00  0.00     0.034 A 
ATOM     52  C   UNL A   1      41.052  30.838  30.026  1.00  0.00     0.049 A 
ATOM     53  C   UNL A   1      45.589  29.110  27.223  1.00  0.00     0.074 A 
ATOM     54  C   UNL A   1      41.115  32.095  30.603  1.00  0.00     0.029 A 
ATOM     55  N   UNL A   1      42.274  30.618  29.409  1.00  0.00    -0.354 N 
ATOM     56  N   UNL A   1      44.629  29.626  27.952  1.00  0.00    -0.248 NA
ATOM     57  C   UNL A   1      46.732  30.012  27.012  1.00  0.00     0.031 C 
ATOM     58  C   UNL A   1      42.369  32.643  30.314  1.00  0.00     0.029 A 
ATOM     59  C   UNL A   1      43.094  31.720  29.576  1.00  0.00     0.049 A 
ATOM     60  H   UNL A   1      42.522  29.799  28.923  1.00  0.00     0.167 HD
ATOM     61  C   UNL A   1      45.065  30.896  28.316  1.00  0.00     0.074 A 
ATOM     62  C   UNL A   1      46.385  31.064  27.742  1.00  0.00     0.031 C 
ATOM     63  C   UNL A   1      44.426  31.845  29.046  1.00  0.00     0.034 A 
BRANCH  50  64
ATOM     64  C   UNL A   1      38.675  30.316  30.700  1.00  0.00     0.023 A 
ATOM     65  C   UNL A   1      38.475  30.016  32.062  1.00  0.00     0.012 A 
ATOM     66  C   UNL A   1      37.692  31.041  29.999  1.00  0.00     0.148 A 
ATOM     67  C   UNL A   1      37.305  30.410  32.711  1.00  0.00     0.002 A 
ATOM     68  C   UNL A   1      36.545  31.464  30.663  1.00  0.00     0.091 A 
ATOM     69  F   UNL A   1      37.888  31.293  28.697  1.00  0.00    -0.205 F 
ATOM     70  C   UNL A   1      36.346  31.142  32.016  1.00  0.00     0.022 A 
BRANCH  68  71
ATOM     71  S   UNL A   1      35.287  32.473  29.872  1.00  0.00     0.127 S 
ATOM     72  O   UNL A   1      34.807  31.576  28.821  1.00  0.00    -0.237 OA
ATOM     73  O   UNL A   1      34.338  32.696  30.963  1.00  0.00    -0.237 OA
ATOM     74  O   UNL A   1      35.969  33.672  29.406  1.00  0.00    -0.744 OA
ENDBRANCH  68  71
ENDBRANCH  50  64
BRANCH  51  75
ATOM     75  C   UNL A   1      46.908  27.310  25.873  1.00  0.00     0.023 A 
ATOM     76  C   UNL A   1      47.876  26.524  26.527  1.00  0.00     0.012 A 
ATOM     77  C   UNL A   1      47.110  27.667  24.525  1.00  0.00     0.148 A 
ATOM     78  C   UNL A   1      49.036  26.124  25.862  1.00  0.00     0.002 A 
ATOM     79  C   UNL A   1      48.243  27.222  23.852  1.00  0.00     0.091 A 
ATOM     80  F   UNL A   1      46.189  28.435  23.926  1.00  0.00    -0.205 F 
ATOM     81  C   UNL A   1      49.214  26.463  24.523  1.00  0.00     0.022 A 
BRANCH  79  82
ATOM     82  S   UNL A   1      48.497  27.514  22.098  1.00  0.00     0.127 S 
ATOM     83  O   UNL A   1      48.666  26.154  21.591  1.00  0.00    -0.237 OA
ATOM     84  O   UNL A   1      47.243  28.162  21.711  1.00  0.00    -0.237 OA
ATOM     85  O   UNL A   1      49.669  28.374  22.008  1.00  0.00    -0.744 OA
ENDBRANCH  79  82
ENDBRANCH  51  75
BRANCH  63  86
ATOM     86  C   UNL A   1      45.151  33.143  29.296  1.00  0.00     0.023 A 
ATOM     87  C   UNL A   1      45.979  33.271  30.429  1.00  0.00     0.012 A 
ATOM     88  C   UNL A   1      45.079  34.199  28.366  1.00  0.00     0.148 A 
ATOM     89  C   UNL A   1      46.703  34.442  30.647  1.00  0.00     0.002 A 
ATOM     90  C   UNL A   1      45.840  35.344  28.568  1.00  0.00     0.091 A 
ATOM     91  F   UNL A   1      44.273  34.065  27.305  1.00  0.00    -0.205 F 
ATOM     92  C   UNL A   1      46.644  35.473  29.711  1.00  0.00     0.022 A 
BRANCH  90  93
ATOM     93  S   UNL A   1      45.899  36.679  27.366  1.00  0.00     0.127 S 
ATOM     94  O   UNL A   1      44.516  37.154  27.380  1.00  0.00    -0.237 OA
ATOM     95  O   UNL A   1      46.865  37.600  27.967  1.00  0.00    -0.237 OA
ATOM     96  O   UNL A   1      46.343  36.073  26.117  1.00  0.00    -0.744 OA
ENDBRANCH  90  93
ENDBRANCH  63  86
ENDBRANCH  37  38
ENDBRANCH  30  32
ENDBRANCH  29  30
ENDBRANCH  28  29
ENDBRANCH   1  28
TORSDOF 19
ENDMDL
MODEL 2
REMARK VINA RESULT:     -11.9      5.162      8.388
REMARK SMILES CC1(C)CCCC[C@H]1NC(=O)Nc1ccccc1C(=O)OCCOCCOC(=O)c1ccc(-c2c3nc(c(-c4cccc(S(=O)(=O)[O-])c4F)c4ccc([nH]4)c(-c4cccc(S(=O)(=O)[O-])c4F)c4nc(c(-c5cccc(S(=O)(=O)[O-])c5F)c5ccc2[nH]5)C=C4)C=C3)cc1
REMARK SMILES IDX 25 1 24 2 23 3 22 4 21 5 19 6 20 7 18 8 13 9 14 10 15 11
REMARK SMILES IDX 17 12 16 13 12 14 9 15 10 16 11 18 8 20 1 21 2 22 3 23 4 24
REMARK SMILES IDX 5 25 7 26 6 27 26 28 27 29 28 30 29 31 30 32 31 33 92 34
REMARK SMILES IDX 32 35 91 36 33 37 34 38 35 39 85 40 36 41 90 42 84 43 86 44
REMARK SMILES IDX 37 45 89 46 83 47 82 48 38 50 70 51 50 52 69 53 51 54 54 55
REMARK SMILES IDX 68 56 87 57 52 58 53 59 67 61 88 62 55 63 39 64 40 65 48 66
REMARK SMILES IDX 41 67 43 68 49 69 42 70 44 71 45 72 46 73 47 74 71 75 72 76
REMARK SMILES IDX 80 77 73 78 75 79 81 80 74 81 76 82 77 83 78 84 79 85 56 86
REMARK SMILES IDX 57 87 65 88 58 89 60 90 66 91 59 92 61 93 62 94 63 95 64 96
REMARK H PARENT 9 17 12 19 86 49 54 60
REMARK Flexibility Score: inf
ROOT
ATOM      1  C   UNL A   1      31.083  31.809  26.306  1.00  0.00     0.202 C 
ENDROOT
BRANCH   1   2
ATOM      2  O   UNL A   1      31.842  30.646  26.038  1.00  0.00    -0.374 OA
BRANCH   2   3
ATOM      3  C   UNL A   1      32.174  29.744  27.072  1.00  0.00     0.202 C 
BRANCH   3   4
ATOM      4  C   UNL A   1      33.280  28.696  26.924  1.00  0.00     0.261 C 
BRANCH   4   5
ATOM      5  O   UNL A   1      33.346  27.874  25.751  1.00  0.00    -0.460 OA
BRANCH   5   6
ATOM      6  C   UNL A   1      32.661  26.712  25.833  1.00  0.00     0.340 C 
ATOM      7  O   UNL A   1      33.008  25.711  26.442  1.00  0.00    -0.246 OA
BRANCH   6   8
ATOM      8  C   UNL A   1      31.363  26.761  25.127  1.00  0.00     0.083 A 
ATOM      9  C   UNL A   1      30.247  25.963  25.430  1.00  0.00     0.057 A 
ATOM     10  C   UNL A   1      29.109  26.071  24.609  1.00  0.00     0.027 A 
ATOM     11  C   UNL A   1      29.023  27.044  23.611  1.00  0.00     0.002 A 
ATOM     12  C   UNL A   1      31.264  27.746  24.123  1.00  0.00     0.018 A 
ATOM     13  C   UNL A   1      30.093  27.900  23.383  1.00  0.00     0.001 A 
BRANCH   9  14
ATOM     14  N   UNL A   1      30.117  25.058  26.497  1.00  0.00    -0.307 N 
ATOM     15  N   UNL A   1      30.898  22.919  25.807  1.00  0.00    -0.335 N 
ATOM     16  C   UNL A   1      30.171  23.717  26.613  1.00  0.00     0.319 C 
ATOM     17  H   UNL A   1      30.710  21.961  25.933  1.00  0.00     0.165 HD
ATOM     18  O   UNL A   1      29.600  23.183  27.566  1.00  0.00    -0.248 OA
ATOM     19  H   UNL A   1      29.950  25.506  27.358  1.00  0.00     0.171 HD
BRANCH  15  20
ATOM     20  C   UNL A   1      31.905  23.177  24.784  1.00  0.00     0.089 C 
ATOM     21  C   UNL A   1      32.437  20.720  24.215  1.00  0.00     0.013 C 
ATOM     22  C   UNL A   1      33.005  22.081  24.667  1.00  0.00    -0.015 C 
ATOM     23  C   UNL A   1      33.715  21.867  26.017  1.00  0.00     0.013 C 
ATOM     24  C   UNL A   1      34.051  22.599  23.637  1.00  0.00     0.008 C 
ATOM     25  C   UNL A   1      33.455  23.027  22.288  1.00  0.00     0.001 C 
ATOM     26  C   UNL A   1      31.245  23.409  23.414  1.00  0.00     0.025 C 
ATOM     27  C   UNL A   1      32.268  23.967  22.437  1.00  0.00     0.002 C 
ENDBRANCH  15  20
ENDBRANCH   9  14
ENDBRANCH   6   8
ENDBRANCH   5   6
ENDBRANCH   4   5
ENDBRANCH   3   4
ENDBRANCH   2   3
ENDBRANCH   1   2
BRANCH   1  28
ATOM     28  C   UNL A   1      31.650  33.042  27.033  1.00  0.00     0.261 C 
BRANCH  28  29
ATOM     29  O   UNL A   1      33.054  33.280  26.919  1.00  0.00    -0.460 OA
BRANCH  29  30
ATOM     30  C   UNL A   1      33.648  33.669  28.072  1.00  0.00     0.338 C 
ATOM     31  O   UNL A   1      33.200  34.438  28.906  1.00  0.00    -0.246 OA
BRANCH  30  32
ATOM     32  C   UNL A   1      34.890  32.900  28.273  1.00  0.00     0.060 A 
ATOM     33  C   UNL A   1      34.778  31.559  28.664  1.00  0.00     0.016 A 
ATOM     34  C   UNL A   1      36.139  33.517  28.183  1.00  0.00     0.016 A 
ATOM     35  C   UNL A   1      35.915  30.849  29.038  1.00  0.00     0.010 A 
ATOM     36  C   UNL A   1      37.277  32.808  28.576  1.00  0.00     0.010 A 
ATOM     37  C   UNL A   1      37.159  31.491  29.053  1.00  0.00    -0.014 A 
BRANCH  37  38
ATOM     38  C   UNL A   1      38.286  30.853  29.770  1.00  0.00     0.031 A 
ATOM     39  C   UNL A   1      38.546  31.256  31.196  1.00  0.00     0.074 A 
ATOM     40  C   UNL A   1      39.045  29.918  29.173  1.00  0.00     0.049 A 
ATOM     41  N   UNL A   1      39.461  30.827  32.026  1.00  0.00    -0.248 NA
ATOM     42  C   UNL A   1      37.655  32.284  31.766  1.00  0.00     0.031 C 
ATOM     43  C   UNL A   1      38.880  29.446  27.800  1.00  0.00     0.029 A 
ATOM     44  N   UNL A   1      40.120  29.212  29.649  1.00  0.00    -0.354 N 
ATOM     45  C   UNL A   1      39.275  31.547  33.200  1.00  0.00     0.074 A 
ATOM     46  C   UNL A   1      38.166  32.447  32.977  1.00  0.00     0.031 C 
ATOM     47  C   UNL A   1      39.836  28.539  27.535  1.00  0.00     0.029 A 
ATOM     48  C   UNL A   1      40.690  28.383  28.712  1.00  0.00     0.049 A 
ATOM     49  H   UNL A   1      40.452  29.291  30.572  1.00  0.00     0.167 HD
ATOM     50  C   UNL A   1      39.956  31.455  34.366  1.00  0.00     0.034 A 
ATOM     51  C   UNL A   1      41.784  27.601  28.797  1.00  0.00     0.034 A 
ATOM     52  C   UNL A   1      41.039  30.540  34.591  1.00  0.00     0.049 A 
ATOM     53  C   UNL A   1      42.534  27.529  30.104  1.00  0.00     0.074 A 
ATOM     54  C   UNL A   1      41.761  30.329  35.753  1.00  0.00     0.029 A 
ATOM     55  N   UNL A   1      41.565  29.688  33.632  1.00  0.00    -0.354 N 
ATOM     56  N   UNL A   1      42.266  28.119  31.244  1.00  0.00    -0.248 NA
ATOM     57  C   UNL A   1      43.719  26.658  30.143  1.00  0.00     0.031 C 
ATOM     58  C   UNL A   1      42.740  29.366  35.488  1.00  0.00     0.029 A 
ATOM     59  C   UNL A   1      42.613  28.961  34.168  1.00  0.00     0.049 A 
ATOM     60  H   UNL A   1      41.242  29.612  32.705  1.00  0.00     0.167 HD
ATOM     61  C   UNL A   1      43.226  27.665  32.143  1.00  0.00     0.074 A 
ATOM     62  C   UNL A   1      44.070  26.736  31.420  1.00  0.00     0.031 C 
ATOM     63  C   UNL A   1      43.404  27.998  33.447  1.00  0.00     0.034 A 
BRANCH  50  64
ATOM     64  C   UNL A   1      39.531  32.351  35.496  1.00  0.00     0.023 A 
ATOM     65  C   UNL A   1      38.691  31.847  36.510  1.00  0.00     0.012 A 
ATOM     66  C   UNL A   1      40.005  33.675  35.585  1.00  0.00     0.148 A 
ATOM     67  C   UNL A   1      38.308  32.654  37.581  1.00  0.00     0.002 A 
ATOM     68  C   UNL A   1      39.651  34.460  36.677  1.00  0.00     0.091 A 
ATOM     69  F   UNL A   1      40.780  34.145  34.598  1.00  0.00    -0.205 F 
ATOM     70  C   UNL A   1      38.796  33.955  37.670  1.00  0.00     0.022 A 
BRANCH  68  71
ATOM     71  S   UNL A   1      40.285  36.123  36.917  1.00  0.00     0.127 S 
ATOM     72  O   UNL A   1      41.719  35.873  37.070  1.00  0.00    -0.237 OA
ATOM     73  O   UNL A   1      39.913  36.781  35.664  1.00  0.00    -0.237 OA
ATOM     74  O   UNL A   1      39.612  36.643  38.098  1.00  0.00    -0.744 OA
ENDBRANCH  68  71
ENDBRANCH  50  64
BRANCH  51  75
ATOM     75  C   UNL A   1      42.211  26.786  27.624  1.00  0.00     0.023 A 
ATOM     76  C   UNL A   1      42.967  27.388  26.600  1.00  0.00     0.012 A 
ATOM     77  C   UNL A   1      41.885  25.419  27.524  1.00  0.00     0.148 A 
ATOM     78  C   UNL A   1      43.368  26.652  25.485  1.00  0.00     0.002 A 
ATOM     79  C   UNL A   1      42.331  24.678  26.436  1.00  0.00     0.091 A 
ATOM     80  F   UNL A   1      41.145  24.869  28.497  1.00  0.00    -0.205 F 
ATOM     81  C   UNL A   1      43.060  25.296  25.408  1.00  0.00     0.022 A 
BRANCH  79  82
ATOM     82  S   UNL A   1      42.081  22.904  26.312  1.00  0.00     0.127 S 
ATOM     83  O   UNL A   1      42.697  22.605  25.021  1.00  0.00    -0.237 OA
ATOM     84  O   UNL A   1      42.819  22.409  27.474  1.00  0.00    -0.237 OA
ATOM     85  O   UNL A   1      40.640  22.704  26.388  1.00  0.00    -0.744 OA
ENDBRANCH  79  82
ENDBRANCH  51  75
BRANCH  63  86
ATOM     86  C   UNL A   1      44.535  27.336  34.191  1.00  0.00     0.023 A 
ATOM     87  C   UNL A   1      45.818  27.919  34.172  1.00  0.00     0.012 A 
ATOM     88  C   UNL A   1      44.306  26.189  34.977  1.00  0.00     0.148 A 
ATOM     89  C   UNL A   1      46.862  27.353  34.902  1.00  0.00     0.002 A 
ATOM     90  C   UNL A   1      45.341  25.659  35.738  1.00  0.00     0.091 A 
ATOM     91  F   UNL A   1      43.083  25.640  34.968  1.00  0.00    -0.205 F 
ATOM     92  C   UNL A   1      46.622  26.232  35.694  1.00  0.00     0.022 A 
BRANCH  90  93
ATOM     93  S   UNL A   1      45.095  24.277  36.860  1.00  0.00     0.127 S 
ATOM     94  O   UNL A   1      44.688  23.215  35.940  1.00  0.00    -0.237 OA
ATOM     95  O   UNL A   1      46.428  24.102  37.439  1.00  0.00    -0.237 OA
ATOM     96  O   UNL A   1      44.078  24.709  37.810  1.00  0.00    -0.744 OA
ENDBRANCH  90  93
ENDBRANCH  63  86
ENDBRANCH  37  38
ENDBRANCH  30  32
ENDBRANCH  29  30
ENDBRANCH  28  29
ENDBRANCH   1  28
TORSDOF 19
ENDMDL
MODEL 3
REMARK VINA RESULT:     -11.8      1.748      2.487
REMARK SMILES CC1(C)CCCC[C@H]1NC(=O)Nc1ccccc1C(=O)OCCOCCOC(=O)c1ccc(-c2c3nc(c(-c4cccc(S(=O)(=O)[O-])c4F)c4ccc([nH]4)c(-c4cccc(S(=O)(=O)[O-])c4F)c4nc(c(-c5cccc(S(=O)(=O)[O-])c5F)c5ccc2[nH]5)C=C4)C=C3)cc1
REMARK SMILES IDX 25 1 24 2 23 3 22 4 21 5 19 6 20 7 18 8 13 9 14 10 15 11
REMARK SMILES IDX 17 12 16 13 12 14 9 15 10 16 11 18 8 20 1 21 2 22 3 23 4 24
REMARK SMILES IDX 5 25 7 26 6 27 26 28 27 29 28 30 29 31 30 32 31 33 92 34
REMARK SMILES IDX 32 35 91 36 33 37 34 38 35 39 85 40 36 41 90 42 84 43 86 44
REMARK SMILES IDX 37 45 89 46 83 47 82 48 38 50 70 51 50 52 69 53 51 54 54 55
REMARK SMILES IDX 68 56 87 57 52 58 53 59 67 61 88 62 55 63 39 64 40 65 48 66
REMARK SMILES IDX 41 67 43 68 49 69 42 70 44 71 45 72 46 73 47 74 71 75 72 76
REMARK SMILES IDX 80 77 73 78 75 79 81 80 74 81 76 82 77 83 78 84 79 85 56 86
REMARK SMILES IDX 57 87 65 88 58 89 60 90 66 91 59 92 61 93 62 94 63 95 64 96
REMARK H PARENT 9 17 12 19 86 49 54 60
REMARK Flexibility Score: inf
ROOT
ATOM      1  C   UNL A   1      35.417  21.293  25.674  1.00  0.00     0.202 C 
ENDROOT
BRANCH   1   2
ATOM      2  O   UNL A   1      35.420  22.364  26.598  1.00  0.00    -0.374 OA
BRANCH   2   3
ATOM      3  C   UNL A   1      34.249  23.111  26.844  1.00  0.00     0.202 C 
BRANCH   3   4
ATOM      4  C   UNL A   1      32.947  22.464  27.325  1.00  0.00     0.261 C 
BRANCH   4   5
ATOM      5  O   UNL A   1      31.764  22.535  26.519  1.00  0.00    -0.460 OA
BRANCH   5   6
ATOM      6  C   UNL A   1      31.850  21.906  25.326  1.00  0.00     0.340 C 
ATOM      7  O   UNL A   1      31.772  20.701  25.138  1.00  0.00    -0.246 OA
BRANCH   6   8
ATOM      8  C   UNL A   1      32.009  22.843  24.195  1.00  0.00     0.083 A 
ATOM      9  C   UNL A   1      31.217  23.982  23.970  1.00  0.00     0.057 A 
ATOM     10  C   UNL A   1      31.442  24.729  22.799  1.00  0.00     0.027 A 
ATOM     11  C   UNL A   1      32.515  24.445  21.951  1.00  0.00     0.002 A 
ATOM     12  C   UNL A   1      33.094  22.570  23.337  1.00  0.00     0.018 A 
ATOM     13  C   UNL A   1      33.358  23.378  22.234  1.00  0.00     0.001 A 
BRANCH   9  14
ATOM     14  N   UNL A   1      30.211  24.493  24.808  1.00  0.00    -0.307 N 
ATOM     15  N   UNL A   1      30.829  26.675  25.529  1.00  0.00    -0.335 N 
ATOM     16  C   UNL A   1      30.126  25.532  25.662  1.00  0.00     0.319 C 
ATOM     17  H   UNL A   1      30.761  27.267  26.314  1.00  0.00     0.165 HD
ATOM     18  O   UNL A   1      29.293  25.485  26.568  1.00  0.00    -0.248 OA
ATOM     19  H   UNL A   1      29.375  23.974  24.760  1.00  0.00     0.171 HD
BRANCH  15  20
ATOM     20  C   UNL A   1      31.668  27.219  24.469  1.00  0.00     0.089 C 
ATOM     21  C   UNL A   1      31.323  29.714  25.020  1.00  0.00     0.013 C 
ATOM     22  C   UNL A   1      31.223  28.615  23.942  1.00  0.00    -0.015 C 
ATOM     23  C   UNL A   1      29.765  28.577  23.447  1.00  0.00     0.013 C 
ATOM     24  C   UNL A   1      32.144  28.958  22.735  1.00  0.00     0.008 C 
ATOM     25  C   UNL A   1      33.646  28.858  23.035  1.00  0.00     0.001 C 
ATOM     26  C   UNL A   1      33.141  27.269  24.911  1.00  0.00     0.025 C 
ATOM     27  C   UNL A   1      34.031  27.549  23.709  1.00  0.00     0.002 C 
ENDBRANCH  15  20
ENDBRANCH   9  14
ENDBRANCH   6   8
ENDBRANCH   5   6
ENDBRANCH   4   5
ENDBRANCH   3   4
ENDBRANCH   2   3
ENDBRANCH   1   2
BRANCH   1  28
ATOM     28  C   UNL A   1      36.697  20.583  25.196  1.00  0.00     0.261 C 
BRANCH  28  29
ATOM     29  O   UNL A   1      37.848  21.397  24.965  1.00  0.00    -0.460 OA
BRANCH  29  30
ATOM     30  C   UNL A   1      38.904  21.108  25.763  1.00  0.00     0.338 C 
ATOM     31  O   UNL A   1      39.507  20.050  25.829  1.00  0.00    -0.246 OA
BRANCH  30  32
ATOM     32  C   UNL A   1      39.343  22.329  26.464  1.00  0.00     0.060 A 
ATOM     33  C   UNL A   1      38.756  23.547  26.095  1.00  0.00     0.016 A 
ATOM     34  C   UNL A   1      40.390  22.289  27.387  1.00  0.00     0.016 A 
ATOM     35  C   UNL A   1      39.264  24.741  26.598  1.00  0.00     0.010 A 
ATOM     36  C   UNL A   1      40.909  23.491  27.876  1.00  0.00     0.010 A 
ATOM     37  C   UNL A   1      40.381  24.718  27.442  1.00  0.00    -0.014 A 
BRANCH  37  38
ATOM     38  C   UNL A   1      41.119  25.978  27.688  1.00  0.00     0.031 A 
ATOM     39  C   UNL A   1      40.417  27.085  28.427  1.00  0.00     0.074 A 
ATOM     40  C   UNL A   1      42.393  26.123  27.284  1.00  0.00     0.049 A 
ATOM     41  N   UNL A   1      40.861  28.266  28.769  1.00  0.00    -0.248 NA
ATOM     42  C   UNL A   1      39.024  26.828  28.835  1.00  0.00     0.031 C 
ATOM     43  C   UNL A   1      43.173  25.116  26.568  1.00  0.00     0.029 A 
ATOM     44  N   UNL A   1      43.246  27.190  27.409  1.00  0.00    -0.354 N 
ATOM     45  C   UNL A   1      39.801  28.900  29.405  1.00  0.00     0.074 A 
ATOM     46  C   UNL A   1      38.687  27.979  29.396  1.00  0.00     0.031 C 
ATOM     47  C   UNL A   1      44.388  25.621  26.297  1.00  0.00     0.029 A 
ATOM     48  C   UNL A   1      44.464  26.991  26.803  1.00  0.00     0.049 A 
ATOM     49  H   UNL A   1      43.009  28.017  27.887  1.00  0.00     0.167 HD
ATOM     50  C   UNL A   1      39.763  30.133  29.962  1.00  0.00     0.034 A 
ATOM     51  C   UNL A   1      45.510  27.829  26.665  1.00  0.00     0.034 A 
ATOM     52  C   UNL A   1      40.882  31.033  29.991  1.00  0.00     0.049 A 
ATOM     53  C   UNL A   1      45.436  29.203  27.281  1.00  0.00     0.074 A 
ATOM     54  C   UNL A   1      40.964  32.284  30.578  1.00  0.00     0.029 A 
ATOM     55  N   UNL A   1      42.111  30.784  29.401  1.00  0.00    -0.354 N 
ATOM     56  N   UNL A   1      44.473  29.739  27.992  1.00  0.00    -0.248 NA
ATOM     57  C   UNL A   1      46.606  30.076  27.103  1.00  0.00     0.031 C 
ATOM     58  C   UNL A   1      42.238  32.801  30.321  1.00  0.00     0.029 A 
ATOM     59  C   UNL A   1      42.956  31.863  29.594  1.00  0.00     0.049 A 
ATOM     60  H   UNL A   1      42.348  29.962  28.916  1.00  0.00     0.167 HD
ATOM     61  C   UNL A   1      44.933  30.995  28.374  1.00  0.00     0.074 A 
ATOM     62  C   UNL A   1      46.270  31.132  27.832  1.00  0.00     0.031 C 
ATOM     63  C   UNL A   1      44.303  31.957  29.095  1.00  0.00     0.034 A 
BRANCH  50  64
ATOM     64  C   UNL A   1      38.477  30.570  30.607  1.00  0.00     0.023 A 
ATOM     65  C   UNL A   1      38.271  30.337  31.982  1.00  0.00     0.012 A 
ATOM     66  C   UNL A   1      37.495  31.257  29.867  1.00  0.00     0.148 A 
ATOM     67  C   UNL A   1      37.097  30.759  32.605  1.00  0.00     0.002 A 
ATOM     68  C   UNL A   1      36.345  31.710  30.503  1.00  0.00     0.091 A 
ATOM     69  F   UNL A   1      37.697  31.445  28.555  1.00  0.00    -0.205 F 
ATOM     70  C   UNL A   1      36.140  31.454  31.869  1.00  0.00     0.022 A 
BRANCH  68  71
ATOM     71  S   UNL A   1      35.089  32.675  29.658  1.00  0.00     0.127 S 
ATOM     72  O   UNL A   1      34.244  33.103  30.773  1.00  0.00    -0.237 OA
ATOM     73  O   UNL A   1      35.879  33.745  29.048  1.00  0.00    -0.237 OA
ATOM     74  O   UNL A   1      34.459  31.770  28.708  1.00  0.00    -0.744 OA
ENDBRANCH  68  71
ENDBRANCH  50  64
BRANCH  51  75
ATOM     75  C   UNL A   1      46.738  27.376  25.951  1.00  0.00     0.023 A 
ATOM     76  C   UNL A   1      46.866  27.620  24.570  1.00  0.00     0.012 A 
ATOM     77  C   UNL A   1      47.782  26.720  26.632  1.00  0.00     0.148 A 
ATOM     78  C   UNL A   1      47.999  27.195  23.875  1.00  0.00     0.002 A 
ATOM     79  C   UNL A   1      48.930  26.345  25.944  1.00  0.00     0.091 A 
ATOM     80  F   UNL A   1      47.632  26.475  27.941  1.00  0.00    -0.205 F 
ATOM     81  C   UNL A   1      49.034  26.568  24.562  1.00  0.00     0.022 A 
BRANCH  79  82
ATOM     82  S   UNL A   1      50.360  25.638  26.771  1.00  0.00     0.127 S 
ATOM     83  O   UNL A   1      50.740  26.715  27.683  1.00  0.00    -0.237 OA
ATOM     84  O   UNL A   1      49.787  24.458  27.418  1.00  0.00    -0.237 OA
ATOM     85  O   UNL A   1      51.316  25.337  25.714  1.00  0.00    -0.744 OA
ENDBRANCH  79  82
ENDBRANCH  51  75
BRANCH  63  86
ATOM     86  C   UNL A   1      45.055  33.233  29.370  1.00  0.00     0.023 A 
ATOM     87  C   UNL A   1      45.908  33.312  30.488  1.00  0.00     0.012 A 
ATOM     88  C   UNL A   1      44.983  34.319  28.475  1.00  0.00     0.148 A 
ATOM     89  C   UNL A   1      46.657  34.463  30.728  1.00  0.00     0.002 A 
ATOM     90  C   UNL A   1      45.767  35.445  28.696  1.00  0.00     0.091 A 
ATOM     91  F   UNL A   1      44.152  34.232  27.427  1.00  0.00    -0.205 F 
ATOM     92  C   UNL A   1      46.597  35.524  29.826  1.00  0.00     0.022 A 
BRANCH  90  93
ATOM     93  S   UNL A   1      45.825  36.816  27.535  1.00  0.00     0.127 S 
ATOM     94  O   UNL A   1      46.621  36.250  26.446  1.00  0.00    -0.237 OA
ATOM     95  O   UNL A   1      44.411  37.015  27.215  1.00  0.00    -0.237 OA
ATOM     96  O   UNL A   1      46.441  37.923  28.254  1.00  0.00    -0.744 OA
ENDBRANCH  90  93
ENDBRANCH  63  86
ENDBRANCH  37  38
ENDBRANCH  30  32
ENDBRANCH  29  30
ENDBRANCH  28  29
ENDBRANCH   1  28
TORSDOF 19
ENDMDL
