MODEL 1
REMARK VINA RESULT:     -11.5      0.000      0.000
REMARK SMILES O=C(OCCOCCOC(=O)c1ccc(-c2ccc(Cl)cc2)cc1F)c1ccc(-c2c3nc(c(-c4cccc(S(=O)(=O)[O-])c4F)c4ccc([nH]4)c(-c4cccc(S(=O)(=O)[O-])c4F)c4nc(c(-c5cccc(S(=O)(=O)[O-])c5F)c5ccc2[nH]5)C=C4)C=C3)cc1
REMARK SMILES IDX 5 1 4 2 3 3 2 4 1 5 26 6 27 7 88 8 28 9 87 10 29 11 30 12
REMARK SMILES IDX 31 13 81 14 32 15 86 16 80 17 82 18 33 19 85 20 79 21 78 22
REMARK SMILES IDX 34 24 66 25 46 26 65 27 47 28 50 29 64 30 83 31 48 32 49 33
REMARK SMILES IDX 63 35 84 36 51 37 35 38 36 39 44 40 37 41 39 42 45 43 38 44
REMARK SMILES IDX 40 45 41 46 42 47 43 48 67 49 68 50 76 51 69 52 71 53 77 54
REMARK SMILES IDX 70 55 72 56 73 57 74 58 75 59 52 60 53 61 61 62 54 63 56 64
REMARK SMILES IDX 62 65 55 66 57 67 58 68 59 69 60 70 6 71 7 72 8 73 9 74
REMARK SMILES IDX 10 75 11 76 12 77 13 78 24 79 14 80 23 81 25 82 15 83 16 84
REMARK SMILES IDX 17 85 22 86 18 87 21 88 19 89 20 90
REMARK H PARENT 82 23 50 34
REMARK Flexibility Score: inf
ROOT
ATOM      1  C   UNL A   1      34.710  21.192  24.779  1.00  0.00     0.202 C 
ENDROOT
BRANCH   1   2
ATOM      2  C   UNL A   1      36.066  20.534  25.040  1.00  0.00     0.261 C 
BRANCH   2   3
ATOM      3  O   UNL A   1      36.917  21.439  25.759  1.00  0.00    -0.460 OA
BRANCH   3   4
ATOM      4  C   UNL A   1      38.259  21.396  25.906  1.00  0.00     0.338 C 
ATOM      5  O   UNL A   1      38.839  20.347  25.628  1.00  0.00    -0.246 OA
BRANCH   4   6
ATOM      6  C   UNL A   1      39.084  22.553  26.372  1.00  0.00     0.060 A 
ATOM      7  C   UNL A   1      40.221  22.462  27.181  1.00  0.00     0.016 A 
ATOM      8  C   UNL A   1      38.738  23.815  25.865  1.00  0.00     0.016 A 
ATOM      9  C   UNL A   1      40.973  23.581  27.515  1.00  0.00     0.010 A 
ATOM     10  C   UNL A   1      39.498  24.944  26.178  1.00  0.00     0.010 A 
ATOM     11  C   UNL A   1      40.612  24.824  27.014  1.00  0.00    -0.014 A 
BRANCH  11  12
ATOM     12  C   UNL A   1      41.361  26.007  27.456  1.00  0.00     0.031 A 
ATOM     13  C   UNL A   1      40.655  27.000  28.324  1.00  0.00     0.074 A 
ATOM     14  C   UNL A   1      42.657  26.139  27.123  1.00  0.00     0.049 A 
ATOM     15  N   UNL A   1      41.049  28.177  28.715  1.00  0.00    -0.248 NA
ATOM     16  C   UNL A   1      39.327  26.606  28.830  1.00  0.00     0.031 C 
ATOM     17  C   UNL A   1      43.439  25.152  26.375  1.00  0.00     0.029 A 
ATOM     18  N   UNL A   1      43.541  27.154  27.364  1.00  0.00    -0.354 N 
ATOM     19  C   UNL A   1      40.002  28.688  29.471  1.00  0.00     0.074 A 
ATOM     20  C   UNL A   1      38.963  27.685  29.508  1.00  0.00     0.031 C 
ATOM     21  C   UNL A   1      44.687  25.622  26.202  1.00  0.00     0.029 A 
ATOM     22  C   UNL A   1      44.767  26.961  26.771  1.00  0.00     0.049 A 
ATOM     23  H   UNL A   1      43.321  27.945  27.909  1.00  0.00     0.167 HD
ATOM     24  C   UNL A   1      39.927  29.896  30.069  1.00  0.00     0.034 A 
ATOM     25  C   UNL A   1      45.812  27.805  26.667  1.00  0.00     0.034 A 
ATOM     26  C   UNL A   1      40.986  30.863  30.011  1.00  0.00     0.049 A 
ATOM     27  C   UNL A   1      45.670  29.170  27.289  1.00  0.00     0.074 A 
ATOM     28  C   UNL A   1      41.009  32.148  30.515  1.00  0.00     0.029 A 
ATOM     29  N   UNL A   1      42.218  30.640  29.410  1.00  0.00    -0.354 N 
ATOM     30  N   UNL A   1      44.671  29.660  27.987  1.00  0.00    -0.248 NA
ATOM     31  C   UNL A   1      46.796  30.098  27.121  1.00  0.00     0.031 C 
ATOM     32  C   UNL A   1      42.254  32.707  30.208  1.00  0.00     0.029 A 
ATOM     33  C   UNL A   1      43.014  31.760  29.536  1.00  0.00     0.049 A 
ATOM     34  H   UNL A   1      42.484  29.805  28.961  1.00  0.00     0.167 HD
ATOM     35  C   UNL A   1      45.055  30.942  28.359  1.00  0.00     0.074 A 
ATOM     36  C   UNL A   1      46.393  31.138  27.837  1.00  0.00     0.031 C 
ATOM     37  C   UNL A   1      44.362  31.886  29.044  1.00  0.00     0.034 A 
BRANCH  24  38
ATOM     38  C   UNL A   1      38.667  30.234  30.815  1.00  0.00     0.023 A 
ATOM     39  C   UNL A   1      38.504  29.799  32.145  1.00  0.00     0.012 A 
ATOM     40  C   UNL A   1      37.666  31.021  30.213  1.00  0.00     0.148 A 
ATOM     41  C   UNL A   1      37.355  30.132  32.862  1.00  0.00     0.002 A 
ATOM     42  C   UNL A   1      36.542  31.380  30.946  1.00  0.00     0.091 A 
ATOM     43  F   UNL A   1      37.836  31.403  28.940  1.00  0.00    -0.205 F 
ATOM     44  C   UNL A   1      36.380  30.930  32.267  1.00  0.00     0.022 A 
BRANCH  42  45
ATOM     45  S   UNL A   1      35.253  32.446  30.292  1.00  0.00     0.127 S 
ATOM     46  O   UNL A   1      36.013  33.643  29.930  1.00  0.00    -0.237 OA
ATOM     47  O   UNL A   1      34.763  31.667  29.155  1.00  0.00    -0.237 OA
ATOM     48  O   UNL A   1      34.296  32.634  31.373  1.00  0.00    -0.744 OA
ENDBRANCH  42  45
ENDBRANCH  24  38
BRANCH  25  49
ATOM     49  C   UNL A   1      47.059  27.396  25.956  1.00  0.00     0.023 A 
ATOM     50  C   UNL A   1      48.044  26.665  26.648  1.00  0.00     0.012 A 
ATOM     51  C   UNL A   1      47.279  27.715  24.601  1.00  0.00     0.148 A 
ATOM     52  C   UNL A   1      49.232  26.290  26.019  1.00  0.00     0.002 A 
ATOM     53  C   UNL A   1      48.439  27.287  23.962  1.00  0.00     0.091 A 
ATOM     54  F   UNL A   1      46.349  28.437  23.957  1.00  0.00    -0.205 F 
ATOM     55  C   UNL A   1      49.425  26.591  24.673  1.00  0.00     0.022 A 
BRANCH  53  56
ATOM     56  S   UNL A   1      48.700  27.518  22.198  1.00  0.00     0.127 S 
ATOM     57  O   UNL A   1      48.643  26.145  21.704  1.00  0.00    -0.237 OA
ATOM     58  O   UNL A   1      47.558  28.355  21.825  1.00  0.00    -0.237 OA
ATOM     59  O   UNL A   1      49.990  28.186  22.083  1.00  0.00    -0.744 OA
ENDBRANCH  53  56
ENDBRANCH  25  49
BRANCH  37  60
ATOM     60  C   UNL A   1      45.050  33.200  29.287  1.00  0.00     0.023 A 
ATOM     61  C   UNL A   1      45.866  33.358  30.423  1.00  0.00     0.012 A 
ATOM     62  C   UNL A   1      44.962  34.238  28.339  1.00  0.00     0.148 A 
ATOM     63  C   UNL A   1      46.564  34.547  30.629  1.00  0.00     0.002 A 
ATOM     64  C   UNL A   1      45.703  35.396  28.524  1.00  0.00     0.091 A 
ATOM     65  F   UNL A   1      44.162  34.071  27.277  1.00  0.00    -0.205 F 
ATOM     66  C   UNL A   1      46.495  35.559  29.673  1.00  0.00     0.022 A 
BRANCH  64  67
ATOM     67  S   UNL A   1      45.759  36.695  27.285  1.00  0.00     0.127 S 
ATOM     68  O   UNL A   1      46.654  37.667  27.912  1.00  0.00    -0.237 OA
ATOM     69  O   UNL A   1      46.325  36.001  26.128  1.00  0.00    -0.237 OA
ATOM     70  O   UNL A   1      44.381  37.132  27.107  1.00  0.00    -0.744 OA
ENDBRANCH  64  67
ENDBRANCH  37  60
ENDBRANCH  11  12
ENDBRANCH   4   6
ENDBRANCH   3   4
ENDBRANCH   2   3
ENDBRANCH   1   2
BRANCH   1  71
ATOM     71  O   UNL A   1      33.586  20.393  25.141  1.00  0.00    -0.374 OA
BRANCH  71  72
ATOM     72  C   UNL A   1      32.313  20.820  24.635  1.00  0.00     0.202 C 
BRANCH  72  73
ATOM     73  C   UNL A   1      32.439  21.094  23.137  1.00  0.00     0.261 C 
BRANCH  73  74
ATOM     74  O   UNL A   1      31.951  22.421  22.896  1.00  0.00    -0.460 OA
BRANCH  74  75
ATOM     75  C   UNL A   1      32.873  23.304  22.433  1.00  0.00     0.341 C 
ATOM     76  O   UNL A   1      33.618  23.188  21.487  1.00  0.00    -0.246 OA
BRANCH  75  77
ATOM     77  C   UNL A   1      32.641  24.579  23.135  1.00  0.00     0.095 A 
ATOM     78  C   UNL A   1      31.403  25.218  22.979  1.00  0.00     0.019 A 
ATOM     79  C   UNL A   1      33.594  25.113  23.991  1.00  0.00     0.138 A 
ATOM     80  C   UNL A   1      31.120  26.379  23.703  1.00  0.00     0.010 A 
ATOM     81  C   UNL A   1      33.321  26.275  24.699  1.00  0.00     0.049 A 
ATOM     82  F   UNL A   1      34.800  24.548  24.139  1.00  0.00    -0.206 F 
ATOM     83  C   UNL A   1      32.087  26.928  24.559  1.00  0.00    -0.015 A 
BRANCH  83  84
ATOM     84  C   UNL A   1      31.887  28.210  25.231  1.00  0.00    -0.018 A 
ATOM     85  C   UNL A   1      31.183  29.222  24.558  1.00  0.00     0.010 A 
ATOM     86  C   UNL A   1      32.453  28.491  26.481  1.00  0.00     0.010 A 
ATOM     87  C   UNL A   1      31.077  30.500  25.102  1.00  0.00     0.021 A 
ATOM     88  C   UNL A   1      32.346  29.775  27.029  1.00  0.00     0.021 A 
ATOM     89  C   UNL A   1      31.669  30.775  26.330  1.00  0.00     0.041 A 
ATOM     90  Cl  UNL A   1      31.582  32.366  26.978  1.00  0.00    -0.084 Cl
ENDBRANCH  83  84
ENDBRANCH  75  77
ENDBRANCH  74  75
ENDBRANCH  73  74
ENDBRANCH  72  73
ENDBRANCH  71  72
ENDBRANCH   1  71
TORSDOF 18
ENDMDL
MODEL 2
REMARK VINA RESULT:     -11.4      5.297      9.457
REMARK SMILES O=C(OCCOCCOC(=O)c1ccc(-c2ccc(Cl)cc2)cc1F)c1ccc(-c2c3nc(c(-c4cccc(S(=O)(=O)[O-])c4F)c4ccc([nH]4)c(-c4cccc(S(=O)(=O)[O-])c4F)c4nc(c(-c5cccc(S(=O)(=O)[O-])c5F)c5ccc2[nH]5)C=C4)C=C3)cc1
REMARK SMILES IDX 5 1 4 2 3 3 2 4 1 5 26 6 27 7 88 8 28 9 87 10 29 11 30 12
REMARK SMILES IDX 31 13 81 14 32 15 86 16 80 17 82 18 33 19 85 20 79 21 78 22
REMARK SMILES IDX 34 24 66 25 46 26 65 27 47 28 50 29 64 30 83 31 48 32 49 33
REMARK SMILES IDX 63 35 84 36 51 37 35 38 36 39 44 40 37 41 39 42 45 43 38 44
REMARK SMILES IDX 40 45 41 46 42 47 43 48 67 49 68 50 76 51 69 52 71 53 77 54
REMARK SMILES IDX 70 55 72 56 73 57 74 58 75 59 52 60 53 61 61 62 54 63 56 64
REMARK SMILES IDX 62 65 55 66 57 67 58 68 59 69 60 70 6 71 7 72 8 73 9 74
REMARK SMILES IDX 10 75 11 76 12 77 13 78 24 79 14 80 23 81 25 82 15 83 16 84
REMARK SMILES IDX 17 85 22 86 18 87 21 88 19 89 20 90
REMARK H PARENT 82 23 50 34
REMARK Flexibility Score: inf
ROOT
ATOM      1  C   UNL A   1      33.284  34.704  28.434  1.00  0.00     0.202 C 
ENDROOT
BRANCH   1   2
ATOM      2  C   UNL A   1      34.398  33.720  28.078  1.00  0.00     0.261 C 
BRANCH   2   3
ATOM      3  O   UNL A   1      33.942  32.374  28.280  1.00  0.00    -0.460 OA
BRANCH   3   4
ATOM      4  C   UNL A   1      34.491  31.222  27.833  1.00  0.00     0.338 C 
ATOM      5  O   UNL A   1      33.939  30.642  26.899  1.00  0.00    -0.246 OA
BRANCH   4   6
ATOM      6  C   UNL A   1      35.737  30.618  28.396  1.00  0.00     0.060 A 
ATOM      7  C   UNL A   1      35.822  29.913  29.601  1.00  0.00     0.016 A 
ATOM      8  C   UNL A   1      36.885  30.683  27.592  1.00  0.00     0.016 A 
ATOM      9  C   UNL A   1      37.007  29.324  30.022  1.00  0.00     0.010 A 
ATOM     10  C   UNL A   1      38.077  30.078  27.995  1.00  0.00     0.010 A 
ATOM     11  C   UNL A   1      38.137  29.405  29.220  1.00  0.00    -0.014 A 
BRANCH  11  12
ATOM     12  C   UNL A   1      39.403  28.861  29.726  1.00  0.00     0.031 A 
ATOM     13  C   UNL A   1      39.997  29.487  30.948  1.00  0.00     0.074 A 
ATOM     14  C   UNL A   1      39.957  27.794  29.124  1.00  0.00     0.049 A 
ATOM     15  N   UNL A   1      41.162  29.284  31.492  1.00  0.00    -0.248 NA
ATOM     16  C   UNL A   1      39.158  30.469  31.659  1.00  0.00     0.031 C 
ATOM     17  C   UNL A   1      39.372  27.062  27.998  1.00  0.00     0.029 A 
ATOM     18  N   UNL A   1      41.135  27.144  29.368  1.00  0.00    -0.354 N 
ATOM     19  C   UNL A   1      41.220  30.144  32.579  1.00  0.00     0.074 A 
ATOM     20  C   UNL A   1      39.964  30.857  32.637  1.00  0.00     0.031 C 
ATOM     21  C   UNL A   1      40.206  26.073  27.637  1.00  0.00     0.029 A 
ATOM     22  C   UNL A   1      41.405  26.144  28.463  1.00  0.00     0.049 A 
ATOM     23  H   UNL A   1      41.732  27.371  30.119  1.00  0.00     0.167 HD
ATOM     24  C   UNL A   1      42.244  30.320  33.441  1.00  0.00     0.034 A 
ATOM     25  C   UNL A   1      42.522  25.409  28.305  1.00  0.00     0.034 A 
ATOM     26  C   UNL A   1      43.475  29.588  33.351  1.00  0.00     0.049 A 
ATOM     27  C   UNL A   1      43.671  25.676  29.242  1.00  0.00     0.074 A 
ATOM     28  C   UNL A   1      44.615  29.718  34.118  1.00  0.00     0.029 A 
ATOM     29  N   UNL A   1      43.718  28.577  32.430  1.00  0.00    -0.354 N 
ATOM     30  N   UNL A   1      43.733  26.505  30.258  1.00  0.00    -0.248 NA
ATOM     31  C   UNL A   1      44.901  24.906  29.022  1.00  0.00     0.031 C 
ATOM     32  C   UNL A   1      45.554  28.793  33.651  1.00  0.00     0.029 A 
ATOM     33  C   UNL A   1      44.988  28.068  32.611  1.00  0.00     0.049 A 
ATOM     34  H   UNL A   1      43.078  28.268  31.747  1.00  0.00     0.167 HD
ATOM     35  C   UNL A   1      44.996  26.342  30.811  1.00  0.00     0.074 A 
ATOM     36  C   UNL A   1      45.654  25.308  30.037  1.00  0.00     0.031 C 
ATOM     37  C   UNL A   1      45.577  26.999  31.846  1.00  0.00     0.034 A 
BRANCH  24  38
ATOM     38  C   UNL A   1      42.078  31.340  34.532  1.00  0.00     0.023 A 
ATOM     39  C   UNL A   1      41.628  30.937  35.804  1.00  0.00     0.012 A 
ATOM     40  C   UNL A   1      42.412  32.690  34.309  1.00  0.00     0.148 A 
ATOM     41  C   UNL A   1      41.501  31.866  36.837  1.00  0.00     0.002 A 
ATOM     42  C   UNL A   1      42.318  33.602  35.352  1.00  0.00     0.091 A 
ATOM     43  F   UNL A   1      42.817  33.052  33.083  1.00  0.00    -0.205 F 
ATOM     44  C   UNL A   1      41.854  33.194  36.614  1.00  0.00     0.022 A 
BRANCH  42  45
ATOM     45  S   UNL A   1      42.798  35.325  35.186  1.00  0.00     0.127 S 
ATOM     46  O   UNL A   1      41.838  35.806  34.193  1.00  0.00    -0.237 OA
ATOM     47  O   UNL A   1      42.579  35.831  36.541  1.00  0.00    -0.237 OA
ATOM     48  O   UNL A   1      44.185  35.319  34.744  1.00  0.00    -0.744 OA
ENDBRANCH  42  45
ENDBRANCH  24  38
BRANCH  25  49
ATOM     49  C   UNL A   1      42.612  24.373  27.234  1.00  0.00     0.023 A 
ATOM     50  C   UNL A   1      43.293  24.670  26.037  1.00  0.00     0.012 A 
ATOM     51  C   UNL A   1      42.039  23.094  27.389  1.00  0.00     0.148 A 
ATOM     52  C   UNL A   1      43.372  23.732  25.007  1.00  0.00     0.002 A 
ATOM     53  C   UNL A   1      42.173  22.143  26.382  1.00  0.00     0.091 A 
ATOM     54  F   UNL A   1      41.368  22.829  28.519  1.00  0.00    -0.205 F 
ATOM     55  C   UNL A   1      42.823  22.465  25.183  1.00  0.00     0.022 A 
BRANCH  53  56
ATOM     56  S   UNL A   1      41.610  20.448  26.587  1.00  0.00     0.127 S 
ATOM     57  O   UNL A   1      40.160  20.601  26.507  1.00  0.00    -0.237 OA
ATOM     58  O   UNL A   1      42.224  19.779  25.439  1.00  0.00    -0.237 OA
ATOM     59  O   UNL A   1      42.137  20.020  27.877  1.00  0.00    -0.744 OA
ENDBRANCH  53  56
ENDBRANCH  25  49
BRANCH  37  60
ATOM     60  C   UNL A   1      46.980  26.602  32.210  1.00  0.00     0.023 A 
ATOM     61  C   UNL A   1      47.190  25.604  33.181  1.00  0.00     0.012 A 
ATOM     62  C   UNL A   1      48.080  27.148  31.521  1.00  0.00     0.148 A 
ATOM     63  C   UNL A   1      48.481  25.175  33.483  1.00  0.00     0.002 A 
ATOM     64  C   UNL A   1      49.357  26.677  31.788  1.00  0.00     0.091 A 
ATOM     65  F   UNL A   1      47.855  28.112  30.617  1.00  0.00    -0.205 F 
ATOM     66  C   UNL A   1      49.562  25.700  32.776  1.00  0.00     0.022 A 
BRANCH  64  67
ATOM     67  S   UNL A   1      50.785  27.217  30.843  1.00  0.00     0.127 S 
ATOM     68  O   UNL A   1      50.875  28.627  31.218  1.00  0.00    -0.237 OA
ATOM     69  O   UNL A   1      51.853  26.373  31.379  1.00  0.00    -0.237 OA
ATOM     70  O   UNL A   1      50.458  26.956  29.448  1.00  0.00    -0.744 OA
ENDBRANCH  64  67
ENDBRANCH  37  60
ENDBRANCH  11  12
ENDBRANCH   4   6
ENDBRANCH   3   4
ENDBRANCH   2   3
ENDBRANCH   1   2
BRANCH   1  71
ATOM     71  O   UNL A   1      32.816  34.605  29.778  1.00  0.00    -0.374 OA
BRANCH  71  72
ATOM     72  C   UNL A   1      33.102  35.720  30.634  1.00  0.00     0.202 C 
BRANCH  72  73
ATOM     73  C   UNL A   1      33.586  35.197  31.987  1.00  0.00     0.261 C 
BRANCH  73  74
ATOM     74  O   UNL A   1      35.010  35.044  31.907  1.00  0.00    -0.460 OA
BRANCH  74  75
ATOM     75  C   UNL A   1      35.452  33.764  31.794  1.00  0.00     0.341 C 
ATOM     76  O   UNL A   1      34.812  32.740  31.849  1.00  0.00    -0.246 OA
BRANCH  75  77
ATOM     77  C   UNL A   1      36.847  33.829  31.324  1.00  0.00     0.095 A 
ATOM     78  C   UNL A   1      37.120  33.528  29.983  1.00  0.00     0.019 A 
ATOM     79  C   UNL A   1      37.870  34.245  32.164  1.00  0.00     0.138 A 
ATOM     80  C   UNL A   1      38.419  33.669  29.486  1.00  0.00     0.010 A 
ATOM     81  C   UNL A   1      39.164  34.371  31.676  1.00  0.00     0.049 A 
ATOM     82  F   UNL A   1      37.652  34.509  33.460  1.00  0.00    -0.206 F 
ATOM     83  C   UNL A   1      39.457  34.076  30.336  1.00  0.00    -0.015 A 
BRANCH  83  84
ATOM     84  C   UNL A   1      40.850  34.108  29.896  1.00  0.00    -0.018 A 
ATOM     85  C   UNL A   1      41.287  35.192  29.117  1.00  0.00     0.010 A 
ATOM     86  C   UNL A   1      41.734  33.051  30.147  1.00  0.00     0.010 A 
ATOM     87  C   UNL A   1      42.568  35.206  28.568  1.00  0.00     0.021 A 
ATOM     88  C   UNL A   1      43.021  33.065  29.597  1.00  0.00     0.021 A 
ATOM     89  C   UNL A   1      43.426  34.136  28.800  1.00  0.00     0.041 A 
ATOM     90  Cl  UNL A   1      44.987  34.128  28.080  1.00  0.00    -0.084 Cl
ENDBRANCH  83  84
ENDBRANCH  75  77
ENDBRANCH  74  75
ENDBRANCH  73  74
ENDBRANCH  72  73
ENDBRANCH  71  72
ENDBRANCH   1  71
TORSDOF 18
ENDMDL
MODEL 3
REMARK VINA RESULT:     -11.3      1.497      1.785
REMARK SMILES O=C(OCCOCCOC(=O)c1ccc(-c2ccc(Cl)cc2)cc1F)c1ccc(-c2c3nc(c(-c4cccc(S(=O)(=O)[O-])c4F)c4ccc([nH]4)c(-c4cccc(S(=O)(=O)[O-])c4F)c4nc(c(-c5cccc(S(=O)(=O)[O-])c5F)c5ccc2[nH]5)C=C4)C=C3)cc1
REMARK SMILES IDX 5 1 4 2 3 3 2 4 1 5 26 6 27 7 88 8 28 9 87 10 29 11 30 12
REMARK SMILES IDX 31 13 81 14 32 15 86 16 80 17 82 18 33 19 85 20 79 21 78 22
REMARK SMILES IDX 34 24 66 25 46 26 65 27 47 28 50 29 64 30 83 31 48 32 49 33
REMARK SMILES IDX 63 35 84 36 51 37 35 38 36 39 44 40 37 41 39 42 45 43 38 44
REMARK SMILES IDX 40 45 41 46 42 47 43 48 67 49 68 50 76 51 69 52 71 53 77 54
REMARK SMILES IDX 70 55 72 56 73 57 74 58 75 59 52 60 53 61 61 62 54 63 56 64
REMARK SMILES IDX 62 65 55 66 57 67 58 68 59 69 60 70 6 71 7 72 8 73 9 74
REMARK SMILES IDX 10 75 11 76 12 77 13 78 24 79 14 80 23 81 25 82 15 83 16 84
REMARK SMILES IDX 17 85 22 86 18 87 21 88 19 89 20 90
REMARK H PARENT 82 23 50 34
REMARK Flexibility Score: inf
ROOT
ATOM      1  C   UNL A   1      35.611  21.753  24.642  1.00  0.00     0.202 C 
ENDROOT
BRANCH   1   2
ATOM      2  C   UNL A   1      37.115  21.505  24.518  1.00  0.00     0.261 C 
BRANCH   2   3
ATOM      3  O   UNL A   1      37.703  21.415  25.824  1.00  0.00    -0.460 OA
BRANCH   3   4
ATOM      4  C   UNL A   1      39.004  21.528  26.173  1.00  0.00     0.338 C 
ATOM      5  O   UNL A   1      39.699  20.513  26.155  1.00  0.00    -0.246 OA
BRANCH   4   6
ATOM      6  C   UNL A   1      39.654  22.817  26.564  1.00  0.00     0.060 A 
ATOM      7  C   UNL A   1      39.243  24.089  26.151  1.00  0.00     0.016 A 
ATOM      8  C   UNL A   1      40.694  22.736  27.503  1.00  0.00     0.016 A 
ATOM      9  C   UNL A   1      39.860  25.243  26.615  1.00  0.00     0.010 A 
ATOM     10  C   UNL A   1      41.309  23.891  27.991  1.00  0.00     0.010 A 
ATOM     11  C   UNL A   1      40.894  25.146  27.535  1.00  0.00    -0.014 A 
BRANCH  11  12
ATOM     12  C   UNL A   1      41.597  26.370  27.939  1.00  0.00     0.031 A 
ATOM     13  C   UNL A   1      40.835  27.390  28.723  1.00  0.00     0.074 A 
ATOM     14  C   UNL A   1      42.902  26.516  27.648  1.00  0.00     0.049 A 
ATOM     15  N   UNL A   1      41.186  28.597  29.063  1.00  0.00    -0.248 NA
ATOM     16  C   UNL A   1      39.497  26.991  29.199  1.00  0.00     0.031 C 
ATOM     17  C   UNL A   1      43.736  25.510  26.986  1.00  0.00     0.029 A 
ATOM     18  N   UNL A   1      43.752  27.565  27.866  1.00  0.00    -0.354 N 
ATOM     19  C   UNL A   1      40.099  29.121  29.749  1.00  0.00     0.074 A 
ATOM     20  C   UNL A   1      39.082  28.096  29.802  1.00  0.00     0.031 C 
ATOM     21  C   UNL A   1      44.978  26.001  26.835  1.00  0.00     0.029 A 
ATOM     22  C   UNL A   1      45.005  27.371  27.331  1.00  0.00     0.049 A 
ATOM     23  H   UNL A   1      43.493  28.378  28.357  1.00  0.00     0.167 HD
ATOM     24  C   UNL A   1      39.972  30.359  30.276  1.00  0.00     0.034 A 
ATOM     25  C   UNL A   1      46.034  28.234  27.221  1.00  0.00     0.034 A 
ATOM     26  C   UNL A   1      41.009  31.347  30.205  1.00  0.00     0.049 A 
ATOM     27  C   UNL A   1      45.835  29.627  27.760  1.00  0.00     0.074 A 
ATOM     28  C   UNL A   1      40.984  32.658  30.637  1.00  0.00     0.029 A 
ATOM     29  N   UNL A   1      42.269  31.123  29.664  1.00  0.00    -0.354 N 
ATOM     30  N   UNL A   1      44.799  30.129  28.391  1.00  0.00    -0.248 NA
ATOM     31  C   UNL A   1      46.945  30.572  27.584  1.00  0.00     0.031 C 
ATOM     32  C   UNL A   1      42.226  33.231  30.346  1.00  0.00     0.029 A 
ATOM     33  C   UNL A   1      43.034  32.268  29.757  1.00  0.00     0.049 A 
ATOM     34  H   UNL A   1      42.572  30.271  29.272  1.00  0.00     0.167 HD
ATOM     35  C   UNL A   1      45.137  31.438  28.706  1.00  0.00     0.074 A 
ATOM     36  C   UNL A   1      46.490  31.640  28.226  1.00  0.00     0.031 C 
ATOM     37  C   UNL A   1      44.397  32.400  29.311  1.00  0.00     0.034 A 
BRANCH  24  38
ATOM     38  C   UNL A   1      38.676  30.704  30.953  1.00  0.00     0.023 A 
ATOM     39  C   UNL A   1      38.484  30.369  32.308  1.00  0.00     0.012 A 
ATOM     40  C   UNL A   1      37.668  31.402  30.260  1.00  0.00     0.148 A 
ATOM     41  C   UNL A   1      37.300  30.713  32.960  1.00  0.00     0.002 A 
ATOM     42  C   UNL A   1      36.508  31.773  30.927  1.00  0.00     0.091 A 
ATOM     43  F   UNL A   1      37.866  31.689  28.966  1.00  0.00    -0.205 F 
ATOM     44  C   UNL A   1      36.318  31.422  32.274  1.00  0.00     0.022 A 
BRANCH  42  45
ATOM     45  S   UNL A   1      35.203  32.734  30.151  1.00  0.00     0.127 S 
ATOM     46  O   UNL A   1      34.845  31.885  29.014  1.00  0.00    -0.237 OA
ATOM     47  O   UNL A   1      34.197  32.788  31.211  1.00  0.00    -0.237 OA
ATOM     48  O   UNL A   1      35.798  34.013  29.795  1.00  0.00    -0.744 OA
ENDBRANCH  42  45
ENDBRANCH  24  38
BRANCH  25  49
ATOM     49  C   UNL A   1      47.317  27.819  26.582  1.00  0.00     0.023 A 
ATOM     50  C   UNL A   1      48.377  27.363  27.388  1.00  0.00     0.012 A 
ATOM     51  C   UNL A   1      47.497  27.861  25.184  1.00  0.00     0.148 A 
ATOM     52  C   UNL A   1      49.598  26.992  26.823  1.00  0.00     0.002 A 
ATOM     53  C   UNL A   1      48.695  27.433  24.622  1.00  0.00     0.091 A 
ATOM     54  F   UNL A   1      46.492  28.323  24.425  1.00  0.00    -0.205 F 
ATOM     55  C   UNL A   1      49.754  27.016  25.440  1.00  0.00     0.022 A 
BRANCH  53  56
ATOM     56  S   UNL A   1      48.926  27.307  22.843  1.00  0.00     0.127 S 
ATOM     57  O   UNL A   1      50.382  27.328  22.727  1.00  0.00    -0.237 OA
ATOM     58  O   UNL A   1      48.302  26.017  22.543  1.00  0.00    -0.237 OA
ATOM     59  O   UNL A   1      48.224  28.454  22.280  1.00  0.00    -0.744 OA
ENDBRANCH  53  56
ENDBRANCH  25  49
BRANCH  37  60
ATOM     60  C   UNL A   1      45.044  33.743  29.506  1.00  0.00     0.023 A 
ATOM     61  C   UNL A   1      45.761  34.004  30.690  1.00  0.00     0.012 A 
ATOM     62  C   UNL A   1      45.020  34.704  28.477  1.00  0.00     0.148 A 
ATOM     63  C   UNL A   1      46.423  35.218  30.859  1.00  0.00     0.002 A 
ATOM     64  C   UNL A   1      45.727  35.888  28.631  1.00  0.00     0.091 A 
ATOM     65  F   UNL A   1      44.312  34.441  27.370  1.00  0.00    -0.205 F 
ATOM     66  C   UNL A   1      46.419  36.153  29.825  1.00  0.00     0.022 A 
BRANCH  64  67
ATOM     67  S   UNL A   1      45.867  37.089  27.305  1.00  0.00     0.127 S 
ATOM     68  O   UNL A   1      46.844  38.029  27.854  1.00  0.00    -0.237 OA
ATOM     69  O   UNL A   1      46.361  36.275  26.194  1.00  0.00    -0.237 OA
ATOM     70  O   UNL A   1      44.525  37.621  27.108  1.00  0.00    -0.744 OA
ENDBRANCH  64  67
ENDBRANCH  37  60
ENDBRANCH  11  12
ENDBRANCH   4   6
ENDBRANCH   3   4
ENDBRANCH   2   3
ENDBRANCH   1   2
BRANCH   1  71
ATOM     71  O   UNL A   1      34.845  20.591  24.955  1.00  0.00    -0.374 OA
BRANCH  71  72
ATOM     72  C   UNL A   1      33.493  20.816  25.379  1.00  0.00     0.202 C 
BRANCH  72  73
ATOM     73  C   UNL A   1      33.186  22.311  25.290  1.00  0.00     0.261 C 
BRANCH  73  74
ATOM     74  O   UNL A   1      32.102  22.476  24.365  1.00  0.00    -0.460 OA
BRANCH  74  75
ATOM     75  C   UNL A   1      32.439  23.018  23.165  1.00  0.00     0.341 C 
ATOM     76  O   UNL A   1      33.038  22.504  22.250  1.00  0.00    -0.246 OA
BRANCH  75  77
ATOM     77  C   UNL A   1      31.712  24.295  23.049  1.00  0.00     0.095 A 
ATOM     78  C   UNL A   1      30.511  24.452  23.754  1.00  0.00     0.019 A 
ATOM     79  C   UNL A   1      32.230  25.353  22.315  1.00  0.00     0.138 A 
ATOM     80  C   UNL A   1      29.847  25.682  23.737  1.00  0.00     0.010 A 
ATOM     81  C   UNL A   1      31.564  26.570  22.283  1.00  0.00     0.049 A 
ATOM     82  F   UNL A   1      33.357  25.227  21.602  1.00  0.00    -0.206 F 
ATOM     83  C   UNL A   1      30.361  26.748  22.985  1.00  0.00    -0.015 A 
BRANCH  83  84
ATOM     84  C   UNL A   1      29.634  28.006  22.828  1.00  0.00    -0.018 A 
ATOM     85  C   UNL A   1      30.321  29.125  22.329  1.00  0.00     0.010 A 
ATOM     86  C   UNL A   1      28.305  28.155  23.243  1.00  0.00     0.010 A 
ATOM     87  C   UNL A   1      29.709  30.376  22.281  1.00  0.00     0.021 A 
ATOM     88  C   UNL A   1      27.689  29.411  23.195  1.00  0.00     0.021 A 
ATOM     89  C   UNL A   1      28.399  30.516  22.725  1.00  0.00     0.041 A 
ATOM     90  Cl  UNL A   1      27.660  32.069  22.714  1.00  0.00    -0.084 Cl
ENDBRANCH  83  84
ENDBRANCH  75  77
ENDBRANCH  74  75
ENDBRANCH  73  74
ENDBRANCH  72  73
ENDBRANCH  71  72
ENDBRANCH   1  71
TORSDOF 18
ENDMDL
