MODEL 1
REMARK VINA RESULT:      -9.5      0.000      0.000
REMARK SMILES O=C(OCCOCCOC(=O)[C@H]1N=C(C2=C([O-])c3ccccc3C2=O)[C@H]2C(=O)N(c3ccccc3)C(=O)[C@@H]21)c1ccc(-c2c3nc(c(-c4cccc(S(=O)(=O)[O-])c4F)c4ccc([nH]4)c(-c4cccc(S(=O)(=O)[O-])c4F)c4nc(c(-c5cccc(S(=O)(=O)[O-])c5F)c5ccc2[nH]5)C=C4)C=C3)cc1
REMARK SMILES IDX 5 1 4 2 3 3 2 4 1 5 39 6 40 7 101 8 41 9 100 10 42 11 43 12
REMARK SMILES IDX 44 13 94 14 45 15 99 16 93 17 95 18 46 19 98 20 92 21 91 22
REMARK SMILES IDX 47 24 79 25 59 26 78 27 60 28 63 29 77 30 96 31 61 32 62 33
REMARK SMILES IDX 76 35 97 36 64 37 48 38 49 39 57 40 50 41 52 42 58 43 51 44
REMARK SMILES IDX 53 45 54 46 55 47 56 48 80 49 81 50 89 51 82 52 84 53 90 54
REMARK SMILES IDX 83 55 85 56 86 57 87 58 88 59 65 60 66 61 74 62 67 63 69 64
REMARK SMILES IDX 75 65 68 66 70 67 71 68 72 69 73 70 6 71 7 72 8 73 9 74
REMARK SMILES IDX 10 75 11 76 12 77 13 78 38 79 14 80 26 81 36 82 27 83 29 84
REMARK SMILES IDX 37 85 28 86 15 87 16 88 24 89 17 90 18 91 23 92 25 93 19 94
REMARK SMILES IDX 22 95 20 96 21 97 30 98 31 99 35 100 32 101 34 102 33 103
REMARK H PARENT 95 23 63 34
REMARK Flexibility Score: inf
ROOT
ATOM      1  C   UNL A   1      32.947  36.014  30.888  1.00  0.00     0.202 C 
ENDROOT
BRANCH   1   2
ATOM      2  C   UNL A   1      33.034  35.768  29.384  1.00  0.00     0.261 C 
BRANCH   2   3
ATOM      3  O   UNL A   1      32.728  34.403  29.054  1.00  0.00    -0.460 OA
BRANCH   3   4
ATOM      4  C   UNL A   1      33.492  33.456  28.461  1.00  0.00     0.338 C 
ATOM      5  O   UNL A   1      32.992  32.848  27.514  1.00  0.00    -0.246 OA
BRANCH   4   6
ATOM      6  C   UNL A   1      34.847  33.002  28.935  1.00  0.00     0.060 A 
ATOM      7  C   UNL A   1      35.951  33.491  28.208  1.00  0.00     0.016 A 
ATOM      8  C   UNL A   1      35.111  32.080  29.951  1.00  0.00     0.016 A 
ATOM      9  C   UNL A   1      37.247  33.023  28.448  1.00  0.00     0.010 A 
ATOM     10  C   UNL A   1      36.386  31.561  30.158  1.00  0.00     0.010 A 
ATOM     11  C   UNL A   1      37.461  32.038  29.416  1.00  0.00    -0.014 A 
BRANCH  11  12
ATOM     12  C   UNL A   1      38.812  31.684  29.871  1.00  0.00     0.031 A 
ATOM     13  C   UNL A   1      39.562  32.521  30.857  1.00  0.00     0.074 A 
ATOM     14  C   UNL A   1      39.385  30.650  29.228  1.00  0.00     0.049 A 
ATOM     15  N   UNL A   1      40.739  32.301  31.373  1.00  0.00    -0.248 NA
ATOM     16  C   UNL A   1      38.929  33.771  31.311  1.00  0.00     0.031 C 
ATOM     17  C   UNL A   1      38.749  29.890  28.144  1.00  0.00     0.029 A 
ATOM     18  N   UNL A   1      40.620  30.086  29.350  1.00  0.00    -0.354 N 
ATOM     19  C   UNL A   1      40.994  33.374  32.217  1.00  0.00     0.074 A 
ATOM     20  C   UNL A   1      39.857  34.263  32.128  1.00  0.00     0.031 C 
ATOM     21  C   UNL A   1      39.604  28.963  27.697  1.00  0.00     0.029 A 
ATOM     22  C   UNL A   1      40.835  29.056  28.467  1.00  0.00     0.049 A 
ATOM     23  H   UNL A   1      41.291  30.387  30.005  1.00  0.00     0.167 HD
ATOM     24  C   UNL A   1      42.080  33.567  33.002  1.00  0.00     0.034 A 
ATOM     25  C   UNL A   1      41.904  28.258  28.312  1.00  0.00     0.034 A 
ATOM     26  C   UNL A   1      43.190  32.650  33.044  1.00  0.00     0.049 A 
ATOM     27  C   UNL A   1      43.054  28.445  29.250  1.00  0.00     0.074 A 
ATOM     28  C   UNL A   1      44.297  32.678  33.872  1.00  0.00     0.029 A 
ATOM     29  N   UNL A   1      43.339  31.553  32.207  1.00  0.00    -0.354 N 
ATOM     30  N   UNL A   1      43.200  29.352  30.187  1.00  0.00    -0.248 NA
ATOM     31  C   UNL A   1      44.159  27.487  29.153  1.00  0.00     0.031 C 
ATOM     32  C   UNL A   1      45.125  31.608  33.522  1.00  0.00     0.029 A 
ATOM     33  C   UNL A   1      44.523  30.900  32.493  1.00  0.00     0.049 A 
ATOM     34  H   UNL A   1      42.697  31.281  31.513  1.00  0.00     0.167 HD
ATOM     35  C   UNL A   1      44.403  29.064  30.809  1.00  0.00     0.074 A 
ATOM     36  C   UNL A   1      44.941  27.890  30.147  1.00  0.00     0.031 C 
ATOM     37  C   UNL A   1      45.010  29.716  31.829  1.00  0.00     0.034 A 
BRANCH  24  38
ATOM     38  C   UNL A   1      42.107  34.742  33.943  1.00  0.00     0.023 A 
ATOM     39  C   UNL A   1      41.606  34.576  35.249  1.00  0.00     0.012 A 
ATOM     40  C   UNL A   1      42.769  35.941  33.605  1.00  0.00     0.148 A 
ATOM     41  C   UNL A   1      41.764  35.578  36.206  1.00  0.00     0.002 A 
ATOM     42  C   UNL A   1      42.945  36.927  34.573  1.00  0.00     0.091 A 
ATOM     43  F   UNL A   1      43.239  36.080  32.358  1.00  0.00    -0.205 F 
ATOM     44  C   UNL A   1      42.443  36.746  35.872  1.00  0.00     0.022 A 
BRANCH  42  45
ATOM     45  S   UNL A   1      43.848  38.451  34.269  1.00  0.00     0.127 S 
ATOM     46  O   UNL A   1      45.132  37.941  33.785  1.00  0.00    -0.237 OA
ATOM     47  O   UNL A   1      43.026  39.095  33.246  1.00  0.00    -0.237 OA
ATOM     48  O   UNL A   1      43.907  39.150  35.544  1.00  0.00    -0.744 OA
ENDBRANCH  42  45
ENDBRANCH  24  38
BRANCH  25  49
ATOM     49  C   UNL A   1      41.832  27.158  27.318  1.00  0.00     0.023 A 
ATOM     50  C   UNL A   1      42.393  27.354  26.043  1.00  0.00     0.012 A 
ATOM     51  C   UNL A   1      41.366  25.880  27.683  1.00  0.00     0.148 A 
ATOM     52  C   UNL A   1      42.491  26.294  25.143  1.00  0.00     0.002 A 
ATOM     53  C   UNL A   1      41.498  24.820  26.794  1.00  0.00     0.091 A 
ATOM     54  F   UNL A   1      40.854  25.720  28.912  1.00  0.00    -0.205 F 
ATOM     55  C   UNL A   1      42.055  25.026  25.521  1.00  0.00     0.022 A 
BRANCH  53  56
ATOM     56  S   UNL A   1      41.071  23.131  27.233  1.00  0.00     0.127 S 
ATOM     57  O   UNL A   1      41.863  22.932  28.446  1.00  0.00    -0.237 OA
ATOM     58  O   UNL A   1      39.628  23.230  27.450  1.00  0.00    -0.237 OA
ATOM     59  O   UNL A   1      41.455  22.314  26.091  1.00  0.00    -0.744 OA
ENDBRANCH  53  56
ENDBRANCH  25  49
BRANCH  37  60
ATOM     60  C   UNL A   1      46.327  29.178  32.302  1.00  0.00     0.023 A 
ATOM     61  C   UNL A   1      46.348  28.073  33.173  1.00  0.00     0.012 A 
ATOM     62  C   UNL A   1      47.531  29.684  31.776  1.00  0.00     0.148 A 
ATOM     63  C   UNL A   1      47.557  27.479  33.521  1.00  0.00     0.002 A 
ATOM     64  C   UNL A   1      48.728  29.064  32.100  1.00  0.00     0.091 A 
ATOM     65  F   UNL A   1      47.473  30.741  30.953  1.00  0.00    -0.205 F 
ATOM     66  C   UNL A   1      48.744  27.964  32.975  1.00  0.00     0.022 A 
BRANCH  64  67
ATOM     67  S   UNL A   1      50.298  29.569  31.393  1.00  0.00     0.127 S 
ATOM     68  O   UNL A   1      49.948  29.734  29.982  1.00  0.00    -0.237 OA
ATOM     69  O   UNL A   1      50.569  30.817  32.106  1.00  0.00    -0.237 OA
ATOM     70  O   UNL A   1      51.236  28.491  31.670  1.00  0.00    -0.744 OA
ENDBRANCH  64  67
ENDBRANCH  37  60
ENDBRANCH  11  12
ENDBRANCH   4   6
ENDBRANCH   3   4
ENDBRANCH   2   3
ENDBRANCH   1   2
BRANCH   1  71
ATOM     71  O   UNL A   1      33.080  34.822  31.656  1.00  0.00    -0.374 OA
BRANCH  71  72
ATOM     72  C   UNL A   1      33.823  34.922  32.867  1.00  0.00     0.202 C 
BRANCH  72  73
ATOM     73  C   UNL A   1      34.435  33.564  33.182  1.00  0.00     0.261 C 
BRANCH  73  74
ATOM     74  O   UNL A   1      35.138  33.633  34.427  1.00  0.00    -0.462 OA
BRANCH  74  75
ATOM     75  C   UNL A   1      36.476  33.924  34.494  1.00  0.00     0.331 C 
ATOM     76  O   UNL A   1      37.008  34.950  34.109  1.00  0.00    -0.250 OA
BRANCH  75  77
ATOM     77  C   UNL A   1      37.175  32.703  35.098  1.00  0.00     0.229 C 
ATOM     78  N   UNL A   1      38.392  32.166  34.353  1.00  0.00    -0.272 NA
ATOM     79  C   UNL A   1      37.825  33.126  36.364  1.00  0.00     0.134 C 
ATOM     80  C   UNL A   1      39.215  31.767  35.301  1.00  0.00     0.060 C 
ATOM     81  C   UNL A   1      38.732  31.991  36.688  1.00  0.00     0.144 C 
ATOM     82  C   UNL A   1      37.152  33.195  37.668  1.00  0.00     0.240 C 
ATOM     83  C   UNL A   1      39.331  32.619  37.902  1.00  0.00     0.243 C 
ATOM     84  N   UNL A   1      38.237  33.249  38.528  1.00  0.00    -0.250 N 
ATOM     85  O   UNL A   1      35.949  33.133  37.855  1.00  0.00    -0.274 OA
ATOM     86  O   UNL A   1      40.487  32.489  38.260  1.00  0.00    -0.273 OA
BRANCH  80  87
ATOM     87  C   UNL A   1      40.322  30.827  35.107  1.00  0.00     0.037 C 
ATOM     88  C   UNL A   1      40.163  29.769  34.293  1.00  0.00    -0.087 C 
ATOM     89  C   UNL A   1      41.674  30.725  35.701  1.00  0.00     0.194 C 
ATOM     90  O   UNL A   1      39.115  29.438  33.487  1.00  0.00    -0.871 OA
ATOM     91  C   UNL A   1      41.316  28.904  34.342  1.00  0.00    -0.022 A 
ATOM     92  C   UNL A   1      42.267  29.484  35.171  1.00  0.00     0.029 A 
ATOM     93  O   UNL A   1      42.193  31.488  36.490  1.00  0.00    -0.289 OA
ATOM     94  C   UNL A   1      41.550  27.691  33.717  1.00  0.00     0.008 A 
ATOM     95  C   UNL A   1      43.499  28.894  35.389  1.00  0.00     0.013 A 
ATOM     96  C   UNL A   1      42.782  27.071  33.927  1.00  0.00     0.001 A 
ATOM     97  C   UNL A   1      43.753  27.672  34.750  1.00  0.00     0.001 A 
ENDBRANCH  80  87
BRANCH  84  98
ATOM     98  C   UNL A   1      38.194  33.906  39.779  1.00  0.00     0.052 A 
ATOM     99  C   UNL A   1      37.590  33.315  40.891  1.00  0.00     0.027 A 
ATOM    100  C   UNL A   1      38.840  35.143  39.961  1.00  0.00     0.027 A 
ATOM    101  C   UNL A   1      37.623  33.947  42.140  1.00  0.00     0.002 A 
ATOM    102  C   UNL A   1      38.856  35.784  41.200  1.00  0.00     0.002 A 
ATOM    103  C   UNL A   1      38.245  35.184  42.291  1.00  0.00     0.000 A 
ENDBRANCH  84  98
ENDBRANCH  75  77
ENDBRANCH  74  75
ENDBRANCH  73  74
ENDBRANCH  72  73
ENDBRANCH  71  72
ENDBRANCH   1  71
TORSDOF 19
ENDMDL
MODEL 2
REMARK VINA RESULT:      -9.0      5.319     11.637
REMARK SMILES O=C(OCCOCCOC(=O)[C@H]1N=C(C2=C([O-])c3ccccc3C2=O)[C@H]2C(=O)N(c3ccccc3)C(=O)[C@@H]21)c1ccc(-c2c3nc(c(-c4cccc(S(=O)(=O)[O-])c4F)c4ccc([nH]4)c(-c4cccc(S(=O)(=O)[O-])c4F)c4nc(c(-c5cccc(S(=O)(=O)[O-])c5F)c5ccc2[nH]5)C=C4)C=C3)cc1
REMARK SMILES IDX 5 1 4 2 3 3 2 4 1 5 39 6 40 7 101 8 41 9 100 10 42 11 43 12
REMARK SMILES IDX 44 13 94 14 45 15 99 16 93 17 95 18 46 19 98 20 92 21 91 22
REMARK SMILES IDX 47 24 79 25 59 26 78 27 60 28 63 29 77 30 96 31 61 32 62 33
REMARK SMILES IDX 76 35 97 36 64 37 48 38 49 39 57 40 50 41 52 42 58 43 51 44
REMARK SMILES IDX 53 45 54 46 55 47 56 48 80 49 81 50 89 51 82 52 84 53 90 54
REMARK SMILES IDX 83 55 85 56 86 57 87 58 88 59 65 60 66 61 74 62 67 63 69 64
REMARK SMILES IDX 75 65 68 66 70 67 71 68 72 69 73 70 6 71 7 72 8 73 9 74
REMARK SMILES IDX 10 75 11 76 12 77 13 78 38 79 14 80 26 81 36 82 27 83 29 84
REMARK SMILES IDX 37 85 28 86 15 87 16 88 24 89 17 90 18 91 23 92 25 93 19 94
REMARK SMILES IDX 22 95 20 96 21 97 30 98 31 99 35 100 32 101 34 102 33 103
REMARK H PARENT 95 23 63 34
REMARK Flexibility Score: inf
ROOT
ATOM      1  C   UNL A   1      33.860  32.772  28.443  1.00  0.00     0.202 C 
ENDROOT
BRANCH   1   2
ATOM      2  C   UNL A   1      33.202  34.098  28.071  1.00  0.00     0.261 C 
BRANCH   2   3
ATOM      3  O   UNL A   1      32.663  34.763  29.226  1.00  0.00    -0.460 OA
BRANCH   3   4
ATOM      4  C   UNL A   1      33.207  34.965  30.449  1.00  0.00     0.338 C 
ATOM      5  O   UNL A   1      32.749  35.894  31.117  1.00  0.00    -0.246 OA
BRANCH   4   6
ATOM      6  C   UNL A   1      34.396  34.232  31.010  1.00  0.00     0.060 A 
ATOM      7  C   UNL A   1      35.655  34.626  30.515  1.00  0.00     0.016 A 
ATOM      8  C   UNL A   1      34.369  33.147  31.891  1.00  0.00     0.016 A 
ATOM      9  C   UNL A   1      36.819  33.921  30.838  1.00  0.00     0.010 A 
ATOM     10  C   UNL A   1      35.510  32.400  32.171  1.00  0.00     0.010 A 
ATOM     11  C   UNL A   1      36.741  32.790  31.655  1.00  0.00    -0.014 A 
BRANCH  11  12
ATOM     12  C   UNL A   1      37.944  32.158  32.214  1.00  0.00     0.031 A 
ATOM     13  C   UNL A   1      38.655  31.046  31.513  1.00  0.00     0.074 A 
ATOM     14  C   UNL A   1      38.268  32.540  33.463  1.00  0.00     0.049 A 
ATOM     15  N   UNL A   1      39.748  30.431  31.874  1.00  0.00    -0.248 NA
ATOM     16  C   UNL A   1      38.065  30.541  30.262  1.00  0.00     0.031 C 
ATOM     17  C   UNL A   1      37.511  33.517  34.256  1.00  0.00     0.029 A 
ATOM     18  N   UNL A   1      39.269  32.138  34.297  1.00  0.00    -0.354 N 
ATOM     19  C   UNL A   1      39.987  29.471  30.899  1.00  0.00     0.074 A 
ATOM     20  C   UNL A   1      38.910  29.566  29.938  1.00  0.00     0.031 C 
ATOM     21  C   UNL A   1      38.073  33.634  35.464  1.00  0.00     0.029 A 
ATOM     22  C   UNL A   1      39.231  32.752  35.525  1.00  0.00     0.049 A 
ATOM     23  H   UNL A   1      39.951  31.474  34.045  1.00  0.00     0.167 HD
ATOM     24  C   UNL A   1      41.030  28.613  30.826  1.00  0.00     0.034 A 
ATOM     25  C   UNL A   1      40.055  32.632  36.578  1.00  0.00     0.034 A 
ATOM     26  C   UNL A   1      42.072  28.556  31.819  1.00  0.00     0.049 A 
ATOM     27  C   UNL A   1      41.244  31.738  36.433  1.00  0.00     0.074 A 
ATOM     28  C   UNL A   1      43.234  27.808  31.805  1.00  0.00     0.029 A 
ATOM     29  N   UNL A   1      42.062  29.265  33.012  1.00  0.00    -0.354 N 
ATOM     30  N   UNL A   1      41.569  30.976  35.416  1.00  0.00    -0.248 NA
ATOM     31  C   UNL A   1      42.203  31.715  37.542  1.00  0.00     0.031 C 
ATOM     32  C   UNL A   1      43.917  28.049  33.000  1.00  0.00     0.029 A 
ATOM     33  C   UNL A   1      43.194  28.967  33.747  1.00  0.00     0.049 A 
ATOM     34  H   UNL A   1      41.354  29.888  33.294  1.00  0.00     0.167 HD
ATOM     35  C   UNL A   1      42.781  30.395  35.749  1.00  0.00     0.074 A 
ATOM     36  C   UNL A   1      43.138  30.904  37.060  1.00  0.00     0.031 C 
ATOM     37  C   UNL A   1      43.527  29.516  35.038  1.00  0.00     0.034 A 
BRANCH  24  38
ATOM     38  C   UNL A   1      41.171  27.729  29.614  1.00  0.00     0.023 A 
ATOM     39  C   UNL A   1      40.436  26.528  29.563  1.00  0.00     0.012 A 
ATOM     40  C   UNL A   1      41.882  28.153  28.472  1.00  0.00     0.148 A 
ATOM     41  C   UNL A   1      40.401  25.764  28.396  1.00  0.00     0.002 A 
ATOM     42  C   UNL A   1      41.822  27.397  27.304  1.00  0.00     0.091 A 
ATOM     43  F   UNL A   1      42.575  29.298  28.541  1.00  0.00    -0.205 F 
ATOM     44  C   UNL A   1      41.082  26.204  27.266  1.00  0.00     0.022 A 
BRANCH  42  45
ATOM     45  S   UNL A   1      42.619  27.894  25.771  1.00  0.00     0.127 S 
ATOM     46  O   UNL A   1      44.028  27.913  26.165  1.00  0.00    -0.237 OA
ATOM     47  O   UNL A   1      42.254  26.803  24.869  1.00  0.00    -0.237 OA
ATOM     48  O   UNL A   1      42.060  29.193  25.426  1.00  0.00    -0.744 OA
ENDBRANCH  42  45
ENDBRANCH  24  38
BRANCH  25  49
ATOM     49  C   UNL A   1      39.818  33.489  37.767  1.00  0.00     0.023 A 
ATOM     50  C   UNL A   1      40.323  34.801  37.774  1.00  0.00     0.012 A 
ATOM     51  C   UNL A   1      38.962  33.068  38.805  1.00  0.00     0.148 A 
ATOM     52  C   UNL A   1      39.982  35.685  38.797  1.00  0.00     0.002 A 
ATOM     53  C   UNL A   1      38.598  33.965  39.803  1.00  0.00     0.091 A 
ATOM     54  F   UNL A   1      38.481  31.818  38.761  1.00  0.00    -0.205 F 
ATOM     55  C   UNL A   1      39.112  35.272  39.804  1.00  0.00     0.022 A 
BRANCH  53  56
ATOM     56  S   UNL A   1      37.396  33.561  41.075  1.00  0.00     0.127 S 
ATOM     57  O   UNL A   1      36.278  33.063  40.276  1.00  0.00    -0.237 OA
ATOM     58  O   UNL A   1      38.104  32.540  41.847  1.00  0.00    -0.237 OA
ATOM     59  O   UNL A   1      37.149  34.801  41.797  1.00  0.00    -0.744 OA
ENDBRANCH  53  56
ENDBRANCH  25  49
BRANCH  37  60
ATOM     60  C   UNL A   1      44.809  29.045  35.655  1.00  0.00     0.023 A 
ATOM     61  C   UNL A   1      45.993  29.770  35.424  1.00  0.00     0.012 A 
ATOM     62  C   UNL A   1      44.806  27.970  36.564  1.00  0.00     0.148 A 
ATOM     63  C   UNL A   1      47.166  29.426  36.090  1.00  0.00     0.002 A 
ATOM     64  C   UNL A   1      45.970  27.656  37.249  1.00  0.00     0.091 A 
ATOM     65  F   UNL A   1      43.661  27.299  36.754  1.00  0.00    -0.205 F 
ATOM     66  C   UNL A   1      47.152  28.379  37.011  1.00  0.00     0.022 A 
BRANCH  64  67
ATOM     67  S   UNL A   1      46.034  26.375  38.504  1.00  0.00     0.127 S 
ATOM     68  O   UNL A   1      47.467  26.315  38.793  1.00  0.00    -0.237 OA
ATOM     69  O   UNL A   1      45.218  26.950  39.573  1.00  0.00    -0.237 OA
ATOM     70  O   UNL A   1      45.481  25.175  37.891  1.00  0.00    -0.744 OA
ENDBRANCH  64  67
ENDBRANCH  37  60
ENDBRANCH  11  12
ENDBRANCH   4   6
ENDBRANCH   3   4
ENDBRANCH   2   3
ENDBRANCH   1   2
BRANCH   1  71
ATOM     71  O   UNL A   1      34.642  32.223  27.387  1.00  0.00    -0.374 OA
BRANCH  71  72
ATOM     72  C   UNL A   1      35.739  31.398  27.768  1.00  0.00     0.202 C 
BRANCH  72  73
ATOM     73  C   UNL A   1      35.200  30.142  28.439  1.00  0.00     0.261 C 
BRANCH  73  74
ATOM     74  O   UNL A   1      34.868  29.171  27.441  1.00  0.00    -0.462 OA
BRANCH  74  75
ATOM     75  C   UNL A   1      33.573  28.928  27.063  1.00  0.00     0.331 C 
ATOM     76  O   UNL A   1      32.581  29.487  27.496  1.00  0.00    -0.250 OA
BRANCH  75  77
ATOM     77  C   UNL A   1      33.607  27.797  26.031  1.00  0.00     0.229 C 
ATOM     78  N   UNL A   1      33.609  26.372  26.570  1.00  0.00    -0.272 NA
ATOM     79  C   UNL A   1      32.307  27.792  25.313  1.00  0.00     0.134 C 
ATOM     80  C   UNL A   1      32.881  25.688  25.709  1.00  0.00     0.060 C 
ATOM     81  C   UNL A   1      32.310  26.488  24.595  1.00  0.00     0.144 C 
ATOM     82  C   UNL A   1      31.988  28.634  24.153  1.00  0.00     0.240 C 
ATOM     83  C   UNL A   1      30.940  26.630  24.021  1.00  0.00     0.243 C 
ATOM     84  N   UNL A   1      30.870  27.988  23.651  1.00  0.00    -0.250 N 
ATOM     85  O   UNL A   1      32.638  29.589  23.762  1.00  0.00    -0.274 OA
ATOM     86  O   UNL A   1      30.154  25.716  23.849  1.00  0.00    -0.273 OA
BRANCH  80  87
ATOM     87  C   UNL A   1      32.913  24.232  25.558  1.00  0.00     0.037 C 
ATOM     88  C   UNL A   1      34.072  23.618  25.263  1.00  0.00    -0.087 C 
ATOM     89  C   UNL A   1      31.859  23.191  25.593  1.00  0.00     0.194 C 
ATOM     90  O   UNL A   1      35.330  24.130  25.161  1.00  0.00    -0.871 OA
ATOM     91  C   UNL A   1      33.863  22.209  25.030  1.00  0.00    -0.022 A 
ATOM     92  C   UNL A   1      32.524  21.919  25.258  1.00  0.00     0.029 A 
ATOM     93  O   UNL A   1      30.678  23.345  25.822  1.00  0.00    -0.289 OA
ATOM     94  C   UNL A   1      34.757  21.225  24.647  1.00  0.00     0.008 A 
ATOM     95  C   UNL A   1      32.028  20.633  25.141  1.00  0.00     0.013 A 
ATOM     96  C   UNL A   1      34.281  19.920  24.515  1.00  0.00     0.001 A 
ATOM     97  C   UNL A   1      32.929  19.625  24.768  1.00  0.00     0.001 A 
ENDBRANCH  80  87
BRANCH  84  98
ATOM     98  C   UNL A   1      29.841  28.661  22.953  1.00  0.00     0.052 A 
ATOM     99  C   UNL A   1      28.494  28.418  23.233  1.00  0.00     0.027 A 
ATOM    100  C   UNL A   1      30.148  29.662  22.013  1.00  0.00     0.027 A 
ATOM    101  C   UNL A   1      27.489  29.148  22.585  1.00  0.00     0.002 A 
ATOM    102  C   UNL A   1      29.148  30.375  21.352  1.00  0.00     0.002 A 
ATOM    103  C   UNL A   1      27.817  30.116  21.638  1.00  0.00     0.000 A 
ENDBRANCH  84  98
ENDBRANCH  75  77
ENDBRANCH  74  75
ENDBRANCH  73  74
ENDBRANCH  72  73
ENDBRANCH  71  72
ENDBRANCH   1  71
TORSDOF 19
ENDMDL
MODEL 3
REMARK VINA RESULT:      -8.9      5.111      9.587
REMARK SMILES O=C(OCCOCCOC(=O)[C@H]1N=C(C2=C([O-])c3ccccc3C2=O)[C@H]2C(=O)N(c3ccccc3)C(=O)[C@@H]21)c1ccc(-c2c3nc(c(-c4cccc(S(=O)(=O)[O-])c4F)c4ccc([nH]4)c(-c4cccc(S(=O)(=O)[O-])c4F)c4nc(c(-c5cccc(S(=O)(=O)[O-])c5F)c5ccc2[nH]5)C=C4)C=C3)cc1
REMARK SMILES IDX 5 1 4 2 3 3 2 4 1 5 39 6 40 7 101 8 41 9 100 10 42 11 43 12
REMARK SMILES IDX 44 13 94 14 45 15 99 16 93 17 95 18 46 19 98 20 92 21 91 22
REMARK SMILES IDX 47 24 79 25 59 26 78 27 60 28 63 29 77 30 96 31 61 32 62 33
REMARK SMILES IDX 76 35 97 36 64 37 48 38 49 39 57 40 50 41 52 42 58 43 51 44
REMARK SMILES IDX 53 45 54 46 55 47 56 48 80 49 81 50 89 51 82 52 84 53 90 54
REMARK SMILES IDX 83 55 85 56 86 57 87 58 88 59 65 60 66 61 74 62 67 63 69 64
REMARK SMILES IDX 75 65 68 66 70 67 71 68 72 69 73 70 6 71 7 72 8 73 9 74
REMARK SMILES IDX 10 75 11 76 12 77 13 78 38 79 14 80 26 81 36 82 27 83 29 84
REMARK SMILES IDX 37 85 28 86 15 87 16 88 24 89 17 90 18 91 23 92 25 93 19 94
REMARK SMILES IDX 22 95 20 96 21 97 30 98 31 99 35 100 32 101 34 102 33 103
REMARK H PARENT 95 23 63 34
REMARK Flexibility Score: inf
ROOT
ATOM      1  C   UNL A   1      34.178  32.741  28.554  1.00  0.00     0.202 C 
ENDROOT
BRANCH   1   2
ATOM      2  C   UNL A   1      33.478  34.058  28.231  1.00  0.00     0.261 C 
BRANCH   2   3
ATOM      3  O   UNL A   1      32.816  34.602  29.385  1.00  0.00    -0.460 OA
BRANCH   3   4
ATOM      4  C   UNL A   1      33.259  34.751  30.655  1.00  0.00     0.338 C 
ATOM      5  O   UNL A   1      32.613  35.504  31.386  1.00  0.00    -0.246 OA
BRANCH   4   6
ATOM      6  C   UNL A   1      34.532  34.173  31.211  1.00  0.00     0.060 A 
ATOM      7  C   UNL A   1      34.382  33.210  32.229  1.00  0.00     0.016 A 
ATOM      8  C   UNL A   1      35.836  34.562  30.890  1.00  0.00     0.016 A 
ATOM      9  C   UNL A   1      35.484  32.714  32.933  1.00  0.00     0.010 A 
ATOM     10  C   UNL A   1      36.934  34.123  31.625  1.00  0.00     0.010 A 
ATOM     11  C   UNL A   1      36.765  33.190  32.641  1.00  0.00    -0.014 A 
BRANCH  11  12
ATOM     12  C   UNL A   1      37.969  32.541  33.176  1.00  0.00     0.031 A 
ATOM     13  C   UNL A   1      38.680  33.058  34.385  1.00  0.00     0.074 A 
ATOM     14  C   UNL A   1      38.474  31.550  32.419  1.00  0.00     0.049 A 
ATOM     15  N   UNL A   1      39.724  32.558  34.985  1.00  0.00    -0.248 NA
ATOM     16  C   UNL A   1      38.175  34.301  34.992  1.00  0.00     0.031 C 
ATOM     17  C   UNL A   1      37.901  31.104  31.142  1.00  0.00     0.029 A 
ATOM     18  N   UNL A   1      39.584  30.772  32.575  1.00  0.00    -0.354 N 
ATOM     19  C   UNL A   1      40.005  33.413  36.043  1.00  0.00     0.074 A 
ATOM     20  C   UNL A   1      39.033  34.483  35.992  1.00  0.00     0.031 C 
ATOM     21  C   UNL A   1      38.669  30.136  30.629  1.00  0.00     0.029 A 
ATOM     22  C   UNL A   1      39.775  29.887  31.543  1.00  0.00     0.049 A 
ATOM     23  H   UNL A   1      40.188  30.839  33.349  1.00  0.00     0.167 HD
ATOM     24  C   UNL A   1      40.981  33.282  36.972  1.00  0.00     0.034 A 
ATOM     25  C   UNL A   1      40.728  28.958  31.364  1.00  0.00     0.034 A 
ATOM     26  C   UNL A   1      41.928  32.198  36.968  1.00  0.00     0.049 A 
ATOM     27  C   UNL A   1      41.743  28.785  32.449  1.00  0.00     0.074 A 
ATOM     28  C   UNL A   1      42.894  31.896  37.910  1.00  0.00     0.029 A 
ATOM     29  N   UNL A   1      42.038  31.250  35.960  1.00  0.00    -0.354 N 
ATOM     30  N   UNL A   1      41.879  29.481  33.553  1.00  0.00    -0.248 NA
ATOM     31  C   UNL A   1      42.699  27.685  32.301  1.00  0.00     0.031 C 
ATOM     32  C   UNL A   1      43.601  30.778  37.461  1.00  0.00     0.029 A 
ATOM     33  C   UNL A   1      43.060  30.367  36.252  1.00  0.00     0.049 A 
ATOM     34  H   UNL A   1      41.472  31.213  35.156  1.00  0.00     0.167 HD
ATOM     35  C   UNL A   1      42.924  28.893  34.245  1.00  0.00     0.074 A 
ATOM     36  C   UNL A   1      43.378  27.775  33.439  1.00  0.00     0.031 C 
ATOM     37  C   UNL A   1      43.463  29.249  35.436  1.00  0.00     0.034 A 
BRANCH  24  38
ATOM     38  C   UNL A   1      41.040  34.258  38.117  1.00  0.00     0.023 A 
ATOM     39  C   UNL A   1      41.771  35.452  37.953  1.00  0.00     0.012 A 
ATOM     40  C   UNL A   1      40.251  34.085  39.274  1.00  0.00     0.148 A 
ATOM     41  C   UNL A   1      41.715  36.459  38.916  1.00  0.00     0.002 A 
ATOM     42  C   UNL A   1      40.182  35.105  40.219  1.00  0.00     0.091 A 
ATOM     43  F   UNL A   1      39.563  32.943  39.411  1.00  0.00    -0.205 F 
ATOM     44  C   UNL A   1      40.912  36.291  40.041  1.00  0.00     0.022 A 
BRANCH  42  45
ATOM     45  S   UNL A   1      39.140  35.019  41.682  1.00  0.00     0.127 S 
ATOM     46  O   UNL A   1      39.807  33.972  42.456  1.00  0.00    -0.237 OA
ATOM     47  O   UNL A   1      39.278  36.365  42.235  1.00  0.00    -0.237 OA
ATOM     48  O   UNL A   1      37.806  34.679  41.211  1.00  0.00    -0.744 OA
ENDBRANCH  42  45
ENDBRANCH  24  38
BRANCH  25  49
ATOM     49  C   UNL A   1      40.645  28.072  30.176  1.00  0.00     0.023 A 
ATOM     50  C   UNL A   1      39.605  27.128  30.102  1.00  0.00     0.012 A 
ATOM     51  C   UNL A   1      41.481  28.274  29.060  1.00  0.00     0.148 A 
ATOM     52  C   UNL A   1      39.398  26.395  28.934  1.00  0.00     0.002 A 
ATOM     53  C   UNL A   1      41.246  27.565  27.888  1.00  0.00     0.091 A 
ATOM     54  F   UNL A   1      42.451  29.195  29.155  1.00  0.00    -0.205 F 
ATOM     55  C   UNL A   1      40.209  26.621  27.825  1.00  0.00     0.022 A 
BRANCH  53  56
ATOM     56  S   UNL A   1      42.164  27.870  26.374  1.00  0.00     0.127 S 
ATOM     57  O   UNL A   1      41.864  29.279  26.125  1.00  0.00    -0.237 OA
ATOM     58  O   UNL A   1      43.539  27.599  26.794  1.00  0.00    -0.237 OA
ATOM     59  O   UNL A   1      41.637  26.932  25.394  1.00  0.00    -0.744 OA
ENDBRANCH  53  56
ENDBRANCH  25  49
BRANCH  37  60
ATOM     60  C   UNL A   1      44.604  28.424  35.948  1.00  0.00     0.023 A 
ATOM     61  C   UNL A   1      44.336  27.295  36.744  1.00  0.00     0.012 A 
ATOM     62  C   UNL A   1      45.921  28.694  35.529  1.00  0.00     0.148 A 
ATOM     63  C   UNL A   1      45.370  26.443  37.122  1.00  0.00     0.002 A 
ATOM     64  C   UNL A   1      46.939  27.821  35.880  1.00  0.00     0.091 A 
ATOM     65  F   UNL A   1      46.139  29.782  34.776  1.00  0.00    -0.205 F 
ATOM     66  C   UNL A   1      46.668  26.698  36.680  1.00  0.00     0.022 A 
BRANCH  64  67
ATOM     67  S   UNL A   1      48.626  28.024  35.302  1.00  0.00     0.127 S 
ATOM     68  O   UNL A   1      49.013  29.276  35.952  1.00  0.00    -0.237 OA
ATOM     69  O   UNL A   1      49.280  26.830  35.835  1.00  0.00    -0.237 OA
ATOM     70  O   UNL A   1      48.554  28.084  33.848  1.00  0.00    -0.744 OA
ENDBRANCH  64  67
ENDBRANCH  37  60
ENDBRANCH  11  12
ENDBRANCH   4   6
ENDBRANCH   3   4
ENDBRANCH   2   3
ENDBRANCH   1   2
BRANCH   1  71
ATOM     71  O   UNL A   1      34.977  32.256  27.479  1.00  0.00    -0.374 OA
BRANCH  71  72
ATOM     72  C   UNL A   1      36.029  31.359  27.820  1.00  0.00     0.202 C 
BRANCH  72  73
ATOM     73  C   UNL A   1      35.424  30.101  28.430  1.00  0.00     0.261 C 
BRANCH  73  74
ATOM     74  O   UNL A   1      35.073  29.185  27.387  1.00  0.00    -0.462 OA
BRANCH  74  75
ATOM     75  C   UNL A   1      33.784  29.047  26.942  1.00  0.00     0.331 C 
ATOM     76  O   UNL A   1      32.823  29.701  27.309  1.00  0.00    -0.250 OA
BRANCH  75  77
ATOM     77  C   UNL A   1      33.772  27.893  25.936  1.00  0.00     0.229 C 
ATOM     78  N   UNL A   1      33.776  26.480  26.508  1.00  0.00    -0.272 NA
ATOM     79  C   UNL A   1      32.450  27.886  25.261  1.00  0.00     0.134 C 
ATOM     80  C   UNL A   1      33.015  25.786  25.687  1.00  0.00     0.060 C 
ATOM     81  C   UNL A   1      32.417  26.566  24.573  1.00  0.00     0.144 C 
ATOM     82  C   UNL A   1      32.103  28.705  24.092  1.00  0.00     0.240 C 
ATOM     83  C   UNL A   1      31.030  26.710  24.039  1.00  0.00     0.243 C 
ATOM     84  N   UNL A   1      30.963  28.060  23.641  1.00  0.00    -0.250 N 
ATOM     85  O   UNL A   1      32.751  29.643  23.659  1.00  0.00    -0.274 OA
ATOM     86  O   UNL A   1      30.230  25.801  23.914  1.00  0.00    -0.273 OA
BRANCH  80  87
ATOM     87  C   UNL A   1      33.026  24.326  25.569  1.00  0.00     0.037 C 
ATOM     88  C   UNL A   1      34.167  23.692  25.246  1.00  0.00    -0.087 C 
ATOM     89  C   UNL A   1      31.965  23.298  25.667  1.00  0.00     0.194 C 
ATOM     90  O   UNL A   1      35.426  24.189  25.086  1.00  0.00    -0.871 OA
ATOM     91  C   UNL A   1      33.936  22.281  25.053  1.00  0.00    -0.022 A 
ATOM     92  C   UNL A   1      32.604  22.011  25.336  1.00  0.00     0.029 A 
ATOM     93  O   UNL A   1      30.794  23.470  25.935  1.00  0.00    -0.289 OA
ATOM     94  C   UNL A   1      34.806  21.279  24.661  1.00  0.00     0.008 A 
ATOM     95  C   UNL A   1      32.091  20.728  25.268  1.00  0.00     0.013 A 
ATOM     96  C   UNL A   1      34.312  19.977  24.576  1.00  0.00     0.001 A 
ATOM     97  C   UNL A   1      32.967  19.702  24.886  1.00  0.00     0.001 A 
ENDBRANCH  80  87
BRANCH  84  98
ATOM     98  C   UNL A   1      29.919  28.728  22.960  1.00  0.00     0.052 A 
ATOM     99  C   UNL A   1      28.578  28.481  23.264  1.00  0.00     0.027 A 
ATOM    100  C   UNL A   1      30.206  29.730  22.014  1.00  0.00     0.027 A 
ATOM    101  C   UNL A   1      27.560  29.207  22.633  1.00  0.00     0.002 A 
ATOM    102  C   UNL A   1      29.192  30.438  21.370  1.00  0.00     0.002 A 
ATOM    103  C   UNL A   1      27.866  30.174  21.680  1.00  0.00     0.000 A 
ENDBRANCH  84  98
ENDBRANCH  75  77
ENDBRANCH  74  75
ENDBRANCH  73  74
ENDBRANCH  72  73
ENDBRANCH  71  72
ENDBRANCH   1  71
TORSDOF 19
ENDMDL
