MODEL 1
REMARK VINA RESULT:     -10.5      0.000      0.000
REMARK SMILES C#CCN(CC(=O)OCCOCCOC(=O)c1ccc(-c2c3nc(c(-c4cccc(S(=O)(=O)[O-])c4F)c4ccc([nH]4)c(-c4cccc(S(=O)(=O)[O-])c4F)c4nc(c(-c5cccc(S(=O)(=O)[O-])c5F)c5ccc2[nH]5)C=C4)C=C3)cc1)C(=O)c1cc([N+](=O)[O-])c(F)cc1F
REMARK SMILES IDX 10 1 9 2 8 3 6 4 7 5 5 6 4 7 3 8 2 9 1 10 80 11 81 12 82 13
REMARK SMILES IDX 83 14 91 15 84 16 90 17 92 18 88 19 89 20 85 21 86 22 87 23
REMARK SMILES IDX 11 24 12 25 13 26 14 27 15 28 16 29 17 30 18 31 79 32 19 33
REMARK SMILES IDX 78 34 20 35 21 36 22 37 72 38 23 39 77 40 71 41 73 42 24 43
REMARK SMILES IDX 76 44 70 45 69 46 25 48 57 49 37 50 56 51 38 52 41 53 55 54
REMARK SMILES IDX 74 55 39 56 40 57 54 59 75 60 42 61 26 62 27 63 35 64 28 65
REMARK SMILES IDX 30 66 36 67 29 68 31 69 32 70 33 71 34 72 58 73 59 74 67 75
REMARK SMILES IDX 60 76 62 77 68 78 61 79 63 80 64 81 65 82 66 83 43 84 44 85
REMARK SMILES IDX 52 86 45 87 47 88 53 89 46 90 48 91 49 92 50 93 51 94
REMARK H PARENT 73 47 41 58
REMARK Flexibility Score: inf
ROOT
ATOM      1  C   UNL A   1      31.804  27.181  25.742  1.00  0.00     0.202 C 
ENDROOT
BRANCH   1   2
ATOM      2  C   UNL A   1      32.995  26.214  25.652  1.00  0.00     0.261 C 
BRANCH   2   3
ATOM      3  O   UNL A   1      33.508  26.140  24.298  1.00  0.00    -0.462 OA
BRANCH   3   4
ATOM      4  C   UNL A   1      33.132  25.031  23.599  1.00  0.00     0.325 C 
ATOM      5  O   UNL A   1      31.966  24.697  23.412  1.00  0.00    -0.250 OA
BRANCH   4   6
ATOM      6  C   UNL A   1      34.311  24.230  23.015  1.00  0.00     0.243 C 
BRANCH   6   7
ATOM      7  N   UNL A   1      34.774  23.053  23.756  1.00  0.00    -0.316 N 
BRANCH   7   8
ATOM      8  C   UNL A   1      36.226  22.758  23.660  1.00  0.00     0.210 C 
BRANCH   8   9
ATOM      9  C   UNL A   1      36.864  23.301  24.928  1.00  0.00    -0.085 C 
ATOM     10  C   UNL A   1      37.412  23.766  26.016  1.00  0.00     0.006 C 
ENDBRANCH   8   9
ENDBRANCH   7   8
BRANCH   7  11
ATOM     11  C   UNL A   1      34.032  22.207  24.594  1.00  0.00     0.258 C 
ATOM     12  O   UNL A   1      33.798  22.556  25.758  1.00  0.00    -0.269 OA
BRANCH  11  13
ATOM     13  C   UNL A   1      33.410  20.883  24.240  1.00  0.00     0.082 A 
ATOM     14  C   UNL A   1      34.088  19.743  24.750  1.00  0.00     0.105 A 
ATOM     15  C   UNL A   1      32.388  20.643  23.321  1.00  0.00     0.139 A 
ATOM     16  C   UNL A   1      33.803  18.449  24.277  1.00  0.00     0.305 A 
ATOM     17  C   UNL A   1      32.102  19.353  22.855  1.00  0.00     0.086 A 
ATOM     18  F   UNL A   1      31.697  21.626  22.743  1.00  0.00    -0.206 F 
ATOM     19  C   UNL A   1      32.822  18.260  23.317  1.00  0.00     0.203 A 
ATOM     20  F   UNL A   1      32.534  17.054  22.811  1.00  0.00    -0.199 F 
BRANCH  16  21
ATOM     21  N   UNL A   1      34.568  17.312  24.772  1.00  0.00     0.065 N 
ATOM     22  O   UNL A   1      35.790  17.469  24.900  1.00  0.00    -0.258 OA
ATOM     23  O   UNL A   1      33.961  16.267  25.032  1.00  0.00    -0.258 OA
ENDBRANCH  16  21
ENDBRANCH  11  13
ENDBRANCH   7  11
ENDBRANCH   6   7
ENDBRANCH   4   6
ENDBRANCH   3   4
ENDBRANCH   2   3
ENDBRANCH   1   2
BRANCH   1  24
ATOM     24  O   UNL A   1      32.084  28.460  26.334  1.00  0.00    -0.374 OA
BRANCH  24  25
ATOM     25  C   UNL A   1      31.849  29.594  25.509  1.00  0.00     0.202 C 
BRANCH  25  26
ATOM     26  C   UNL A   1      31.825  30.959  26.204  1.00  0.00     0.261 C 
BRANCH  26  27
ATOM     27  O   UNL A   1      32.547  30.948  27.428  1.00  0.00    -0.460 OA
BRANCH  27  28
ATOM     28  C   UNL A   1      33.292  32.060  27.602  1.00  0.00     0.338 C 
ATOM     29  O   UNL A   1      32.897  33.216  27.684  1.00  0.00    -0.246 OA
BRANCH  28  30
ATOM     30  C   UNL A   1      34.671  31.668  27.898  1.00  0.00     0.060 A 
ATOM     31  C   UNL A   1      34.894  30.301  28.096  1.00  0.00     0.016 A 
ATOM     32  C   UNL A   1      35.707  32.600  28.008  1.00  0.00     0.016 A 
ATOM     33  C   UNL A   1      36.144  29.867  28.501  1.00  0.00     0.010 A 
ATOM     34  C   UNL A   1      36.966  32.159  28.412  1.00  0.00     0.010 A 
ATOM     35  C   UNL A   1      37.165  30.802  28.714  1.00  0.00    -0.014 A 
BRANCH  35  36
ATOM     36  C   UNL A   1      38.369  30.347  29.435  1.00  0.00     0.031 A 
ATOM     37  C   UNL A   1      38.561  30.789  30.857  1.00  0.00     0.074 A 
ATOM     38  C   UNL A   1      39.223  29.493  28.850  1.00  0.00     0.049 A 
ATOM     39  N   UNL A   1      39.459  30.408  31.724  1.00  0.00    -0.248 NA
ATOM     40  C   UNL A   1      37.613  31.793  31.371  1.00  0.00     0.031 C 
ATOM     41  C   UNL A   1      39.129  29.025  27.468  1.00  0.00     0.029 A 
ATOM     42  N   UNL A   1      40.340  28.876  29.344  1.00  0.00    -0.354 N 
ATOM     43  C   UNL A   1      39.199  31.136  32.878  1.00  0.00     0.074 A 
ATOM     44  C   UNL A   1      38.073  31.998  32.595  1.00  0.00     0.031 C 
ATOM     45  C   UNL A   1      40.163  28.206  27.217  1.00  0.00     0.029 A 
ATOM     46  C   UNL A   1      40.989  28.099  28.419  1.00  0.00     0.049 A 
ATOM     47  H   UNL A   1      40.647  28.979  30.273  1.00  0.00     0.167 HD
ATOM     48  C   UNL A   1      39.831  31.076  34.073  1.00  0.00     0.034 A 
ATOM     49  C   UNL A   1      42.126  27.387  28.532  1.00  0.00     0.034 A 
ATOM     50  C   UNL A   1      40.939  30.203  34.340  1.00  0.00     0.049 A 
ATOM     51  C   UNL A   1      42.799  27.313  29.875  1.00  0.00     0.074 A 
ATOM     52  C   UNL A   1      41.619  30.009  35.528  1.00  0.00     0.029 A 
ATOM     53  N   UNL A   1      41.544  29.387  33.393  1.00  0.00    -0.354 N 
ATOM     54  N   UNL A   1      42.452  27.888  31.003  1.00  0.00    -0.248 NA
ATOM     55  C   UNL A   1      43.991  26.459  29.977  1.00  0.00     0.031 C 
ATOM     56  C   UNL A   1      42.656  29.099  35.292  1.00  0.00     0.029 A 
ATOM     57  C   UNL A   1      42.602  28.703  33.963  1.00  0.00     0.049 A 
ATOM     58  H   UNL A   1      41.261  29.308  32.454  1.00  0.00     0.167 HD
ATOM     59  C   UNL A   1      43.366  27.449  31.954  1.00  0.00     0.074 A 
ATOM     60  C   UNL A   1      44.266  26.538  31.274  1.00  0.00     0.031 C 
ATOM     61  C   UNL A   1      43.462  27.776  33.268  1.00  0.00     0.034 A 
BRANCH  48  62
ATOM     62  C   UNL A   1      39.322  31.972  35.170  1.00  0.00     0.023 A 
ATOM     63  C   UNL A   1      38.324  31.507  36.052  1.00  0.00     0.012 A 
ATOM     64  C   UNL A   1      39.835  33.273  35.334  1.00  0.00     0.148 A 
ATOM     65  C   UNL A   1      37.817  32.336  37.053  1.00  0.00     0.002 A 
ATOM     66  C   UNL A   1      39.355  34.078  36.361  1.00  0.00     0.091 A 
ATOM     67  F   UNL A   1      40.759  33.711  34.467  1.00  0.00    -0.205 F 
ATOM     68  C   UNL A   1      38.338  33.617  37.213  1.00  0.00     0.022 A 
BRANCH  66  69
ATOM     69  S   UNL A   1      40.017  35.715  36.687  1.00  0.00     0.127 S 
ATOM     70  O   UNL A   1      39.336  36.069  37.931  1.00  0.00    -0.237 OA
ATOM     71  O   UNL A   1      41.448  35.449  36.830  1.00  0.00    -0.237 OA
ATOM     72  O   UNL A   1      39.668  36.523  35.526  1.00  0.00    -0.744 OA
ENDBRANCH  66  69
ENDBRANCH  48  62
BRANCH  49  73
ATOM     73  C   UNL A   1      42.652  26.661  27.343  1.00  0.00     0.023 A 
ATOM     74  C   UNL A   1      43.551  27.298  26.468  1.00  0.00     0.012 A 
ATOM     75  C   UNL A   1      42.320  25.309  27.126  1.00  0.00     0.148 A 
ATOM     76  C   UNL A   1      44.099  26.605  25.387  1.00  0.00     0.002 A 
ATOM     77  C   UNL A   1      42.914  24.608  26.084  1.00  0.00     0.091 A 
ATOM     78  F   UNL A   1      41.450  24.727  27.963  1.00  0.00    -0.205 F 
ATOM     79  C   UNL A   1      43.792  25.258  25.204  1.00  0.00     0.022 A 
BRANCH  77  80
ATOM     80  S   UNL A   1      42.692  22.838  25.866  1.00  0.00     0.127 S 
ATOM     81  O   UNL A   1      43.460  22.300  26.986  1.00  0.00    -0.237 OA
ATOM     82  O   UNL A   1      41.240  22.700  25.991  1.00  0.00    -0.237 OA
ATOM     83  O   UNL A   1      43.209  22.536  24.539  1.00  0.00    -0.744 OA
ENDBRANCH  77  80
ENDBRANCH  49  73
BRANCH  61  84
ATOM     84  C   UNL A   1      44.572  27.140  34.061  1.00  0.00     0.023 A 
ATOM     85  C   UNL A   1      45.858  27.714  34.044  1.00  0.00     0.012 A 
ATOM     86  C   UNL A   1      44.322  26.023  34.882  1.00  0.00     0.148 A 
ATOM     87  C   UNL A   1      46.888  27.167  34.809  1.00  0.00     0.002 A 
ATOM     88  C   UNL A   1      45.340  25.514  35.679  1.00  0.00     0.091 A 
ATOM     89  F   UNL A   1      43.096  25.479  34.869  1.00  0.00    -0.205 F 
ATOM     90  C   UNL A   1      46.626  26.076  35.634  1.00  0.00     0.022 A 
BRANCH  88  91
ATOM     91  S   UNL A   1      45.063  24.174  36.843  1.00  0.00     0.127 S 
ATOM     92  O   UNL A   1      43.853  24.623  37.531  1.00  0.00    -0.237 OA
ATOM     93  O   UNL A   1      44.870  23.026  35.957  1.00  0.00    -0.237 OA
ATOM     94  O   UNL A   1      46.264  24.104  37.665  1.00  0.00    -0.744 OA
ENDBRANCH  88  91
ENDBRANCH  61  84
ENDBRANCH  35  36
ENDBRANCH  28  30
ENDBRANCH  27  28
ENDBRANCH  26  27
ENDBRANCH  25  26
ENDBRANCH  24  25
ENDBRANCH   1  24
TORSDOF 23
ENDMDL
MODEL 2
REMARK VINA RESULT:     -10.5      4.998     10.392
REMARK SMILES C#CCN(CC(=O)OCCOCCOC(=O)c1ccc(-c2c3nc(c(-c4cccc(S(=O)(=O)[O-])c4F)c4ccc([nH]4)c(-c4cccc(S(=O)(=O)[O-])c4F)c4nc(c(-c5cccc(S(=O)(=O)[O-])c5F)c5ccc2[nH]5)C=C4)C=C3)cc1)C(=O)c1cc([N+](=O)[O-])c(F)cc1F
REMARK SMILES IDX 10 1 9 2 8 3 6 4 7 5 5 6 4 7 3 8 2 9 1 10 80 11 81 12 82 13
REMARK SMILES IDX 83 14 91 15 84 16 90 17 92 18 88 19 89 20 85 21 86 22 87 23
REMARK SMILES IDX 11 24 12 25 13 26 14 27 15 28 16 29 17 30 18 31 79 32 19 33
REMARK SMILES IDX 78 34 20 35 21 36 22 37 72 38 23 39 77 40 71 41 73 42 24 43
REMARK SMILES IDX 76 44 70 45 69 46 25 48 57 49 37 50 56 51 38 52 41 53 55 54
REMARK SMILES IDX 74 55 39 56 40 57 54 59 75 60 42 61 26 62 27 63 35 64 28 65
REMARK SMILES IDX 30 66 36 67 29 68 31 69 32 70 33 71 34 72 58 73 59 74 67 75
REMARK SMILES IDX 60 76 62 77 68 78 61 79 63 80 64 81 65 82 66 83 43 84 44 85
REMARK SMILES IDX 52 86 45 87 47 88 53 89 46 90 48 91 49 92 50 93 51 94
REMARK H PARENT 73 47 41 58
REMARK Flexibility Score: inf
ROOT
ATOM      1  C   UNL A   1      34.014  19.933  24.764  1.00  0.00     0.202 C 
ENDROOT
BRANCH   1   2
ATOM      2  C   UNL A   1      33.046  20.963  25.368  1.00  0.00     0.261 C 
BRANCH   2   3
ATOM      3  O   UNL A   1      31.966  21.267  24.450  1.00  0.00    -0.462 OA
BRANCH   3   4
ATOM      4  C   UNL A   1      31.623  22.584  24.380  1.00  0.00     0.325 C 
ATOM      5  O   UNL A   1      31.143  23.222  25.312  1.00  0.00    -0.250 OA
BRANCH   4   6
ATOM      6  C   UNL A   1      31.928  23.239  23.019  1.00  0.00     0.243 C 
BRANCH   6   7
ATOM      7  N   UNL A   1      33.106  24.106  22.924  1.00  0.00    -0.316 N 
BRANCH   7   8
ATOM      8  C   UNL A   1      34.421  23.419  22.986  1.00  0.00     0.210 C 
BRANCH   8   9
ATOM      9  C   UNL A   1      35.077  23.854  24.287  1.00  0.00    -0.085 C 
ATOM     10  C   UNL A   1      35.640  24.228  25.402  1.00  0.00     0.006 C 
ENDBRANCH   8   9
ENDBRANCH   7   8
BRANCH   7  11
ATOM     11  C   UNL A   1      33.150  25.493  22.721  1.00  0.00     0.258 C 
ATOM     12  O   UNL A   1      33.815  25.949  21.782  1.00  0.00    -0.269 OA
BRANCH  11  13
ATOM     13  C   UNL A   1      32.426  26.557  23.501  1.00  0.00     0.082 A 
ATOM     14  C   UNL A   1      31.336  27.165  22.823  1.00  0.00     0.105 A 
ATOM     15  C   UNL A   1      32.821  27.144  24.704  1.00  0.00     0.139 A 
ATOM     16  C   UNL A   1      30.750  28.354  23.296  1.00  0.00     0.305 A 
ATOM     17  C   UNL A   1      32.232  28.326  25.176  1.00  0.00     0.086 A 
ATOM     18  F   UNL A   1      33.850  26.692  25.420  1.00  0.00    -0.206 F 
ATOM     19  C   UNL A   1      31.213  28.940  24.463  1.00  0.00     0.203 A 
ATOM     20  F   UNL A   1      30.711  30.087  24.939  1.00  0.00    -0.199 F 
BRANCH  16  21
ATOM     21  N   UNL A   1      29.680  28.987  22.536  1.00  0.00     0.065 N 
ATOM     22  O   UNL A   1      29.984  29.477  21.439  1.00  0.00    -0.258 OA
ATOM     23  O   UNL A   1      28.544  29.001  23.023  1.00  0.00    -0.258 OA
ENDBRANCH  16  21
ENDBRANCH  11  13
ENDBRANCH   7  11
ENDBRANCH   6   7
ENDBRANCH   4   6
ENDBRANCH   3   4
ENDBRANCH   2   3
ENDBRANCH   1   2
BRANCH   1  24
ATOM     24  O   UNL A   1      35.259  20.460  24.276  1.00  0.00    -0.374 OA
BRANCH  24  25
ATOM     25  C   UNL A   1      36.413  20.144  25.045  1.00  0.00     0.202 C 
BRANCH  25  26
ATOM     26  C   UNL A   1      37.644  21.032  24.836  1.00  0.00     0.261 C 
BRANCH  26  27
ATOM     27  O   UNL A   1      38.132  21.564  26.061  1.00  0.00    -0.460 OA
BRANCH  27  28
ATOM     28  C   UNL A   1      39.479  21.657  26.087  1.00  0.00     0.338 C 
ATOM     29  O   UNL A   1      40.283  20.996  25.443  1.00  0.00    -0.246 OA
BRANCH  28  30
ATOM     30  C   UNL A   1      39.859  22.840  26.860  1.00  0.00     0.060 A 
ATOM     31  C   UNL A   1      39.211  24.032  26.521  1.00  0.00     0.016 A 
ATOM     32  C   UNL A   1      40.833  22.797  27.861  1.00  0.00     0.016 A 
ATOM     33  C   UNL A   1      39.605  25.215  27.122  1.00  0.00     0.010 A 
ATOM     34  C   UNL A   1      41.225  23.990  28.468  1.00  0.00     0.010 A 
ATOM     35  C   UNL A   1      40.650  25.203  28.054  1.00  0.00    -0.014 A 
BRANCH  35  36
ATOM     36  C   UNL A   1      41.245  26.499  28.433  1.00  0.00     0.031 A 
ATOM     37  C   UNL A   1      42.650  26.797  27.997  1.00  0.00     0.074 A 
ATOM     38  C   UNL A   1      40.508  27.415  29.081  1.00  0.00     0.049 A 
ATOM     39  N   UNL A   1      43.324  27.911  28.091  1.00  0.00    -0.248 NA
ATOM     40  C   UNL A   1      43.395  25.692  27.369  1.00  0.00     0.031 C 
ATOM     41  C   UNL A   1      39.142  27.209  29.561  1.00  0.00     0.029 A 
ATOM     42  N   UNL A   1      40.810  28.697  29.452  1.00  0.00    -0.354 N 
ATOM     43  C   UNL A   1      44.575  27.639  27.553  1.00  0.00     0.074 A 
ATOM     44  C   UNL A   1      44.577  26.249  27.155  1.00  0.00     0.031 C 
ATOM     45  C   UNL A   1      38.730  28.324  30.186  1.00  0.00     0.029 A 
ATOM     46  C   UNL A   1      39.804  29.315  30.149  1.00  0.00     0.049 A 
ATOM     47  H   UNL A   1      41.666  29.133  29.238  1.00  0.00     0.167 HD
ATOM     48  C   UNL A   1      45.623  28.479  27.389  1.00  0.00     0.034 A 
ATOM     49  C   UNL A   1      39.761  30.543  30.701  1.00  0.00     0.034 A 
ATOM     50  C   UNL A   1      45.598  29.862  27.778  1.00  0.00     0.049 A 
ATOM     51  C   UNL A   1      40.926  31.470  30.486  1.00  0.00     0.074 A 
ATOM     52  C   UNL A   1      46.575  30.825  27.606  1.00  0.00     0.029 A 
ATOM     53  N   UNL A   1      44.542  30.474  28.439  1.00  0.00    -0.354 N 
ATOM     54  N   UNL A   1      42.046  31.249  29.839  1.00  0.00    -0.248 NA
ATOM     55  C   UNL A   1      40.806  32.829  31.032  1.00  0.00     0.031 C 
ATOM     56  C   UNL A   1      46.120  32.013  28.190  1.00  0.00     0.029 A 
ATOM     57  C   UNL A   1      44.848  31.797  28.700  1.00  0.00     0.049 A 
ATOM     58  H   UNL A   1      43.699  30.031  28.686  1.00  0.00     0.167 HD
ATOM     59  C   UNL A   1      42.755  32.444  29.879  1.00  0.00     0.074 A 
ATOM     60  C   UNL A   1      41.924  33.394  30.592  1.00  0.00     0.031 C 
ATOM     61  C   UNL A   1      43.986  32.730  29.383  1.00  0.00     0.034 A 
BRANCH  48  62
ATOM     62  C   UNL A   1      46.866  27.919  26.752  1.00  0.00     0.023 A 
ATOM     63  C   UNL A   1      47.863  27.327  27.556  1.00  0.00     0.012 A 
ATOM     64  C   UNL A   1      47.047  27.971  25.357  1.00  0.00     0.148 A 
ATOM     65  C   UNL A   1      49.036  26.833  26.985  1.00  0.00     0.002 A 
ATOM     66  C   UNL A   1      48.199  27.438  24.792  1.00  0.00     0.091 A 
ATOM     67  F   UNL A   1      46.105  28.567  24.611  1.00  0.00    -0.205 F 
ATOM     68  C   UNL A   1      49.201  26.881  25.604  1.00  0.00     0.022 A 
BRANCH  66  69
ATOM     69  S   UNL A   1      48.465  27.392  23.016  1.00  0.00     0.127 S 
ATOM     70  O   UNL A   1      49.825  27.918  22.905  1.00  0.00    -0.237 OA
ATOM     71  O   UNL A   1      48.338  25.965  22.721  1.00  0.00    -0.237 OA
ATOM     72  O   UNL A   1      47.419  28.222  22.436  1.00  0.00    -0.744 OA
ENDBRANCH  66  69
ENDBRANCH  48  62
BRANCH  49  73
ATOM     73  C   UNL A   1      38.550  30.958  31.461  1.00  0.00     0.023 A 
ATOM     74  C   UNL A   1      38.530  30.858  32.864  1.00  0.00     0.012 A 
ATOM     75  C   UNL A   1      37.447  31.526  30.794  1.00  0.00     0.148 A 
ATOM     76  C   UNL A   1      37.423  31.305  33.590  1.00  0.00     0.002 A 
ATOM     77  C   UNL A   1      36.375  32.023  31.526  1.00  0.00     0.091 A 
ATOM     78  F   UNL A   1      37.482  31.597  29.456  1.00  0.00    -0.205 F 
ATOM     79  C   UNL A   1      36.354  31.899  32.923  1.00  0.00     0.022 A 
BRANCH  77  80
ATOM     80  S   UNL A   1      35.029  32.935  30.760  1.00  0.00     0.127 S 
ATOM     81  O   UNL A   1      35.709  34.146  30.307  1.00  0.00    -0.237 OA
ATOM     82  O   UNL A   1      34.616  32.022  29.693  1.00  0.00    -0.237 OA
ATOM     83  O   UNL A   1      34.034  33.121  31.807  1.00  0.00    -0.744 OA
ENDBRANCH  77  80
ENDBRANCH  49  73
BRANCH  61  84
ATOM     84  C   UNL A   1      44.507  34.128  29.586  1.00  0.00     0.023 A 
ATOM     85  C   UNL A   1      45.207  34.447  30.766  1.00  0.00     0.012 A 
ATOM     86  C   UNL A   1      44.372  35.099  28.575  1.00  0.00     0.148 A 
ATOM     87  C   UNL A   1      45.738  35.723  30.951  1.00  0.00     0.002 A 
ATOM     88  C   UNL A   1      44.945  36.354  28.746  1.00  0.00     0.091 A 
ATOM     89  F   UNL A   1      43.684  34.782  27.468  1.00  0.00    -0.205 F 
ATOM     90  C   UNL A   1      45.618  36.671  29.937  1.00  0.00     0.022 A 
BRANCH  88  91
ATOM     91  S   UNL A   1      44.923  37.599  27.451  1.00  0.00     0.127 S 
ATOM     92  O   UNL A   1      45.613  38.713  28.098  1.00  0.00    -0.237 OA
ATOM     93  O   UNL A   1      45.681  36.950  26.381  1.00  0.00    -0.237 OA
ATOM     94  O   UNL A   1      43.517  37.825  27.140  1.00  0.00    -0.744 OA
ENDBRANCH  88  91
ENDBRANCH  61  84
ENDBRANCH  35  36
ENDBRANCH  28  30
ENDBRANCH  27  28
ENDBRANCH  26  27
ENDBRANCH  25  26
ENDBRANCH  24  25
ENDBRANCH   1  24
TORSDOF 23
ENDMDL
MODEL 3
REMARK VINA RESULT:     -10.3      5.116      8.272
REMARK SMILES C#CCN(CC(=O)OCCOCCOC(=O)c1ccc(-c2c3nc(c(-c4cccc(S(=O)(=O)[O-])c4F)c4ccc([nH]4)c(-c4cccc(S(=O)(=O)[O-])c4F)c4nc(c(-c5cccc(S(=O)(=O)[O-])c5F)c5ccc2[nH]5)C=C4)C=C3)cc1)C(=O)c1cc([N+](=O)[O-])c(F)cc1F
REMARK SMILES IDX 10 1 9 2 8 3 6 4 7 5 5 6 4 7 3 8 2 9 1 10 80 11 81 12 82 13
REMARK SMILES IDX 83 14 91 15 84 16 90 17 92 18 88 19 89 20 85 21 86 22 87 23
REMARK SMILES IDX 11 24 12 25 13 26 14 27 15 28 16 29 17 30 18 31 79 32 19 33
REMARK SMILES IDX 78 34 20 35 21 36 22 37 72 38 23 39 77 40 71 41 73 42 24 43
REMARK SMILES IDX 76 44 70 45 69 46 25 48 57 49 37 50 56 51 38 52 41 53 55 54
REMARK SMILES IDX 74 55 39 56 40 57 54 59 75 60 42 61 26 62 27 63 35 64 28 65
REMARK SMILES IDX 30 66 36 67 29 68 31 69 32 70 33 71 34 72 58 73 59 74 67 75
REMARK SMILES IDX 60 76 62 77 68 78 61 79 63 80 64 81 65 82 66 83 43 84 44 85
REMARK SMILES IDX 52 86 45 87 47 88 53 89 46 90 48 91 49 92 50 93 51 94
REMARK H PARENT 73 47 41 58
REMARK Flexibility Score: inf
ROOT
ATOM      1  C   UNL A   1      35.692  23.784  24.925  1.00  0.00     0.202 C 
ENDROOT
BRANCH   1   2
ATOM      2  C   UNL A   1      34.651  22.907  25.638  1.00  0.00     0.261 C 
BRANCH   2   3
ATOM      3  O   UNL A   1      33.639  23.718  26.287  1.00  0.00    -0.462 OA
BRANCH   3   4
ATOM      4  C   UNL A   1      32.574  23.025  26.779  1.00  0.00     0.325 C 
ATOM      5  O   UNL A   1      32.410  22.763  27.966  1.00  0.00    -0.250 OA
BRANCH   4   6
ATOM      6  C   UNL A   1      31.544  22.617  25.707  1.00  0.00     0.243 C 
BRANCH   6   7
ATOM      7  N   UNL A   1      30.935  23.680  24.902  1.00  0.00    -0.316 N 
BRANCH   7   8
ATOM      8  C   UNL A   1      30.753  23.377  23.460  1.00  0.00     0.210 C 
BRANCH   8   9
ATOM      9  C   UNL A   1      32.126  23.485  22.817  1.00  0.00    -0.085 C 
ATOM     10  C   UNL A   1      33.304  23.577  22.265  1.00  0.00     0.006 C 
ENDBRANCH   8   9
ENDBRANCH   7   8
BRANCH   7  11
ATOM     11  C   UNL A   1      30.447  24.924  25.332  1.00  0.00     0.258 C 
ATOM     12  O   UNL A   1      30.076  25.059  26.505  1.00  0.00    -0.269 OA
BRANCH  11  13
ATOM     13  C   UNL A   1      30.348  26.195  24.533  1.00  0.00     0.082 A 
ATOM     14  C   UNL A   1      31.465  27.066  24.645  1.00  0.00     0.105 A 
ATOM     15  C   UNL A   1      29.226  26.700  23.875  1.00  0.00     0.139 A 
ATOM     16  C   UNL A   1      31.403  28.398  24.199  1.00  0.00     0.305 A 
ATOM     17  C   UNL A   1      29.168  28.026  23.425  1.00  0.00     0.086 A 
ATOM     18  F   UNL A   1      28.102  25.998  23.732  1.00  0.00    -0.206 F 
ATOM     19  C   UNL A   1      30.247  28.879  23.606  1.00  0.00     0.203 A 
ATOM     20  F   UNL A   1      30.125  30.147  23.192  1.00  0.00    -0.199 F 
BRANCH  16  21
ATOM     21  N   UNL A   1      32.545  29.283  24.394  1.00  0.00     0.065 N 
ATOM     22  O   UNL A   1      33.449  29.228  23.549  1.00  0.00    -0.258 OA
ATOM     23  O   UNL A   1      32.546  30.028  25.380  1.00  0.00    -0.258 OA
ENDBRANCH  16  21
ENDBRANCH  11  13
ENDBRANCH   7  11
ENDBRANCH   6   7
ENDBRANCH   4   6
ENDBRANCH   3   4
ENDBRANCH   2   3
ENDBRANCH   1   2
BRANCH   1  24
ATOM     24  O   UNL A   1      36.729  23.075  24.226  1.00  0.00    -0.374 OA
BRANCH  24  25
ATOM     25  C   UNL A   1      36.583  21.662  24.161  1.00  0.00     0.202 C 
BRANCH  25  26
ATOM     26  C   UNL A   1      37.671  20.824  24.841  1.00  0.00     0.261 C 
BRANCH  26  27
ATOM     27  O   UNL A   1      38.039  21.354  26.107  1.00  0.00    -0.460 OA
BRANCH  27  28
ATOM     28  C   UNL A   1      39.365  21.262  26.343  1.00  0.00     0.338 C 
ATOM     29  O   UNL A   1      40.118  20.353  26.019  1.00  0.00    -0.246 OA
BRANCH  28  30
ATOM     30  C   UNL A   1      39.842  22.539  26.876  1.00  0.00     0.060 A 
ATOM     31  C   UNL A   1      39.161  23.681  26.443  1.00  0.00     0.016 A 
ATOM     32  C   UNL A   1      40.934  22.625  27.745  1.00  0.00     0.016 A 
ATOM     33  C   UNL A   1      39.631  24.931  26.804  1.00  0.00     0.010 A 
ATOM     34  C   UNL A   1      41.402  23.887  28.111  1.00  0.00     0.010 A 
ATOM     35  C   UNL A   1      40.784  25.036  27.592  1.00  0.00    -0.014 A 
BRANCH  35  36
ATOM     36  C   UNL A   1      41.425  26.361  27.693  1.00  0.00     0.031 A 
ATOM     37  C   UNL A   1      40.727  27.437  28.473  1.00  0.00     0.074 A 
ATOM     38  C   UNL A   1      42.643  26.563  27.165  1.00  0.00     0.049 A 
ATOM     39  N   UNL A   1      41.157  28.622  28.812  1.00  0.00    -0.248 NA
ATOM     40  C   UNL A   1      39.360  27.137  28.935  1.00  0.00     0.031 C 
ATOM     41  C   UNL A   1      43.389  25.584  26.375  1.00  0.00     0.029 A 
ATOM     42  N   UNL A   1      43.459  27.661  27.209  1.00  0.00    -0.354 N 
ATOM     43  C   UNL A   1      40.112  29.216  29.508  1.00  0.00     0.074 A 
ATOM     44  C   UNL A   1      39.019  28.271  29.526  1.00  0.00     0.031 C 
ATOM     45  C   UNL A   1      44.551  26.137  25.989  1.00  0.00     0.029 A 
ATOM     46  C   UNL A   1      44.623  27.504  26.502  1.00  0.00     0.049 A 
ATOM     47  H   UNL A   1      43.232  28.482  27.701  1.00  0.00     0.167 HD
ATOM     48  C   UNL A   1      40.077  30.433  30.097  1.00  0.00     0.034 A 
ATOM     49  C   UNL A   1      45.631  28.372  26.290  1.00  0.00     0.034 A 
ATOM     50  C   UNL A   1      41.180  31.353  30.082  1.00  0.00     0.049 A 
ATOM     51  C   UNL A   1      45.583  29.711  26.974  1.00  0.00     0.074 A 
ATOM     52  C   UNL A   1      41.284  32.587  30.696  1.00  0.00     0.029 A 
ATOM     53  N   UNL A   1      42.370  31.144  29.397  1.00  0.00    -0.354 N 
ATOM     54  N   UNL A   1      44.654  30.202  27.760  1.00  0.00    -0.248 NA
ATOM     55  C   UNL A   1      46.740  30.597  26.785  1.00  0.00     0.031 C 
ATOM     56  C   UNL A   1      42.525  33.138  30.358  1.00  0.00     0.029 A 
ATOM     57  C   UNL A   1      43.207  32.233  29.557  1.00  0.00     0.049 A 
ATOM     58  H   UNL A   1      42.585  30.338  28.876  1.00  0.00     0.167 HD
ATOM     59  C   UNL A   1      45.121  31.443  28.177  1.00  0.00     0.074 A 
ATOM     60  C   UNL A   1      46.430  31.615  27.577  1.00  0.00     0.031 C 
ATOM     61  C   UNL A   1      44.520  32.363  28.974  1.00  0.00     0.034 A 
BRANCH  48  62
ATOM     62  C   UNL A   1      38.810  30.820  30.811  1.00  0.00     0.023 A 
ATOM     63  C   UNL A   1      38.664  30.540  32.186  1.00  0.00     0.012 A 
ATOM     64  C   UNL A   1      37.765  31.466  30.124  1.00  0.00     0.148 A 
ATOM     65  C   UNL A   1      37.482  30.860  32.855  1.00  0.00     0.002 A 
ATOM     66  C   UNL A   1      36.608  31.821  30.807  1.00  0.00     0.091 A 
ATOM     67  F   UNL A   1      37.907  31.695  28.811  1.00  0.00    -0.205 F 
ATOM     68  C   UNL A   1      36.458  31.508  32.169  1.00  0.00     0.022 A 
BRANCH  66  69
ATOM     69  S   UNL A   1      35.266  32.721  30.023  1.00  0.00     0.127 S 
ATOM     70  O   UNL A   1      34.823  31.767  29.007  1.00  0.00    -0.237 OA
ATOM     71  O   UNL A   1      34.329  32.909  31.130  1.00  0.00    -0.237 OA
ATOM     72  O   UNL A   1      35.856  33.952  29.517  1.00  0.00    -0.744 OA
ENDBRANCH  66  69
ENDBRANCH  48  62
BRANCH  49  73
ATOM     73  C   UNL A   1      46.774  27.963  25.428  1.00  0.00     0.023 A 
ATOM     74  C   UNL A   1      46.663  28.034  24.028  1.00  0.00     0.012 A 
ATOM     75  C   UNL A   1      48.002  27.580  26.004  1.00  0.00     0.148 A 
ATOM     76  C   UNL A   1      47.751  27.715  23.213  1.00  0.00     0.002 A 
ATOM     77  C   UNL A   1      49.098  27.322  25.190  1.00  0.00     0.091 A 
ATOM     78  F   UNL A   1      48.081  27.506  27.340  1.00  0.00    -0.205 F 
ATOM     79  C   UNL A   1      48.971  27.373  23.794  1.00  0.00     0.022 A 
BRANCH  77  80
ATOM     80  S   UNL A   1      50.740  27.022  25.856  1.00  0.00     0.127 S 
ATOM     81  O   UNL A   1      50.956  25.622  25.501  1.00  0.00    -0.237 OA
ATOM     82  O   UNL A   1      51.549  27.982  25.105  1.00  0.00    -0.237 OA
ATOM     83  O   UNL A   1      50.645  27.307  27.281  1.00  0.00    -0.744 OA
ENDBRANCH  77  80
ENDBRANCH  49  73
BRANCH  61  84
ATOM     84  C   UNL A   1      45.274  33.636  29.252  1.00  0.00     0.023 A 
ATOM     85  C   UNL A   1      46.136  33.708  30.364  1.00  0.00     0.012 A 
ATOM     86  C   UNL A   1      45.189  34.730  28.368  1.00  0.00     0.148 A 
ATOM     87  C   UNL A   1      46.879  34.861  30.611  1.00  0.00     0.002 A 
ATOM     88  C   UNL A   1      45.970  35.858  28.594  1.00  0.00     0.091 A 
ATOM     89  F   UNL A   1      44.348  34.650  27.327  1.00  0.00    -0.205 F 
ATOM     90  C   UNL A   1      46.805  35.930  29.720  1.00  0.00     0.022 A 
BRANCH  88  91
ATOM     91  S   UNL A   1      46.009  37.237  27.444  1.00  0.00     0.127 S 
ATOM     92  O   UNL A   1      46.812  38.214  28.178  1.00  0.00    -0.237 OA
ATOM     93  O   UNL A   1      46.674  36.654  26.279  1.00  0.00    -0.237 OA
ATOM     94  O   UNL A   1      44.618  37.608  27.219  1.00  0.00    -0.744 OA
ENDBRANCH  88  91
ENDBRANCH  61  84
ENDBRANCH  35  36
ENDBRANCH  28  30
ENDBRANCH  27  28
ENDBRANCH  26  27
ENDBRANCH  25  26
ENDBRANCH  24  25
ENDBRANCH   1  24
TORSDOF 23
ENDMDL
