MODEL 1
REMARK VINA RESULT:     -10.8      0.000      0.000
REMARK SMILES CC[NH2+][C@@]1(C(=O)OCCOCCOC(=O)c2ccc(-c3c4nc(c(-c5cccc(S(=O)(=O)[O-])c5F)c5ccc([nH]5)c(-c5cccc(S(=O)(=O)[O-])c5F)c5nc(c(-c6cccc(S(=O)(=O)[O-])c6F)c6ccc3[nH]6)C=C5)C=C4)cc2)CCC[C@@H]([N@@H+](C)C2CCCC2)C1
REMARK SMILES IDX 11 1 10 2 9 3 8 4 7 5 5 6 6 7 4 8 79 9 90 10 80 11 82 12
REMARK SMILES IDX 81 13 3 14 2 17 1 18 83 19 84 20 85 22 86 23 89 24 87 25
REMARK SMILES IDX 88 26 12 27 13 28 14 29 15 30 16 31 17 32 78 33 18 34 77 35
REMARK SMILES IDX 19 36 20 37 21 38 71 39 22 40 76 41 70 42 72 43 23 44 75 45
REMARK SMILES IDX 69 46 68 47 24 49 56 50 36 51 55 52 37 53 40 54 54 55 73 56
REMARK SMILES IDX 38 57 39 58 53 60 74 61 41 62 25 63 26 64 34 65 27 66 29 67
REMARK SMILES IDX 35 68 28 69 30 70 31 71 32 72 33 73 57 74 58 75 66 76 59 77
REMARK SMILES IDX 61 78 67 79 60 80 62 81 63 82 64 83 65 84 42 85 43 86 51 87
REMARK SMILES IDX 44 88 46 89 52 90 45 91 47 92 48 93 49 94 50 95
REMARK H PARENT 3 15 3 16 83 21 72 48 40 59
REMARK Flexibility Score: inf
ROOT
ATOM      1  C   UNL A   1      35.665  21.397  25.965  1.00  0.00     0.202 C 
ENDROOT
BRANCH   1   2
ATOM      2  O   UNL A   1      34.315  21.502  25.515  1.00  0.00    -0.374 OA
BRANCH   2   3
ATOM      3  C   UNL A   1      33.287  21.350  26.493  1.00  0.00     0.202 C 
BRANCH   3   4
ATOM      4  C   UNL A   1      32.825  22.620  27.211  1.00  0.00     0.261 C 
BRANCH   4   5
ATOM      5  O   UNL A   1      33.321  23.813  26.579  1.00  0.00    -0.459 OA
BRANCH   5   6
ATOM      6  C   UNL A   1      32.371  24.700  26.192  1.00  0.00     0.368 C 
ATOM      7  O   UNL A   1      31.402  25.015  26.883  1.00  0.00    -0.245 OA
BRANCH   6   8
ATOM      8  C   UNL A   1      32.613  25.319  24.773  1.00  0.00     0.200 C 
ATOM      9  C   UNL A   1      33.528  26.543  24.934  1.00  0.00     0.081 C 
ATOM     10  C   UNL A   1      31.353  25.762  24.007  1.00  0.00     0.146 C 
ATOM     11  C   UNL A   1      32.836  27.705  25.648  1.00  0.00     0.013 C 
ATOM     12  C   UNL A   1      30.612  27.019  24.477  1.00  0.00     0.190 C 
ATOM     13  C   UNL A   1      31.519  28.149  25.010  1.00  0.00     0.065 C 
BRANCH   8  14
ATOM     14  N   UNL A   1      33.403  24.261  24.029  1.00  0.00    -0.332 N 
ATOM     15  H   UNL A   1      34.323  24.655  23.830  1.00  0.00     0.347 HD
ATOM     16  H   UNL A   1      33.389  23.452  24.649  1.00  0.00     0.347 HD
BRANCH  14  17
ATOM     17  C   UNL A   1      32.867  23.759  22.769  1.00  0.00     0.257 C 
ATOM     18  C   UNL A   1      32.366  22.330  22.920  1.00  0.00     0.071 C 
ENDBRANCH  14  17
ENDBRANCH   8  14
BRANCH  12  19
ATOM     19  N   UNL A   1      29.582  27.432  23.472  1.00  0.00    -0.332 N 
ATOM     20  C   UNL A   1      28.310  26.734  23.703  1.00  0.00     0.333 C 
ATOM     21  H   UNL A   1      30.039  27.139  22.608  1.00  0.00     0.348 HD
BRANCH  19  22
ATOM     22  C   UNL A   1      29.336  28.867  23.207  1.00  0.00     0.184 C 
ATOM     23  C   UNL A   1      30.050  29.575  22.047  1.00  0.00     0.065 C 
ATOM     24  C   UNL A   1      27.847  29.277  23.057  1.00  0.00     0.065 C 
ATOM     25  C   UNL A   1      29.256  30.860  21.877  1.00  0.00     0.006 C 
ATOM     26  C   UNL A   1      27.819  30.377  21.991  1.00  0.00     0.006 C 
ENDBRANCH  19  22
ENDBRANCH  12  19
ENDBRANCH   6   8
ENDBRANCH   5   6
ENDBRANCH   4   5
ENDBRANCH   3   4
ENDBRANCH   2   3
ENDBRANCH   1   2
BRANCH   1  27
ATOM     27  C   UNL A   1      36.650  20.676  25.038  1.00  0.00     0.261 C 
BRANCH  27  28
ATOM     28  O   UNL A   1      37.883  21.399  24.888  1.00  0.00    -0.460 OA
BRANCH  28  29
ATOM     29  C   UNL A   1      38.870  21.032  25.738  1.00  0.00     0.338 C 
ATOM     30  O   UNL A   1      39.365  19.917  25.854  1.00  0.00    -0.246 OA
BRANCH  29  31
ATOM     31  C   UNL A   1      39.436  22.219  26.401  1.00  0.00     0.060 A 
ATOM     32  C   UNL A   1      38.906  23.471  26.055  1.00  0.00     0.016 A 
ATOM     33  C   UNL A   1      40.507  22.124  27.291  1.00  0.00     0.016 A 
ATOM     34  C   UNL A   1      39.479  24.636  26.561  1.00  0.00     0.010 A 
ATOM     35  C   UNL A   1      41.085  23.296  27.792  1.00  0.00     0.010 A 
ATOM     36  C   UNL A   1      40.598  24.556  27.400  1.00  0.00    -0.014 A 
BRANCH  36  37
ATOM     37  C   UNL A   1      41.340  25.791  27.753  1.00  0.00     0.031 A 
ATOM     38  C   UNL A   1      40.636  26.868  28.531  1.00  0.00     0.074 A 
ATOM     39  C   UNL A   1      42.623  25.952  27.385  1.00  0.00     0.049 A 
ATOM     40  N   UNL A   1      41.080  28.036  28.915  1.00  0.00    -0.248 NA
ATOM     41  C   UNL A   1      39.245  26.592  28.930  1.00  0.00     0.031 C 
ATOM     42  C   UNL A   1      43.416  24.978  26.636  1.00  0.00     0.029 A 
ATOM     43  N   UNL A   1      43.478  27.010  27.574  1.00  0.00    -0.354 N 
ATOM     44  C   UNL A   1      40.018  28.647  29.573  1.00  0.00     0.074 A 
ATOM     45  C   UNL A   1      38.904  27.725  29.527  1.00  0.00     0.031 C 
ATOM     46  C   UNL A   1      44.634  25.497  26.401  1.00  0.00     0.029 A 
ATOM     47  C   UNL A   1      44.698  26.846  26.961  1.00  0.00     0.049 A 
ATOM     48  H   UNL A   1      43.241  27.809  28.097  1.00  0.00     0.167 HD
ATOM     49  C   UNL A   1      39.978  29.859  30.174  1.00  0.00     0.034 A 
ATOM     50  C   UNL A   1      45.736  27.697  26.844  1.00  0.00     0.034 A 
ATOM     51  C   UNL A   1      41.093  30.765  30.240  1.00  0.00     0.049 A 
ATOM     52  C   UNL A   1      45.657  29.054  27.497  1.00  0.00     0.074 A 
ATOM     53  C   UNL A   1      41.167  31.993  30.875  1.00  0.00     0.029 A 
ATOM     54  N   UNL A   1      42.324  30.550  29.641  1.00  0.00    -0.354 N 
ATOM     55  N   UNL A   1      44.690  29.566  28.220  1.00  0.00    -0.248 NA
ATOM     56  C   UNL A   1      46.822  29.938  27.341  1.00  0.00     0.031 C 
ATOM     57  C   UNL A   1      42.435  32.532  30.636  1.00  0.00     0.029 A 
ATOM     58  C   UNL A   1      43.159  31.629  29.875  1.00  0.00     0.049 A 
ATOM     59  H   UNL A   1      42.569  29.748  29.125  1.00  0.00     0.167 HD
ATOM     60  C   UNL A   1      45.143  30.816  28.633  1.00  0.00     0.074 A 
ATOM     61  C   UNL A   1      46.478  30.975  28.095  1.00  0.00     0.031 C 
ATOM     62  C   UNL A   1      44.506  31.752  29.379  1.00  0.00     0.034 A 
BRANCH  49  63
ATOM     63  C   UNL A   1      38.690  30.269  30.837  1.00  0.00     0.023 A 
ATOM     64  C   UNL A   1      38.475  29.957  32.194  1.00  0.00     0.012 A 
ATOM     65  C   UNL A   1      37.722  31.012  30.134  1.00  0.00     0.148 A 
ATOM     66  C   UNL A   1      37.301  30.353  32.835  1.00  0.00     0.002 A 
ATOM     67  C   UNL A   1      36.573  31.438  30.790  1.00  0.00     0.091 A 
ATOM     68  F   UNL A   1      37.935  31.277  28.837  1.00  0.00    -0.205 F 
ATOM     69  C   UNL A   1      36.357  31.101  32.137  1.00  0.00     0.022 A 
BRANCH  67  70
ATOM     70  S   UNL A   1      35.333  32.470  29.999  1.00  0.00     0.127 S 
ATOM     71  O   UNL A   1      34.852  31.589  28.936  1.00  0.00    -0.237 OA
ATOM     72  O   UNL A   1      34.379  32.692  31.085  1.00  0.00    -0.237 OA
ATOM     73  O   UNL A   1      36.033  33.666  29.553  1.00  0.00    -0.744 OA
ENDBRANCH  67  70
ENDBRANCH  49  63
BRANCH  50  74
ATOM     74  C   UNL A   1      46.957  27.282  26.098  1.00  0.00     0.023 A 
ATOM     75  C   UNL A   1      47.909  26.456  26.724  1.00  0.00     0.012 A 
ATOM     76  C   UNL A   1      47.169  27.686  24.765  1.00  0.00     0.148 A 
ATOM     77  C   UNL A   1      49.064  26.061  26.046  1.00  0.00     0.002 A 
ATOM     78  C   UNL A   1      48.293  27.244  24.077  1.00  0.00     0.091 A 
ATOM     79  F   UNL A   1      46.262  28.491  24.193  1.00  0.00    -0.205 F 
ATOM     80  C   UNL A   1      49.250  26.445  24.720  1.00  0.00     0.022 A 
BRANCH  78  81
ATOM     81  S   UNL A   1      48.544  27.582  22.330  1.00  0.00     0.127 S 
ATOM     82  O   UNL A   1      47.354  28.360  22.002  1.00  0.00    -0.237 OA
ATOM     83  O   UNL A   1      49.794  28.343  22.347  1.00  0.00    -0.237 OA
ATOM     84  O   UNL A   1      48.648  26.278  21.689  1.00  0.00    -0.744 OA
ENDBRANCH  78  81
ENDBRANCH  50  74
BRANCH  62  85
ATOM     85  C   UNL A   1      45.245  33.028  29.690  1.00  0.00     0.023 A 
ATOM     86  C   UNL A   1      45.126  34.134  28.824  1.00  0.00     0.012 A 
ATOM     87  C   UNL A   1      45.983  33.160  30.883  1.00  0.00     0.148 A 
ATOM     88  C   UNL A   1      45.752  35.342  29.128  1.00  0.00     0.002 A 
ATOM     89  C   UNL A   1      46.565  34.382  31.202  1.00  0.00     0.091 A 
ATOM     90  F   UNL A   1      46.098  32.092  31.686  1.00  0.00    -0.205 F 
ATOM     91  C   UNL A   1      46.461  35.470  30.321  1.00  0.00     0.022 A 
BRANCH  89  92
ATOM     92  S   UNL A   1      47.414  34.668  32.759  1.00  0.00     0.127 S 
ATOM     93  O   UNL A   1      47.466  36.129  32.806  1.00  0.00    -0.237 OA
ATOM     94  O   UNL A   1      46.502  34.059  33.727  1.00  0.00    -0.237 OA
ATOM     95  O   UNL A   1      48.704  34.001  32.643  1.00  0.00    -0.744 OA
ENDBRANCH  89  92
ENDBRANCH  62  85
ENDBRANCH  36  37
ENDBRANCH  29  31
ENDBRANCH  28  29
ENDBRANCH  27  28
ENDBRANCH   1  27
TORSDOF 21
ENDMDL
MODEL 2
REMARK VINA RESULT:     -10.6      2.146      7.936
REMARK SMILES CC[NH2+][C@@]1(C(=O)OCCOCCOC(=O)c2ccc(-c3c4nc(c(-c5cccc(S(=O)(=O)[O-])c5F)c5ccc([nH]5)c(-c5cccc(S(=O)(=O)[O-])c5F)c5nc(c(-c6cccc(S(=O)(=O)[O-])c6F)c6ccc3[nH]6)C=C5)C=C4)cc2)CCC[C@@H]([N@@H+](C)C2CCCC2)C1
REMARK SMILES IDX 11 1 10 2 9 3 8 4 7 5 5 6 6 7 4 8 79 9 90 10 80 11 82 12
REMARK SMILES IDX 81 13 3 14 2 17 1 18 83 19 84 20 85 22 86 23 89 24 87 25
REMARK SMILES IDX 88 26 12 27 13 28 14 29 15 30 16 31 17 32 78 33 18 34 77 35
REMARK SMILES IDX 19 36 20 37 21 38 71 39 22 40 76 41 70 42 72 43 23 44 75 45
REMARK SMILES IDX 69 46 68 47 24 49 56 50 36 51 55 52 37 53 40 54 54 55 73 56
REMARK SMILES IDX 38 57 39 58 53 60 74 61 41 62 25 63 26 64 34 65 27 66 29 67
REMARK SMILES IDX 35 68 28 69 30 70 31 71 32 72 33 73 57 74 58 75 66 76 59 77
REMARK SMILES IDX 61 78 67 79 60 80 62 81 63 82 64 83 65 84 42 85 43 86 51 87
REMARK SMILES IDX 44 88 46 89 52 90 45 91 47 92 48 93 49 94 50 95
REMARK H PARENT 3 15 3 16 83 21 72 48 40 59
REMARK Flexibility Score: inf
ROOT
ATOM      1  C   UNL A   1      37.013  21.031  24.953  1.00  0.00     0.202 C 
ENDROOT
BRANCH   1   2
ATOM      2  O   UNL A   1      37.064  22.455  25.033  1.00  0.00    -0.374 OA
BRANCH   2   3
ATOM      3  C   UNL A   1      35.832  23.141  25.249  1.00  0.00     0.202 C 
BRANCH   3   4
ATOM      4  C   UNL A   1      34.904  22.572  26.323  1.00  0.00     0.261 C 
BRANCH   4   5
ATOM      5  O   UNL A   1      33.614  23.207  26.321  1.00  0.00    -0.459 OA
BRANCH   5   6
ATOM      6  C   UNL A   1      32.741  22.740  25.394  1.00  0.00     0.368 C 
ATOM      7  O   UNL A   1      32.648  21.555  25.072  1.00  0.00    -0.245 OA
BRANCH   6   8
ATOM      8  C   UNL A   1      31.828  23.845  24.760  1.00  0.00     0.200 C 
ATOM      9  C   UNL A   1      31.794  23.624  23.239  1.00  0.00     0.081 C 
ATOM     10  C   UNL A   1      32.253  25.301  25.021  1.00  0.00     0.146 C 
ATOM     11  C   UNL A   1      33.135  23.928  22.570  1.00  0.00     0.013 C 
ATOM     12  C   UNL A   1      33.491  25.846  24.298  1.00  0.00     0.190 C 
ATOM     13  C   UNL A   1      33.685  25.326  22.857  1.00  0.00     0.065 C 
BRANCH   8  14
ATOM     14  N   UNL A   1      30.441  23.541  25.290  1.00  0.00    -0.332 N 
ATOM     15  H   UNL A   1      29.789  24.156  24.802  1.00  0.00     0.347 HD
ATOM     16  H   UNL A   1      30.320  22.542  25.124  1.00  0.00     0.347 HD
BRANCH  14  17
ATOM     17  C   UNL A   1      30.199  23.700  26.719  1.00  0.00     0.257 C 
ATOM     18  C   UNL A   1      29.319  22.579  27.252  1.00  0.00     0.071 C 
ENDBRANCH  14  17
ENDBRANCH   8  14
BRANCH  12  19
ATOM     19  N   UNL A   1      33.595  27.329  24.473  1.00  0.00    -0.332 N 
ATOM     20  C   UNL A   1      33.603  28.015  23.174  1.00  0.00     0.333 C 
ATOM     21  H   UNL A   1      34.489  27.396  24.959  1.00  0.00     0.348 HD
BRANCH  19  22
ATOM     22  C   UNL A   1      32.692  28.029  25.414  1.00  0.00     0.184 C 
ATOM     23  C   UNL A   1      33.206  28.491  26.785  1.00  0.00     0.065 C 
ATOM     24  C   UNL A   1      31.951  29.266  24.839  1.00  0.00     0.065 C 
ATOM     25  C   UNL A   1      32.142  29.472  27.248  1.00  0.00     0.006 C 
ATOM     26  C   UNL A   1      31.863  30.276  25.989  1.00  0.00     0.006 C 
ENDBRANCH  19  22
ENDBRANCH  12  19
ENDBRANCH   6   8
ENDBRANCH   5   6
ENDBRANCH   4   5
ENDBRANCH   3   4
ENDBRANCH   2   3
ENDBRANCH   1   2
BRANCH   1  27
ATOM     27  C   UNL A   1      38.337  20.281  25.135  1.00  0.00     0.261 C 
BRANCH  27  28
ATOM     28  O   UNL A   1      38.869  20.434  26.462  1.00  0.00    -0.460 OA
BRANCH  28  29
ATOM     29  C   UNL A   1      40.206  20.638  26.523  1.00  0.00     0.338 C 
ATOM     30  O   UNL A   1      41.084  19.907  26.081  1.00  0.00    -0.246 OA
BRANCH  29  31
ATOM     31  C   UNL A   1      40.489  21.990  27.035  1.00  0.00     0.060 A 
ATOM     32  C   UNL A   1      39.782  23.061  26.468  1.00  0.00     0.016 A 
ATOM     33  C   UNL A   1      41.472  22.221  27.999  1.00  0.00     0.016 A 
ATOM     34  C   UNL A   1      40.091  24.371  26.828  1.00  0.00     0.010 A 
ATOM     35  C   UNL A   1      41.785  23.538  28.353  1.00  0.00     0.010 A 
ATOM     36  C   UNL A   1      41.122  24.618  27.743  1.00  0.00    -0.014 A 
BRANCH  36  37
ATOM     37  C   UNL A   1      41.598  26.007  27.953  1.00  0.00     0.031 A 
ATOM     38  C   UNL A   1      42.973  26.387  27.475  1.00  0.00     0.074 A 
ATOM     39  C   UNL A   1      40.818  26.919  28.560  1.00  0.00     0.049 A 
ATOM     40  N   UNL A   1      43.600  27.528  27.584  1.00  0.00    -0.248 NA
ATOM     41  C   UNL A   1      43.744  25.340  26.783  1.00  0.00     0.031 C 
ATOM     42  C   UNL A   1      39.466  26.675  29.059  1.00  0.00     0.029 A 
ATOM     43  N   UNL A   1      41.065  28.231  28.881  1.00  0.00    -0.354 N 
ATOM     44  C   UNL A   1      44.848  27.331  27.004  1.00  0.00     0.074 A 
ATOM     45  C   UNL A   1      44.893  25.957  26.553  1.00  0.00     0.031 C 
ATOM     46  C   UNL A   1      39.013  27.793  29.652  1.00  0.00     0.029 A 
ATOM     47  C   UNL A   1      40.050  28.821  29.596  1.00  0.00     0.049 A 
ATOM     48  H   UNL A   1      41.889  28.703  28.624  1.00  0.00     0.167 HD
ATOM     49  C   UNL A   1      45.859  28.217  26.846  1.00  0.00     0.034 A 
ATOM     50  C   UNL A   1      39.978  30.043  30.162  1.00  0.00     0.034 A 
ATOM     51  C   UNL A   1      45.804  29.589  27.273  1.00  0.00     0.049 A 
ATOM     52  C   UNL A   1      41.130  31.002  29.997  1.00  0.00     0.074 A 
ATOM     53  C   UNL A   1      46.758  30.579  27.107  1.00  0.00     0.029 A 
ATOM     54  N   UNL A   1      44.747  30.163  27.960  1.00  0.00    -0.354 N 
ATOM     55  N   UNL A   1      42.252  30.840  29.339  1.00  0.00    -0.248 NA
ATOM     56  C   UNL A   1      40.993  32.322  30.631  1.00  0.00     0.031 C 
ATOM     57  C   UNL A   1      46.286  31.745  27.720  1.00  0.00     0.029 A 
ATOM     58  C   UNL A   1      45.029  31.488  28.242  1.00  0.00     0.049 A 
ATOM     59  H   UNL A   1      43.916  29.696  28.210  1.00  0.00     0.167 HD
ATOM     60  C   UNL A   1      42.938  32.045  29.449  1.00  0.00     0.074 A 
ATOM     61  C   UNL A   1      42.097  32.935  30.223  1.00  0.00     0.031 C 
ATOM     62  C   UNL A   1      44.160  32.380  28.966  1.00  0.00     0.034 A 
BRANCH  49  63
ATOM     63  C   UNL A   1      47.108  27.738  26.156  1.00  0.00     0.023 A 
ATOM     64  C   UNL A   1      48.097  27.061  26.897  1.00  0.00     0.012 A 
ATOM     65  C   UNL A   1      47.276  27.906  24.768  1.00  0.00     0.148 A 
ATOM     66  C   UNL A   1      49.249  26.582  26.272  1.00  0.00     0.002 A 
ATOM     67  C   UNL A   1      48.407  27.392  24.145  1.00  0.00     0.091 A 
ATOM     68  F   UNL A   1      46.335  28.576  24.085  1.00  0.00    -0.205 F 
ATOM     69  C   UNL A   1      49.398  26.738  24.896  1.00  0.00     0.022 A 
BRANCH  67  70
ATOM     70  S   UNL A   1      48.655  27.477  22.367  1.00  0.00     0.127 S 
ATOM     71  O   UNL A   1      47.511  28.284  21.948  1.00  0.00    -0.237 OA
ATOM     72  O   UNL A   1      49.948  28.154  22.269  1.00  0.00    -0.237 OA
ATOM     73  O   UNL A   1      48.655  26.099  21.897  1.00  0.00    -0.744 OA
ENDBRANCH  67  70
ENDBRANCH  49  63
BRANCH  50  74
ATOM     74  C   UNL A   1      38.757  30.441  30.917  1.00  0.00     0.023 A 
ATOM     75  C   UNL A   1      38.670  30.168  32.295  1.00  0.00     0.012 A 
ATOM     76  C   UNL A   1      37.691  31.107  30.280  1.00  0.00     0.148 A 
ATOM     77  C   UNL A   1      37.532  30.526  33.020  1.00  0.00     0.002 A 
ATOM     78  C   UNL A   1      36.585  31.510  31.019  1.00  0.00     0.091 A 
ATOM     79  F   UNL A   1      37.782  31.338  28.963  1.00  0.00    -0.205 F 
ATOM     80  C   UNL A   1      36.496  31.206  32.386  1.00  0.00     0.022 A 
BRANCH  78  81
ATOM     81  S   UNL A   1      35.267  32.505  30.311  1.00  0.00     0.127 S 
ATOM     82  O   UNL A   1      35.991  33.698  29.883  1.00  0.00    -0.237 OA
ATOM     83  O   UNL A   1      34.793  31.648  29.223  1.00  0.00    -0.237 OA
ATOM     84  O   UNL A   1      34.301  32.698  31.384  1.00  0.00    -0.744 OA
ENDBRANCH  78  81
ENDBRANCH  50  74
BRANCH  62  85
ATOM     85  C   UNL A   1      44.662  33.777  29.228  1.00  0.00     0.023 A 
ATOM     86  C   UNL A   1      45.585  34.004  30.269  1.00  0.00     0.012 A 
ATOM     87  C   UNL A   1      44.289  34.845  28.388  1.00  0.00     0.148 A 
ATOM     88  C   UNL A   1      46.108  35.278  30.485  1.00  0.00     0.002 A 
ATOM     89  C   UNL A   1      44.851  36.102  28.580  1.00  0.00     0.091 A 
ATOM     90  F   UNL A   1      43.399  34.612  27.414  1.00  0.00    -0.205 F 
ATOM     91  C   UNL A   1      45.752  36.324  29.635  1.00  0.00     0.022 A 
BRANCH  89  92
ATOM     92  S   UNL A   1      44.526  37.483  27.478  1.00  0.00     0.127 S 
ATOM     93  O   UNL A   1      45.771  37.555  26.715  1.00  0.00    -0.237 OA
ATOM     94  O   UNL A   1      43.370  37.008  26.718  1.00  0.00    -0.237 OA
ATOM     95  O   UNL A   1      44.254  38.627  28.338  1.00  0.00    -0.744 OA
ENDBRANCH  89  92
ENDBRANCH  62  85
ENDBRANCH  36  37
ENDBRANCH  29  31
ENDBRANCH  28  29
ENDBRANCH  27  28
ENDBRANCH   1  27
TORSDOF 21
ENDMDL
MODEL 3
REMARK VINA RESULT:     -10.2      2.272      3.103
REMARK SMILES CC[NH2+][C@@]1(C(=O)OCCOCCOC(=O)c2ccc(-c3c4nc(c(-c5cccc(S(=O)(=O)[O-])c5F)c5ccc([nH]5)c(-c5cccc(S(=O)(=O)[O-])c5F)c5nc(c(-c6cccc(S(=O)(=O)[O-])c6F)c6ccc3[nH]6)C=C5)C=C4)cc2)CCC[C@@H]([N@@H+](C)C2CCCC2)C1
REMARK SMILES IDX 11 1 10 2 9 3 8 4 7 5 5 6 6 7 4 8 79 9 90 10 80 11 82 12
REMARK SMILES IDX 81 13 3 14 2 17 1 18 83 19 84 20 85 22 86 23 89 24 87 25
REMARK SMILES IDX 88 26 12 27 13 28 14 29 15 30 16 31 17 32 78 33 18 34 77 35
REMARK SMILES IDX 19 36 20 37 21 38 71 39 22 40 76 41 70 42 72 43 23 44 75 45
REMARK SMILES IDX 69 46 68 47 24 49 56 50 36 51 55 52 37 53 40 54 54 55 73 56
REMARK SMILES IDX 38 57 39 58 53 60 74 61 41 62 25 63 26 64 34 65 27 66 29 67
REMARK SMILES IDX 35 68 28 69 30 70 31 71 32 72 33 73 57 74 58 75 66 76 59 77
REMARK SMILES IDX 61 78 67 79 60 80 62 81 63 82 64 83 65 84 42 85 43 86 51 87
REMARK SMILES IDX 44 88 46 89 52 90 45 91 47 92 48 93 49 94 50 95
REMARK H PARENT 3 15 3 16 83 21 72 48 40 59
REMARK Flexibility Score: inf
ROOT
ATOM      1  C   UNL A   1      38.115  19.368  25.118  1.00  0.00     0.202 C 
ENDROOT
BRANCH   1   2
ATOM      2  O   UNL A   1      36.905  20.096  24.909  1.00  0.00    -0.374 OA
BRANCH   2   3
ATOM      3  C   UNL A   1      36.858  21.437  25.391  1.00  0.00     0.202 C 
BRANCH   3   4
ATOM      4  C   UNL A   1      35.772  22.342  24.807  1.00  0.00     0.261 C 
BRANCH   4   5
ATOM      5  O   UNL A   1      34.631  22.454  25.677  1.00  0.00    -0.459 OA
BRANCH   5   6
ATOM      6  C   UNL A   1      33.539  21.750  25.290  1.00  0.00     0.368 C 
ATOM      7  O   UNL A   1      33.517  20.525  25.168  1.00  0.00    -0.245 OA
BRANCH   6   8
ATOM      8  C   UNL A   1      32.272  22.632  25.017  1.00  0.00     0.200 C 
ATOM      9  C   UNL A   1      31.826  22.393  23.566  1.00  0.00     0.081 C 
ATOM     10  C   UNL A   1      32.451  24.147  25.218  1.00  0.00     0.146 C 
ATOM     11  C   UNL A   1      32.810  22.966  22.545  1.00  0.00     0.013 C 
ATOM     12  C   UNL A   1      33.274  24.933  24.190  1.00  0.00     0.190 C 
ATOM     13  C   UNL A   1      33.125  24.451  22.731  1.00  0.00     0.065 C 
BRANCH   8  14
ATOM     14  N   UNL A   1      31.203  22.049  25.919  1.00  0.00    -0.332 N 
ATOM     15  H   UNL A   1      30.460  21.693  25.316  1.00  0.00     0.347 HD
ATOM     16  H   UNL A   1      31.696  21.351  26.477  1.00  0.00     0.347 HD
BRANCH  14  17
ATOM     17  C   UNL A   1      30.579  22.924  26.904  1.00  0.00     0.257 C 
ATOM     18  C   UNL A   1      29.130  22.528  27.147  1.00  0.00     0.071 C 
ENDBRANCH  14  17
ENDBRANCH   8  14
BRANCH  12  19
ATOM     19  N   UNL A   1      33.122  26.407  24.407  1.00  0.00    -0.332 N 
ATOM     20  C   UNL A   1      32.078  26.963  23.536  1.00  0.00     0.333 C 
ATOM     21  H   UNL A   1      34.057  26.728  24.154  1.00  0.00     0.348 HD
BRANCH  19  22
ATOM     22  C   UNL A   1      32.982  26.944  25.778  1.00  0.00     0.184 C 
ATOM     23  C   UNL A   1      33.894  28.079  26.264  1.00  0.00     0.065 C 
ATOM     24  C   UNL A   1      31.553  27.393  26.181  1.00  0.00     0.065 C 
ATOM     25  C   UNL A   1      33.192  28.586  27.513  1.00  0.00     0.006 C 
ATOM     26  C   UNL A   1      31.735  28.620  27.081  1.00  0.00     0.006 C 
ENDBRANCH  19  22
ENDBRANCH  12  19
ENDBRANCH   6   8
ENDBRANCH   5   6
ENDBRANCH   4   5
ENDBRANCH   3   4
ENDBRANCH   2   3
ENDBRANCH   1   2
BRANCH   1  27
ATOM     27  C   UNL A   1      39.323  20.165  25.623  1.00  0.00     0.261 C 
BRANCH  27  28
ATOM     28  O   UNL A   1      40.300  19.325  26.261  1.00  0.00    -0.460 OA
BRANCH  28  29
ATOM     29  C   UNL A   1      41.587  19.697  26.070  1.00  0.00     0.338 C 
ATOM     30  O   UNL A   1      42.458  19.066  25.482  1.00  0.00    -0.246 OA
BRANCH  29  31
ATOM     31  C   UNL A   1      41.781  21.092  26.503  1.00  0.00     0.060 A 
ATOM     32  C   UNL A   1      41.740  22.089  25.518  1.00  0.00     0.016 A 
ATOM     33  C   UNL A   1      42.064  21.417  27.830  1.00  0.00     0.016 A 
ATOM     34  C   UNL A   1      42.032  23.411  25.849  1.00  0.00     0.010 A 
ATOM     35  C   UNL A   1      42.363  22.745  28.159  1.00  0.00     0.010 A 
ATOM     36  C   UNL A   1      42.385  23.739  27.164  1.00  0.00    -0.014 A 
BRANCH  36  37
ATOM     37  C   UNL A   1      42.911  25.092  27.466  1.00  0.00     0.031 A 
ATOM     38  C   UNL A   1      42.022  26.081  28.167  1.00  0.00     0.074 A 
ATOM     39  C   UNL A   1      44.165  25.436  27.121  1.00  0.00     0.049 A 
ATOM     40  N   UNL A   1      42.263  27.323  28.497  1.00  0.00    -0.248 NA
ATOM     41  C   UNL A   1      40.679  25.608  28.547  1.00  0.00     0.031 C 
ATOM     42  C   UNL A   1      45.124  24.565  26.446  1.00  0.00     0.029 A 
ATOM     43  N   UNL A   1      44.835  26.625  27.272  1.00  0.00    -0.354 N 
ATOM     44  C   UNL A   1      41.098  27.790  29.095  1.00  0.00     0.074 A 
ATOM     45  C   UNL A   1      40.145  26.701  29.072  1.00  0.00     0.031 C 
ATOM     46  C   UNL A   1      46.252  25.258  26.213  1.00  0.00     0.029 A 
ATOM     47  C   UNL A   1      46.085  26.626  26.699  1.00  0.00     0.049 A 
ATOM     48  H   UNL A   1      44.458  27.401  27.746  1.00  0.00     0.167 HD
ATOM     49  C   UNL A   1      40.848  29.009  29.628  1.00  0.00     0.034 A 
ATOM     50  C   UNL A   1      46.980  27.625  26.561  1.00  0.00     0.034 A 
ATOM     51  C   UNL A   1      41.804  30.082  29.671  1.00  0.00     0.049 A 
ATOM     52  C   UNL A   1      46.666  28.983  27.137  1.00  0.00     0.074 A 
ATOM     53  C   UNL A   1      41.662  31.336  30.239  1.00  0.00     0.029 A 
ATOM     54  N   UNL A   1      43.071  30.036  29.114  1.00  0.00    -0.354 N 
ATOM     55  N   UNL A   1      45.608  29.371  27.807  1.00  0.00    -0.248 NA
ATOM     56  C   UNL A   1      47.682  30.032  26.961  1.00  0.00     0.031 C 
ATOM     57  C   UNL A   1      42.836  32.058  30.001  1.00  0.00     0.029 A 
ATOM     58  C   UNL A   1      43.718  31.244  29.309  1.00  0.00     0.049 A 
ATOM     59  H   UNL A   1      43.456  29.258  28.649  1.00  0.00     0.167 HD
ATOM     60  C   UNL A   1      45.845  30.695  28.162  1.00  0.00     0.074 A 
ATOM     61  C   UNL A   1      47.155  31.038  27.648  1.00  0.00     0.031 C 
ATOM     62  C   UNL A   1      45.044  31.555  28.839  1.00  0.00     0.034 A 
BRANCH  49  63
ATOM     63  C   UNL A   1      39.491  29.241  30.235  1.00  0.00     0.023 A 
ATOM     64  C   UNL A   1      39.156  28.616  31.453  1.00  0.00     0.012 A 
ATOM     65  C   UNL A   1      38.571  30.122  29.633  1.00  0.00     0.148 A 
ATOM     66  C   UNL A   1      37.915  28.841  32.048  1.00  0.00     0.002 A 
ATOM     67  C   UNL A   1      37.353  30.373  30.252  1.00  0.00     0.091 A 
ATOM     68  F   UNL A   1      38.899  30.687  28.462  1.00  0.00    -0.205 F 
ATOM     69  C   UNL A   1      37.019  29.726  31.454  1.00  0.00     0.022 A 
BRANCH  67  70
ATOM     70  S   UNL A   1      36.163  31.553  29.604  1.00  0.00     0.127 S 
ATOM     71  O   UNL A   1      35.639  30.836  28.443  1.00  0.00    -0.237 OA
ATOM     72  O   UNL A   1      35.221  31.683  30.716  1.00  0.00    -0.237 OA
ATOM     73  O   UNL A   1      36.920  32.761  29.306  1.00  0.00    -0.744 OA
ENDBRANCH  67  70
ENDBRANCH  49  63
BRANCH  50  74
ATOM     74  C   UNL A   1      48.275  27.372  25.868  1.00  0.00     0.023 A 
ATOM     75  C   UNL A   1      49.388  26.933  26.610  1.00  0.00     0.012 A 
ATOM     76  C   UNL A   1      48.402  27.546  24.476  1.00  0.00     0.148 A 
ATOM     77  C   UNL A   1      50.612  26.697  25.982  1.00  0.00     0.002 A 
ATOM     78  C   UNL A   1      49.608  27.256  23.849  1.00  0.00     0.091 A 
ATOM     79  F   UNL A   1      47.337  27.986  23.790  1.00  0.00    -0.205 F 
ATOM     80  C   UNL A   1      50.719  26.848  24.602  1.00  0.00     0.022 A 
BRANCH  78  81
ATOM     81  S   UNL A   1      49.795  27.295  22.063  1.00  0.00     0.127 S 
ATOM     82  O   UNL A   1      49.475  28.687  21.758  1.00  0.00    -0.237 OA
ATOM     83  O   UNL A   1      51.205  26.937  21.899  1.00  0.00    -0.237 OA
ATOM     84  O   UNL A   1      48.863  26.302  21.548  1.00  0.00    -0.744 OA
ENDBRANCH  78  81
ENDBRANCH  50  74
BRANCH  62  85
ATOM     85  C   UNL A   1      45.563  32.946  29.098  1.00  0.00     0.023 A 
ATOM     86  C   UNL A   1      46.370  33.193  30.227  1.00  0.00     0.012 A 
ATOM     87  C   UNL A   1      45.327  33.985  28.176  1.00  0.00     0.148 A 
ATOM     88  C   UNL A   1      46.911  34.458  30.448  1.00  0.00     0.002 A 
ATOM     89  C   UNL A   1      45.908  35.232  28.378  1.00  0.00     0.091 A 
ATOM     90  F   UNL A   1      44.544  33.735  27.116  1.00  0.00    -0.205 F 
ATOM     91  C   UNL A   1      46.691  35.474  29.519  1.00  0.00     0.022 A 
BRANCH  89  92
ATOM     92  S   UNL A   1      45.760  36.570  27.189  1.00  0.00     0.127 S 
ATOM     93  O   UNL A   1      46.233  35.932  25.961  1.00  0.00    -0.237 OA
ATOM     94  O   UNL A   1      44.324  36.852  27.216  1.00  0.00    -0.237 OA
ATOM     95  O   UNL A   1      46.596  37.651  27.694  1.00  0.00    -0.744 OA
ENDBRANCH  89  92
ENDBRANCH  62  85
ENDBRANCH  36  37
ENDBRANCH  29  31
ENDBRANCH  28  29
ENDBRANCH  27  28
ENDBRANCH   1  27
TORSDOF 21
ENDMDL
