MODEL 1
REMARK VINA RESULT:     -10.4      0.000      0.000
REMARK SMILES O=C(CCN/C(=[NH+]\S(=O)(=O)c1ccccc1)c1ccccc1)OCCOCCOC(=O)c1ccc(-c2c3nc(c(-c4cccc(S(=O)(=O)[O-])c4F)c4ccc([nH]4)c(-c4cccc(S(=O)(=O)[O-])c4F)c4nc(c(-c5cccc(S(=O)(=O)[O-])c5F)c5ccc2[nH]5)C=C4)C=C3)cc1
REMARK SMILES IDX 25 1 24 2 23 3 2 4 1 5 3 6 4 7 5 8 6 9 7 11 17 13 18 14
REMARK SMILES IDX 22 15 19 16 21 17 20 18 8 19 9 20 10 21 11 22 12 23 16 24
REMARK SMILES IDX 13 25 15 26 14 27 26 28 27 29 28 30 29 31 30 32 31 33 32 34
REMARK SMILES IDX 33 35 94 36 34 37 93 38 35 39 36 40 37 41 87 42 38 43 92 44
REMARK SMILES IDX 86 45 88 46 39 47 91 48 85 49 84 50 40 52 72 53 52 54 71 55
REMARK SMILES IDX 53 56 56 57 70 58 89 59 54 60 55 61 69 63 90 64 57 65 41 66
REMARK SMILES IDX 42 67 50 68 43 69 45 70 51 71 44 72 46 73 47 74 48 75 49 76
REMARK SMILES IDX 73 77 74 78 82 79 75 80 77 81 83 82 76 83 78 84 79 85 80 86
REMARK SMILES IDX 81 87 58 88 59 89 67 90 60 91 62 92 68 93 61 94 63 95 64 96
REMARK SMILES IDX 65 97 66 98
REMARK H PARENT 5 10 7 12 88 51 56 62
REMARK Flexibility Score: inf
ROOT
ATOM      1  C   UNL A   1      32.630  32.626  27.890  1.00  0.00     0.202 C 
ENDROOT
BRANCH   1   2
ATOM      2  C   UNL A   1      32.215  31.572  26.859  1.00  0.00     0.261 C 
BRANCH   2   3
ATOM      3  O   UNL A   1      32.179  30.213  27.333  1.00  0.00    -0.463 OA
BRANCH   3   4
ATOM      4  C   UNL A   1      32.437  29.157  26.540  1.00  0.00     0.309 C 
ATOM      5  O   UNL A   1      32.620  29.309  25.334  1.00  0.00    -0.252 OA
BRANCH   4   6
ATOM      6  C   UNL A   1      32.343  27.779  27.127  1.00  0.00     0.168 C 
BRANCH   6   7
ATOM      7  C   UNL A   1      33.167  26.772  26.352  1.00  0.00     0.245 C 
BRANCH   7   8
ATOM      8  N   UNL A   1      32.473  25.520  26.087  1.00  0.00    -0.273 N 
ATOM      9  C   UNL A   1      31.432  25.210  25.223  1.00  0.00     0.290 C 
ATOM     10  H   UNL A   1      32.801  24.756  26.615  1.00  0.00     0.305 HD
ATOM     11  N   UNL A   1      30.758  24.095  25.229  1.00  0.00    -0.162 N 
ATOM     12  H   UNL A   1      30.093  23.933  24.521  1.00  0.00     0.327 HD
BRANCH   9  13
ATOM     13  C   UNL A   1      30.982  26.185  24.167  1.00  0.00     0.064 A 
ATOM     14  C   UNL A   1      29.807  26.920  24.382  1.00  0.00     0.016 A 
ATOM     15  C   UNL A   1      31.668  26.332  22.958  1.00  0.00     0.016 A 
ATOM     16  C   UNL A   1      29.358  27.829  23.420  1.00  0.00     0.001 A 
ATOM     17  C   UNL A   1      31.237  27.266  22.012  1.00  0.00     0.001 A 
ATOM     18  C   UNL A   1      30.084  28.015  22.245  1.00  0.00     0.000 A 
ENDBRANCH   9  13
BRANCH  11  19
ATOM     19  S   UNL A   1      30.987  22.968  26.369  1.00  0.00     0.328 S 
ATOM     20  O   UNL A   1      31.331  23.625  27.616  1.00  0.00    -0.179 OA
ATOM     21  O   UNL A   1      29.854  22.062  26.310  1.00  0.00    -0.179 OA
BRANCH  19  22
ATOM     22  C   UNL A   1      32.384  21.983  25.895  1.00  0.00     0.109 A 
ATOM     23  C   UNL A   1      33.639  22.154  26.482  1.00  0.00     0.024 A 
ATOM     24  C   UNL A   1      32.204  21.079  24.838  1.00  0.00     0.024 A 
ATOM     25  C   UNL A   1      34.718  21.409  25.999  1.00  0.00     0.001 A 
ATOM     26  C   UNL A   1      33.286  20.345  24.360  1.00  0.00     0.001 A 
ATOM     27  C   UNL A   1      34.544  20.513  24.939  1.00  0.00     0.000 A 
ENDBRANCH  19  22
ENDBRANCH  11  19
ENDBRANCH   7   8
ENDBRANCH   6   7
ENDBRANCH   4   6
ENDBRANCH   3   4
ENDBRANCH   2   3
ENDBRANCH   1   2
BRANCH   1  28
ATOM     28  O   UNL A   1      32.441  33.995  27.527  1.00  0.00    -0.374 OA
BRANCH  28  29
ATOM     29  C   UNL A   1      33.371  34.954  28.023  1.00  0.00     0.202 C 
BRANCH  29  30
ATOM     30  C   UNL A   1      32.774  36.060  28.889  1.00  0.00     0.261 C 
BRANCH  30  31
ATOM     31  O   UNL A   1      32.233  35.523  30.103  1.00  0.00    -0.460 OA
BRANCH  31  32
ATOM     32  C   UNL A   1      32.939  35.809  31.226  1.00  0.00     0.338 C 
ATOM     33  O   UNL A   1      32.733  36.710  32.015  1.00  0.00    -0.246 OA
BRANCH  32  34
ATOM     34  C   UNL A   1      33.948  34.753  31.439  1.00  0.00     0.060 A 
ATOM     35  C   UNL A   1      33.653  33.733  32.355  1.00  0.00     0.016 A 
ATOM     36  C   UNL A   1      35.188  34.799  30.798  1.00  0.00     0.016 A 
ATOM     37  C   UNL A   1      34.628  32.795  32.687  1.00  0.00     0.010 A 
ATOM     38  C   UNL A   1      36.163  33.864  31.133  1.00  0.00     0.010 A 
ATOM     39  C   UNL A   1      35.899  32.892  32.113  1.00  0.00    -0.014 A 
BRANCH  39  40
ATOM     40  C   UNL A   1      37.036  32.132  32.674  1.00  0.00     0.031 A 
ATOM     41  C   UNL A   1      37.631  32.610  33.967  1.00  0.00     0.074 A 
ATOM     42  C   UNL A   1      37.574  31.102  32.001  1.00  0.00     0.049 A 
ATOM     43  N   UNL A   1      38.709  32.205  34.583  1.00  0.00    -0.248 NA
ATOM     44  C   UNL A   1      36.921  33.707  34.649  1.00  0.00     0.031 C 
ATOM     45  C   UNL A   1      37.080  30.573  30.732  1.00  0.00     0.029 A 
ATOM     46  N   UNL A   1      38.689  30.353  32.273  1.00  0.00    -0.354 N 
ATOM     47  C   UNL A   1      38.829  33.020  35.702  1.00  0.00     0.074 A 
ATOM     48  C   UNL A   1      37.716  33.944  35.681  1.00  0.00     0.031 C 
ATOM     49  C   UNL A   1      37.916  29.610  30.310  1.00  0.00     0.029 A 
ATOM     50  C   UNL A   1      39.018  29.482  31.263  1.00  0.00     0.049 A 
ATOM     51  H   UNL A   1      39.203  30.431  33.109  1.00  0.00     0.167 HD
ATOM     52  C   UNL A   1      39.779  32.999  36.665  1.00  0.00     0.034 A 
ATOM     53  C   UNL A   1      40.106  28.701  31.113  1.00  0.00     0.034 A 
ATOM     54  C   UNL A   1      40.879  32.075  36.677  1.00  0.00     0.049 A 
ATOM     55  C   UNL A   1      41.158  28.698  32.193  1.00  0.00     0.074 A 
ATOM     56  C   UNL A   1      41.876  31.934  37.625  1.00  0.00     0.029 A 
ATOM     57  N   UNL A   1      41.133  31.144  35.682  1.00  0.00    -0.354 N 
ATOM     58  N   UNL A   1      41.197  29.383  33.311  1.00  0.00    -0.248 NA
ATOM     59  C   UNL A   1      42.302  27.794  32.007  1.00  0.00     0.031 C 
ATOM     60  C   UNL A   1      42.746  30.928  37.191  1.00  0.00     0.029 A 
ATOM     61  C   UNL A   1      42.275  30.426  35.986  1.00  0.00     0.049 A 
ATOM     62  H   UNL A   1      40.582  31.013  34.877  1.00  0.00     0.167 HD
ATOM     63  C   UNL A   1      42.342  28.966  33.980  1.00  0.00     0.074 A 
ATOM     64  C   UNL A   1      42.966  27.959  33.144  1.00  0.00     0.031 C 
ATOM     65  C   UNL A   1      42.840  29.382  35.170  1.00  0.00     0.034 A 
BRANCH  52  66
ATOM     66  C   UNL A   1      39.651  33.992  37.787  1.00  0.00     0.023 A 
ATOM     67  C   UNL A   1      40.158  35.297  37.621  1.00  0.00     0.012 A 
ATOM     68  C   UNL A   1      39.016  33.646  38.995  1.00  0.00     0.148 A 
ATOM     69  C   UNL A   1      40.068  36.230  38.654  1.00  0.00     0.002 A 
ATOM     70  C   UNL A   1      38.893  34.594  40.004  1.00  0.00     0.091 A 
ATOM     71  F   UNL A   1      38.567  32.391  39.146  1.00  0.00    -0.205 F 
ATOM     72  C   UNL A   1      39.428  35.882  39.840  1.00  0.00     0.022 A 
BRANCH  70  73
ATOM     73  S   UNL A   1      38.024  34.256  41.539  1.00  0.00     0.127 S 
ATOM     74  O   UNL A   1      37.869  35.600  42.093  1.00  0.00    -0.237 OA
ATOM     75  O   UNL A   1      36.782  33.645  41.065  1.00  0.00    -0.237 OA
ATOM     76  O   UNL A   1      38.887  33.358  42.295  1.00  0.00    -0.744 OA
ENDBRANCH  70  73
ENDBRANCH  52  66
BRANCH  53  77
ATOM     77  C   UNL A   1      40.232  27.830  29.912  1.00  0.00     0.023 A 
ATOM     78  C   UNL A   1      39.471  26.649  29.834  1.00  0.00     0.012 A 
ATOM     79  C   UNL A   1      41.067  28.183  28.833  1.00  0.00     0.148 A 
ATOM     80  C   UNL A   1      39.552  25.822  28.713  1.00  0.00     0.002 A 
ATOM     81  C   UNL A   1      41.105  27.381  27.698  1.00  0.00     0.091 A 
ATOM     82  F   UNL A   1      41.793  29.306  28.933  1.00  0.00    -0.205 F 
ATOM     83  C   UNL A   1      40.360  26.193  27.642  1.00  0.00     0.022 A 
BRANCH  81  84
ATOM     84  S   UNL A   1      42.026  27.835  26.224  1.00  0.00     0.127 S 
ATOM     85  O   UNL A   1      41.752  26.705  25.341  1.00  0.00    -0.237 OA
ATOM     86  O   UNL A   1      41.377  29.090  25.840  1.00  0.00    -0.237 OA
ATOM     87  O   UNL A   1      43.410  27.980  26.652  1.00  0.00    -0.744 OA
ENDBRANCH  81  84
ENDBRANCH  53  77
BRANCH  65  88
ATOM     88  C   UNL A   1      44.092  28.721  35.682  1.00  0.00     0.023 A 
ATOM     89  C   UNL A   1      45.353  29.203  35.285  1.00  0.00     0.012 A 
ATOM     90  C   UNL A   1      44.012  27.694  36.645  1.00  0.00     0.148 A 
ATOM     91  C   UNL A   1      46.519  28.662  35.825  1.00  0.00     0.002 A 
ATOM     92  C   UNL A   1      45.176  27.193  37.213  1.00  0.00     0.091 A 
ATOM     93  F   UNL A   1      42.801  27.238  36.994  1.00  0.00    -0.205 F 
ATOM     94  C   UNL A   1      46.430  27.668  36.798  1.00  0.00     0.022 A 
BRANCH  92  95
ATOM     95  S   UNL A   1      45.150  25.986  38.545  1.00  0.00     0.127 S 
ATOM     96  O   UNL A   1      46.577  25.803  38.808  1.00  0.00    -0.237 OA
ATOM     97  O   UNL A   1      44.422  26.696  39.597  1.00  0.00    -0.237 OA
ATOM     98  O   UNL A   1      44.457  24.820  38.014  1.00  0.00    -0.744 OA
ENDBRANCH  92  95
ENDBRANCH  65  88
ENDBRANCH  39  40
ENDBRANCH  32  34
ENDBRANCH  31  32
ENDBRANCH  30  31
ENDBRANCH  29  30
ENDBRANCH  28  29
ENDBRANCH   1  28
TORSDOF 22
ENDMDL
MODEL 2
REMARK VINA RESULT:     -10.2      3.478      5.313
REMARK SMILES O=C(CCN/C(=[NH+]\S(=O)(=O)c1ccccc1)c1ccccc1)OCCOCCOC(=O)c1ccc(-c2c3nc(c(-c4cccc(S(=O)(=O)[O-])c4F)c4ccc([nH]4)c(-c4cccc(S(=O)(=O)[O-])c4F)c4nc(c(-c5cccc(S(=O)(=O)[O-])c5F)c5ccc2[nH]5)C=C4)C=C3)cc1
REMARK SMILES IDX 25 1 24 2 23 3 2 4 1 5 3 6 4 7 5 8 6 9 7 11 17 13 18 14
REMARK SMILES IDX 22 15 19 16 21 17 20 18 8 19 9 20 10 21 11 22 12 23 16 24
REMARK SMILES IDX 13 25 15 26 14 27 26 28 27 29 28 30 29 31 30 32 31 33 32 34
REMARK SMILES IDX 33 35 94 36 34 37 93 38 35 39 36 40 37 41 87 42 38 43 92 44
REMARK SMILES IDX 86 45 88 46 39 47 91 48 85 49 84 50 40 52 72 53 52 54 71 55
REMARK SMILES IDX 53 56 56 57 70 58 89 59 54 60 55 61 69 63 90 64 57 65 41 66
REMARK SMILES IDX 42 67 50 68 43 69 45 70 51 71 44 72 46 73 47 74 48 75 49 76
REMARK SMILES IDX 73 77 74 78 82 79 75 80 77 81 83 82 76 83 78 84 79 85 80 86
REMARK SMILES IDX 81 87 58 88 59 89 67 90 60 91 62 92 68 93 61 94 63 95 64 96
REMARK SMILES IDX 65 97 66 98
REMARK H PARENT 5 10 7 12 88 51 56 62
REMARK Flexibility Score: inf
ROOT
ATOM      1  C   UNL A   1      32.291  33.110  26.805  1.00  0.00     0.202 C 
ENDROOT
BRANCH   1   2
ATOM      2  C   UNL A   1      31.706  31.703  26.967  1.00  0.00     0.261 C 
BRANCH   2   3
ATOM      3  O   UNL A   1      32.659  30.656  27.231  1.00  0.00    -0.463 OA
BRANCH   3   4
ATOM      4  C   UNL A   1      33.217  29.915  26.257  1.00  0.00     0.309 C 
ATOM      5  O   UNL A   1      32.776  29.953  25.110  1.00  0.00    -0.252 OA
BRANCH   4   6
ATOM      6  C   UNL A   1      34.286  28.930  26.630  1.00  0.00     0.168 C 
BRANCH   6   7
ATOM      7  C   UNL A   1      33.786  27.501  26.579  1.00  0.00     0.245 C 
BRANCH   7   8
ATOM      8  N   UNL A   1      33.479  27.030  25.236  1.00  0.00    -0.273 N 
ATOM      9  C   UNL A   1      33.711  25.813  24.612  1.00  0.00     0.290 C 
ATOM     10  H   UNL A   1      33.025  27.695  24.669  1.00  0.00     0.305 HD
ATOM     11  N   UNL A   1      33.574  25.584  23.337  1.00  0.00    -0.162 N 
ATOM     12  H   UNL A   1      33.681  24.665  23.001  1.00  0.00     0.327 HD
BRANCH   9  13
ATOM     13  C   UNL A   1      34.160  24.609  25.399  1.00  0.00     0.064 A 
ATOM     14  C   UNL A   1      35.474  24.147  25.237  1.00  0.00     0.016 A 
ATOM     15  C   UNL A   1      33.289  23.909  26.238  1.00  0.00     0.016 A 
ATOM     16  C   UNL A   1      35.921  23.030  25.947  1.00  0.00     0.001 A 
ATOM     17  C   UNL A   1      33.747  22.814  26.974  1.00  0.00     0.001 A 
ATOM     18  C   UNL A   1      35.063  22.377  26.829  1.00  0.00     0.000 A 
ENDBRANCH   9  13
BRANCH  11  19
ATOM     19  S   UNL A   1      33.234  26.772  22.291  1.00  0.00     0.328 S 
ATOM     20  O   UNL A   1      34.092  27.908  22.574  1.00  0.00    -0.179 OA
ATOM     21  O   UNL A   1      33.216  26.184  20.964  1.00  0.00    -0.179 OA
BRANCH  19  22
ATOM     22  C   UNL A   1      31.563  27.296  22.579  1.00  0.00     0.109 A 
ATOM     23  C   UNL A   1      31.148  28.604  22.325  1.00  0.00     0.024 A 
ATOM     24  C   UNL A   1      30.690  26.366  23.162  1.00  0.00     0.024 A 
ATOM     25  C   UNL A   1      29.843  28.976  22.661  1.00  0.00     0.001 A 
ATOM     26  C   UNL A   1      29.393  26.747  23.497  1.00  0.00     0.001 A 
ATOM     27  C   UNL A   1      28.972  28.053  23.249  1.00  0.00     0.000 A 
ENDBRANCH  19  22
ENDBRANCH  11  19
ENDBRANCH   7   8
ENDBRANCH   6   7
ENDBRANCH   4   6
ENDBRANCH   3   4
ENDBRANCH   2   3
ENDBRANCH   1   2
BRANCH   1  28
ATOM     28  O   UNL A   1      32.181  33.988  27.927  1.00  0.00    -0.374 OA
BRANCH  28  29
ATOM     29  C   UNL A   1      33.381  34.531  28.472  1.00  0.00     0.202 C 
BRANCH  29  30
ATOM     30  C   UNL A   1      34.655  33.751  28.160  1.00  0.00     0.261 C 
BRANCH  30  31
ATOM     31  O   UNL A   1      35.546  33.757  29.283  1.00  0.00    -0.460 OA
BRANCH  31  32
ATOM     32  C   UNL A   1      35.339  32.771  30.191  1.00  0.00     0.338 C 
ATOM     33  O   UNL A   1      34.346  32.589  30.865  1.00  0.00    -0.246 OA
BRANCH  32  34
ATOM     34  C   UNL A   1      36.480  31.834  30.149  1.00  0.00     0.060 A 
ATOM     35  C   UNL A   1      36.386  30.646  30.889  1.00  0.00     0.016 A 
ATOM     36  C   UNL A   1      37.645  32.146  29.446  1.00  0.00     0.016 A 
ATOM     37  C   UNL A   1      37.488  29.800  30.986  1.00  0.00     0.010 A 
ATOM     38  C   UNL A   1      38.748  31.302  29.547  1.00  0.00     0.010 A 
ATOM     39  C   UNL A   1      38.685  30.156  30.356  1.00  0.00    -0.014 A 
BRANCH  39  40
ATOM     40  C   UNL A   1      39.947  29.466  30.698  1.00  0.00     0.031 A 
ATOM     41  C   UNL A   1      40.795  30.055  31.788  1.00  0.00     0.074 A 
ATOM     42  C   UNL A   1      40.361  28.400  29.995  1.00  0.00     0.049 A 
ATOM     43  N   UNL A   1      41.998  29.723  32.174  1.00  0.00    -0.248 NA
ATOM     44  C   UNL A   1      40.212  31.185  32.534  1.00  0.00     0.031 C 
ATOM     45  C   UNL A   1      39.618  27.764  28.910  1.00  0.00     0.029 A 
ATOM     46  N   UNL A   1      41.537  27.699  30.061  1.00  0.00    -0.354 N 
ATOM     47  C   UNL A   1      42.332  30.624  33.177  1.00  0.00     0.074 A 
ATOM     48  C   UNL A   1      41.207  31.518  33.342  1.00  0.00     0.031 C 
ATOM     49  C   UNL A   1      40.377  26.790  28.379  1.00  0.00     0.029 A 
ATOM     50  C   UNL A   1      41.668  26.760  29.066  1.00  0.00     0.049 A 
ATOM     51  H   UNL A   1      42.221  27.853  30.753  1.00  0.00     0.167 HD
ATOM     52  C   UNL A   1      43.473  30.698  33.901  1.00  0.00     0.034 A 
ATOM     53  C   UNL A   1      42.725  25.996  28.731  1.00  0.00     0.034 A 
ATOM     54  C   UNL A   1      44.583  29.803  33.730  1.00  0.00     0.049 A 
ATOM     55  C   UNL A   1      43.990  26.099  29.545  1.00  0.00     0.074 A 
ATOM     56  C   UNL A   1      45.770  29.758  34.437  1.00  0.00     0.029 A 
ATOM     57  N   UNL A   1      44.646  28.804  32.770  1.00  0.00    -0.354 N 
ATOM     58  N   UNL A   1      44.249  26.869  30.575  1.00  0.00    -0.248 NA
ATOM     59  C   UNL A   1      45.098  25.209  29.170  1.00  0.00     0.031 C 
ATOM     60  C   UNL A   1      46.560  28.741  33.890  1.00  0.00     0.029 A 
ATOM     61  C   UNL A   1      45.853  28.138  32.860  1.00  0.00     0.049 A 
ATOM     62  H   UNL A   1      43.935  28.600  32.121  1.00  0.00     0.167 HD
ATOM     63  C   UNL A   1      45.530  26.529  30.997  1.00  0.00     0.074 A 
ATOM     64  C   UNL A   1      45.991  25.476  30.114  1.00  0.00     0.031 C 
ATOM     65  C   UNL A   1      46.264  27.047  32.013  1.00  0.00     0.034 A 
BRANCH  52  66
ATOM     66  C   UNL A   1      43.558  31.771  34.951  1.00  0.00     0.023 A 
ATOM     67  C   UNL A   1      44.146  33.012  34.630  1.00  0.00     0.012 A 
ATOM     68  C   UNL A   1      43.044  31.565  36.245  1.00  0.00     0.148 A 
ATOM     69  C   UNL A   1      44.254  34.016  35.592  1.00  0.00     0.002 A 
ATOM     70  C   UNL A   1      43.118  32.585  37.186  1.00  0.00     0.091 A 
ATOM     71  F   UNL A   1      42.515  30.368  36.541  1.00  0.00    -0.205 F 
ATOM     72  C   UNL A   1      43.732  33.806  36.865  1.00  0.00     0.022 A 
BRANCH  70  73
ATOM     73  S   UNL A   1      42.411  32.429  38.830  1.00  0.00     0.127 S 
ATOM     74  O   UNL A   1      41.003  32.180  38.523  1.00  0.00    -0.237 OA
ATOM     75  O   UNL A   1      43.130  31.276  39.370  1.00  0.00    -0.237 OA
ATOM     76  O   UNL A   1      42.696  33.687  39.506  1.00  0.00    -0.744 OA
ENDBRANCH  70  73
ENDBRANCH  52  66
BRANCH  53  77
ATOM     77  C   UNL A   1      42.614  25.037  27.596  1.00  0.00     0.023 A 
ATOM     78  C   UNL A   1      43.053  25.429  26.318  1.00  0.00     0.012 A 
ATOM     79  C   UNL A   1      42.117  23.732  27.784  1.00  0.00     0.148 A 
ATOM     80  C   UNL A   1      42.981  24.547  25.240  1.00  0.00     0.002 A 
ATOM     81  C   UNL A   1      42.094  22.842  26.716  1.00  0.00     0.091 A 
ATOM     82  F   UNL A   1      41.693  23.384  29.006  1.00  0.00    -0.205 F 
ATOM     83  C   UNL A   1      42.512  23.252  25.441  1.00  0.00     0.022 A 
BRANCH  81  84
ATOM     84  S   UNL A   1      41.616  21.120  26.902  1.00  0.00     0.127 S 
ATOM     85  O   UNL A   1      41.952  20.573  25.590  1.00  0.00    -0.237 OA
ATOM     86  O   UNL A   1      42.488  20.685  27.994  1.00  0.00    -0.237 OA
ATOM     87  O   UNL A   1      40.198  21.138  27.234  1.00  0.00    -0.744 OA
ENDBRANCH  81  84
ENDBRANCH  53  77
BRANCH  65  88
ATOM     88  C   UNL A   1      47.623  26.455  32.275  1.00  0.00     0.023 A 
ATOM     89  C   UNL A   1      48.765  27.034  31.691  1.00  0.00     0.012 A 
ATOM     90  C   UNL A   1      47.773  25.395  33.192  1.00  0.00     0.148 A 
ATOM     91  C   UNL A   1      50.037  26.555  32.001  1.00  0.00     0.002 A 
ATOM     92  C   UNL A   1      49.045  24.955  33.532  1.00  0.00     0.091 A 
ATOM     93  F   UNL A   1      46.670  24.848  33.722  1.00  0.00    -0.205 F 
ATOM     94  C   UNL A   1      50.178  25.526  32.931  1.00  0.00     0.022 A 
BRANCH  92  95
ATOM     95  S   UNL A   1      49.323  23.706  34.795  1.00  0.00     0.127 S 
ATOM     96  O   UNL A   1      50.753  23.860  35.057  1.00  0.00    -0.237 OA
ATOM     97  O   UNL A   1      48.452  24.160  35.880  1.00  0.00    -0.237 OA
ATOM     98  O   UNL A   1      48.929  22.438  34.197  1.00  0.00    -0.744 OA
ENDBRANCH  92  95
ENDBRANCH  65  88
ENDBRANCH  39  40
ENDBRANCH  32  34
ENDBRANCH  31  32
ENDBRANCH  30  31
ENDBRANCH  29  30
ENDBRANCH  28  29
ENDBRANCH   1  28
TORSDOF 22
ENDMDL
MODEL 3
REMARK VINA RESULT:     -10.2      5.018     10.635
REMARK SMILES O=C(CCN/C(=[NH+]\S(=O)(=O)c1ccccc1)c1ccccc1)OCCOCCOC(=O)c1ccc(-c2c3nc(c(-c4cccc(S(=O)(=O)[O-])c4F)c4ccc([nH]4)c(-c4cccc(S(=O)(=O)[O-])c4F)c4nc(c(-c5cccc(S(=O)(=O)[O-])c5F)c5ccc2[nH]5)C=C4)C=C3)cc1
REMARK SMILES IDX 25 1 24 2 23 3 2 4 1 5 3 6 4 7 5 8 6 9 7 11 17 13 18 14
REMARK SMILES IDX 22 15 19 16 21 17 20 18 8 19 9 20 10 21 11 22 12 23 16 24
REMARK SMILES IDX 13 25 15 26 14 27 26 28 27 29 28 30 29 31 30 32 31 33 32 34
REMARK SMILES IDX 33 35 94 36 34 37 93 38 35 39 36 40 37 41 87 42 38 43 92 44
REMARK SMILES IDX 86 45 88 46 39 47 91 48 85 49 84 50 40 52 72 53 52 54 71 55
REMARK SMILES IDX 53 56 56 57 70 58 89 59 54 60 55 61 69 63 90 64 57 65 41 66
REMARK SMILES IDX 42 67 50 68 43 69 45 70 51 71 44 72 46 73 47 74 48 75 49 76
REMARK SMILES IDX 73 77 74 78 82 79 75 80 77 81 83 82 76 83 78 84 79 85 80 86
REMARK SMILES IDX 81 87 58 88 59 89 67 90 60 91 62 92 68 93 61 94 63 95 64 96
REMARK SMILES IDX 65 97 66 98
REMARK H PARENT 5 10 7 12 88 51 56 62
REMARK Flexibility Score: inf
ROOT
ATOM      1  C   UNL A   1      43.990  21.960  26.111  1.00  0.00     0.202 C 
ENDROOT
BRANCH   1   2
ATOM      2  C   UNL A   1      42.834  21.379  26.932  1.00  0.00     0.261 C 
BRANCH   2   3
ATOM      3  O   UNL A   1      41.665  20.997  26.184  1.00  0.00    -0.463 OA
BRANCH   3   4
ATOM      4  C   UNL A   1      40.727  20.164  26.672  1.00  0.00     0.309 C 
ATOM      5  O   UNL A   1      40.837  19.688  27.800  1.00  0.00    -0.252 OA
BRANCH   4   6
ATOM      6  C   UNL A   1      39.628  19.708  25.758  1.00  0.00     0.168 C 
BRANCH   6   7
ATOM      7  C   UNL A   1      38.606  20.798  25.509  1.00  0.00     0.245 C 
BRANCH   7   8
ATOM      8  N   UNL A   1      38.988  22.099  26.039  1.00  0.00    -0.273 N 
ATOM      9  C   UNL A   1      38.449  23.364  25.852  1.00  0.00     0.290 C 
ATOM     10  H   UNL A   1      39.770  22.077  26.639  1.00  0.00     0.305 HD
ATOM     11  N   UNL A   1      39.010  24.481  26.219  1.00  0.00    -0.162 N 
ATOM     12  H   UNL A   1      38.511  25.324  26.118  1.00  0.00     0.327 HD
BRANCH   9  13
ATOM     13  C   UNL A   1      37.115  23.548  25.179  1.00  0.00     0.064 A 
ATOM     14  C   UNL A   1      36.059  24.111  25.910  1.00  0.00     0.016 A 
ATOM     15  C   UNL A   1      36.884  23.120  23.868  1.00  0.00     0.016 A 
ATOM     16  C   UNL A   1      34.807  24.291  25.317  1.00  0.00     0.001 A 
ATOM     17  C   UNL A   1      35.642  23.332  23.265  1.00  0.00     0.001 A 
ATOM     18  C   UNL A   1      34.605  23.919  23.990  1.00  0.00     0.000 A 
ENDBRANCH   9  13
BRANCH  11  19
ATOM     19  S   UNL A   1      40.507  24.520  26.835  1.00  0.00     0.328 S 
ATOM     20  O   UNL A   1      40.559  23.656  27.999  1.00  0.00    -0.179 OA
ATOM     21  O   UNL A   1      41.430  24.317  25.732  1.00  0.00    -0.179 OA
BRANCH  19  22
ATOM     22  C   UNL A   1      40.826  26.173  27.397  1.00  0.00     0.109 A 
ATOM     23  C   UNL A   1      41.092  26.456  28.738  1.00  0.00     0.024 A 
ATOM     24  C   UNL A   1      40.711  27.206  26.456  1.00  0.00     0.024 A 
ATOM     25  C   UNL A   1      41.244  27.788  29.130  1.00  0.00     0.001 A 
ATOM     26  C   UNL A   1      40.859  28.531  26.857  1.00  0.00     0.001 A 
ATOM     27  C   UNL A   1      41.122  28.821  28.194  1.00  0.00     0.000 A 
ENDBRANCH  19  22
ENDBRANCH  11  19
ENDBRANCH   7   8
ENDBRANCH   6   7
ENDBRANCH   4   6
ENDBRANCH   3   4
ENDBRANCH   2   3
ENDBRANCH   1   2
BRANCH   1  28
ATOM     28  O   UNL A   1      44.146  21.468  24.779  1.00  0.00    -0.374 OA
BRANCH  28  29
ATOM     29  C   UNL A   1      44.833  22.291  23.838  1.00  0.00     0.202 C 
BRANCH  29  30
ATOM     30  C   UNL A   1      46.011  23.083  24.396  1.00  0.00     0.261 C 
BRANCH  30  31
ATOM     31  O   UNL A   1      45.667  24.464  24.564  1.00  0.00    -0.460 OA
BRANCH  31  32
ATOM     32  C   UNL A   1      46.691  25.276  24.928  1.00  0.00     0.338 C 
ATOM     33  O   UNL A   1      47.825  25.268  24.492  1.00  0.00    -0.246 OA
BRANCH  32  34
ATOM     34  C   UNL A   1      46.183  26.298  25.864  1.00  0.00     0.060 A 
ATOM     35  C   UNL A   1      47.117  27.093  26.543  1.00  0.00     0.016 A 
ATOM     36  C   UNL A   1      44.816  26.429  26.118  1.00  0.00     0.016 A 
ATOM     37  C   UNL A   1      46.689  27.975  27.533  1.00  0.00     0.010 A 
ATOM     38  C   UNL A   1      44.389  27.306  27.111  1.00  0.00     0.010 A 
ATOM     39  C   UNL A   1      45.329  28.042  27.852  1.00  0.00    -0.014 A 
BRANCH  39  40
ATOM     40  C   UNL A   1      44.881  28.707  29.094  1.00  0.00     0.031 A 
ATOM     41  C   UNL A   1      44.730  27.863  30.326  1.00  0.00     0.074 A 
ATOM     42  C   UNL A   1      44.536  30.005  29.093  1.00  0.00     0.049 A 
ATOM     43  N   UNL A   1      44.224  28.177  31.489  1.00  0.00    -0.248 NA
ATOM     44  C   UNL A   1      45.198  26.469  30.228  1.00  0.00     0.031 C 
ATOM     45  C   UNL A   1      44.632  30.903  27.946  1.00  0.00     0.029 A 
ATOM     46  N   UNL A   1      43.985  30.774  30.085  1.00  0.00    -0.354 N 
ATOM     47  C   UNL A   1      44.276  27.014  32.247  1.00  0.00     0.074 A 
ATOM     48  C   UNL A   1      44.862  25.986  31.414  1.00  0.00     0.031 C 
ATOM     49  C   UNL A   1      44.113  32.096  28.285  1.00  0.00     0.029 A 
ATOM     50  C   UNL A   1      43.621  32.029  29.661  1.00  0.00     0.049 A 
ATOM     51  H   UNL A   1      43.864  30.459  31.010  1.00  0.00     0.167 HD
ATOM     52  C   UNL A   1      43.876  26.819  33.524  1.00  0.00     0.034 A 
ATOM     53  C   UNL A   1      42.935  32.994  30.303  1.00  0.00     0.034 A 
ATOM     54  C   UNL A   1      43.297  27.848  34.342  1.00  0.00     0.049 A 
ATOM     55  C   UNL A   1      42.490  32.754  31.723  1.00  0.00     0.074 A 
ATOM     56  C   UNL A   1      42.897  27.775  35.663  1.00  0.00     0.029 A 
ATOM     57  N   UNL A   1      43.024  29.136  33.908  1.00  0.00    -0.354 N 
ATOM     58  N   UNL A   1      42.658  31.691  32.474  1.00  0.00    -0.248 NA
ATOM     59  C   UNL A   1      41.788  33.856  32.397  1.00  0.00     0.031 C 
ATOM     60  C   UNL A   1      42.361  29.017  36.022  1.00  0.00     0.029 A 
ATOM     61  C   UNL A   1      42.453  29.869  34.931  1.00  0.00     0.049 A 
ATOM     62  H   UNL A   1      43.208  29.478  33.004  1.00  0.00     0.167 HD
ATOM     63  C   UNL A   1      42.121  32.009  33.717  1.00  0.00     0.074 A 
ATOM     64  C   UNL A   1      41.630  33.369  33.621  1.00  0.00     0.031 C 
ATOM     65  C   UNL A   1      42.032  31.244  34.832  1.00  0.00     0.034 A 
BRANCH  52  66
ATOM     66  C   UNL A   1      44.073  25.448  34.110  1.00  0.00     0.023 A 
ATOM     67  C   UNL A   1      42.977  24.566  34.198  1.00  0.00     0.012 A 
ATOM     68  C   UNL A   1      45.339  25.023  34.556  1.00  0.00     0.148 A 
ATOM     69  C   UNL A   1      43.130  23.297  34.755  1.00  0.00     0.002 A 
ATOM     70  C   UNL A   1      45.492  23.741  35.071  1.00  0.00     0.091 A 
ATOM     71  F   UNL A   1      46.364  25.886  34.492  1.00  0.00    -0.205 F 
ATOM     72  C   UNL A   1      44.388  22.881  35.182  1.00  0.00     0.022 A 
BRANCH  70  73
ATOM     73  S   UNL A   1      47.089  23.096  35.582  1.00  0.00     0.127 S 
ATOM     74  O   UNL A   1      47.319  23.829  36.826  1.00  0.00    -0.237 OA
ATOM     75  O   UNL A   1      46.807  21.672  35.758  1.00  0.00    -0.237 OA
ATOM     76  O   UNL A   1      48.007  23.399  34.493  1.00  0.00    -0.744 OA
ENDBRANCH  70  73
ENDBRANCH  52  66
BRANCH  53  77
ATOM     77  C   UNL A   1      42.663  34.289  29.618  1.00  0.00     0.023 A 
ATOM     78  C   UNL A   1      41.394  34.519  29.055  1.00  0.00     0.012 A 
ATOM     79  C   UNL A   1      43.638  35.305  29.558  1.00  0.00     0.148 A 
ATOM     80  C   UNL A   1      41.104  35.729  28.425  1.00  0.00     0.002 A 
ATOM     81  C   UNL A   1      43.326  36.527  28.973  1.00  0.00     0.091 A 
ATOM     82  F   UNL A   1      44.844  35.061  30.090  1.00  0.00    -0.205 F 
ATOM     83  C   UNL A   1      42.065  36.736  28.393  1.00  0.00     0.022 A 
BRANCH  81  84
ATOM     84  S   UNL A   1      44.457  37.923  28.986  1.00  0.00     0.127 S 
ATOM     85  O   UNL A   1      45.418  37.538  27.956  1.00  0.00    -0.237 OA
ATOM     86  O   UNL A   1      43.571  39.030  28.622  1.00  0.00    -0.237 OA
ATOM     87  O   UNL A   1      44.981  37.993  30.343  1.00  0.00    -0.744 OA
ENDBRANCH  81  84
ENDBRANCH  53  77
BRANCH  65  88
ATOM     88  C   UNL A   1      41.431  31.862  36.066  1.00  0.00     0.023 A 
ATOM     89  C   UNL A   1      42.232  32.639  36.923  1.00  0.00     0.012 A 
ATOM     90  C   UNL A   1      40.046  31.762  36.310  1.00  0.00     0.148 A 
ATOM     91  C   UNL A   1      41.668  33.294  38.017  1.00  0.00     0.002 A 
ATOM     92  C   UNL A   1      39.484  32.456  37.373  1.00  0.00     0.091 A 
ATOM     93  F   UNL A   1      39.306  31.001  35.491  1.00  0.00    -0.205 F 
ATOM     94  C   UNL A   1      40.293  33.215  38.234  1.00  0.00     0.022 A 
BRANCH  92  95
ATOM     95  S   UNL A   1      37.710  32.492  37.665  1.00  0.00     0.127 S 
ATOM     96  O   UNL A   1      37.439  31.100  38.022  1.00  0.00    -0.237 OA
ATOM     97  O   UNL A   1      37.595  33.439  38.774  1.00  0.00    -0.237 OA
ATOM     98  O   UNL A   1      37.109  32.947  36.419  1.00  0.00    -0.744 OA
ENDBRANCH  92  95
ENDBRANCH  65  88
ENDBRANCH  39  40
ENDBRANCH  32  34
ENDBRANCH  31  32
ENDBRANCH  30  31
ENDBRANCH  29  30
ENDBRANCH  28  29
ENDBRANCH   1  28
TORSDOF 22
ENDMDL
