MODEL 1
REMARK VINA RESULT:     -11.1      0.000      0.000
REMARK SMILES Cc1cccc(Cl)c1Nc1ccccc1CC(=O)OCCOCCOC(=O)c1ccc(-c2c3nc(c(-c4cccc(S(=O)(=O)[O-])c4F)c4ccc([nH]4)c(-c4cccc(S(=O)(=O)[O-])c4F)c4nc(c(-c5cccc(S(=O)(=O)[O-])c5F)c5ccc2[nH]5)C=C4)C=C3)cc1
REMARK SMILES IDX 22 1 21 2 20 3 19 4 17 5 18 6 16 7 15 8 10 9 11 10 12 11
REMARK SMILES IDX 14 12 13 13 9 14 8 16 1 17 2 18 3 19 4 20 6 21 5 22 7 23
REMARK SMILES IDX 23 24 24 25 25 26 26 27 27 28 28 29 29 30 90 31 30 32 89 33
REMARK SMILES IDX 31 34 32 35 33 36 83 37 34 38 88 39 82 40 84 41 35 42 87 43
REMARK SMILES IDX 81 44 80 45 36 47 68 48 48 49 67 50 49 51 52 52 66 53 85 54
REMARK SMILES IDX 50 55 51 56 65 58 86 59 53 60 37 61 38 62 46 63 39 64 41 65
REMARK SMILES IDX 47 66 40 67 42 68 43 69 44 70 45 71 69 72 70 73 78 74 71 75
REMARK SMILES IDX 73 76 79 77 72 78 74 79 75 80 76 81 77 82 54 83 55 84 63 85
REMARK SMILES IDX 56 86 58 87 64 88 57 89 59 90 60 91 61 92 62 93
REMARK H PARENT 9 15 84 46 52 57
REMARK Flexibility Score: inf
ROOT
ATOM      1  O   UNL A   1      35.895  22.652  25.833  1.00  0.00    -0.374 OA
ENDROOT
BRANCH   1   2
ATOM      2  C   UNL A   1      34.681  23.350  26.112  1.00  0.00     0.202 C 
BRANCH   2   3
ATOM      3  C   UNL A   1      33.760  22.764  27.189  1.00  0.00     0.261 C 
BRANCH   3   4
ATOM      4  O   UNL A   1      32.511  22.273  26.667  1.00  0.00    -0.463 OA
BRANCH   4   5
ATOM      5  C   UNL A   1      31.570  23.223  26.429  1.00  0.00     0.310 C 
ATOM      6  O   UNL A   1      31.223  24.072  27.248  1.00  0.00    -0.252 OA
BRANCH   5   7
ATOM      7  C   UNL A   1      30.923  23.158  25.068  1.00  0.00     0.160 C 
BRANCH   7   8
ATOM      8  C   UNL A   1      31.637  23.734  23.860  1.00  0.00    -0.013 A 
ATOM      9  C   UNL A   1      31.476  25.067  23.423  1.00  0.00     0.042 A 
ATOM     10  C   UNL A   1      32.126  25.482  22.242  1.00  0.00     0.026 A 
ATOM     11  C   UNL A   1      32.982  24.632  21.545  1.00  0.00     0.002 A 
ATOM     12  C   UNL A   1      32.551  22.912  23.170  1.00  0.00     0.006 A 
ATOM     13  C   UNL A   1      33.216  23.352  22.024  1.00  0.00     0.000 A 
BRANCH   9  14
ATOM     14  N   UNL A   1      30.829  26.075  24.169  1.00  0.00    -0.354 N 
ATOM     15  H   UNL A   1      29.960  25.807  24.548  1.00  0.00     0.167 HD
BRANCH  14  16
ATOM     16  C   UNL A   1      31.216  27.404  24.468  1.00  0.00     0.060 A 
ATOM     17  C   UNL A   1      29.487  28.205  22.768  1.00  0.00     0.046 C 
ATOM     18  C   UNL A   1      30.490  28.461  23.864  1.00  0.00    -0.026 A 
ATOM     19  C   UNL A   1      30.655  29.779  24.326  1.00  0.00     0.005 A 
ATOM     20  C   UNL A   1      31.546  30.072  25.354  1.00  0.00     0.002 A 
ATOM     21  C   UNL A   1      32.180  27.741  25.451  1.00  0.00     0.064 A 
ATOM     22  C   UNL A   1      32.324  29.058  25.900  1.00  0.00     0.023 A 
ATOM     23  Cl  UNL A   1      33.287  26.591  26.130  1.00  0.00    -0.082 Cl
ENDBRANCH  14  16
ENDBRANCH   9  14
ENDBRANCH   7   8
ENDBRANCH   5   7
ENDBRANCH   4   5
ENDBRANCH   3   4
ENDBRANCH   2   3
ENDBRANCH   1   2
BRANCH   1  24
ATOM     24  C   UNL A   1      35.814  21.232  25.742  1.00  0.00     0.202 C 
BRANCH  24  25
ATOM     25  C   UNL A   1      36.955  20.510  25.015  1.00  0.00     0.261 C 
BRANCH  25  26
ATOM     26  O   UNL A   1      38.144  21.314  24.940  1.00  0.00    -0.460 OA
BRANCH  26  27
ATOM     27  C   UNL A   1      39.068  21.042  25.890  1.00  0.00     0.338 C 
ATOM     28  O   UNL A   1      39.580  19.953  26.127  1.00  0.00    -0.246 OA
BRANCH  27  29
ATOM     29  C   UNL A   1      39.554  22.285  26.515  1.00  0.00     0.060 A 
ATOM     30  C   UNL A   1      38.969  23.484  26.085  1.00  0.00     0.016 A 
ATOM     31  C   UNL A   1      40.610  22.299  27.429  1.00  0.00     0.016 A 
ATOM     32  C   UNL A   1      39.485  24.703  26.507  1.00  0.00     0.010 A 
ATOM     33  C   UNL A   1      41.133  23.530  27.847  1.00  0.00     0.010 A 
ATOM     34  C   UNL A   1      40.604  24.734  27.350  1.00  0.00    -0.014 A 
BRANCH  34  35
ATOM     35  C   UNL A   1      41.301  26.024  27.568  1.00  0.00     0.031 A 
ATOM     36  C   UNL A   1      40.607  27.104  28.356  1.00  0.00     0.074 A 
ATOM     37  C   UNL A   1      42.549  26.218  27.110  1.00  0.00     0.049 A 
ATOM     38  N   UNL A   1      41.040  28.289  28.696  1.00  0.00    -0.248 NA
ATOM     39  C   UNL A   1      39.242  26.807  28.824  1.00  0.00     0.031 C 
ATOM     40  C   UNL A   1      43.326  25.246  26.341  1.00  0.00     0.029 A 
ATOM     41  N   UNL A   1      43.379  27.307  27.212  1.00  0.00    -0.354 N 
ATOM     42  C   UNL A   1      39.999  28.888  29.395  1.00  0.00     0.074 A 
ATOM     43  C   UNL A   1      38.905  27.943  29.419  1.00  0.00     0.031 C 
ATOM     44  C   UNL A   1      44.512  25.792  26.021  1.00  0.00     0.029 A 
ATOM     45  C   UNL A   1      44.572  27.154  26.547  1.00  0.00     0.049 A 
ATOM     46  H   UNL A   1      43.141  28.120  27.715  1.00  0.00     0.167 HD
ATOM     47  C   UNL A   1      39.962  30.107  29.983  1.00  0.00     0.034 A 
ATOM     48  C   UNL A   1      45.589  28.021  26.373  1.00  0.00     0.034 A 
ATOM     49  C   UNL A   1      41.060  31.037  29.979  1.00  0.00     0.049 A 
ATOM     50  C   UNL A   1      45.519  29.378  27.024  1.00  0.00     0.074 A 
ATOM     51  C   UNL A   1      41.139  32.278  30.585  1.00  0.00     0.029 A 
ATOM     52  N   UNL A   1      42.267  30.833  29.328  1.00  0.00    -0.354 N 
ATOM     53  N   UNL A   1      44.577  29.880  27.788  1.00  0.00    -0.248 NA
ATOM     54  C   UNL A   1      46.667  30.275  26.823  1.00  0.00     0.031 C 
ATOM     55  C   UNL A   1      42.385  32.834  30.281  1.00  0.00     0.029 A 
ATOM     56  C   UNL A   1      43.092  31.928  29.506  1.00  0.00     0.049 A 
ATOM     57  H   UNL A   1      42.501  30.026  28.814  1.00  0.00     0.167 HD
ATOM     58  C   UNL A   1      45.033  31.133  28.184  1.00  0.00     0.074 A 
ATOM     59  C   UNL A   1      46.344  31.306  27.593  1.00  0.00     0.031 C 
ATOM     60  C   UNL A   1      44.418  32.062  28.957  1.00  0.00     0.034 A 
BRANCH  47  61
ATOM     61  C   UNL A   1      38.702  30.496  30.708  1.00  0.00     0.023 A 
ATOM     62  C   UNL A   1      38.564  30.193  32.077  1.00  0.00     0.012 A 
ATOM     63  C   UNL A   1      37.679  31.208  30.051  1.00  0.00     0.148 A 
ATOM     64  C   UNL A   1      37.415  30.564  32.776  1.00  0.00     0.002 A 
ATOM     65  C   UNL A   1      36.555  31.611  30.764  1.00  0.00     0.091 A 
ATOM     66  F   UNL A   1      37.817  31.467  28.743  1.00  0.00    -0.205 F 
ATOM     67  C   UNL A   1      36.417  31.283  32.122  1.00  0.00     0.022 A 
BRANCH  65  68
ATOM     68  S   UNL A   1      35.249  32.603  30.030  1.00  0.00     0.127 S 
ATOM     69  O   UNL A   1      34.748  31.707  28.988  1.00  0.00    -0.237 OA
ATOM     70  O   UNL A   1      34.337  32.797  31.156  1.00  0.00    -0.237 OA
ATOM     71  O   UNL A   1      35.891  33.820  29.552  1.00  0.00    -0.744 OA
ENDBRANCH  65  68
ENDBRANCH  47  61
BRANCH  48  72
ATOM     72  C   UNL A   1      46.783  27.613  25.579  1.00  0.00     0.023 A 
ATOM     73  C   UNL A   1      46.803  27.829  24.188  1.00  0.00     0.012 A 
ATOM     74  C   UNL A   1      47.908  27.035  26.200  1.00  0.00     0.148 A 
ATOM     75  C   UNL A   1      47.910  27.453  23.426  1.00  0.00     0.002 A 
ATOM     76  C   UNL A   1      49.029  26.715  25.443  1.00  0.00     0.091 A 
ATOM     77  F   UNL A   1      47.862  26.818  27.522  1.00  0.00    -0.205 F 
ATOM     78  C   UNL A   1      49.026  26.907  24.054  1.00  0.00     0.022 A 
BRANCH  76  79
ATOM     79  S   UNL A   1      50.556  26.135  26.192  1.00  0.00     0.127 S 
ATOM     80  O   UNL A   1      50.120  24.903  26.847  1.00  0.00    -0.237 OA
ATOM     81  O   UNL A   1      51.414  25.941  25.022  1.00  0.00    -0.237 OA
ATOM     82  O   UNL A   1      50.990  27.206  27.079  1.00  0.00    -0.744 OA
ENDBRANCH  76  79
ENDBRANCH  48  72
BRANCH  60  83
ATOM     83  C   UNL A   1      45.159  33.343  29.240  1.00  0.00     0.023 A 
ATOM     84  C   UNL A   1      46.002  33.429  30.366  1.00  0.00     0.012 A 
ATOM     85  C   UNL A   1      45.085  34.430  28.347  1.00  0.00     0.148 A 
ATOM     86  C   UNL A   1      46.736  34.588  30.614  1.00  0.00     0.002 A 
ATOM     87  C   UNL A   1      45.857  35.563  28.575  1.00  0.00     0.091 A 
ATOM     88  F   UNL A   1      44.264  34.336  27.290  1.00  0.00    -0.205 F 
ATOM     89  C   UNL A   1      46.674  35.649  29.713  1.00  0.00     0.022 A 
BRANCH  87  90
ATOM     90  S   UNL A   1      45.910  36.938  27.419  1.00  0.00     0.127 S 
ATOM     91  O   UNL A   1      46.376  36.283  26.197  1.00  0.00    -0.237 OA
ATOM     92  O   UNL A   1      44.513  37.370  27.384  1.00  0.00    -0.237 OA
ATOM     93  O   UNL A   1      46.827  37.911  27.996  1.00  0.00    -0.744 OA
ENDBRANCH  87  90
ENDBRANCH  60  83
ENDBRANCH  34  35
ENDBRANCH  27  29
ENDBRANCH  26  27
ENDBRANCH  25  26
ENDBRANCH  24  25
ENDBRANCH   1  24
TORSDOF 20
ENDMDL
MODEL 2
REMARK VINA RESULT:     -11.0      4.858      8.095
REMARK SMILES Cc1cccc(Cl)c1Nc1ccccc1CC(=O)OCCOCCOC(=O)c1ccc(-c2c3nc(c(-c4cccc(S(=O)(=O)[O-])c4F)c4ccc([nH]4)c(-c4cccc(S(=O)(=O)[O-])c4F)c4nc(c(-c5cccc(S(=O)(=O)[O-])c5F)c5ccc2[nH]5)C=C4)C=C3)cc1
REMARK SMILES IDX 22 1 21 2 20 3 19 4 17 5 18 6 16 7 15 8 10 9 11 10 12 11
REMARK SMILES IDX 14 12 13 13 9 14 8 16 1 17 2 18 3 19 4 20 6 21 5 22 7 23
REMARK SMILES IDX 23 24 24 25 25 26 26 27 27 28 28 29 29 30 90 31 30 32 89 33
REMARK SMILES IDX 31 34 32 35 33 36 83 37 34 38 88 39 82 40 84 41 35 42 87 43
REMARK SMILES IDX 81 44 80 45 36 47 68 48 48 49 67 50 49 51 52 52 66 53 85 54
REMARK SMILES IDX 50 55 51 56 65 58 86 59 53 60 37 61 38 62 46 63 39 64 41 65
REMARK SMILES IDX 47 66 40 67 42 68 43 69 44 70 45 71 69 72 70 73 78 74 71 75
REMARK SMILES IDX 73 76 79 77 72 78 74 79 75 80 76 81 77 82 54 83 55 84 63 85
REMARK SMILES IDX 56 86 58 87 64 88 57 89 59 90 60 91 61 92 62 93
REMARK H PARENT 9 15 84 46 52 57
REMARK Flexibility Score: inf
ROOT
ATOM      1  O   UNL A   1      30.768  30.518  24.860  1.00  0.00    -0.374 OA
ENDROOT
BRANCH   1   2
ATOM      2  C   UNL A   1      29.767  30.156  23.908  1.00  0.00     0.202 C 
BRANCH   2   3
ATOM      3  C   UNL A   1      30.227  29.859  22.476  1.00  0.00     0.261 C 
BRANCH   3   4
ATOM      4  O   UNL A   1      29.758  28.592  21.977  1.00  0.00    -0.463 OA
BRANCH   4   5
ATOM      5  C   UNL A   1      30.109  27.512  22.720  1.00  0.00     0.310 C 
ATOM      6  O   UNL A   1      29.321  26.845  23.388  1.00  0.00    -0.252 OA
BRANCH   5   7
ATOM      7  C   UNL A   1      31.580  27.178  22.711  1.00  0.00     0.160 C 
BRANCH   7   8
ATOM      8  C   UNL A   1      32.389  27.278  23.991  1.00  0.00    -0.013 A 
ATOM      9  C   UNL A   1      32.306  26.337  25.040  1.00  0.00     0.042 A 
ATOM     10  C   UNL A   1      33.044  26.563  26.220  1.00  0.00     0.026 A 
ATOM     11  C   UNL A   1      33.909  27.649  26.342  1.00  0.00     0.002 A 
ATOM     12  C   UNL A   1      33.313  28.336  24.115  1.00  0.00     0.006 A 
ATOM     13  C   UNL A   1      34.064  28.523  25.277  1.00  0.00     0.000 A 
BRANCH   9  14
ATOM     14  N   UNL A   1      31.653  25.091  24.938  1.00  0.00    -0.354 N 
ATOM     15  H   UNL A   1      30.670  25.148  24.903  1.00  0.00     0.167 HD
BRANCH  14  16
ATOM     16  C   UNL A   1      32.167  23.773  24.877  1.00  0.00     0.060 A 
ATOM     17  C   UNL A   1      30.490  23.119  26.687  1.00  0.00     0.046 C 
ATOM     18  C   UNL A   1      31.532  22.772  25.655  1.00  0.00    -0.026 A 
ATOM     19  C   UNL A   1      31.828  21.416  25.431  1.00  0.00     0.005 A 
ATOM     20  C   UNL A   1      32.762  21.035  24.472  1.00  0.00     0.002 A 
ATOM     21  C   UNL A   1      33.177  23.363  23.970  1.00  0.00     0.064 A 
ATOM     22  C   UNL A   1      33.452  22.008  23.759  1.00  0.00     0.023 A 
ATOM     23  Cl  UNL A   1      34.185  24.478  23.103  1.00  0.00    -0.082 Cl
ENDBRANCH  14  16
ENDBRANCH   9  14
ENDBRANCH   7   8
ENDBRANCH   5   7
ENDBRANCH   4   5
ENDBRANCH   3   4
ENDBRANCH   2   3
ENDBRANCH   1   2
BRANCH   1  24
ATOM     24  C   UNL A   1      30.689  31.832  25.408  1.00  0.00     0.202 C 
BRANCH  24  25
ATOM     25  C   UNL A   1      31.248  32.037  26.820  1.00  0.00     0.261 C 
BRANCH  25  26
ATOM     26  O   UNL A   1      32.641  31.694  26.907  1.00  0.00    -0.460 OA
BRANCH  26  27
ATOM     27  C   UNL A   1      33.413  32.624  27.516  1.00  0.00     0.338 C 
ATOM     28  O   UNL A   1      33.058  33.731  27.908  1.00  0.00    -0.246 OA
BRANCH  27  29
ATOM     29  C   UNL A   1      34.740  32.070  27.839  1.00  0.00     0.060 A 
ATOM     30  C   UNL A   1      34.806  30.697  28.111  1.00  0.00     0.016 A 
ATOM     31  C   UNL A   1      35.876  32.874  27.963  1.00  0.00     0.016 A 
ATOM     32  C   UNL A   1      35.987  30.135  28.581  1.00  0.00     0.010 A 
ATOM     33  C   UNL A   1      37.063  32.306  28.444  1.00  0.00     0.010 A 
ATOM     34  C   UNL A   1      37.108  30.946  28.800  1.00  0.00    -0.014 A 
BRANCH  34  35
ATOM     35  C   UNL A   1      38.260  30.389  29.550  1.00  0.00     0.031 A 
ATOM     36  C   UNL A   1      38.472  30.813  30.979  1.00  0.00     0.074 A 
ATOM     37  C   UNL A   1      39.081  29.489  28.982  1.00  0.00     0.049 A 
ATOM     38  N   UNL A   1      39.387  30.428  31.829  1.00  0.00    -0.248 NA
ATOM     39  C   UNL A   1      37.525  31.800  31.524  1.00  0.00     0.031 C 
ATOM     40  C   UNL A   1      38.973  28.997  27.609  1.00  0.00     0.029 A 
ATOM     41  N   UNL A   1      40.178  28.839  29.488  1.00  0.00    -0.354 N 
ATOM     42  C   UNL A   1      39.144  31.140  32.998  1.00  0.00     0.074 A 
ATOM     43  C   UNL A   1      38.003  31.993  32.744  1.00  0.00     0.031 C 
ATOM     44  C   UNL A   1      39.980  28.138  27.374  1.00  0.00     0.029 A 
ATOM     45  C   UNL A   1      40.810  28.032  28.572  1.00  0.00     0.049 A 
ATOM     46  H   UNL A   1      40.483  28.940  30.419  1.00  0.00     0.167 HD
ATOM     47  C   UNL A   1      39.796  31.076  34.182  1.00  0.00     0.034 A 
ATOM     48  C   UNL A   1      41.938  27.302  28.685  1.00  0.00     0.034 A 
ATOM     49  C   UNL A   1      40.915  30.211  34.439  1.00  0.00     0.049 A 
ATOM     50  C   UNL A   1      42.656  27.259  30.010  1.00  0.00     0.074 A 
ATOM     51  C   UNL A   1      41.616  30.038  35.620  1.00  0.00     0.029 A 
ATOM     52  N   UNL A   1      41.504  29.379  33.500  1.00  0.00    -0.354 N 
ATOM     53  N   UNL A   1      42.338  27.842  31.141  1.00  0.00    -0.248 NA
ATOM     54  C   UNL A   1      43.867  26.428  30.085  1.00  0.00     0.031 C 
ATOM     55  C   UNL A   1      42.645  29.120  35.387  1.00  0.00     0.029 A 
ATOM     56  C   UNL A   1      42.568  28.701  34.067  1.00  0.00     0.049 A 
ATOM     57  H   UNL A   1      41.210  29.286  32.565  1.00  0.00     0.167 HD
ATOM     58  C   UNL A   1      43.285  27.422  32.068  1.00  0.00     0.074 A 
ATOM     59  C   UNL A   1      44.179  26.519  31.371  1.00  0.00     0.031 C 
ATOM     60  C   UNL A   1      43.414  27.762  33.375  1.00  0.00     0.034 A 
BRANCH  47  61
ATOM     61  C   UNL A   1      39.296  31.948  35.304  1.00  0.00     0.023 A 
ATOM     62  C   UNL A   1      38.355  31.434  36.218  1.00  0.00     0.012 A 
ATOM     63  C   UNL A   1      39.797  33.252  35.485  1.00  0.00     0.148 A 
ATOM     64  C   UNL A   1      37.896  32.215  37.279  1.00  0.00     0.002 A 
ATOM     65  C   UNL A   1      39.365  34.010  36.568  1.00  0.00     0.091 A 
ATOM     66  F   UNL A   1      40.674  33.731  34.591  1.00  0.00    -0.205 F 
ATOM     67  C   UNL A   1      38.409  33.497  37.460  1.00  0.00     0.022 A 
BRANCH  65  68
ATOM     68  S   UNL A   1      40.021  35.643  36.928  1.00  0.00     0.127 S 
ATOM     69  O   UNL A   1      39.583  36.402  35.757  1.00  0.00    -0.237 OA
ATOM     70  O   UNL A   1      39.329  35.987  38.170  1.00  0.00    -0.237 OA
ATOM     71  O   UNL A   1      41.461  35.476  37.062  1.00  0.00    -0.744 OA
ENDBRANCH  65  68
ENDBRANCH  47  61
BRANCH  48  72
ATOM     72  C   UNL A   1      42.434  26.518  27.519  1.00  0.00     0.023 A 
ATOM     73  C   UNL A   1      43.306  27.120  26.593  1.00  0.00     0.012 A 
ATOM     74  C   UNL A   1      42.065  25.170  27.338  1.00  0.00     0.148 A 
ATOM     75  C   UNL A   1      43.781  26.404  25.493  1.00  0.00     0.002 A 
ATOM     76  C   UNL A   1      42.586  24.447  26.272  1.00  0.00     0.091 A 
ATOM     77  F   UNL A   1      41.217  24.620  28.218  1.00  0.00    -0.205 F 
ATOM     78  C   UNL A   1      43.430  25.066  25.338  1.00  0.00     0.022 A 
BRANCH  76  79
ATOM     79  S   UNL A   1      42.294  22.684  26.076  1.00  0.00     0.127 S 
ATOM     80  O   UNL A   1      42.974  22.406  24.813  1.00  0.00    -0.237 OA
ATOM     81  O   UNL A   1      42.948  22.134  27.264  1.00  0.00    -0.237 OA
ATOM     82  O   UNL A   1      40.845  22.525  26.065  1.00  0.00    -0.744 OA
ENDBRANCH  76  79
ENDBRANCH  48  72
BRANCH  60  83
ATOM     83  C   UNL A   1      44.541  27.138  34.156  1.00  0.00     0.023 A 
ATOM     84  C   UNL A   1      45.740  27.852  34.347  1.00  0.00     0.012 A 
ATOM     85  C   UNL A   1      44.380  25.880  34.770  1.00  0.00     0.148 A 
ATOM     86  C   UNL A   1      46.773  27.311  35.111  1.00  0.00     0.002 A 
ATOM     87  C   UNL A   1      45.395  25.368  35.570  1.00  0.00     0.091 A 
ATOM     88  F   UNL A   1      43.238  25.207  34.562  1.00  0.00    -0.205 F 
ATOM     89  C   UNL A   1      46.596  26.077  35.732  1.00  0.00     0.022 A 
BRANCH  87  90
ATOM     90  S   UNL A   1      45.216  23.832  36.484  1.00  0.00     0.127 S 
ATOM     91  O   UNL A   1      44.215  23.125  35.686  1.00  0.00    -0.237 OA
ATOM     92  O   UNL A   1      46.564  23.267  36.410  1.00  0.00    -0.237 OA
ATOM     93  O   UNL A   1      44.795  24.211  37.826  1.00  0.00    -0.744 OA
ENDBRANCH  87  90
ENDBRANCH  60  83
ENDBRANCH  34  35
ENDBRANCH  27  29
ENDBRANCH  26  27
ENDBRANCH  25  26
ENDBRANCH  24  25
ENDBRANCH   1  24
TORSDOF 20
ENDMDL
MODEL 3
REMARK VINA RESULT:     -10.8      4.804      7.958
REMARK SMILES Cc1cccc(Cl)c1Nc1ccccc1CC(=O)OCCOCCOC(=O)c1ccc(-c2c3nc(c(-c4cccc(S(=O)(=O)[O-])c4F)c4ccc([nH]4)c(-c4cccc(S(=O)(=O)[O-])c4F)c4nc(c(-c5cccc(S(=O)(=O)[O-])c5F)c5ccc2[nH]5)C=C4)C=C3)cc1
REMARK SMILES IDX 22 1 21 2 20 3 19 4 17 5 18 6 16 7 15 8 10 9 11 10 12 11
REMARK SMILES IDX 14 12 13 13 9 14 8 16 1 17 2 18 3 19 4 20 6 21 5 22 7 23
REMARK SMILES IDX 23 24 24 25 25 26 26 27 27 28 28 29 29 30 90 31 30 32 89 33
REMARK SMILES IDX 31 34 32 35 33 36 83 37 34 38 88 39 82 40 84 41 35 42 87 43
REMARK SMILES IDX 81 44 80 45 36 47 68 48 48 49 67 50 49 51 52 52 66 53 85 54
REMARK SMILES IDX 50 55 51 56 65 58 86 59 53 60 37 61 38 62 46 63 39 64 41 65
REMARK SMILES IDX 47 66 40 67 42 68 43 69 44 70 45 71 69 72 70 73 78 74 71 75
REMARK SMILES IDX 73 76 79 77 72 78 74 79 75 80 76 81 77 82 54 83 55 84 63 85
REMARK SMILES IDX 56 86 58 87 64 88 57 89 59 90 60 91 61 92 62 93
REMARK H PARENT 9 15 84 46 52 57
REMARK Flexibility Score: inf
ROOT
ATOM      1  O   UNL A   1      32.298  28.911  25.963  1.00  0.00    -0.374 OA
ENDROOT
BRANCH   1   2
ATOM      2  C   UNL A   1      31.488  28.028  26.739  1.00  0.00     0.202 C 
BRANCH   2   3
ATOM      3  C   UNL A   1      30.933  26.781  26.042  1.00  0.00     0.261 C 
BRANCH   3   4
ATOM      4  O   UNL A   1      30.880  25.624  26.898  1.00  0.00    -0.463 OA
BRANCH   4   5
ATOM      5  C   UNL A   1      31.427  24.495  26.380  1.00  0.00     0.310 C 
ATOM      6  O   UNL A   1      32.340  23.863  26.909  1.00  0.00    -0.252 OA
BRANCH   5   7
ATOM      7  C   UNL A   1      30.858  24.058  25.053  1.00  0.00     0.160 C 
BRANCH   7   8
ATOM      8  C   UNL A   1      31.758  23.968  23.834  1.00  0.00    -0.013 A 
ATOM      9  C   UNL A   1      32.727  22.956  23.655  1.00  0.00     0.042 A 
ATOM     10  C   UNL A   1      33.565  23.007  22.522  1.00  0.00     0.026 A 
ATOM     11  C   UNL A   1      33.406  23.985  21.541  1.00  0.00     0.002 A 
ATOM     12  C   UNL A   1      31.580  24.912  22.802  1.00  0.00     0.006 A 
ATOM     13  C   UNL A   1      32.394  24.924  21.669  1.00  0.00     0.000 A 
BRANCH   9  14
ATOM     14  N   UNL A   1      32.821  21.797  24.452  1.00  0.00    -0.354 N 
ATOM     15  H   UNL A   1      31.973  21.519  24.869  1.00  0.00     0.167 HD
BRANCH  14  16
ATOM     16  C   UNL A   1      33.925  20.963  24.754  1.00  0.00     0.060 A 
ATOM     17  C   UNL A   1      32.468  18.952  24.161  1.00  0.00     0.046 C 
ATOM     18  C   UNL A   1      33.796  19.572  24.513  1.00  0.00    -0.026 A 
ATOM     19  C   UNL A   1      34.933  18.746  24.542  1.00  0.00     0.005 A 
ATOM     20  C   UNL A   1      36.190  19.268  24.835  1.00  0.00     0.002 A 
ATOM     21  C   UNL A   1      35.199  21.452  25.136  1.00  0.00     0.064 A 
ATOM     22  C   UNL A   1      36.320  20.614  25.153  1.00  0.00     0.023 A 
ATOM     23  Cl  UNL A   1      35.474  23.082  25.663  1.00  0.00    -0.082 Cl
ENDBRANCH  14  16
ENDBRANCH   9  14
ENDBRANCH   7   8
ENDBRANCH   5   7
ENDBRANCH   4   5
ENDBRANCH   3   4
ENDBRANCH   2   3
ENDBRANCH   1   2
BRANCH   1  24
ATOM     24  C   UNL A   1      31.648  30.046  25.394  1.00  0.00     0.202 C 
BRANCH  24  25
ATOM     25  C   UNL A   1      31.626  31.332  26.229  1.00  0.00     0.261 C 
BRANCH  25  26
ATOM     26  O   UNL A   1      32.458  31.235  27.397  1.00  0.00    -0.460 OA
BRANCH  26  27
ATOM     27  C   UNL A   1      33.307  32.274  27.570  1.00  0.00     0.338 C 
ATOM     28  O   UNL A   1      33.013  33.463  27.623  1.00  0.00    -0.246 OA
BRANCH  27  29
ATOM     29  C   UNL A   1      34.663  31.791  27.889  1.00  0.00     0.060 A 
ATOM     30  C   UNL A   1      34.810  30.416  28.115  1.00  0.00     0.016 A 
ATOM     31  C   UNL A   1      35.746  32.658  28.053  1.00  0.00     0.016 A 
ATOM     32  C   UNL A   1      36.020  29.911  28.579  1.00  0.00     0.010 A 
ATOM     33  C   UNL A   1      36.961  32.148  28.528  1.00  0.00     0.010 A 
ATOM     34  C   UNL A   1      37.087  30.781  28.837  1.00  0.00    -0.014 A 
BRANCH  34  35
ATOM     35  C   UNL A   1      38.264  30.271  29.581  1.00  0.00     0.031 A 
ATOM     36  C   UNL A   1      38.480  30.721  31.001  1.00  0.00     0.074 A 
ATOM     37  C   UNL A   1      39.105  29.387  29.015  1.00  0.00     0.049 A 
ATOM     38  N   UNL A   1      39.417  30.376  31.845  1.00  0.00    -0.248 NA
ATOM     39  C   UNL A   1      37.510  31.687  31.543  1.00  0.00     0.031 C 
ATOM     40  C   UNL A   1      38.996  28.873  27.651  1.00  0.00     0.029 A 
ATOM     41  N   UNL A   1      40.228  28.777  29.517  1.00  0.00    -0.354 N 
ATOM     42  C   UNL A   1      39.166  31.098  33.007  1.00  0.00     0.074 A 
ATOM     43  C   UNL A   1      37.997  31.912  32.755  1.00  0.00     0.031 C 
ATOM     44  C   UNL A   1      40.025  28.041  27.415  1.00  0.00     0.029 A 
ATOM     45  C   UNL A   1      40.873  27.977  28.605  1.00  0.00     0.049 A 
ATOM     46  H   UNL A   1      40.540  28.902  30.442  1.00  0.00     0.167 HD
ATOM     47  C   UNL A   1      39.834  31.071  34.184  1.00  0.00     0.034 A 
ATOM     48  C   UNL A   1      42.023  27.283  28.714  1.00  0.00     0.034 A 
ATOM     49  C   UNL A   1      40.982  30.243  34.439  1.00  0.00     0.049 A 
ATOM     50  C   UNL A   1      42.758  27.281  30.030  1.00  0.00     0.074 A 
ATOM     51  C   UNL A   1      41.702  30.109  35.613  1.00  0.00     0.029 A 
ATOM     52  N   UNL A   1      41.585  29.416  33.504  1.00  0.00    -0.354 N 
ATOM     53  N   UNL A   1      42.436  27.870  31.157  1.00  0.00    -0.248 NA
ATOM     54  C   UNL A   1      43.994  26.488  30.102  1.00  0.00     0.031 C 
ATOM     55  C   UNL A   1      42.755  29.218  35.380  1.00  0.00     0.029 A 
ATOM     56  C   UNL A   1      42.675  28.778  34.068  1.00  0.00     0.049 A 
ATOM     57  H   UNL A   1      41.282  29.301  32.574  1.00  0.00     0.167 HD
ATOM     58  C   UNL A   1      43.407  27.493  32.078  1.00  0.00     0.074 A 
ATOM     59  C   UNL A   1      44.319  26.607  31.383  1.00  0.00     0.031 C 
ATOM     60  C   UNL A   1      43.541  27.856  33.378  1.00  0.00     0.034 A 
BRANCH  47  61
ATOM     61  C   UNL A   1      39.322  31.943  35.299  1.00  0.00     0.023 A 
ATOM     62  C   UNL A   1      38.375  31.428  36.206  1.00  0.00     0.012 A 
ATOM     63  C   UNL A   1      39.816  33.249  35.482  1.00  0.00     0.148 A 
ATOM     64  C   UNL A   1      37.904  32.209  37.261  1.00  0.00     0.002 A 
ATOM     65  C   UNL A   1      39.373  34.008  36.559  1.00  0.00     0.091 A 
ATOM     66  F   UNL A   1      40.699  33.729  34.594  1.00  0.00    -0.205 F 
ATOM     67  C   UNL A   1      38.411  33.494  37.444  1.00  0.00     0.022 A 
BRANCH  65  68
ATOM     68  S   UNL A   1      40.019  35.644  36.921  1.00  0.00     0.127 S 
ATOM     69  O   UNL A   1      41.453  35.378  37.031  1.00  0.00    -0.237 OA
ATOM     70  O   UNL A   1      39.630  36.401  35.731  1.00  0.00    -0.237 OA
ATOM     71  O   UNL A   1      39.366  36.070  38.151  1.00  0.00    -0.744 OA
ENDBRANCH  65  68
ENDBRANCH  47  61
BRANCH  48  72
ATOM     72  C   UNL A   1      42.529  26.497  27.553  1.00  0.00     0.023 A 
ATOM     73  C   UNL A   1      43.415  27.096  26.638  1.00  0.00     0.012 A 
ATOM     74  C   UNL A   1      42.155  25.152  27.366  1.00  0.00     0.148 A 
ATOM     75  C   UNL A   1      43.899  26.378  25.543  1.00  0.00     0.002 A 
ATOM     76  C   UNL A   1      42.684  24.427  26.305  1.00  0.00     0.091 A 
ATOM     77  F   UNL A   1      41.293  24.606  28.235  1.00  0.00    -0.205 F 
ATOM     78  C   UNL A   1      43.543  25.042  25.383  1.00  0.00     0.022 A 
BRANCH  76  79
ATOM     79  S   UNL A   1      42.384  22.666  26.104  1.00  0.00     0.127 S 
ATOM     80  O   UNL A   1      43.017  22.400  24.814  1.00  0.00    -0.237 OA
ATOM     81  O   UNL A   1      43.082  22.105  27.262  1.00  0.00    -0.237 OA
ATOM     82  O   UNL A   1      40.937  22.507  26.146  1.00  0.00    -0.744 OA
ENDBRANCH  76  79
ENDBRANCH  48  72
BRANCH  60  83
ATOM     83  C   UNL A   1      44.696  27.277  34.154  1.00  0.00     0.023 A 
ATOM     84  C   UNL A   1      45.927  27.960  34.190  1.00  0.00     0.012 A 
ATOM     85  C   UNL A   1      44.534  26.101  34.913  1.00  0.00     0.148 A 
ATOM     86  C   UNL A   1      46.989  27.465  34.945  1.00  0.00     0.002 A 
ATOM     87  C   UNL A   1      45.582  25.641  35.702  1.00  0.00     0.091 A 
ATOM     88  F   UNL A   1      43.360  25.455  34.852  1.00  0.00    -0.205 F 
ATOM     89  C   UNL A   1      46.814  26.315  35.711  1.00  0.00     0.022 A 
BRANCH  87  90
ATOM     90  S   UNL A   1      45.414  24.222  36.791  1.00  0.00     0.127 S 
ATOM     91  O   UNL A   1      46.738  24.160  37.408  1.00  0.00    -0.237 OA
ATOM     92  O   UNL A   1      44.341  24.646  37.692  1.00  0.00    -0.237 OA
ATOM     93  O   UNL A   1      45.068  23.097  35.933  1.00  0.00    -0.744 OA
ENDBRANCH  87  90
ENDBRANCH  60  83
ENDBRANCH  34  35
ENDBRANCH  27  29
ENDBRANCH  26  27
ENDBRANCH  25  26
ENDBRANCH  24  25
ENDBRANCH   1  24
TORSDOF 20
ENDMDL
