MODEL 1
REMARK VINA RESULT:     -11.0      0.000      0.000
REMARK SMILES O=C(OCCOCCOC(=O)c1cc(F)ccc1NS(=O)(=O)c1ccc(Cl)s1)c1ccc(-c2c3nc(c(-c4cccc(S(=O)(=O)[O-])c4F)c4ccc([nH]4)c(-c4cccc(S(=O)(=O)[O-])c4F)c4nc(c(-c5cccc(S(=O)(=O)[O-])c5F)c5ccc2[nH]5)C=C4)C=C3)cc1
REMARK SMILES IDX 6 1 5 2 4 3 3 4 2 5 1 6 29 7 30 8 91 9 31 10 90 11 32 12
REMARK SMILES IDX 33 13 34 14 84 15 35 16 89 17 83 18 85 19 36 20 88 21 82 22
REMARK SMILES IDX 81 23 37 25 69 26 49 27 68 28 50 29 53 30 67 31 86 32 51 33
REMARK SMILES IDX 52 34 66 36 87 37 54 38 38 39 39 40 47 41 40 42 42 43 48 44
REMARK SMILES IDX 41 45 43 46 44 47 45 48 46 49 70 50 71 51 79 52 72 53 74 54
REMARK SMILES IDX 80 55 73 56 75 57 76 58 77 59 78 60 55 61 56 62 64 63 57 64
REMARK SMILES IDX 59 65 65 66 58 67 60 68 61 69 62 70 63 71 7 72 8 73 9 74
REMARK SMILES IDX 10 75 11 76 12 77 13 78 18 79 14 80 17 81 15 82 16 83 19 84
REMARK SMILES IDX 20 86 21 87 22 88 23 89 24 90 28 91 25 92 26 93 27 94
REMARK H PARENT 85 24 53 35 19 85
REMARK Flexibility Score: inf
ROOT
ATOM      1  O   UNL A   1      33.210  30.617  26.308  1.00  0.00    -0.374 OA
ENDROOT
BRANCH   1   2
ATOM      2  C   UNL A   1      31.914  30.886  26.827  1.00  0.00     0.202 C 
BRANCH   2   3
ATOM      3  C   UNL A   1      31.461  32.345  26.833  1.00  0.00     0.261 C 
BRANCH   3   4
ATOM      4  O   UNL A   1      32.599  33.224  26.854  1.00  0.00    -0.460 OA
BRANCH   4   5
ATOM      5  C   UNL A   1      33.151  33.772  27.966  1.00  0.00     0.338 C 
ATOM      6  O   UNL A   1      32.661  34.791  28.444  1.00  0.00    -0.246 OA
BRANCH   5   7
ATOM      7  C   UNL A   1      34.363  33.181  28.603  1.00  0.00     0.060 A 
ATOM      8  C   UNL A   1      34.300  32.137  29.522  1.00  0.00     0.016 A 
ATOM      9  C   UNL A   1      35.628  33.636  28.204  1.00  0.00     0.016 A 
ATOM     10  C   UNL A   1      35.433  31.635  30.131  1.00  0.00     0.010 A 
ATOM     11  C   UNL A   1      36.789  33.062  28.739  1.00  0.00     0.010 A 
ATOM     12  C   UNL A   1      36.691  32.068  29.721  1.00  0.00    -0.014 A 
BRANCH  12  13
ATOM     13  C   UNL A   1      37.862  31.443  30.365  1.00  0.00     0.031 A 
ATOM     14  C   UNL A   1      38.129  31.700  31.812  1.00  0.00     0.074 A 
ATOM     15  C   UNL A   1      38.580  30.543  29.663  1.00  0.00     0.049 A 
ATOM     16  N   UNL A   1      39.075  31.216  32.568  1.00  0.00    -0.248 NA
ATOM     17  C   UNL A   1      37.206  32.613  32.508  1.00  0.00     0.031 C 
ATOM     18  C   UNL A   1      38.328  30.178  28.266  1.00  0.00     0.029 A 
ATOM     19  N   UNL A   1      39.626  29.738  30.030  1.00  0.00    -0.354 N 
ATOM     20  C   UNL A   1      38.901  31.808  33.810  1.00  0.00     0.074 A 
ATOM     21  C   UNL A   1      37.747  32.673  33.717  1.00  0.00     0.031 C 
ATOM     22  C   UNL A   1      39.153  29.182  27.914  1.00  0.00     0.029 A 
ATOM     23  C   UNL A   1      40.048  28.896  29.027  1.00  0.00     0.049 A 
ATOM     24  H   UNL A   1      40.037  29.761  30.924  1.00  0.00     0.167 HD
ATOM     25  C   UNL A   1      39.646  31.641  34.924  1.00  0.00     0.034 A 
ATOM     26  C   UNL A   1      41.060  28.007  29.004  1.00  0.00     0.034 A 
ATOM     27  C   UNL A   1      40.768  30.748  34.996  1.00  0.00     0.049 A 
ATOM     28  C   UNL A   1      41.885  27.853  30.251  1.00  0.00     0.074 A 
ATOM     29  C   UNL A   1      41.621  30.521  36.058  1.00  0.00     0.029 A 
ATOM     30  N   UNL A   1      41.189  29.930  33.955  1.00  0.00    -0.354 N 
ATOM     31  N   UNL A   1      41.710  28.419  31.423  1.00  0.00    -0.248 NA
ATOM     32  C   UNL A   1      43.040  26.950  30.185  1.00  0.00     0.031 C 
ATOM     33  C   UNL A   1      42.572  29.580  35.650  1.00  0.00     0.029 A 
ATOM     34  C   UNL A   1      42.297  29.203  34.344  1.00  0.00     0.049 A 
ATOM     35  H   UNL A   1      40.761  29.878  33.069  1.00  0.00     0.167 HD
ATOM     36  C   UNL A   1      42.726  27.939  32.236  1.00  0.00     0.074 A 
ATOM     37  C   UNL A   1      43.498  27.013  31.429  1.00  0.00     0.031 C 
ATOM     38  C   UNL A   1      43.009  28.251  33.524  1.00  0.00     0.034 A 
BRANCH  25  39
ATOM     39  C   UNL A   1      39.281  32.462  36.129  1.00  0.00     0.023 A 
ATOM     40  C   UNL A   1      38.364  31.962  37.075  1.00  0.00     0.012 A 
ATOM     41  C   UNL A   1      39.847  33.738  36.319  1.00  0.00     0.148 A 
ATOM     42  C   UNL A   1      37.989  32.735  38.174  1.00  0.00     0.002 A 
ATOM     43  C   UNL A   1      39.497  34.487  37.437  1.00  0.00     0.091 A 
ATOM     44  F   UNL A   1      40.692  34.208  35.391  1.00  0.00    -0.205 F 
ATOM     45  C   UNL A   1      38.562  33.991  38.359  1.00  0.00     0.022 A 
BRANCH  43  46
ATOM     46  S   UNL A   1      40.223  36.092  37.786  1.00  0.00     0.127 S 
ATOM     47  O   UNL A   1      39.430  36.531  38.933  1.00  0.00    -0.237 OA
ATOM     48  O   UNL A   1      41.609  35.743  38.102  1.00  0.00    -0.237 OA
ATOM     49  O   UNL A   1      40.059  36.878  36.571  1.00  0.00    -0.744 OA
ENDBRANCH  43  46
ENDBRANCH  25  39
BRANCH  26  50
ATOM     50  C   UNL A   1      41.308  27.202  27.773  1.00  0.00     0.023 A 
ATOM     51  C   UNL A   1      41.916  27.805  26.656  1.00  0.00     0.012 A 
ATOM     52  C   UNL A   1      41.041  25.817  27.740  1.00  0.00     0.148 A 
ATOM     53  C   UNL A   1      42.254  27.045  25.533  1.00  0.00     0.002 A 
ATOM     54  C   UNL A   1      41.439  25.056  26.647  1.00  0.00     0.091 A 
ATOM     55  F   UNL A   1      40.440  25.262  28.802  1.00  0.00    -0.205 F 
ATOM     56  C   UNL A   1      42.033  25.670  25.534  1.00  0.00     0.022 A 
BRANCH  54  57
ATOM     57  S   UNL A   1      41.340  23.261  26.634  1.00  0.00     0.127 S 
ATOM     58  O   UNL A   1      39.902  23.040  26.501  1.00  0.00    -0.237 OA
ATOM     59  O   UNL A   1      42.128  22.923  25.448  1.00  0.00    -0.237 OA
ATOM     60  O   UNL A   1      41.932  22.823  27.890  1.00  0.00    -0.744 OA
ENDBRANCH  54  57
ENDBRANCH  26  50
BRANCH  38  61
ATOM     61  C   UNL A   1      44.198  27.590  34.160  1.00  0.00     0.023 A 
ATOM     62  C   UNL A   1      45.436  28.261  34.172  1.00  0.00     0.012 A 
ATOM     63  C   UNL A   1      44.043  26.395  34.887  1.00  0.00     0.148 A 
ATOM     64  C   UNL A   1      46.506  27.749  34.903  1.00  0.00     0.002 A 
ATOM     65  C   UNL A   1      45.098  25.916  35.651  1.00  0.00     0.091 A 
ATOM     66  F   UNL A   1      42.857  25.769  34.842  1.00  0.00    -0.205 F 
ATOM     67  C   UNL A   1      46.332  26.589  35.656  1.00  0.00     0.022 A 
BRANCH  65  68
ATOM     68  S   UNL A   1      44.932  24.498  36.740  1.00  0.00     0.127 S 
ATOM     69  O   UNL A   1      44.373  23.494  35.836  1.00  0.00    -0.237 OA
ATOM     70  O   UNL A   1      46.316  24.254  37.143  1.00  0.00    -0.237 OA
ATOM     71  O   UNL A   1      44.052  24.922  37.821  1.00  0.00    -0.744 OA
ENDBRANCH  65  68
ENDBRANCH  38  61
ENDBRANCH  12  13
ENDBRANCH   5   7
ENDBRANCH   4   5
ENDBRANCH   3   4
ENDBRANCH   2   3
ENDBRANCH   1   2
BRANCH   1  72
ATOM     72  C   UNL A   1      34.041  29.759  27.090  1.00  0.00     0.202 C 
BRANCH  72  73
ATOM     73  C   UNL A   1      34.302  28.484  26.278  1.00  0.00     0.261 C 
BRANCH  73  74
ATOM     74  O   UNL A   1      33.410  28.474  25.146  1.00  0.00    -0.460 OA
BRANCH  74  75
ATOM     75  C   UNL A   1      33.274  27.294  24.487  1.00  0.00     0.340 C 
ATOM     76  O   UNL A   1      33.981  26.833  23.607  1.00  0.00    -0.246 OA
BRANCH  75  77
ATOM     77  C   UNL A   1      32.271  26.512  25.244  1.00  0.00     0.087 A 
ATOM     78  C   UNL A   1      32.719  25.444  26.039  1.00  0.00     0.057 A 
ATOM     79  C   UNL A   1      30.892  26.719  25.011  1.00  0.00     0.064 A 
ATOM     80  C   UNL A   1      31.803  24.539  26.542  1.00  0.00     0.124 A 
ATOM     81  C   UNL A   1      30.009  25.736  25.474  1.00  0.00     0.030 A 
ATOM     82  F   UNL A   1      32.224  23.521  27.301  1.00  0.00    -0.207 F 
ATOM     83  C   UNL A   1      30.458  24.653  26.234  1.00  0.00     0.041 A 
BRANCH  79  84
ATOM     84  N   UNL A   1      30.426  27.988  24.508  1.00  0.00    -0.278 N 
ATOM     85  H   UNL A   1      30.653  28.797  25.021  1.00  0.00     0.180 HD
BRANCH  84  86
ATOM     86  S   UNL A   1      29.517  28.178  23.103  1.00  0.00     0.271 S 
ATOM     87  O   UNL A   1      30.352  27.801  21.986  1.00  0.00    -0.200 OA
ATOM     88  O   UNL A   1      28.211  27.594  23.323  1.00  0.00    -0.200 OA
BRANCH  86  89
ATOM     89  C   UNL A   1      29.233  29.923  22.890  1.00  0.00     0.141 A 
ATOM     90  C   UNL A   1      29.174  30.966  23.799  1.00  0.00     0.036 A 
ATOM     91  S   UNL A   1      28.821  30.442  21.308  1.00  0.00    -0.110 S 
ATOM     92  C   UNL A   1      28.624  32.146  23.218  1.00  0.00     0.034 A 
ATOM     93  C   UNL A   1      28.372  31.966  21.882  1.00  0.00     0.094 A 
ATOM     94  Cl  UNL A   1      27.649  33.098  20.813  1.00  0.00    -0.072 Cl
ENDBRANCH  86  89
ENDBRANCH  84  86
ENDBRANCH  79  84
ENDBRANCH  75  77
ENDBRANCH  74  75
ENDBRANCH  73  74
ENDBRANCH  72  73
ENDBRANCH   1  72
TORSDOF 20
ENDMDL
MODEL 2
REMARK VINA RESULT:     -11.0      2.833      3.707
REMARK SMILES O=C(OCCOCCOC(=O)c1cc(F)ccc1NS(=O)(=O)c1ccc(Cl)s1)c1ccc(-c2c3nc(c(-c4cccc(S(=O)(=O)[O-])c4F)c4ccc([nH]4)c(-c4cccc(S(=O)(=O)[O-])c4F)c4nc(c(-c5cccc(S(=O)(=O)[O-])c5F)c5ccc2[nH]5)C=C4)C=C3)cc1
REMARK SMILES IDX 6 1 5 2 4 3 3 4 2 5 1 6 29 7 30 8 91 9 31 10 90 11 32 12
REMARK SMILES IDX 33 13 34 14 84 15 35 16 89 17 83 18 85 19 36 20 88 21 82 22
REMARK SMILES IDX 81 23 37 25 69 26 49 27 68 28 50 29 53 30 67 31 86 32 51 33
REMARK SMILES IDX 52 34 66 36 87 37 54 38 38 39 39 40 47 41 40 42 42 43 48 44
REMARK SMILES IDX 41 45 43 46 44 47 45 48 46 49 70 50 71 51 79 52 72 53 74 54
REMARK SMILES IDX 80 55 73 56 75 57 76 58 77 59 78 60 55 61 56 62 64 63 57 64
REMARK SMILES IDX 59 65 65 66 58 67 60 68 61 69 62 70 63 71 7 72 8 73 9 74
REMARK SMILES IDX 10 75 11 76 12 77 13 78 18 79 14 80 17 81 15 82 16 83 19 84
REMARK SMILES IDX 20 86 21 87 22 88 23 89 24 90 28 91 25 92 26 93 27 94
REMARK H PARENT 85 24 53 35 19 85
REMARK Flexibility Score: inf
ROOT
ATOM      1  O   UNL A   1      33.255  30.632  27.378  1.00  0.00    -0.374 OA
ENDROOT
BRANCH   1   2
ATOM      2  C   UNL A   1      32.138  31.492  27.191  1.00  0.00     0.202 C 
BRANCH   2   3
ATOM      3  C   UNL A   1      32.437  32.932  26.777  1.00  0.00     0.261 C 
BRANCH   3   4
ATOM      4  O   UNL A   1      32.132  33.837  27.852  1.00  0.00    -0.460 OA
BRANCH   4   5
ATOM      5  C   UNL A   1      33.041  34.550  28.565  1.00  0.00     0.338 C 
ATOM      6  O   UNL A   1      32.884  35.759  28.705  1.00  0.00    -0.246 OA
BRANCH   5   7
ATOM      7  C   UNL A   1      34.247  33.900  29.155  1.00  0.00     0.060 A 
ATOM      8  C   UNL A   1      34.173  32.782  29.982  1.00  0.00     0.016 A 
ATOM      9  C   UNL A   1      35.516  34.380  28.802  1.00  0.00     0.016 A 
ATOM     10  C   UNL A   1      35.300  32.223  30.551  1.00  0.00     0.010 A 
ATOM     11  C   UNL A   1      36.671  33.755  29.291  1.00  0.00     0.010 A 
ATOM     12  C   UNL A   1      36.562  32.682  30.185  1.00  0.00    -0.014 A 
BRANCH  12  13
ATOM     13  C   UNL A   1      37.727  31.998  30.779  1.00  0.00     0.031 A 
ATOM     14  C   UNL A   1      38.049  32.214  32.222  1.00  0.00     0.074 A 
ATOM     15  C   UNL A   1      38.386  31.084  30.038  1.00  0.00     0.049 A 
ATOM     16  N   UNL A   1      38.998  31.678  32.937  1.00  0.00    -0.248 NA
ATOM     17  C   UNL A   1      37.186  33.149  32.964  1.00  0.00     0.031 C 
ATOM     18  C   UNL A   1      38.075  30.759  28.642  1.00  0.00     0.029 A 
ATOM     19  N   UNL A   1      39.408  30.232  30.355  1.00  0.00    -0.354 N 
ATOM     20  C   UNL A   1      38.886  32.251  34.195  1.00  0.00     0.074 A 
ATOM     21  C   UNL A   1      37.766  33.162  34.156  1.00  0.00     0.031 C 
ATOM     22  C   UNL A   1      38.848  29.738  28.245  1.00  0.00     0.029 A 
ATOM     23  C   UNL A   1      39.765  29.394  29.323  1.00  0.00     0.049 A 
ATOM     24  H   UNL A   1      39.848  30.219  31.236  1.00  0.00     0.167 HD
ATOM     25  C   UNL A   1      39.659  32.031  35.282  1.00  0.00     0.034 A 
ATOM     26  C   UNL A   1      40.738  28.465  29.251  1.00  0.00     0.034 A 
ATOM     27  C   UNL A   1      40.746  31.093  35.300  1.00  0.00     0.049 A 
ATOM     28  C   UNL A   1      41.595  28.254  30.468  1.00  0.00     0.074 A 
ATOM     29  C   UNL A   1      41.621  30.810  36.330  1.00  0.00     0.029 A 
ATOM     30  N   UNL A   1      41.100  30.280  34.231  1.00  0.00    -0.354 N 
ATOM     31  N   UNL A   1      41.480  28.802  31.655  1.00  0.00    -0.248 NA
ATOM     32  C   UNL A   1      42.710  27.307  30.347  1.00  0.00     0.031 C 
ATOM     33  C   UNL A   1      42.520  29.841  35.874  1.00  0.00     0.029 A 
ATOM     34  C   UNL A   1      42.189  29.501  34.570  1.00  0.00     0.049 A 
ATOM     35  H   UNL A   1      40.642  30.263  33.358  1.00  0.00     0.167 HD
ATOM     36  C   UNL A   1      42.500  28.265  32.426  1.00  0.00     0.074 A 
ATOM     37  C   UNL A   1      43.209  27.325  31.577  1.00  0.00     0.031 C 
ATOM     38  C   UNL A   1      42.836  28.539  33.710  1.00  0.00     0.034 A 
BRANCH  25  39
ATOM     39  C   UNL A   1      39.365  32.842  36.513  1.00  0.00     0.023 A 
ATOM     40  C   UNL A   1      39.985  34.092  36.703  1.00  0.00     0.012 A 
ATOM     41  C   UNL A   1      38.471  32.355  37.488  1.00  0.00     0.148 A 
ATOM     42  C   UNL A   1      39.747  34.831  37.862  1.00  0.00     0.002 A 
ATOM     43  C   UNL A   1      38.210  33.115  38.622  1.00  0.00     0.091 A 
ATOM     44  F   UNL A   1      37.916  31.149  37.303  1.00  0.00    -0.205 F 
ATOM     45  C   UNL A   1      38.855  34.347  38.816  1.00  0.00     0.022 A 
BRANCH  43  46
ATOM     46  S   UNL A   1      37.035  32.597  39.877  1.00  0.00     0.127 S 
ATOM     47  O   UNL A   1      37.141  33.686  40.847  1.00  0.00    -0.237 OA
ATOM     48  O   UNL A   1      35.777  32.567  39.131  1.00  0.00    -0.237 OA
ATOM     49  O   UNL A   1      37.494  31.296  40.343  1.00  0.00    -0.744 OA
ENDBRANCH  43  46
ENDBRANCH  25  39
BRANCH  26  50
ATOM     50  C   UNL A   1      40.915  27.676  27.997  1.00  0.00     0.023 A 
ATOM     51  C   UNL A   1      41.527  28.273  26.878  1.00  0.00     0.012 A 
ATOM     52  C   UNL A   1      40.576  26.308  27.941  1.00  0.00     0.148 A 
ATOM     53  C   UNL A   1      41.798  27.522  25.731  1.00  0.00     0.002 A 
ATOM     54  C   UNL A   1      40.908  25.552  26.823  1.00  0.00     0.091 A 
ATOM     55  F   UNL A   1      39.973  25.761  29.006  1.00  0.00    -0.205 F 
ATOM     56  C   UNL A   1      41.506  26.160  25.709  1.00  0.00     0.022 A 
BRANCH  54  57
ATOM     57  S   UNL A   1      40.716  23.765  26.774  1.00  0.00     0.127 S 
ATOM     58  O   UNL A   1      39.286  23.624  26.510  1.00  0.00    -0.237 OA
ATOM     59  O   UNL A   1      41.589  23.398  25.659  1.00  0.00    -0.237 OA
ATOM     60  O   UNL A   1      41.168  23.284  28.072  1.00  0.00    -0.744 OA
ENDBRANCH  54  57
ENDBRANCH  26  50
BRANCH  38  61
ATOM     61  C   UNL A   1      44.017  27.818  34.295  1.00  0.00     0.023 A 
ATOM     62  C   UNL A   1      45.288  28.421  34.242  1.00  0.00     0.012 A 
ATOM     63  C   UNL A   1      43.832  26.638  35.039  1.00  0.00     0.148 A 
ATOM     64  C   UNL A   1      46.363  27.855  34.926  1.00  0.00     0.002 A 
ATOM     65  C   UNL A   1      44.895  26.107  35.756  1.00  0.00     0.091 A 
ATOM     66  F   UNL A   1      42.613  26.078  35.056  1.00  0.00    -0.205 F 
ATOM     67  C   UNL A   1      46.162  26.712  35.696  1.00  0.00     0.022 A 
BRANCH  65  68
ATOM     68  S   UNL A   1      44.704  24.707  36.865  1.00  0.00     0.127 S 
ATOM     69  O   UNL A   1      43.626  25.166  37.739  1.00  0.00    -0.237 OA
ATOM     70  O   UNL A   1      44.331  23.633  35.945  1.00  0.00    -0.237 OA
ATOM     71  O   UNL A   1      45.998  24.528  37.512  1.00  0.00    -0.744 OA
ENDBRANCH  65  68
ENDBRANCH  38  61
ENDBRANCH  12  13
ENDBRANCH   5   7
ENDBRANCH   4   5
ENDBRANCH   3   4
ENDBRANCH   2   3
ENDBRANCH   1   2
BRANCH   1  72
ATOM     72  C   UNL A   1      33.122  29.301  26.880  1.00  0.00     0.202 C 
BRANCH  72  73
ATOM     73  C   UNL A   1      31.629  28.945  26.872  1.00  0.00     0.261 C 
BRANCH  73  74
ATOM     74  O   UNL A   1      31.389  28.014  25.798  1.00  0.00    -0.460 OA
BRANCH  74  75
ATOM     75  C   UNL A   1      31.599  26.700  26.072  1.00  0.00     0.340 C 
ATOM     76  O   UNL A   1      31.324  26.086  27.089  1.00  0.00    -0.246 OA
BRANCH  75  77
ATOM     77  C   UNL A   1      31.958  26.063  24.785  1.00  0.00     0.087 A 
ATOM     78  C   UNL A   1      32.787  26.770  23.900  1.00  0.00     0.057 A 
ATOM     79  C   UNL A   1      31.319  24.867  24.388  1.00  0.00     0.064 A 
ATOM     80  C   UNL A   1      32.926  26.329  22.597  1.00  0.00     0.124 A 
ATOM     81  C   UNL A   1      31.425  24.501  23.040  1.00  0.00     0.030 A 
ATOM     82  F   UNL A   1      33.716  26.998  21.749  1.00  0.00    -0.207 F 
ATOM     83  C   UNL A   1      32.222  25.224  22.149  1.00  0.00     0.041 A 
BRANCH  79  84
ATOM     84  N   UNL A   1      30.773  23.974  25.380  1.00  0.00    -0.278 N 
ATOM     85  H   UNL A   1      29.838  24.113  25.659  1.00  0.00     0.180 HD
BRANCH  84  86
ATOM     86  S   UNL A   1      31.625  22.710  26.095  1.00  0.00     0.271 S 
ATOM     87  O   UNL A   1      31.525  22.868  27.527  1.00  0.00    -0.200 OA
ATOM     88  O   UNL A   1      31.261  21.479  25.426  1.00  0.00    -0.200 OA
BRANCH  86  89
ATOM     89  C   UNL A   1      33.349  22.962  25.730  1.00  0.00     0.141 A 
ATOM     90  C   UNL A   1      34.291  23.822  26.270  1.00  0.00     0.036 A 
ATOM     91  S   UNL A   1      33.979  22.102  24.386  1.00  0.00    -0.110 S 
ATOM     92  C   UNL A   1      35.468  23.893  25.467  1.00  0.00     0.034 A 
ATOM     93  C   UNL A   1      35.394  23.024  24.409  1.00  0.00     0.094 A 
ATOM     94  Cl  UNL A   1      36.554  22.833  23.157  1.00  0.00    -0.072 Cl
ENDBRANCH  86  89
ENDBRANCH  84  86
ENDBRANCH  79  84
ENDBRANCH  75  77
ENDBRANCH  74  75
ENDBRANCH  73  74
ENDBRANCH  72  73
ENDBRANCH   1  72
TORSDOF 20
ENDMDL
MODEL 3
REMARK VINA RESULT:     -10.7      2.032      2.465
REMARK SMILES O=C(OCCOCCOC(=O)c1cc(F)ccc1NS(=O)(=O)c1ccc(Cl)s1)c1ccc(-c2c3nc(c(-c4cccc(S(=O)(=O)[O-])c4F)c4ccc([nH]4)c(-c4cccc(S(=O)(=O)[O-])c4F)c4nc(c(-c5cccc(S(=O)(=O)[O-])c5F)c5ccc2[nH]5)C=C4)C=C3)cc1
REMARK SMILES IDX 6 1 5 2 4 3 3 4 2 5 1 6 29 7 30 8 91 9 31 10 90 11 32 12
REMARK SMILES IDX 33 13 34 14 84 15 35 16 89 17 83 18 85 19 36 20 88 21 82 22
REMARK SMILES IDX 81 23 37 25 69 26 49 27 68 28 50 29 53 30 67 31 86 32 51 33
REMARK SMILES IDX 52 34 66 36 87 37 54 38 38 39 39 40 47 41 40 42 42 43 48 44
REMARK SMILES IDX 41 45 43 46 44 47 45 48 46 49 70 50 71 51 79 52 72 53 74 54
REMARK SMILES IDX 80 55 73 56 75 57 76 58 77 59 78 60 55 61 56 62 64 63 57 64
REMARK SMILES IDX 59 65 65 66 58 67 60 68 61 69 62 70 63 71 7 72 8 73 9 74
REMARK SMILES IDX 10 75 11 76 12 77 13 78 18 79 14 80 17 81 15 82 16 83 19 84
REMARK SMILES IDX 20 86 21 87 22 88 23 89 24 90 28 91 25 92 26 93 27 94
REMARK H PARENT 85 24 53 35 19 85
REMARK Flexibility Score: inf
ROOT
ATOM      1  O   UNL A   1      33.329  30.899  26.964  1.00  0.00    -0.374 OA
ENDROOT
BRANCH   1   2
ATOM      2  C   UNL A   1      31.983  31.222  26.637  1.00  0.00     0.202 C 
BRANCH   2   3
ATOM      3  C   UNL A   1      31.521  32.645  26.945  1.00  0.00     0.261 C 
BRANCH   3   4
ATOM      4  O   UNL A   1      32.650  33.531  27.043  1.00  0.00    -0.460 OA
BRANCH   4   5
ATOM      5  C   UNL A   1      33.172  34.018  28.197  1.00  0.00     0.338 C 
ATOM      6  O   UNL A   1      32.652  34.994  28.730  1.00  0.00    -0.246 OA
BRANCH   5   7
ATOM      7  C   UNL A   1      34.387  33.412  28.815  1.00  0.00     0.060 A 
ATOM      8  C   UNL A   1      34.329  32.326  29.685  1.00  0.00     0.016 A 
ATOM      9  C   UNL A   1      35.649  33.901  28.449  1.00  0.00     0.016 A 
ATOM     10  C   UNL A   1      35.464  31.810  30.279  1.00  0.00     0.010 A 
ATOM     11  C   UNL A   1      36.812  33.317  28.966  1.00  0.00     0.010 A 
ATOM     12  C   UNL A   1      36.719  32.276  29.899  1.00  0.00    -0.014 A 
BRANCH  12  13
ATOM     13  C   UNL A   1      37.893  31.636  30.524  1.00  0.00     0.031 A 
ATOM     14  C   UNL A   1      38.199  31.904  31.961  1.00  0.00     0.074 A 
ATOM     15  C   UNL A   1      38.578  30.715  29.816  1.00  0.00     0.049 A 
ATOM     16  N   UNL A   1      39.152  31.411  32.700  1.00  0.00    -0.248 NA
ATOM     17  C   UNL A   1      37.310  32.842  32.668  1.00  0.00     0.031 C 
ATOM     18  C   UNL A   1      38.286  30.340  28.429  1.00  0.00     0.029 A 
ATOM     19  N   UNL A   1      39.616  29.895  30.168  1.00  0.00    -0.354 N 
ATOM     20  C   UNL A   1      39.018  32.020  33.939  1.00  0.00     0.074 A 
ATOM     21  C   UNL A   1      37.879  32.905  33.863  1.00  0.00     0.031 C 
ATOM     22  C   UNL A   1      39.083  29.324  28.070  1.00  0.00     0.029 A 
ATOM     23  C   UNL A   1      39.999  29.033  29.166  1.00  0.00     0.049 A 
ATOM     24  H   UNL A   1      40.048  29.919  31.052  1.00  0.00     0.167 HD
ATOM     25  C   UNL A   1      39.787  31.851  35.038  1.00  0.00     0.034 A 
ATOM     26  C   UNL A   1      40.992  28.124  29.129  1.00  0.00     0.034 A 
ATOM     27  C   UNL A   1      40.893  30.938  35.094  1.00  0.00     0.049 A 
ATOM     28  C   UNL A   1      41.843  27.969  30.359  1.00  0.00     0.074 A 
ATOM     29  C   UNL A   1      41.766  30.706  36.139  1.00  0.00     0.029 A 
ATOM     30  N   UNL A   1      41.274  30.100  34.053  1.00  0.00    -0.354 N 
ATOM     31  N   UNL A   1      41.707  28.551  31.528  1.00  0.00    -0.248 NA
ATOM     32  C   UNL A   1      42.979  27.043  30.276  1.00  0.00     0.031 C 
ATOM     33  C   UNL A   1      42.689  29.742  35.720  1.00  0.00     0.029 A 
ATOM     34  C   UNL A   1      42.376  29.356  34.425  1.00  0.00     0.049 A 
ATOM     35  H   UNL A   1      40.824  30.046  33.178  1.00  0.00     0.167 HD
ATOM     36  C   UNL A   1      42.732  28.061  32.323  1.00  0.00     0.074 A 
ATOM     37  C   UNL A   1      43.467  27.110  31.509  1.00  0.00     0.031 C 
ATOM     38  C   UNL A   1      43.050  28.382  33.600  1.00  0.00     0.034 A 
BRANCH  25  39
ATOM     39  C   UNL A   1      39.465  32.693  36.241  1.00  0.00     0.023 A 
ATOM     40  C   UNL A   1      40.077  33.950  36.410  1.00  0.00     0.012 A 
ATOM     41  C   UNL A   1      38.554  32.228  37.211  1.00  0.00     0.148 A 
ATOM     42  C   UNL A   1      39.813  34.719  37.544  1.00  0.00     0.002 A 
ATOM     43  C   UNL A   1      38.267  33.017  38.319  1.00  0.00     0.091 A 
ATOM     44  F   UNL A   1      38.008  31.016  37.047  1.00  0.00    -0.205 F 
ATOM     45  C   UNL A   1      38.903  34.257  38.492  1.00  0.00     0.022 A 
BRANCH  43  46
ATOM     46  S   UNL A   1      37.070  32.527  39.564  1.00  0.00     0.127 S 
ATOM     47  O   UNL A   1      35.824  32.546  38.798  1.00  0.00    -0.237 OA
ATOM     48  O   UNL A   1      37.535  31.191  39.935  1.00  0.00    -0.237 OA
ATOM     49  O   UNL A   1      37.168  33.519  40.626  1.00  0.00    -0.744 OA
ENDBRANCH  43  46
ENDBRANCH  25  39
BRANCH  26  50
ATOM     50  C   UNL A   1      41.196  27.301  27.902  1.00  0.00     0.023 A 
ATOM     51  C   UNL A   1      41.817  27.871  26.775  1.00  0.00     0.012 A 
ATOM     52  C   UNL A   1      40.874  25.928  27.882  1.00  0.00     0.148 A 
ATOM     53  C   UNL A   1      42.114  27.091  25.654  1.00  0.00     0.002 A 
ATOM     54  C   UNL A   1      41.231  25.143  26.791  1.00  0.00     0.091 A 
ATOM     55  F   UNL A   1      40.263  25.405  28.954  1.00  0.00    -0.205 F 
ATOM     56  C   UNL A   1      41.838  25.725  25.669  1.00  0.00     0.022 A 
BRANCH  54  57
ATOM     57  S   UNL A   1      41.061  23.353  26.793  1.00  0.00     0.127 S 
ATOM     58  O   UNL A   1      39.630  23.187  26.549  1.00  0.00    -0.237 OA
ATOM     59  O   UNL A   1      41.926  22.966  25.679  1.00  0.00    -0.237 OA
ATOM     60  O   UNL A   1      41.533  22.913  28.099  1.00  0.00    -0.744 OA
ENDBRANCH  54  57
ENDBRANCH  26  50
BRANCH  38  61
ATOM     61  C   UNL A   1      44.242  27.705  34.216  1.00  0.00     0.023 A 
ATOM     62  C   UNL A   1      45.485  28.364  34.217  1.00  0.00     0.012 A 
ATOM     63  C   UNL A   1      44.084  26.505  34.936  1.00  0.00     0.148 A 
ATOM     64  C   UNL A   1      46.560  27.836  34.931  1.00  0.00     0.002 A 
ATOM     65  C   UNL A   1      45.144  26.011  35.683  1.00  0.00     0.091 A 
ATOM     66  F   UNL A   1      42.892  25.891  34.901  1.00  0.00    -0.205 F 
ATOM     67  C   UNL A   1      46.385  26.673  35.677  1.00  0.00     0.022 A 
BRANCH  65  68
ATOM     68  S   UNL A   1      44.979  24.587  36.763  1.00  0.00     0.127 S 
ATOM     69  O   UNL A   1      43.923  25.026  37.674  1.00  0.00    -0.237 OA
ATOM     70  O   UNL A   1      44.582  23.534  35.829  1.00  0.00    -0.237 OA
ATOM     71  O   UNL A   1      46.287  24.391  37.375  1.00  0.00    -0.744 OA
ENDBRANCH  65  68
ENDBRANCH  38  61
ENDBRANCH  12  13
ENDBRANCH   5   7
ENDBRANCH   4   5
ENDBRANCH   3   4
ENDBRANCH   2   3
ENDBRANCH   1   2
BRANCH   1  72
ATOM     72  C   UNL A   1      33.611  29.520  27.201  1.00  0.00     0.202 C 
BRANCH  72  73
ATOM     73  C   UNL A   1      33.410  28.762  25.883  1.00  0.00     0.261 C 
BRANCH  73  74
ATOM     74  O   UNL A   1      33.620  27.357  26.129  1.00  0.00    -0.460 OA
BRANCH  74  75
ATOM     75  C   UNL A   1      32.507  26.585  26.241  1.00  0.00     0.340 C 
ATOM     76  O   UNL A   1      31.342  26.940  26.288  1.00  0.00    -0.246 OA
BRANCH  75  77
ATOM     77  C   UNL A   1      32.944  25.193  25.993  1.00  0.00     0.087 A 
ATOM     78  C   UNL A   1      32.559  24.201  26.910  1.00  0.00     0.057 A 
ATOM     79  C   UNL A   1      33.882  24.918  24.973  1.00  0.00     0.064 A 
ATOM     80  C   UNL A   1      33.160  22.956  26.858  1.00  0.00     0.124 A 
ATOM     81  C   UNL A   1      34.520  23.672  25.008  1.00  0.00     0.030 A 
ATOM     82  F   UNL A   1      32.796  22.007  27.729  1.00  0.00    -0.207 F 
ATOM     83  C   UNL A   1      34.163  22.696  25.942  1.00  0.00     0.041 A 
BRANCH  79  84
ATOM     84  N   UNL A   1      34.003  25.806  23.843  1.00  0.00    -0.278 N 
ATOM     85  H   UNL A   1      34.614  26.574  23.925  1.00  0.00     0.180 HD
BRANCH  84  86
ATOM     86  S   UNL A   1      33.167  25.620  22.393  1.00  0.00     0.271 S 
ATOM     87  O   UNL A   1      33.799  26.469  21.411  1.00  0.00    -0.200 OA
ATOM     88  O   UNL A   1      32.953  24.206  22.169  1.00  0.00    -0.200 OA
BRANCH  86  89
ATOM     89  C   UNL A   1      31.546  26.319  22.624  1.00  0.00     0.141 A 
ATOM     90  C   UNL A   1      31.066  27.608  22.464  1.00  0.00     0.036 A 
ATOM     91  S   UNL A   1      30.354  25.281  23.289  1.00  0.00    -0.110 S 
ATOM     92  C   UNL A   1      29.776  27.771  23.050  1.00  0.00     0.034 A 
ATOM     93  C   UNL A   1      29.308  26.583  23.549  1.00  0.00     0.094 A 
ATOM     94  Cl  UNL A   1      27.837  26.335  24.397  1.00  0.00    -0.072 Cl
ENDBRANCH  86  89
ENDBRANCH  84  86
ENDBRANCH  79  84
ENDBRANCH  75  77
ENDBRANCH  74  75
ENDBRANCH  73  74
ENDBRANCH  72  73
ENDBRANCH   1  72
TORSDOF 20
ENDMDL
