MODEL 1
REMARK VINA RESULT:     -11.1      0.000      0.000
REMARK SMILES O=C(OCCOCCOC(=O)[C@@]1([NH2+]C2CC2)CC[C@H](OC2CCC2)C1)c1ccc(-c2c3nc(c(-c4cccc(S(=O)(=O)[O-])c4F)c4ccc([nH]4)c(-c4cccc(S(=O)(=O)[O-])c4F)c4nc(c(-c5cccc(S(=O)(=O)[O-])c5F)c5ccc2[nH]5)C=C4)C=C3)cc1
REMARK SMILES IDX 5 1 4 2 3 3 2 4 1 5 26 6 27 7 88 8 28 9 87 10 29 11 30 12
REMARK SMILES IDX 31 13 81 14 32 15 86 16 80 17 82 18 33 19 85 20 79 21 78 22
REMARK SMILES IDX 34 24 66 25 46 26 65 27 47 28 50 29 64 30 83 31 48 32 49 33
REMARK SMILES IDX 63 35 84 36 51 37 35 38 36 39 44 40 37 41 39 42 45 43 38 44
REMARK SMILES IDX 40 45 41 46 42 47 43 48 67 49 68 50 76 51 69 52 71 53 77 54
REMARK SMILES IDX 70 55 72 56 73 57 74 58 75 59 52 60 53 61 61 62 54 63 56 64
REMARK SMILES IDX 62 65 55 66 57 67 58 68 59 69 60 70 6 71 7 72 8 73 9 74
REMARK SMILES IDX 10 75 11 76 12 77 17 78 25 79 18 80 19 81 13 82 14 85 15 86
REMARK SMILES IDX 16 87 20 88 21 89 22 90 24 91 23 92
REMARK H PARENT 82 23 50 34 13 83 13 84
REMARK Flexibility Score: inf
ROOT
ATOM      1  C   UNL A   1      34.286  22.160  25.550  1.00  0.00     0.202 C 
ENDROOT
BRANCH   1   2
ATOM      2  C   UNL A   1      35.563  21.493  26.068  1.00  0.00     0.261 C 
BRANCH   2   3
ATOM      3  O   UNL A   1      36.749  21.948  25.377  1.00  0.00    -0.460 OA
BRANCH   3   4
ATOM      4  C   UNL A   1      38.026  21.584  25.719  1.00  0.00     0.338 C 
ATOM      5  O   UNL A   1      38.442  20.457  25.522  1.00  0.00    -0.246 OA
BRANCH   4   6
ATOM      6  C   UNL A   1      38.887  22.621  26.333  1.00  0.00     0.060 A 
ATOM      7  C   UNL A   1      38.552  23.942  26.133  1.00  0.00     0.016 A 
ATOM      8  C   UNL A   1      40.018  22.340  27.083  1.00  0.00     0.016 A 
ATOM      9  C   UNL A   1      39.470  24.944  26.257  1.00  0.00     0.010 A 
ATOM     10  C   UNL A   1      40.797  23.413  27.544  1.00  0.00     0.010 A 
ATOM     11  C   UNL A   1      40.538  24.726  27.100  1.00  0.00    -0.014 A 
BRANCH  11  12
ATOM     12  C   UNL A   1      41.300  25.922  27.515  1.00  0.00     0.031 A 
ATOM     13  C   UNL A   1      40.647  26.917  28.413  1.00  0.00     0.074 A 
ATOM     14  C   UNL A   1      42.594  26.049  27.138  1.00  0.00     0.049 A 
ATOM     15  N   UNL A   1      41.056  28.107  28.745  1.00  0.00    -0.248 NA
ATOM     16  C   UNL A   1      39.353  26.532  29.004  1.00  0.00     0.031 C 
ATOM     17  C   UNL A   1      43.354  25.081  26.327  1.00  0.00     0.029 A 
ATOM     18  N   UNL A   1      43.517  27.027  27.398  1.00  0.00    -0.354 N 
ATOM     19  C   UNL A   1      40.034  28.650  29.509  1.00  0.00     0.074 A 
ATOM     20  C   UNL A   1      38.989  27.655  29.604  1.00  0.00     0.031 C 
ATOM     21  C   UNL A   1      44.623  25.483  26.209  1.00  0.00     0.029 A 
ATOM     22  C   UNL A   1      44.736  26.804  26.792  1.00  0.00     0.049 A 
ATOM     23  H   UNL A   1      43.331  27.811  27.963  1.00  0.00     0.167 HD
ATOM     24  C   UNL A   1      39.985  29.876  30.072  1.00  0.00     0.034 A 
ATOM     25  C   UNL A   1      45.799  27.612  26.647  1.00  0.00     0.034 A 
ATOM     26  C   UNL A   1      41.062  30.821  29.979  1.00  0.00     0.049 A 
ATOM     27  C   UNL A   1      45.696  28.983  27.246  1.00  0.00     0.074 A 
ATOM     28  C   UNL A   1      41.124  32.113  30.462  1.00  0.00     0.029 A 
ATOM     29  N   UNL A   1      42.280  30.561  29.360  1.00  0.00    -0.354 N 
ATOM     30  N   UNL A   1      44.708  29.505  27.935  1.00  0.00    -0.248 NA
ATOM     31  C   UNL A   1      46.844  29.874  27.057  1.00  0.00     0.031 C 
ATOM     32  C   UNL A   1      42.372  32.642  30.115  1.00  0.00     0.029 A 
ATOM     33  C   UNL A   1      43.103  31.666  29.452  1.00  0.00     0.049 A 
ATOM     34  H   UNL A   1      42.520  29.714  28.920  1.00  0.00     0.167 HD
ATOM     35  C   UNL A   1      45.122  30.781  28.282  1.00  0.00     0.074 A 
ATOM     36  C   UNL A   1      46.468  30.934  27.758  1.00  0.00     0.031 C 
ATOM     37  C   UNL A   1      44.452  31.751  28.950  1.00  0.00     0.034 A 
BRANCH  24  38
ATOM     38  C   UNL A   1      38.720  30.249  30.792  1.00  0.00     0.023 A 
ATOM     39  C   UNL A   1      38.500  29.813  32.114  1.00  0.00     0.012 A 
ATOM     40  C   UNL A   1      37.733  31.017  30.143  1.00  0.00     0.148 A 
ATOM     41  C   UNL A   1      37.301  30.100  32.766  1.00  0.00     0.002 A 
ATOM     42  C   UNL A   1      36.562  31.341  30.815  1.00  0.00     0.091 A 
ATOM     43  F   UNL A   1      37.950  31.394  28.875  1.00  0.00    -0.205 F 
ATOM     44  C   UNL A   1      36.337  30.871  32.120  1.00  0.00     0.022 A 
BRANCH  42  45
ATOM     45  S   UNL A   1      35.286  32.377  30.095  1.00  0.00     0.127 S 
ATOM     46  O   UNL A   1      36.055  33.550  29.680  1.00  0.00    -0.237 OA
ATOM     47  O   UNL A   1      34.805  31.542  28.994  1.00  0.00    -0.237 OA
ATOM     48  O   UNL A   1      34.315  32.620  31.152  1.00  0.00    -0.744 OA
ENDBRANCH  42  45
ENDBRANCH  24  38
BRANCH  25  49
ATOM     49  C   UNL A   1      46.997  27.178  25.866  1.00  0.00     0.023 A 
ATOM     50  C   UNL A   1      47.960  26.343  26.464  1.00  0.00     0.012 A 
ATOM     51  C   UNL A   1      47.190  27.592  24.530  1.00  0.00     0.148 A 
ATOM     52  C   UNL A   1      49.108  25.966  25.764  1.00  0.00     0.002 A 
ATOM     53  C   UNL A   1      48.303  27.159  23.818  1.00  0.00     0.091 A 
ATOM     54  F   UNL A   1      46.275  28.398  23.974  1.00  0.00    -0.205 F 
ATOM     55  C   UNL A   1      49.276  26.366  24.441  1.00  0.00     0.022 A 
BRANCH  53  56
ATOM     56  S   UNL A   1      48.526  27.520  22.072  1.00  0.00     0.127 S 
ATOM     57  O   UNL A   1      49.771  28.284  22.081  1.00  0.00    -0.237 OA
ATOM     58  O   UNL A   1      48.631  26.179  21.494  1.00  0.00    -0.237 OA
ATOM     59  O   UNL A   1      47.334  28.252  21.667  1.00  0.00    -0.744 OA
ENDBRANCH  53  56
ENDBRANCH  25  49
BRANCH  37  60
ATOM     60  C   UNL A   1      45.192  33.036  29.186  1.00  0.00     0.023 A 
ATOM     61  C   UNL A   1      45.947  33.209  30.363  1.00  0.00     0.012 A 
ATOM     62  C   UNL A   1      45.171  34.050  28.212  1.00  0.00     0.148 A 
ATOM     63  C   UNL A   1      46.640  34.396  30.584  1.00  0.00     0.002 A 
ATOM     64  C   UNL A   1      45.913  35.204  28.411  1.00  0.00     0.091 A 
ATOM     65  F   UNL A   1      44.424  33.867  27.112  1.00  0.00    -0.205 F 
ATOM     66  C   UNL A   1      46.633  35.388  29.604  1.00  0.00     0.022 A 
BRANCH  64  67
ATOM     67  S   UNL A   1      46.052  36.477  27.156  1.00  0.00     0.127 S 
ATOM     68  O   UNL A   1      44.697  37.025  27.136  1.00  0.00    -0.237 OA
ATOM     69  O   UNL A   1      47.063  37.366  27.730  1.00  0.00    -0.237 OA
ATOM     70  O   UNL A   1      46.470  35.797  25.937  1.00  0.00    -0.744 OA
ENDBRANCH  64  67
ENDBRANCH  37  60
ENDBRANCH  11  12
ENDBRANCH   4   6
ENDBRANCH   3   4
ENDBRANCH   2   3
ENDBRANCH   1   2
BRANCH   1  71
ATOM     71  O   UNL A   1      33.053  21.783  26.126  1.00  0.00    -0.374 OA
BRANCH  71  72
ATOM     72  C   UNL A   1      31.913  22.573  25.800  1.00  0.00     0.202 C 
BRANCH  72  73
ATOM     73  C   UNL A   1      32.226  24.008  26.199  1.00  0.00     0.261 C 
BRANCH  73  74
ATOM     74  O   UNL A   1      31.670  24.860  25.188  1.00  0.00    -0.459 OA
BRANCH  74  75
ATOM     75  C   UNL A   1      30.932  25.942  25.607  1.00  0.00     0.368 C 
ATOM     76  O   UNL A   1      30.091  25.916  26.495  1.00  0.00    -0.245 OA
BRANCH  75  77
ATOM     77  C   UNL A   1      31.308  27.148  24.726  1.00  0.00     0.197 C 
ATOM     78  C   UNL A   1      32.493  26.893  23.778  1.00  0.00     0.084 C 
ATOM     79  C   UNL A   1      30.151  27.266  23.708  1.00  0.00     0.113 C 
ATOM     80  C   UNL A   1      32.268  27.837  22.624  1.00  0.00     0.039 C 
ATOM     81  C   UNL A   1      30.754  27.952  22.485  1.00  0.00     0.125 C 
BRANCH  77  82
ATOM     82  N   UNL A   1      31.383  28.440  25.431  1.00  0.00    -0.330 N 
ATOM     83  H   UNL A   1      30.437  28.613  25.772  1.00  0.00     0.347 HD
ATOM     84  H   UNL A   1      31.824  29.005  24.705  1.00  0.00     0.347 HD
BRANCH  82  85
ATOM     85  C   UNL A   1      32.254  28.761  26.552  1.00  0.00     0.183 C 
ATOM     86  C   UNL A   1      33.653  28.316  26.867  1.00  0.00     0.071 C 
ATOM     87  C   UNL A   1      33.458  29.619  26.185  1.00  0.00     0.071 C 
ENDBRANCH  82  85
ENDBRANCH  77  82
BRANCH  81  88
ATOM     88  O   UNL A   1      30.355  29.316  22.499  1.00  0.00    -0.375 OA
BRANCH  88  89
ATOM     89  C   UNL A   1      29.156  29.710  23.194  1.00  0.00     0.118 C 
ATOM     90  C   UNL A   1      29.089  31.126  23.812  1.00  0.00     0.032 C 
ATOM     91  C   UNL A   1      27.879  30.066  22.398  1.00  0.00     0.032 C 
ATOM     92  C   UNL A   1      27.596  31.153  23.449  1.00  0.00     0.005 C 
ENDBRANCH  88  89
ENDBRANCH  81  88
ENDBRANCH  75  77
ENDBRANCH  74  75
ENDBRANCH  73  74
ENDBRANCH  72  73
ENDBRANCH  71  72
ENDBRANCH   1  71
TORSDOF 21
ENDMDL
MODEL 2
REMARK VINA RESULT:     -10.9      5.188     10.315
REMARK SMILES O=C(OCCOCCOC(=O)[C@@]1([NH2+]C2CC2)CC[C@H](OC2CCC2)C1)c1ccc(-c2c3nc(c(-c4cccc(S(=O)(=O)[O-])c4F)c4ccc([nH]4)c(-c4cccc(S(=O)(=O)[O-])c4F)c4nc(c(-c5cccc(S(=O)(=O)[O-])c5F)c5ccc2[nH]5)C=C4)C=C3)cc1
REMARK SMILES IDX 5 1 4 2 3 3 2 4 1 5 26 6 27 7 88 8 28 9 87 10 29 11 30 12
REMARK SMILES IDX 31 13 81 14 32 15 86 16 80 17 82 18 33 19 85 20 79 21 78 22
REMARK SMILES IDX 34 24 66 25 46 26 65 27 47 28 50 29 64 30 83 31 48 32 49 33
REMARK SMILES IDX 63 35 84 36 51 37 35 38 36 39 44 40 37 41 39 42 45 43 38 44
REMARK SMILES IDX 40 45 41 46 42 47 43 48 67 49 68 50 76 51 69 52 71 53 77 54
REMARK SMILES IDX 70 55 72 56 73 57 74 58 75 59 52 60 53 61 61 62 54 63 56 64
REMARK SMILES IDX 62 65 55 66 57 67 58 68 59 69 60 70 6 71 7 72 8 73 9 74
REMARK SMILES IDX 10 75 11 76 12 77 17 78 25 79 18 80 19 81 13 82 14 85 15 86
REMARK SMILES IDX 16 87 20 88 21 89 22 90 24 91 23 92
REMARK H PARENT 82 23 50 34 13 83 13 84
REMARK Flexibility Score: inf
ROOT
ATOM      1  C   UNL A   1      32.167  29.149  24.027  1.00  0.00     0.202 C 
ENDROOT
BRANCH   1   2
ATOM      2  C   UNL A   1      31.690  29.765  25.346  1.00  0.00     0.261 C 
BRANCH   2   3
ATOM      3  O   UNL A   1      32.718  29.768  26.362  1.00  0.00    -0.460 OA
BRANCH   3   4
ATOM      4  C   UNL A   1      33.159  30.895  27.007  1.00  0.00     0.338 C 
ATOM      5  O   UNL A   1      32.476  31.900  27.074  1.00  0.00    -0.246 OA
BRANCH   4   6
ATOM      6  C   UNL A   1      34.502  30.840  27.629  1.00  0.00     0.060 A 
ATOM      7  C   UNL A   1      34.981  29.612  28.029  1.00  0.00     0.016 A 
ATOM      8  C   UNL A   1      35.298  31.954  27.845  1.00  0.00     0.016 A 
ATOM      9  C   UNL A   1      35.957  29.494  28.976  1.00  0.00     0.010 A 
ATOM     10  C   UNL A   1      36.518  31.783  28.518  1.00  0.00     0.010 A 
ATOM     11  C   UNL A   1      36.837  30.546  29.116  1.00  0.00    -0.014 A 
BRANCH  11  12
ATOM     12  C   UNL A   1      38.086  30.262  29.852  1.00  0.00     0.031 A 
ATOM     13  C   UNL A   1      39.137  29.435  29.195  1.00  0.00     0.074 A 
ATOM     14  C   UNL A   1      38.281  30.821  31.069  1.00  0.00     0.049 A 
ATOM     15  N   UNL A   1      40.211  28.916  29.717  1.00  0.00    -0.248 NA
ATOM     16  C   UNL A   1      38.950  29.132  27.765  1.00  0.00     0.031 C 
ATOM     17  C   UNL A   1      37.344  31.722  31.764  1.00  0.00     0.029 A 
ATOM     18  N   UNL A   1      39.338  30.744  31.939  1.00  0.00    -0.354 N 
ATOM     19  C   UNL A   1      40.783  28.155  28.708  1.00  0.00     0.074 A 
ATOM     20  C   UNL A   1      39.944  28.288  27.538  1.00  0.00     0.031 C 
ATOM     21  C   UNL A   1      37.887  32.150  32.908  1.00  0.00     0.029 A 
ATOM     22  C   UNL A   1      39.133  31.440  33.112  1.00  0.00     0.049 A 
ATOM     23  H   UNL A   1      40.162  30.241  31.745  1.00  0.00     0.167 HD
ATOM     24  C   UNL A   1      41.907  27.411  28.770  1.00  0.00     0.034 A 
ATOM     25  C   UNL A   1      39.831  31.438  34.260  1.00  0.00     0.034 A 
ATOM     26  C   UNL A   1      42.727  27.335  29.946  1.00  0.00     0.049 A 
ATOM     27  C   UNL A   1      41.050  30.568  34.312  1.00  0.00     0.074 A 
ATOM     28  C   UNL A   1      43.866  26.583  30.160  1.00  0.00     0.029 A 
ATOM     29  N   UNL A   1      42.492  28.053  31.113  1.00  0.00    -0.354 N 
ATOM     30  N   UNL A   1      41.564  29.818  33.364  1.00  0.00    -0.248 NA
ATOM     31  C   UNL A   1      41.789  30.542  35.576  1.00  0.00     0.031 C 
ATOM     32  C   UNL A   1      44.305  26.831  31.465  1.00  0.00     0.029 A 
ATOM     33  C   UNL A   1      43.465  27.768  32.050  1.00  0.00     0.049 A 
ATOM     34  H   UNL A   1      41.741  28.674  31.252  1.00  0.00     0.167 HD
ATOM     35  C   UNL A   1      42.701  29.245  33.911  1.00  0.00     0.074 A 
ATOM     36  C   UNL A   1      42.818  29.769  35.260  1.00  0.00     0.031 C 
ATOM     37  C   UNL A   1      43.561  28.350  33.366  1.00  0.00     0.034 A 
BRANCH  24  38
ATOM     38  C   UNL A   1      42.270  26.614  27.550  1.00  0.00     0.023 A 
ATOM     39  C   UNL A   1      42.866  27.247  26.440  1.00  0.00     0.012 A 
ATOM     40  C   UNL A   1      41.996  25.234  27.495  1.00  0.00     0.148 A 
ATOM     41  C   UNL A   1      43.145  26.526  25.279  1.00  0.00     0.002 A 
ATOM     42  C   UNL A   1      42.321  24.512  26.354  1.00  0.00     0.091 A 
ATOM     43  F   UNL A   1      41.400  24.659  28.550  1.00  0.00    -0.205 F 
ATOM     44  C   UNL A   1      42.882  25.159  25.239  1.00  0.00     0.022 A 
BRANCH  42  45
ATOM     45  S   UNL A   1      42.079  22.739  26.225  1.00  0.00     0.127 S 
ATOM     46  O   UNL A   1      42.676  22.452  24.921  1.00  0.00    -0.237 OA
ATOM     47  O   UNL A   1      42.846  22.246  27.368  1.00  0.00    -0.237 OA
ATOM     48  O   UNL A   1      40.642  22.518  26.307  1.00  0.00    -0.744 OA
ENDBRANCH  42  45
ENDBRANCH  24  38
BRANCH  25  49
ATOM     49  C   UNL A   1      39.365  32.220  35.445  1.00  0.00     0.023 A 
ATOM     50  C   UNL A   1      39.667  33.591  35.544  1.00  0.00     0.012 A 
ATOM     51  C   UNL A   1      38.624  31.609  36.481  1.00  0.00     0.148 A 
ATOM     52  C   UNL A   1      39.280  34.326  36.667  1.00  0.00     0.002 A 
ATOM     53  C   UNL A   1      38.187  32.362  37.565  1.00  0.00     0.091 A 
ATOM     54  F   UNL A   1      38.355  30.300  36.385  1.00  0.00    -0.205 F 
ATOM     55  C   UNL A   1      38.535  33.715  37.672  1.00  0.00     0.022 A 
BRANCH  53  56
ATOM     56  S   UNL A   1      37.111  31.683  38.834  1.00  0.00     0.127 S 
ATOM     57  O   UNL A   1      35.961  32.580  38.763  1.00  0.00    -0.237 OA
ATOM     58  O   UNL A   1      36.867  30.329  38.334  1.00  0.00    -0.237 OA
ATOM     59  O   UNL A   1      37.881  31.733  40.069  1.00  0.00    -0.744 OA
ENDBRANCH  53  56
ENDBRANCH  25  49
BRANCH  37  60
ATOM     60  C   UNL A   1      44.721  27.930  34.220  1.00  0.00     0.023 A 
ATOM     61  C   UNL A   1      45.921  28.668  34.192  1.00  0.00     0.012 A 
ATOM     62  C   UNL A   1      44.597  26.828  35.085  1.00  0.00     0.148 A 
ATOM     63  C   UNL A   1      46.999  28.285  34.986  1.00  0.00     0.002 A 
ATOM     64  C   UNL A   1      45.652  26.491  35.918  1.00  0.00     0.091 A 
ATOM     65  F   UNL A   1      43.451  26.130  35.073  1.00  0.00    -0.205 F 
ATOM     66  C   UNL A   1      46.860  27.206  35.857  1.00  0.00     0.022 A 
BRANCH  64  67
ATOM     67  S   UNL A   1      45.519  25.191  37.147  1.00  0.00     0.127 S 
ATOM     68  O   UNL A   1      44.335  25.608  37.896  1.00  0.00    -0.237 OA
ATOM     69  O   UNL A   1      45.329  24.001  36.316  1.00  0.00    -0.237 OA
ATOM     70  O   UNL A   1      46.771  25.212  37.891  1.00  0.00    -0.744 OA
ENDBRANCH  64  67
ENDBRANCH  37  60
ENDBRANCH  11  12
ENDBRANCH   4   6
ENDBRANCH   3   4
ENDBRANCH   2   3
ENDBRANCH   1   2
BRANCH   1  71
ATOM     71  O   UNL A   1      31.225  28.983  22.988  1.00  0.00    -0.374 OA
BRANCH  71  72
ATOM     72  C   UNL A   1      30.749  27.662  22.745  1.00  0.00     0.202 C 
BRANCH  72  73
ATOM     73  C   UNL A   1      30.000  27.213  23.992  1.00  0.00     0.261 C 
BRANCH  73  74
ATOM     74  O   UNL A   1      30.296  25.823  24.187  1.00  0.00    -0.459 OA
BRANCH  74  75
ATOM     75  C   UNL A   1      30.837  25.454  25.396  1.00  0.00     0.368 C 
ATOM     76  O   UNL A   1      30.419  25.809  26.490  1.00  0.00    -0.245 OA
BRANCH  75  77
ATOM     77  C   UNL A   1      32.077  24.583  25.119  1.00  0.00     0.197 C 
ATOM     78  C   UNL A   1      31.880  23.540  24.004  1.00  0.00     0.084 C 
ATOM     79  C   UNL A   1      33.084  25.538  24.439  1.00  0.00     0.113 C 
ATOM     80  C   UNL A   1      33.264  23.307  23.452  1.00  0.00     0.039 C 
ATOM     81  C   UNL A   1      33.985  24.642  23.593  1.00  0.00     0.125 C 
BRANCH  77  82
ATOM     82  N   UNL A   1      32.747  24.047  26.318  1.00  0.00    -0.330 N 
ATOM     83  H   UNL A   1      32.511  24.698  27.067  1.00  0.00     0.347 HD
ATOM     84  H   UNL A   1      33.693  23.940  25.951  1.00  0.00     0.347 HD
BRANCH  82  85
ATOM     85  C   UNL A   1      32.558  22.723  26.892  1.00  0.00     0.183 C 
ATOM     86  C   UNL A   1      33.316  21.444  26.681  1.00  0.00     0.071 C 
ATOM     87  C   UNL A   1      33.661  22.291  27.849  1.00  0.00     0.071 C 
ENDBRANCH  82  85
ENDBRANCH  77  82
BRANCH  81  88
ATOM     88  O   UNL A   1      35.216  24.472  24.282  1.00  0.00    -0.375 OA
BRANCH  88  89
ATOM     89  C   UNL A   1      35.726  23.149  24.535  1.00  0.00     0.118 C 
ATOM     90  C   UNL A   1      36.772  22.559  23.561  1.00  0.00     0.032 C 
ATOM     91  C   UNL A   1      36.747  22.915  25.673  1.00  0.00     0.032 C 
ATOM     92  C   UNL A   1      37.429  21.873  24.769  1.00  0.00     0.005 C 
ENDBRANCH  88  89
ENDBRANCH  81  88
ENDBRANCH  75  77
ENDBRANCH  74  75
ENDBRANCH  73  74
ENDBRANCH  72  73
ENDBRANCH  71  72
ENDBRANCH   1  71
TORSDOF 21
ENDMDL
MODEL 3
REMARK VINA RESULT:     -10.7      5.302     10.284
REMARK SMILES O=C(OCCOCCOC(=O)[C@@]1([NH2+]C2CC2)CC[C@H](OC2CCC2)C1)c1ccc(-c2c3nc(c(-c4cccc(S(=O)(=O)[O-])c4F)c4ccc([nH]4)c(-c4cccc(S(=O)(=O)[O-])c4F)c4nc(c(-c5cccc(S(=O)(=O)[O-])c5F)c5ccc2[nH]5)C=C4)C=C3)cc1
REMARK SMILES IDX 5 1 4 2 3 3 2 4 1 5 26 6 27 7 88 8 28 9 87 10 29 11 30 12
REMARK SMILES IDX 31 13 81 14 32 15 86 16 80 17 82 18 33 19 85 20 79 21 78 22
REMARK SMILES IDX 34 24 66 25 46 26 65 27 47 28 50 29 64 30 83 31 48 32 49 33
REMARK SMILES IDX 63 35 84 36 51 37 35 38 36 39 44 40 37 41 39 42 45 43 38 44
REMARK SMILES IDX 40 45 41 46 42 47 43 48 67 49 68 50 76 51 69 52 71 53 77 54
REMARK SMILES IDX 70 55 72 56 73 57 74 58 75 59 52 60 53 61 61 62 54 63 56 64
REMARK SMILES IDX 62 65 55 66 57 67 58 68 59 69 60 70 6 71 7 72 8 73 9 74
REMARK SMILES IDX 10 75 11 76 12 77 17 78 25 79 18 80 19 81 13 82 14 85 15 86
REMARK SMILES IDX 16 87 20 88 21 89 22 90 24 91 23 92
REMARK H PARENT 82 23 50 34 13 83 13 84
REMARK Flexibility Score: inf
ROOT
ATOM      1  C   UNL A   1      31.780  27.797  25.181  1.00  0.00     0.202 C 
ENDROOT
BRANCH   1   2
ATOM      2  C   UNL A   1      31.705  29.098  25.985  1.00  0.00     0.261 C 
BRANCH   2   3
ATOM      3  O   UNL A   1      32.958  29.818  25.996  1.00  0.00    -0.460 OA
BRANCH   3   4
ATOM      4  C   UNL A   1      33.267  30.810  26.891  1.00  0.00     0.338 C 
ATOM      5  O   UNL A   1      32.476  31.695  27.160  1.00  0.00    -0.246 OA
BRANCH   4   6
ATOM      6  C   UNL A   1      34.603  30.759  27.528  1.00  0.00     0.060 A 
ATOM      7  C   UNL A   1      35.076  29.534  27.944  1.00  0.00     0.016 A 
ATOM      8  C   UNL A   1      35.398  31.874  27.742  1.00  0.00     0.016 A 
ATOM      9  C   UNL A   1      36.042  29.423  28.902  1.00  0.00     0.010 A 
ATOM     10  C   UNL A   1      36.611  31.707  28.429  1.00  0.00     0.010 A 
ATOM     11  C   UNL A   1      36.921  30.475  29.042  1.00  0.00    -0.014 A 
BRANCH  11  12
ATOM     12  C   UNL A   1      38.162  30.196  29.794  1.00  0.00     0.031 A 
ATOM     13  C   UNL A   1      39.215  29.353  29.160  1.00  0.00     0.074 A 
ATOM     14  C   UNL A   1      38.350  30.773  31.004  1.00  0.00     0.049 A 
ATOM     15  N   UNL A   1      40.282  28.838  29.699  1.00  0.00    -0.248 NA
ATOM     16  C   UNL A   1      39.039  29.030  27.733  1.00  0.00     0.031 C 
ATOM     17  C   UNL A   1      37.411  31.690  31.676  1.00  0.00     0.029 A 
ATOM     18  N   UNL A   1      39.398  30.703  31.884  1.00  0.00    -0.354 N 
ATOM     19  C   UNL A   1      40.858  28.058  28.708  1.00  0.00     0.074 A 
ATOM     20  C   UNL A   1      40.030  28.176  27.528  1.00  0.00     0.031 C 
ATOM     21  C   UNL A   1      37.946  32.133  32.818  1.00  0.00     0.029 A 
ATOM     22  C   UNL A   1      39.186  31.419  33.044  1.00  0.00     0.049 A 
ATOM     23  H   UNL A   1      40.221  30.194  31.706  1.00  0.00     0.167 HD
ATOM     24  C   UNL A   1      41.978  27.309  28.792  1.00  0.00     0.034 A 
ATOM     25  C   UNL A   1      39.873  31.432  34.199  1.00  0.00     0.034 A 
ATOM     26  C   UNL A   1      42.787  27.246  29.976  1.00  0.00     0.049 A 
ATOM     27  C   UNL A   1      41.087  30.556  34.275  1.00  0.00     0.074 A 
ATOM     28  C   UNL A   1      43.919  26.492  30.212  1.00  0.00     0.029 A 
ATOM     29  N   UNL A   1      42.544  27.984  31.130  1.00  0.00    -0.354 N 
ATOM     30  N   UNL A   1      41.606  29.788  33.345  1.00  0.00    -0.248 NA
ATOM     31  C   UNL A   1      41.815  30.546  35.547  1.00  0.00     0.031 C 
ATOM     32  C   UNL A   1      44.348  26.758  31.517  1.00  0.00     0.029 A 
ATOM     33  C   UNL A   1      43.508  27.708  32.080  1.00  0.00     0.049 A 
ATOM     34  H   UNL A   1      41.795  28.611  31.252  1.00  0.00     0.167 HD
ATOM     35  C   UNL A   1      42.734  29.218  33.910  1.00  0.00     0.074 A 
ATOM     36  C   UNL A   1      42.842  29.762  35.252  1.00  0.00     0.031 C 
ATOM     37  C   UNL A   1      43.594  28.311  33.387  1.00  0.00     0.034 A 
BRANCH  24  38
ATOM     38  C   UNL A   1      42.348  26.491  27.587  1.00  0.00     0.023 A 
ATOM     39  C   UNL A   1      43.021  27.088  26.503  1.00  0.00     0.012 A 
ATOM     40  C   UNL A   1      42.002  25.127  27.521  1.00  0.00     0.148 A 
ATOM     41  C   UNL A   1      43.310  26.351  25.354  1.00  0.00     0.002 A 
ATOM     42  C   UNL A   1      42.335  24.387  26.394  1.00  0.00     0.091 A 
ATOM     43  F   UNL A   1      41.333  24.587  28.550  1.00  0.00    -0.205 F 
ATOM     44  C   UNL A   1      42.975  25.001  25.304  1.00  0.00     0.022 A 
BRANCH  42  45
ATOM     45  S   UNL A   1      42.003  22.629  26.255  1.00  0.00     0.127 S 
ATOM     46  O   UNL A   1      42.690  22.296  25.007  1.00  0.00    -0.237 OA
ATOM     47  O   UNL A   1      42.644  22.105  27.461  1.00  0.00    -0.237 OA
ATOM     48  O   UNL A   1      40.555  22.491  26.218  1.00  0.00    -0.744 OA
ENDBRANCH  42  45
ENDBRANCH  24  38
BRANCH  25  49
ATOM     49  C   UNL A   1      39.401  32.234  35.368  1.00  0.00     0.023 A 
ATOM     50  C   UNL A   1      38.500  31.669  36.289  1.00  0.00     0.012 A 
ATOM     51  C   UNL A   1      39.841  33.561  35.571  1.00  0.00     0.148 A 
ATOM     52  C   UNL A   1      38.012  32.419  37.361  1.00  0.00     0.002 A 
ATOM     53  C   UNL A   1      39.402  34.280  36.677  1.00  0.00     0.091 A 
ATOM     54  F   UNL A   1      40.687  34.095  34.681  1.00  0.00    -0.205 F 
ATOM     55  C   UNL A   1      38.468  33.720  37.560  1.00  0.00     0.022 A 
BRANCH  53  56
ATOM     56  S   UNL A   1      40.041  35.911  37.077  1.00  0.00     0.127 S 
ATOM     57  O   UNL A   1      41.469  35.643  37.230  1.00  0.00    -0.237 OA
ATOM     58  O   UNL A   1      39.683  36.680  35.885  1.00  0.00    -0.237 OA
ATOM     59  O   UNL A   1      39.339  36.323  38.285  1.00  0.00    -0.744 OA
ENDBRANCH  53  56
ENDBRANCH  25  49
BRANCH  37  60
ATOM     60  C   UNL A   1      44.744  27.897  34.258  1.00  0.00     0.023 A 
ATOM     61  C   UNL A   1      45.945  28.635  34.239  1.00  0.00     0.012 A 
ATOM     62  C   UNL A   1      44.610  26.802  35.130  1.00  0.00     0.148 A 
ATOM     63  C   UNL A   1      47.013  28.260  35.049  1.00  0.00     0.002 A 
ATOM     64  C   UNL A   1      45.656  26.472  35.978  1.00  0.00     0.091 A 
ATOM     65  F   UNL A   1      43.465  26.103  35.110  1.00  0.00    -0.205 F 
ATOM     66  C   UNL A   1      46.864  27.187  35.927  1.00  0.00     0.022 A 
BRANCH  64  67
ATOM     67  S   UNL A   1      45.509  25.182  37.216  1.00  0.00     0.127 S 
ATOM     68  O   UNL A   1      45.389  23.985  36.385  1.00  0.00    -0.237 OA
ATOM     69  O   UNL A   1      46.778  25.302  37.936  1.00  0.00    -0.237 OA
ATOM     70  O   UNL A   1      44.333  25.515  38.007  1.00  0.00    -0.744 OA
ENDBRANCH  64  67
ENDBRANCH  37  60
ENDBRANCH  11  12
ENDBRANCH   4   6
ENDBRANCH   3   4
ENDBRANCH   2   3
ENDBRANCH   1   2
BRANCH   1  71
ATOM     71  O   UNL A   1      30.868  27.614  24.118  1.00  0.00    -0.374 OA
BRANCH  71  72
ATOM     72  C   UNL A   1      30.510  26.274  23.790  1.00  0.00     0.202 C 
BRANCH  72  73
ATOM     73  C   UNL A   1      30.070  25.594  25.079  1.00  0.00     0.261 C 
BRANCH  73  74
ATOM     74  O   UNL A   1      30.671  24.292  25.097  1.00  0.00    -0.459 OA
BRANCH  74  75
ATOM     75  C   UNL A   1      31.533  24.006  26.130  1.00  0.00     0.368 C 
ATOM     76  O   UNL A   1      31.564  24.598  27.201  1.00  0.00    -0.245 OA
BRANCH  75  77
ATOM     77  C   UNL A   1      32.469  22.872  25.674  1.00  0.00     0.197 C 
ATOM     78  C   UNL A   1      33.360  22.300  26.791  1.00  0.00     0.084 C 
ATOM     79  C   UNL A   1      31.532  21.670  25.415  1.00  0.00     0.113 C 
ATOM     80  C   UNL A   1      33.646  20.883  26.362  1.00  0.00     0.039 C 
ATOM     81  C   UNL A   1      32.401  20.430  25.609  1.00  0.00     0.125 C 
BRANCH  77  82
ATOM     82  N   UNL A   1      33.191  23.124  24.414  1.00  0.00    -0.330 N 
ATOM     83  H   UNL A   1      32.462  23.252  23.711  1.00  0.00     0.347 HD
ATOM     84  H   UNL A   1      33.825  22.325  24.418  1.00  0.00     0.347 HD
BRANCH  82  85
ATOM     85  C   UNL A   1      34.148  24.193  24.167  1.00  0.00     0.183 C 
ATOM     86  C   UNL A   1      34.388  25.483  24.895  1.00  0.00     0.071 C 
ATOM     87  C   UNL A   1      35.239  24.313  25.222  1.00  0.00     0.071 C 
ENDBRANCH  82  85
ENDBRANCH  77  82
BRANCH  81  88
ATOM     88  O   UNL A   1      32.750  19.927  24.326  1.00  0.00    -0.375 OA
BRANCH  88  89
ATOM     89  C   UNL A   1      32.907  18.509  24.125  1.00  0.00     0.118 C 
ATOM     90  C   UNL A   1      32.956  17.967  22.678  1.00  0.00     0.032 C 
ATOM     91  C   UNL A   1      34.282  17.841  24.354  1.00  0.00     0.032 C 
ATOM     92  C   UNL A   1      33.969  16.918  23.164  1.00  0.00     0.005 C 
ENDBRANCH  88  89
ENDBRANCH  81  88
ENDBRANCH  75  77
ENDBRANCH  74  75
ENDBRANCH  73  74
ENDBRANCH  72  73
ENDBRANCH  71  72
ENDBRANCH   1  71
TORSDOF 21
ENDMDL
