MODEL 1
REMARK VINA RESULT:     -11.2      0.000      0.000
REMARK SMILES C[C@@H](Oc1ccc(-c2ccccc2)cc1)C(=O)N1CCC[C@H](C(=O)OCCOCCOC(=O)c2ccc(-c3c4nc(c(-c5cccc(S(=O)(=O)[O-])c5F)c5ccc([nH]5)c(-c5cccc(S(=O)(=O)[O-])c5F)c5nc(c(-c6cccc(S(=O)(=O)[O-])c6F)c6ccc3[nH]6)C=C5)C=C4)cc2)C1
REMARK SMILES IDX 27 1 26 2 25 3 23 4 24 5 22 6 18 7 19 8 97 9 20 10 21 11
REMARK SMILES IDX 16 12 17 13 2 14 1 15 3 16 4 17 5 18 15 19 6 20 14 21 7 22
REMARK SMILES IDX 8 23 9 24 13 25 10 26 12 27 11 28 28 29 29 30 30 31 31 32
REMARK SMILES IDX 32 33 33 34 34 35 35 36 96 37 36 38 95 39 37 40 38 41 39 42
REMARK SMILES IDX 89 43 40 44 94 45 88 46 90 47 41 48 93 49 87 50 86 51 42 53
REMARK SMILES IDX 74 54 54 55 73 56 55 57 58 58 72 59 91 60 56 61 57 62 71 64
REMARK SMILES IDX 92 65 59 66 43 67 44 68 52 69 45 70 47 71 53 72 46 73 48 74
REMARK SMILES IDX 49 75 50 76 51 77 75 78 76 79 84 80 77 81 79 82 85 83 78 84
REMARK SMILES IDX 80 85 81 86 82 87 83 88 60 89 61 90 69 91 62 92 64 93 70 94
REMARK SMILES IDX 63 95 65 96 66 97 67 98 68 99
REMARK H PARENT 90 52 58 63
REMARK Flexibility Score: inf
ROOT
ATOM      1  C   UNL A   1      37.493  22.482  25.136  1.00  0.00     0.202 C 
ENDROOT
BRANCH   1   2
ATOM      2  C   UNL A   1      37.052  23.581  26.107  1.00  0.00     0.261 C 
BRANCH   2   3
ATOM      3  O   UNL A   1      35.630  23.786  26.020  1.00  0.00    -0.463 OA
BRANCH   3   4
ATOM      4  C   UNL A   1      34.833  22.692  26.036  1.00  0.00     0.310 C 
ATOM      5  O   UNL A   1      34.667  21.955  27.002  1.00  0.00    -0.252 OA
BRANCH   4   6
ATOM      6  C   UNL A   1      34.175  22.426  24.692  1.00  0.00     0.119 C 
ATOM      7  N   UNL A   1      31.912  23.186  25.237  1.00  0.00    -0.339 N 
ATOM      8  C   UNL A   1      31.293  21.899  24.939  1.00  0.00     0.119 C 
ATOM      9  C   UNL A   1      33.106  23.488  24.452  1.00  0.00     0.134 C 
ATOM     10  C   UNL A   1      32.271  20.751  25.156  1.00  0.00     0.022 C 
ATOM     11  C   UNL A   1      33.617  21.009  24.472  1.00  0.00     0.019 C 
BRANCH   7  12
ATOM     12  C   UNL A   1      31.432  23.937  26.306  1.00  0.00     0.263 C 
ATOM     13  O   UNL A   1      31.455  23.490  27.456  1.00  0.00    -0.271 OA
BRANCH  12  14
ATOM     14  C   UNL A   1      30.866  25.350  26.054  1.00  0.00     0.259 C 
ATOM     15  C   UNL A   1      31.801  26.427  26.597  1.00  0.00     0.064 C 
BRANCH  14  16
ATOM     16  O   UNL A   1      30.636  25.486  24.646  1.00  0.00    -0.481 OA
BRANCH  16  17
ATOM     17  C   UNL A   1      30.151  26.704  24.281  1.00  0.00     0.120 A 
ATOM     18  C   UNL A   1      28.817  26.833  23.912  1.00  0.00     0.047 A 
ATOM     19  C   UNL A   1      31.041  27.755  24.110  1.00  0.00     0.047 A 
ATOM     20  C   UNL A   1      28.370  28.036  23.358  1.00  0.00     0.012 A 
ATOM     21  C   UNL A   1      30.590  28.957  23.569  1.00  0.00     0.012 A 
ATOM     22  C   UNL A   1      29.253  29.112  23.158  1.00  0.00    -0.018 A 
BRANCH  22  23
ATOM     23  C   UNL A   1      28.825  30.353  22.495  1.00  0.00    -0.018 A 
ATOM     24  C   UNL A   1      28.402  30.366  21.158  1.00  0.00     0.009 A 
ATOM     25  C   UNL A   1      28.817  31.570  23.203  1.00  0.00     0.009 A 
ATOM     26  C   UNL A   1      27.971  31.551  20.555  1.00  0.00     0.001 A 
ATOM     27  C   UNL A   1      28.386  32.753  22.603  1.00  0.00     0.001 A 
ATOM     28  C   UNL A   1      27.959  32.742  21.278  1.00  0.00     0.000 A 
ENDBRANCH  22  23
ENDBRANCH  16  17
ENDBRANCH  14  16
ENDBRANCH  12  14
ENDBRANCH   7  12
ENDBRANCH   4   6
ENDBRANCH   3   4
ENDBRANCH   2   3
ENDBRANCH   1   2
BRANCH   1  29
ATOM     29  O   UNL A   1      38.329  21.465  25.696  1.00  0.00    -0.374 OA
BRANCH  29  30
ATOM     30  C   UNL A   1      38.488  20.268  24.939  1.00  0.00     0.202 C 
BRANCH  30  31
ATOM     31  C   UNL A   1      39.222  19.114  25.633  1.00  0.00     0.261 C 
BRANCH  31  32
ATOM     32  O   UNL A   1      40.633  19.344  25.762  1.00  0.00    -0.460 OA
BRANCH  32  33
ATOM     33  C   UNL A   1      41.013  19.785  26.987  1.00  0.00     0.338 C 
ATOM     34  O   UNL A   1      40.805  19.224  28.061  1.00  0.00    -0.246 OA
BRANCH  33  35
ATOM     35  C   UNL A   1      41.859  20.987  26.895  1.00  0.00     0.060 A 
ATOM     36  C   UNL A   1      42.374  21.490  28.094  1.00  0.00     0.016 A 
ATOM     37  C   UNL A   1      42.058  21.677  25.696  1.00  0.00     0.016 A 
ATOM     38  C   UNL A   1      43.019  22.723  28.115  1.00  0.00     0.010 A 
ATOM     39  C   UNL A   1      42.709  22.920  25.719  1.00  0.00     0.010 A 
ATOM     40  C   UNL A   1      43.147  23.470  26.936  1.00  0.00    -0.014 A 
BRANCH  40  41
ATOM     41  C   UNL A   1      43.615  24.877  27.039  1.00  0.00     0.031 A 
ATOM     42  C   UNL A   1      42.681  25.931  27.573  1.00  0.00     0.074 A 
ATOM     43  C   UNL A   1      44.884  25.200  26.733  1.00  0.00     0.049 A 
ATOM     44  N   UNL A   1      42.928  27.182  27.868  1.00  0.00    -0.248 NA
ATOM     45  C   UNL A   1      41.285  25.525  27.808  1.00  0.00     0.031 C 
ATOM     46  C   UNL A   1      45.882  24.279  26.190  1.00  0.00     0.029 A 
ATOM     47  N   UNL A   1      45.550  26.396  26.836  1.00  0.00    -0.354 N 
ATOM     48  C   UNL A   1      41.723  27.715  28.311  1.00  0.00     0.074 A 
ATOM     49  C   UNL A   1      40.737  26.659  28.221  1.00  0.00     0.031 C 
ATOM     50  C   UNL A   1      47.034  24.947  26.004  1.00  0.00     0.029 A 
ATOM     51  C   UNL A   1      46.855  26.339  26.409  1.00  0.00     0.049 A 
ATOM     52  H   UNL A   1      45.132  27.217  27.184  1.00  0.00     0.167 HD
ATOM     53  C   UNL A   1      41.461  28.960  28.775  1.00  0.00     0.034 A 
ATOM     54  C   UNL A   1      47.800  27.299  26.358  1.00  0.00     0.034 A 
ATOM     55  C   UNL A   1      42.444  30.005  28.891  1.00  0.00     0.049 A 
ATOM     56  C   UNL A   1      47.489  28.673  26.894  1.00  0.00     0.074 A 
ATOM     57  C   UNL A   1      42.286  31.283  29.398  1.00  0.00     0.029 A 
ATOM     58  N   UNL A   1      43.765  29.896  28.488  1.00  0.00    -0.354 N 
ATOM     59  N   UNL A   1      46.385  29.114  27.446  1.00  0.00    -0.248 NA
ATOM     60  C   UNL A   1      48.571  29.667  26.841  1.00  0.00     0.031 C 
ATOM     61  C   UNL A   1      43.510  31.953  29.285  1.00  0.00     0.029 A 
ATOM     62  C   UNL A   1      44.433  31.085  28.725  1.00  0.00     0.049 A 
ATOM     63  H   UNL A   1      44.170  29.091  28.090  1.00  0.00     0.167 HD
ATOM     64  C   UNL A   1      46.648  30.425  27.834  1.00  0.00     0.074 A 
ATOM     65  C   UNL A   1      48.025  30.695  27.477  1.00  0.00     0.031 C 
ATOM     66  C   UNL A   1      45.819  31.328  28.415  1.00  0.00     0.034 A 
BRANCH  53  67
ATOM     67  C   UNL A   1      40.059  29.252  29.240  1.00  0.00     0.023 A 
ATOM     68  C   UNL A   1      39.064  29.560  28.289  1.00  0.00     0.012 A 
ATOM     69  C   UNL A   1      39.709  29.166  30.602  1.00  0.00     0.148 A 
ATOM     70  C   UNL A   1      37.751  29.805  28.687  1.00  0.00     0.002 A 
ATOM     71  C   UNL A   1      38.390  29.374  30.987  1.00  0.00     0.091 A 
ATOM     72  F   UNL A   1      40.673  28.896  31.494  1.00  0.00    -0.205 F 
ATOM     73  C   UNL A   1      37.413  29.702  30.034  1.00  0.00     0.022 A 
BRANCH  71  74
ATOM     74  S   UNL A   1      37.841  29.193  32.688  1.00  0.00     0.127 S 
ATOM     75  O   UNL A   1      38.748  30.101  33.389  1.00  0.00    -0.237 OA
ATOM     76  O   UNL A   1      36.454  29.653  32.619  1.00  0.00    -0.237 OA
ATOM     77  O   UNL A   1      37.995  27.781  33.010  1.00  0.00    -0.744 OA
ENDBRANCH  71  74
ENDBRANCH  53  67
BRANCH  54  78
ATOM     78  C   UNL A   1      49.160  26.974  25.840  1.00  0.00     0.023 A 
ATOM     79  C   UNL A   1      50.049  26.230  26.640  1.00  0.00     0.012 A 
ATOM     80  C   UNL A   1      49.567  27.382  24.556  1.00  0.00     0.148 A 
ATOM     81  C   UNL A   1      51.330  25.921  26.180  1.00  0.00     0.002 A 
ATOM     82  C   UNL A   1      50.825  27.028  24.084  1.00  0.00     0.091 A 
ATOM     83  F   UNL A   1      48.714  28.109  23.820  1.00  0.00    -0.205 F 
ATOM     84  C   UNL A   1      51.714  26.310  24.899  1.00  0.00     0.022 A 
BRANCH  82  85
ATOM     85  S   UNL A   1      51.357  27.384  22.405  1.00  0.00     0.127 S 
ATOM     86  O   UNL A   1      50.399  26.613  21.618  1.00  0.00    -0.237 OA
ATOM     87  O   UNL A   1      51.185  28.837  22.333  1.00  0.00    -0.237 OA
ATOM     88  O   UNL A   1      52.743  26.940  22.331  1.00  0.00    -0.744 OA
ENDBRANCH  82  85
ENDBRANCH  54  78
BRANCH  66  89
ATOM     89  C   UNL A   1      46.381  32.693  28.724  1.00  0.00     0.023 A 
ATOM     90  C   UNL A   1      46.992  32.930  29.971  1.00  0.00     0.012 A 
ATOM     91  C   UNL A   1      46.356  33.722  27.762  1.00  0.00     0.148 A 
ATOM     92  C   UNL A   1      47.536  34.178  30.270  1.00  0.00     0.002 A 
ATOM     93  C   UNL A   1      46.942  34.951  28.050  1.00  0.00     0.091 A 
ATOM     94  F   UNL A   1      45.753  33.489  26.586  1.00  0.00    -0.205 F 
ATOM     95  C   UNL A   1      47.521  35.184  29.307  1.00  0.00     0.022 A 
BRANCH  93  96
ATOM     96  S   UNL A   1      47.045  36.266  26.831  1.00  0.00     0.127 S 
ATOM     97  O   UNL A   1      45.686  36.805  26.855  1.00  0.00    -0.237 OA
ATOM     98  O   UNL A   1      48.061  37.151  27.403  1.00  0.00    -0.237 OA
ATOM     99  O   UNL A   1      47.446  35.619  25.588  1.00  0.00    -0.744 OA
ENDBRANCH  93  96
ENDBRANCH  66  89
ENDBRANCH  40  41
ENDBRANCH  33  35
ENDBRANCH  32  33
ENDBRANCH  31  32
ENDBRANCH  30  31
ENDBRANCH  29  30
ENDBRANCH   1  29
TORSDOF 22
ENDMDL
MODEL 2
REMARK VINA RESULT:     -11.2      1.595      2.040
REMARK SMILES C[C@@H](Oc1ccc(-c2ccccc2)cc1)C(=O)N1CCC[C@H](C(=O)OCCOCCOC(=O)c2ccc(-c3c4nc(c(-c5cccc(S(=O)(=O)[O-])c5F)c5ccc([nH]5)c(-c5cccc(S(=O)(=O)[O-])c5F)c5nc(c(-c6cccc(S(=O)(=O)[O-])c6F)c6ccc3[nH]6)C=C5)C=C4)cc2)C1
REMARK SMILES IDX 27 1 26 2 25 3 23 4 24 5 22 6 18 7 19 8 97 9 20 10 21 11
REMARK SMILES IDX 16 12 17 13 2 14 1 15 3 16 4 17 5 18 15 19 6 20 14 21 7 22
REMARK SMILES IDX 8 23 9 24 13 25 10 26 12 27 11 28 28 29 29 30 30 31 31 32
REMARK SMILES IDX 32 33 33 34 34 35 35 36 96 37 36 38 95 39 37 40 38 41 39 42
REMARK SMILES IDX 89 43 40 44 94 45 88 46 90 47 41 48 93 49 87 50 86 51 42 53
REMARK SMILES IDX 74 54 54 55 73 56 55 57 58 58 72 59 91 60 56 61 57 62 71 64
REMARK SMILES IDX 92 65 59 66 43 67 44 68 52 69 45 70 47 71 53 72 46 73 48 74
REMARK SMILES IDX 49 75 50 76 51 77 75 78 76 79 84 80 77 81 79 82 85 83 78 84
REMARK SMILES IDX 80 85 81 86 82 87 83 88 60 89 61 90 69 91 62 92 64 93 70 94
REMARK SMILES IDX 63 95 65 96 66 97 67 98 68 99
REMARK H PARENT 90 52 58 63
REMARK Flexibility Score: inf
ROOT
ATOM      1  C   UNL A   1      37.444  21.608  24.369  1.00  0.00     0.202 C 
ENDROOT
BRANCH   1   2
ATOM      2  C   UNL A   1      37.023  23.055  24.643  1.00  0.00     0.261 C 
BRANCH   2   3
ATOM      3  O   UNL A   1      35.605  23.208  24.452  1.00  0.00    -0.463 OA
BRANCH   3   4
ATOM      4  C   UNL A   1      34.842  23.443  25.546  1.00  0.00     0.310 C 
ATOM      5  O   UNL A   1      34.771  24.514  26.138  1.00  0.00    -0.252 OA
BRANCH   4   6
ATOM      6  C   UNL A   1      34.091  22.206  26.014  1.00  0.00     0.119 C 
ATOM      7  N   UNL A   1      31.991  22.578  24.811  1.00  0.00    -0.339 N 
ATOM      8  C   UNL A   1      31.178  22.600  26.023  1.00  0.00     0.119 C 
ATOM      9  C   UNL A   1      33.180  21.732  24.886  1.00  0.00     0.134 C 
ATOM     10  C   UNL A   1      31.987  23.074  27.223  1.00  0.00     0.022 C 
ATOM     11  C   UNL A   1      33.324  22.335  27.341  1.00  0.00     0.019 C 
BRANCH   7  12
ATOM     12  C   UNL A   1      31.675  23.442  23.768  1.00  0.00     0.263 C 
ATOM     13  O   UNL A   1      30.640  23.296  23.114  1.00  0.00    -0.271 OA
BRANCH  12  14
ATOM     14  C   UNL A   1      32.629  24.606  23.425  1.00  0.00     0.259 C 
ATOM     15  C   UNL A   1      32.509  25.008  21.957  1.00  0.00     0.064 C 
BRANCH  14  16
ATOM     16  O   UNL A   1      32.335  25.691  24.313  1.00  0.00    -0.481 OA
BRANCH  16  17
ATOM     17  C   UNL A   1      31.594  26.683  23.748  1.00  0.00     0.120 A 
ATOM     18  C   UNL A   1      32.227  27.714  23.066  1.00  0.00     0.047 A 
ATOM     19  C   UNL A   1      30.234  26.740  24.022  1.00  0.00     0.047 A 
ATOM     20  C   UNL A   1      31.484  28.825  22.653  1.00  0.00     0.012 A 
ATOM     21  C   UNL A   1      29.494  27.842  23.600  1.00  0.00     0.012 A 
ATOM     22  C   UNL A   1      30.109  28.916  22.931  1.00  0.00    -0.018 A 
BRANCH  22  23
ATOM     23  C   UNL A   1      29.328  30.114  22.586  1.00  0.00    -0.018 A 
ATOM     24  C   UNL A   1      29.267  30.602  21.272  1.00  0.00     0.009 A 
ATOM     25  C   UNL A   1      28.605  30.801  23.580  1.00  0.00     0.009 A 
ATOM     26  C   UNL A   1      28.495  31.725  20.960  1.00  0.00     0.001 A 
ATOM     27  C   UNL A   1      27.834  31.922  23.270  1.00  0.00     0.001 A 
ATOM     28  C   UNL A   1      27.777  32.381  21.957  1.00  0.00     0.000 A 
ENDBRANCH  22  23
ENDBRANCH  16  17
ENDBRANCH  14  16
ENDBRANCH  12  14
ENDBRANCH   7  12
ENDBRANCH   4   6
ENDBRANCH   3   4
ENDBRANCH   2   3
ENDBRANCH   1   2
BRANCH   1  29
ATOM     29  O   UNL A   1      38.234  20.992  25.391  1.00  0.00    -0.374 OA
BRANCH  29  30
ATOM     30  C   UNL A   1      38.483  19.595  25.263  1.00  0.00     0.202 C 
BRANCH  30  31
ATOM     31  C   UNL A   1      39.592  19.016  26.150  1.00  0.00     0.261 C 
BRANCH  31  32
ATOM     32  O   UNL A   1      40.905  19.205  25.600  1.00  0.00    -0.460 OA
BRANCH  32  33
ATOM     33  C   UNL A   1      41.855  19.499  26.523  1.00  0.00     0.338 C 
ATOM     34  O   UNL A   1      42.695  18.726  26.977  1.00  0.00    -0.246 OA
BRANCH  33  35
ATOM     35  C   UNL A   1      41.874  20.937  26.844  1.00  0.00     0.060 A 
ATOM     36  C   UNL A   1      41.728  21.824  25.772  1.00  0.00     0.016 A 
ATOM     37  C   UNL A   1      42.142  21.418  28.128  1.00  0.00     0.016 A 
ATOM     38  C   UNL A   1      41.928  23.189  25.963  1.00  0.00     0.010 A 
ATOM     39  C   UNL A   1      42.341  22.794  28.319  1.00  0.00     0.010 A 
ATOM     40  C   UNL A   1      42.284  23.678  27.226  1.00  0.00    -0.014 A 
BRANCH  40  41
ATOM     41  C   UNL A   1      42.727  25.092  27.337  1.00  0.00     0.031 A 
ATOM     42  C   UNL A   1      41.815  26.105  27.979  1.00  0.00     0.074 A 
ATOM     43  C   UNL A   1      43.959  25.457  26.941  1.00  0.00     0.049 A 
ATOM     44  N   UNL A   1      42.057  27.352  28.295  1.00  0.00    -0.248 NA
ATOM     45  C   UNL A   1      40.453  25.657  28.313  1.00  0.00     0.031 C 
ATOM     46  C   UNL A   1      44.930  24.579  26.289  1.00  0.00     0.029 A 
ATOM     47  N   UNL A   1      44.603  26.665  27.029  1.00  0.00    -0.354 N 
ATOM     48  C   UNL A   1      40.880  27.840  28.851  1.00  0.00     0.074 A 
ATOM     49  C   UNL A   1      39.915  26.762  28.806  1.00  0.00     0.031 C 
ATOM     50  C   UNL A   1      46.047  25.281  26.032  1.00  0.00     0.029 A 
ATOM     51  C   UNL A   1      45.870  26.655  26.497  1.00  0.00     0.049 A 
ATOM     52  H   UNL A   1      44.197  27.464  27.436  1.00  0.00     0.167 HD
ATOM     53  C   UNL A   1      40.629  29.063  29.376  1.00  0.00     0.034 A 
ATOM     54  C   UNL A   1      46.786  27.640  26.401  1.00  0.00     0.034 A 
ATOM     55  C   UNL A   1      41.594  30.129  29.446  1.00  0.00     0.049 A 
ATOM     56  C   UNL A   1      46.488  28.988  27.005  1.00  0.00     0.074 A 
ATOM     57  C   UNL A   1      41.448  31.386  30.006  1.00  0.00     0.029 A 
ATOM     58  N   UNL A   1      42.880  30.066  28.934  1.00  0.00    -0.354 N 
ATOM     59  N   UNL A   1      45.423  29.384  27.659  1.00  0.00    -0.248 NA
ATOM     60  C   UNL A   1      47.539  30.011  26.898  1.00  0.00     0.031 C 
ATOM     61  C   UNL A   1      42.644  32.090  29.817  1.00  0.00     0.029 A 
ATOM     62  C   UNL A   1      43.538  31.264  29.156  1.00  0.00     0.049 A 
ATOM     63  H   UNL A   1      43.269  29.285  28.478  1.00  0.00     0.167 HD
ATOM     64  C   UNL A   1      45.687  30.688  28.067  1.00  0.00     0.074 A 
ATOM     65  C   UNL A   1      47.024  31.004  27.610  1.00  0.00     0.031 C 
ATOM     66  C   UNL A   1      44.888  31.552  28.743  1.00  0.00     0.034 A 
BRANCH  53  67
ATOM     67  C   UNL A   1      39.263  29.305  29.962  1.00  0.00     0.023 A 
ATOM     68  C   UNL A   1      38.999  28.904  31.288  1.00  0.00     0.012 A 
ATOM     69  C   UNL A   1      38.263  29.974  29.231  1.00  0.00     0.148 A 
ATOM     70  C   UNL A   1      37.753  29.141  31.868  1.00  0.00     0.002 A 
ATOM     71  C   UNL A   1      37.036  30.242  29.828  1.00  0.00     0.091 A 
ATOM     72  F   UNL A   1      38.525  30.325  27.963  1.00  0.00    -0.205 F 
ATOM     73  C   UNL A   1      36.777  29.819  31.142  1.00  0.00     0.022 A 
BRANCH  71  74
ATOM     74  S   UNL A   1      35.741  31.171  29.000  1.00  0.00     0.127 S 
ATOM     75  O   UNL A   1      34.926  31.613  30.130  1.00  0.00    -0.237 OA
ATOM     76  O   UNL A   1      36.497  32.237  28.340  1.00  0.00    -0.237 OA
ATOM     77  O   UNL A   1      35.096  30.234  28.090  1.00  0.00    -0.744 OA
ENDBRANCH  71  74
ENDBRANCH  53  67
BRANCH  54  78
ATOM     78  C   UNL A   1      48.106  27.366  25.764  1.00  0.00     0.023 A 
ATOM     79  C   UNL A   1      49.172  26.891  26.552  1.00  0.00     0.012 A 
ATOM     80  C   UNL A   1      48.303  27.556  24.383  1.00  0.00     0.148 A 
ATOM     81  C   UNL A   1      50.419  26.636  25.979  1.00  0.00     0.002 A 
ATOM     82  C   UNL A   1      49.532  27.252  23.811  1.00  0.00     0.091 A 
ATOM     83  F   UNL A   1      47.281  28.031  23.656  1.00  0.00    -0.205 F 
ATOM     84  C   UNL A   1      50.596  26.805  24.608  1.00  0.00     0.022 A 
BRANCH  82  85
ATOM     85  S   UNL A   1      49.811  27.328  22.038  1.00  0.00     0.127 S 
ATOM     86  O   UNL A   1      48.765  26.443  21.532  1.00  0.00    -0.237 OA
ATOM     87  O   UNL A   1      49.603  28.750  21.757  1.00  0.00    -0.237 OA
ATOM     88  O   UNL A   1      51.180  26.872  21.838  1.00  0.00    -0.744 OA
ENDBRANCH  82  85
ENDBRANCH  54  78
BRANCH  66  89
ATOM     89  C   UNL A   1      45.441  32.920  29.050  1.00  0.00     0.023 A 
ATOM     90  C   UNL A   1      46.242  33.108  30.195  1.00  0.00     0.012 A 
ATOM     91  C   UNL A   1      45.220  34.005  28.179  1.00  0.00     0.148 A 
ATOM     92  C   UNL A   1      46.780  34.360  30.488  1.00  0.00     0.002 A 
ATOM     93  C   UNL A   1      45.799  35.240  28.453  1.00  0.00     0.091 A 
ATOM     94  F   UNL A   1      44.440  33.817  27.104  1.00  0.00    -0.205 F 
ATOM     95  C   UNL A   1      46.569  35.422  29.612  1.00  0.00     0.022 A 
BRANCH  93  96
ATOM     96  S   UNL A   1      45.649  36.632  27.327  1.00  0.00     0.127 S 
ATOM     97  O   UNL A   1      44.205  36.854  27.314  1.00  0.00    -0.237 OA
ATOM     98  O   UNL A   1      46.420  37.674  28.008  1.00  0.00    -0.237 OA
ATOM     99  O   UNL A   1      46.232  36.184  26.068  1.00  0.00    -0.744 OA
ENDBRANCH  93  96
ENDBRANCH  66  89
ENDBRANCH  40  41
ENDBRANCH  33  35
ENDBRANCH  32  33
ENDBRANCH  31  32
ENDBRANCH  30  31
ENDBRANCH  29  30
ENDBRANCH   1  29
TORSDOF 22
ENDMDL
MODEL 3
REMARK VINA RESULT:     -11.1      5.594     11.192
REMARK SMILES C[C@@H](Oc1ccc(-c2ccccc2)cc1)C(=O)N1CCC[C@H](C(=O)OCCOCCOC(=O)c2ccc(-c3c4nc(c(-c5cccc(S(=O)(=O)[O-])c5F)c5ccc([nH]5)c(-c5cccc(S(=O)(=O)[O-])c5F)c5nc(c(-c6cccc(S(=O)(=O)[O-])c6F)c6ccc3[nH]6)C=C5)C=C4)cc2)C1
REMARK SMILES IDX 27 1 26 2 25 3 23 4 24 5 22 6 18 7 19 8 97 9 20 10 21 11
REMARK SMILES IDX 16 12 17 13 2 14 1 15 3 16 4 17 5 18 15 19 6 20 14 21 7 22
REMARK SMILES IDX 8 23 9 24 13 25 10 26 12 27 11 28 28 29 29 30 30 31 31 32
REMARK SMILES IDX 32 33 33 34 34 35 35 36 96 37 36 38 95 39 37 40 38 41 39 42
REMARK SMILES IDX 89 43 40 44 94 45 88 46 90 47 41 48 93 49 87 50 86 51 42 53
REMARK SMILES IDX 74 54 54 55 73 56 55 57 58 58 72 59 91 60 56 61 57 62 71 64
REMARK SMILES IDX 92 65 59 66 43 67 44 68 52 69 45 70 47 71 53 72 46 73 48 74
REMARK SMILES IDX 49 75 50 76 51 77 75 78 76 79 84 80 77 81 79 82 85 83 78 84
REMARK SMILES IDX 80 85 81 86 82 87 83 88 60 89 61 90 69 91 62 92 64 93 70 94
REMARK SMILES IDX 63 95 65 96 66 97 67 98 68 99
REMARK H PARENT 90 52 58 63
REMARK Flexibility Score: inf
ROOT
ATOM      1  C   UNL A   1      33.956  35.457  31.804  1.00  0.00     0.202 C 
ENDROOT
BRANCH   1   2
ATOM      2  C   UNL A   1      33.938  34.551  30.568  1.00  0.00     0.261 C 
BRANCH   2   3
ATOM      3  O   UNL A   1      34.166  33.182  30.948  1.00  0.00    -0.463 OA
BRANCH   3   4
ATOM      4  C   UNL A   1      35.436  32.714  30.889  1.00  0.00     0.310 C 
ATOM      5  O   UNL A   1      36.075  32.289  31.844  1.00  0.00    -0.252 OA
BRANCH   4   6
ATOM      6  C   UNL A   1      36.030  32.807  29.493  1.00  0.00     0.119 C 
ATOM      7  N   UNL A   1      37.298  30.712  29.497  1.00  0.00    -0.339 N 
ATOM      8  C   UNL A   1      38.582  31.365  29.263  1.00  0.00     0.119 C 
ATOM      9  C   UNL A   1      36.147  31.398  28.916  1.00  0.00     0.134 C 
ATOM     10  C   UNL A   1      38.588  32.786  29.812  1.00  0.00     0.022 C 
ATOM     11  C   UNL A   1      37.355  33.577  29.364  1.00  0.00     0.019 C 
BRANCH   7  12
ATOM     12  C   UNL A   1      37.244  29.611  30.346  1.00  0.00     0.263 C 
ATOM     13  O   UNL A   1      36.226  29.362  30.997  1.00  0.00    -0.271 OA
BRANCH  12  14
ATOM     14  C   UNL A   1      38.470  28.683  30.473  1.00  0.00     0.259 C 
ATOM     15  C   UNL A   1      38.332  27.742  31.666  1.00  0.00     0.064 C 
BRANCH  14  16
ATOM     16  O   UNL A   1      38.617  27.977  29.235  1.00  0.00    -0.481 OA
BRANCH  16  17
ATOM     17  C   UNL A   1      39.773  27.266  29.138  1.00  0.00     0.120 A 
ATOM     18  C   UNL A   1      40.992  27.900  29.349  1.00  0.00     0.047 A 
ATOM     19  C   UNL A   1      39.721  25.967  28.652  1.00  0.00     0.047 A 
ATOM     20  C   UNL A   1      42.180  27.219  29.064  1.00  0.00     0.012 A 
ATOM     21  C   UNL A   1      40.906  25.287  28.380  1.00  0.00     0.012 A 
ATOM     22  C   UNL A   1      42.156  25.908  28.555  1.00  0.00    -0.018 A 
BRANCH  22  23
ATOM     23  C   UNL A   1      43.389  25.208  28.164  1.00  0.00    -0.018 A 
ATOM     24  C   UNL A   1      43.765  23.991  28.753  1.00  0.00     0.009 A 
ATOM     25  C   UNL A   1      44.225  25.745  27.167  1.00  0.00     0.009 A 
ATOM     26  C   UNL A   1      44.925  23.327  28.346  1.00  0.00     0.001 A 
ATOM     27  C   UNL A   1      45.383  25.082  26.759  1.00  0.00     0.001 A 
ATOM     28  C   UNL A   1      45.731  23.870  27.347  1.00  0.00     0.000 A 
ENDBRANCH  22  23
ENDBRANCH  16  17
ENDBRANCH  14  16
ENDBRANCH  12  14
ENDBRANCH   7  12
ENDBRANCH   4   6
ENDBRANCH   3   4
ENDBRANCH   2   3
ENDBRANCH   1   2
BRANCH   1  29
ATOM     29  O   UNL A   1      33.995  34.779  33.064  1.00  0.00    -0.374 OA
BRANCH  29  30
ATOM     30  C   UNL A   1      35.139  35.002  33.884  1.00  0.00     0.202 C 
BRANCH  30  31
ATOM     31  C   UNL A   1      35.641  33.801  34.695  1.00  0.00     0.261 C 
BRANCH  31  32
ATOM     32  O   UNL A   1      37.052  33.850  34.954  1.00  0.00    -0.460 OA
BRANCH  32  33
ATOM     33  C   UNL A   1      37.520  32.800  35.674  1.00  0.00     0.338 C 
ATOM     34  O   UNL A   1      37.063  32.382  36.735  1.00  0.00    -0.246 OA
BRANCH  33  35
ATOM     35  C   UNL A   1      38.595  32.088  34.962  1.00  0.00     0.060 A 
ATOM     36  C   UNL A   1      39.898  32.273  35.437  1.00  0.00     0.016 A 
ATOM     37  C   UNL A   1      38.367  31.353  33.796  1.00  0.00     0.016 A 
ATOM     38  C   UNL A   1      40.983  31.795  34.709  1.00  0.00     0.010 A 
ATOM     39  C   UNL A   1      39.462  30.869  33.063  1.00  0.00     0.010 A 
ATOM     40  C   UNL A   1      40.775  31.132  33.491  1.00  0.00    -0.014 A 
BRANCH  40  41
ATOM     41  C   UNL A   1      41.953  30.856  32.628  1.00  0.00     0.031 A 
ATOM     42  C   UNL A   1      42.654  29.527  32.735  1.00  0.00     0.074 A 
ATOM     43  C   UNL A   1      42.348  31.749  31.703  1.00  0.00     0.049 A 
ATOM     44  N   UNL A   1      43.609  29.034  31.988  1.00  0.00    -0.248 NA
ATOM     45  C   UNL A   1      42.223  28.634  33.823  1.00  0.00     0.031 C 
ATOM     46  C   UNL A   1      41.766  33.077  31.510  1.00  0.00     0.029 A 
ATOM     47  N   UNL A   1      43.334  31.671  30.752  1.00  0.00    -0.354 N 
ATOM     48  C   UNL A   1      43.902  27.783  32.520  1.00  0.00     0.074 A 
ATOM     49  C   UNL A   1      43.041  27.602  33.669  1.00  0.00     0.031 C 
ATOM     50  C   UNL A   1      42.411  33.691  30.503  1.00  0.00     0.029 A 
ATOM     51  C   UNL A   1      43.450  32.804  29.984  1.00  0.00     0.049 A 
ATOM     52  H   UNL A   1      43.904  30.877  30.630  1.00  0.00     0.167 HD
ATOM     53  C   UNL A   1      44.786  26.856  32.080  1.00  0.00     0.034 A 
ATOM     54  C   UNL A   1      44.294  33.092  28.972  1.00  0.00     0.034 A 
ATOM     55  C   UNL A   1      45.625  27.021  30.922  1.00  0.00     0.049 A 
ATOM     56  C   UNL A   1      45.259  32.039  28.492  1.00  0.00     0.074 A 
ATOM     57  C   UNL A   1      46.515  26.118  30.368  1.00  0.00     0.029 A 
ATOM     58  N   UNL A   1      45.684  28.167  30.145  1.00  0.00    -0.354 N 
ATOM     59  N   UNL A   1      45.416  30.808  28.914  1.00  0.00    -0.248 NA
ATOM     60  C   UNL A   1      46.131  32.401  27.364  1.00  0.00     0.031 C 
ATOM     61  C   UNL A   1      47.125  26.726  29.264  1.00  0.00     0.029 A 
ATOM     62  C   UNL A   1      46.600  28.000  29.121  1.00  0.00     0.049 A 
ATOM     63  H   UNL A   1      45.152  28.982  30.299  1.00  0.00     0.167 HD
ATOM     64  C   UNL A   1      46.380  30.239  28.086  1.00  0.00     0.074 A 
ATOM     65  C   UNL A   1      46.749  31.253  27.121  1.00  0.00     0.031 C 
ATOM     66  C   UNL A   1      46.923  28.996  28.133  1.00  0.00     0.034 A 
BRANCH  53  67
ATOM     67  C   UNL A   1      44.861  25.552  32.829  1.00  0.00     0.023 A 
ATOM     68  C   UNL A   1      44.146  24.435  32.347  1.00  0.00     0.012 A 
ATOM     69  C   UNL A   1      45.676  25.411  33.968  1.00  0.00     0.148 A 
ATOM     70  C   UNL A   1      44.220  23.207  33.002  1.00  0.00     0.002 A 
ATOM     71  C   UNL A   1      45.775  24.173  34.594  1.00  0.00     0.091 A 
ATOM     72  F   UNL A   1      46.328  26.489  34.425  1.00  0.00    -0.205 F 
ATOM     73  C   UNL A   1      45.042  23.074  34.118  1.00  0.00     0.022 A 
BRANCH  71  74
ATOM     74  S   UNL A   1      46.862  23.884  35.994  1.00  0.00     0.127 S 
ATOM     75  O   UNL A   1      46.102  24.488  37.088  1.00  0.00    -0.237 OA
ATOM     76  O   UNL A   1      46.933  22.422  36.037  1.00  0.00    -0.237 OA
ATOM     77  O   UNL A   1      48.120  24.541  35.667  1.00  0.00    -0.744 OA
ENDBRANCH  71  74
ENDBRANCH  53  67
BRANCH  54  78
ATOM     78  C   UNL A   1      44.216  34.418  28.296  1.00  0.00     0.023 A 
ATOM     79  C   UNL A   1      43.388  34.575  27.167  1.00  0.00     0.012 A 
ATOM     80  C   UNL A   1      44.942  35.525  28.775  1.00  0.00     0.148 A 
ATOM     81  C   UNL A   1      43.306  35.805  26.512  1.00  0.00     0.002 A 
ATOM     82  C   UNL A   1      44.816  36.759  28.150  1.00  0.00     0.091 A 
ATOM     83  F   UNL A   1      45.742  35.348  29.837  1.00  0.00    -0.205 F 
ATOM     84  C   UNL A   1      44.011  36.899  27.009  1.00  0.00     0.022 A 
BRANCH  82  85
ATOM     85  S   UNL A   1      45.593  38.246  28.792  1.00  0.00     0.127 S 
ATOM     86  O   UNL A   1      47.010  37.957  28.585  1.00  0.00    -0.237 OA
ATOM     87  O   UNL A   1      45.042  39.281  27.915  1.00  0.00    -0.237 OA
ATOM     88  O   UNL A   1      45.162  38.344  30.180  1.00  0.00    -0.744 OA
ENDBRANCH  82  85
ENDBRANCH  54  78
BRANCH  66  89
ATOM     89  C   UNL A   1      47.964  28.651  27.098  1.00  0.00     0.023 A 
ATOM     90  C   UNL A   1      49.329  28.838  27.393  1.00  0.00     0.012 A 
ATOM     91  C   UNL A   1      47.597  28.087  25.860  1.00  0.00     0.148 A 
ATOM     92  C   UNL A   1      50.310  28.508  26.458  1.00  0.00     0.002 A 
ATOM     93  C   UNL A   1      48.583  27.717  24.951  1.00  0.00     0.091 A 
ATOM     94  F   UNL A   1      46.293  27.933  25.585  1.00  0.00    -0.205 F 
ATOM     95  C   UNL A   1      49.938  27.937  25.243  1.00  0.00     0.022 A 
BRANCH  93  96
ATOM     96  S   UNL A   1      48.190  26.891  23.404  1.00  0.00     0.127 S 
ATOM     97  O   UNL A   1      47.529  25.675  23.873  1.00  0.00    -0.237 OA
ATOM     98  O   UNL A   1      47.302  27.853  22.748  1.00  0.00    -0.237 OA
ATOM     99  O   UNL A   1      49.465  26.697  22.727  1.00  0.00    -0.744 OA
ENDBRANCH  93  96
ENDBRANCH  66  89
ENDBRANCH  40  41
ENDBRANCH  33  35
ENDBRANCH  32  33
ENDBRANCH  31  32
ENDBRANCH  30  31
ENDBRANCH  29  30
ENDBRANCH   1  29
TORSDOF 22
ENDMDL
