MODEL 1
REMARK VINA RESULT:     -10.1      0.000      0.000
REMARK SMILES C=CCN(CC(=O)OCCOCCOC(=O)c1ccc(-c2c3nc(c(-c4cccc(S(=O)(=O)[O-])c4F)c4ccc([nH]4)c(-c4cccc(S(=O)(=O)[O-])c4F)c4nc(c(-c5cccc(S(=O)(=O)[O-])c5F)c5ccc2[nH]5)C=C4)C=C3)cc1)C(=O)N(C)[C@H]1CCC[N@H+](C)C1
REMARK SMILES IDX 10 1 9 2 8 3 6 4 7 5 5 6 4 7 3 8 2 9 1 10 80 11 81 12 82 13
REMARK SMILES IDX 83 14 84 15 85 16 90 17 86 18 88 19 87 20 89 21 11 23 12 24
REMARK SMILES IDX 13 25 14 26 15 27 16 28 17 29 18 30 79 31 19 32 78 33 20 34
REMARK SMILES IDX 21 35 22 36 72 37 23 38 77 39 71 40 73 41 24 42 76 43 70 44
REMARK SMILES IDX 69 45 25 47 57 48 37 49 56 50 38 51 41 52 55 53 74 54 39 55
REMARK SMILES IDX 40 56 54 58 75 59 42 60 26 61 27 62 35 63 28 64 30 65 36 66
REMARK SMILES IDX 29 67 31 68 32 69 33 70 34 71 58 72 59 73 67 74 60 75 62 76
REMARK SMILES IDX 68 77 61 78 63 79 64 80 65 81 66 82 43 83 44 84 52 85 45 86
REMARK SMILES IDX 47 87 53 88 46 89 48 90 49 91 50 92 51 93
REMARK H PARENT 88 22 73 46 41 57
REMARK Flexibility Score: inf
ROOT
ATOM      1  C   UNL A   1      33.309  21.765  26.232  1.00  0.00     0.202 C 
ENDROOT
BRANCH   1   2
ATOM      2  C   UNL A   1      32.041  21.409  25.441  1.00  0.00     0.261 C 
BRANCH   2   3
ATOM      3  O   UNL A   1      30.885  22.194  25.819  1.00  0.00    -0.462 OA
BRANCH   3   4
ATOM      4  C   UNL A   1      31.122  23.503  26.122  1.00  0.00     0.325 C 
ATOM      5  O   UNL A   1      31.100  23.966  27.259  1.00  0.00    -0.250 OA
BRANCH   4   6
ATOM      6  C   UNL A   1      31.390  24.400  24.900  1.00  0.00     0.244 C 
BRANCH   6   7
ATOM      7  N   UNL A   1      32.682  25.093  24.847  1.00  0.00    -0.310 N 
BRANCH   7   8
ATOM      8  C   UNL A   1      33.609  24.524  23.862  1.00  0.00     0.149 C 
BRANCH   8   9
ATOM      9  C   UNL A   1      32.791  23.773  22.841  1.00  0.00    -0.013 C 
ATOM     10  C   UNL A   1      33.236  23.442  21.620  1.00  0.00     0.006 C 
ENDBRANCH   8   9
ENDBRANCH   7   8
BRANCH   7  11
ATOM     11  C   UNL A   1      33.177  26.157  25.588  1.00  0.00     0.321 C 
ATOM     12  O   UNL A   1      34.339  26.080  26.004  1.00  0.00    -0.248 OA
BRANCH  11  13
ATOM     13  N   UNL A   1      32.446  27.315  25.843  1.00  0.00    -0.319 N 
ATOM     14  C   UNL A   1      31.436  27.467  26.879  1.00  0.00     0.149 C 
BRANCH  13  15
ATOM     15  C   UNL A   1      32.839  28.593  25.109  1.00  0.00     0.141 C 
ATOM     16  C   UNL A   1      33.547  28.424  23.745  1.00  0.00     0.037 C 
ATOM     17  C   UNL A   1      31.688  29.617  24.844  1.00  0.00     0.287 C 
ATOM     18  C   UNL A   1      32.576  27.933  22.685  1.00  0.00     0.064 C 
ATOM     19  N   UNL A   1      30.716  29.116  23.854  1.00  0.00    -0.336 N 
ATOM     20  C   UNL A   1      31.379  28.879  22.561  1.00  0.00     0.262 C 
ATOM     21  C   UNL A   1      29.616  30.063  23.697  1.00  0.00     0.332 C 
ATOM     22  H   UNL A   1      30.336  28.232  24.192  1.00  0.00     0.347 HD
ENDBRANCH  13  15
ENDBRANCH  11  13
ENDBRANCH   7  11
ENDBRANCH   6   7
ENDBRANCH   4   6
ENDBRANCH   3   4
ENDBRANCH   2   3
ENDBRANCH   1   2
BRANCH   1  23
ATOM     23  O   UNL A   1      34.478  20.987  25.948  1.00  0.00    -0.374 OA
BRANCH  23  24
ATOM     24  C   UNL A   1      35.705  21.702  25.865  1.00  0.00     0.202 C 
BRANCH  24  25
ATOM     25  C   UNL A   1      36.866  20.998  25.168  1.00  0.00     0.261 C 
BRANCH  25  26
ATOM     26  O   UNL A   1      38.046  21.779  25.083  1.00  0.00    -0.460 OA
BRANCH  26  27
ATOM     27  C   UNL A   1      39.037  21.373  25.900  1.00  0.00     0.338 C 
ATOM     28  O   UNL A   1      39.546  20.273  25.994  1.00  0.00    -0.246 OA
BRANCH  27  29
ATOM     29  C   UNL A   1      39.534  22.566  26.580  1.00  0.00     0.060 A 
ATOM     30  C   UNL A   1      38.941  23.786  26.251  1.00  0.00     0.016 A 
ATOM     31  C   UNL A   1      40.583  22.475  27.496  1.00  0.00     0.016 A 
ATOM     32  C   UNL A   1      39.450  24.951  26.801  1.00  0.00     0.010 A 
ATOM     33  C   UNL A   1      41.089  23.647  28.051  1.00  0.00     0.010 A 
ATOM     34  C   UNL A   1      40.552  24.887  27.665  1.00  0.00    -0.014 A 
BRANCH  34  35
ATOM     35  C   UNL A   1      41.229  26.142  28.035  1.00  0.00     0.031 A 
ATOM     36  C   UNL A   1      42.643  26.353  27.584  1.00  0.00     0.074 A 
ATOM     37  C   UNL A   1      40.563  27.081  28.727  1.00  0.00     0.049 A 
ATOM     38  N   UNL A   1      43.401  27.409  27.713  1.00  0.00    -0.248 NA
ATOM     39  C   UNL A   1      43.295  25.224  26.896  1.00  0.00     0.031 C 
ATOM     40  C   UNL A   1      39.197  26.944  29.228  1.00  0.00     0.029 A 
ATOM     41  N   UNL A   1      40.954  28.326  29.138  1.00  0.00    -0.354 N 
ATOM     42  C   UNL A   1      44.620  27.067  27.141  1.00  0.00     0.074 A 
ATOM     43  C   UNL A   1      44.511  25.701  26.683  1.00  0.00     0.031 C 
ATOM     44  C   UNL A   1      38.868  28.058  29.903  1.00  0.00     0.029 A 
ATOM     45  C   UNL A   1      40.004  28.978  29.884  1.00  0.00     0.049 A 
ATOM     46  H   UNL A   1      41.831  28.717  28.920  1.00  0.00     0.167 HD
ATOM     47  C   UNL A   1      45.723  27.836  26.994  1.00  0.00     0.034 A 
ATOM     48  C   UNL A   1      40.055  30.181  30.487  1.00  0.00     0.034 A 
ATOM     49  C   UNL A   1      45.802  29.198  27.445  1.00  0.00     0.049 A 
ATOM     50  C   UNL A   1      41.284  31.027  30.292  1.00  0.00     0.074 A 
ATOM     51  C   UNL A   1      46.843  30.096  27.302  1.00  0.00     0.029 A 
ATOM     52  N   UNL A   1      44.800  29.853  28.147  1.00  0.00    -0.354 N 
ATOM     53  N   UNL A   1      42.375  30.752  29.616  1.00  0.00    -0.248 NA
ATOM     54  C   UNL A   1      41.276  32.364  30.901  1.00  0.00     0.031 C 
ATOM     55  C   UNL A   1      46.478  31.287  27.940  1.00  0.00     0.029 A 
ATOM     56  C   UNL A   1      45.201  31.138  28.459  1.00  0.00     0.049 A 
ATOM     57  H   UNL A   1      43.931  29.458  28.387  1.00  0.00     0.167 HD
ATOM     58  C   UNL A   1      43.174  31.885  29.695  1.00  0.00     0.074 A 
ATOM     59  C   UNL A   1      42.427  32.861  30.467  1.00  0.00     0.031 C 
ATOM     60  C   UNL A   1      44.416  32.099  29.194  1.00  0.00     0.034 A 
BRANCH  47  61
ATOM     61  C   UNL A   1      46.909  27.223  26.300  1.00  0.00     0.023 A 
ATOM     62  C   UNL A   1      47.014  27.300  24.896  1.00  0.00     0.012 A 
ATOM     63  C   UNL A   1      47.930  26.588  27.033  1.00  0.00     0.148 A 
ATOM     64  C   UNL A   1      48.095  26.722  24.230  1.00  0.00     0.002 A 
ATOM     65  C   UNL A   1      49.025  26.050  26.367  1.00  0.00     0.091 A 
ATOM     66  F   UNL A   1      47.799  26.498  28.365  1.00  0.00    -0.205 F 
ATOM     67  C   UNL A   1      49.104  26.106  24.965  1.00  0.00     0.022 A 
BRANCH  65  68
ATOM     68  S   UNL A   1      50.407  25.298  27.232  1.00  0.00     0.127 S 
ATOM     69  O   UNL A   1      50.831  26.384  28.114  1.00  0.00    -0.237 OA
ATOM     70  O   UNL A   1      49.770  24.172  27.915  1.00  0.00    -0.237 OA
ATOM     71  O   UNL A   1      51.363  24.916  26.201  1.00  0.00    -0.744 OA
ENDBRANCH  65  68
ENDBRANCH  47  61
BRANCH  48  72
ATOM     72  C   UNL A   1      38.886  30.657  31.276  1.00  0.00     0.023 A 
ATOM     73  C   UNL A   1      38.791  30.349  32.646  1.00  0.00     0.012 A 
ATOM     74  C   UNL A   1      37.900  31.473  30.686  1.00  0.00     0.148 A 
ATOM     75  C   UNL A   1      37.726  30.829  33.409  1.00  0.00     0.002 A 
ATOM     76  C   UNL A   1      36.874  31.994  31.464  1.00  0.00     0.091 A 
ATOM     77  F   UNL A   1      37.999  31.742  29.376  1.00  0.00    -0.205 F 
ATOM     78  C   UNL A   1      36.775  31.661  32.823  1.00  0.00     0.022 A 
BRANCH  76  79
ATOM     79  S   UNL A   1      35.693  33.187  30.820  1.00  0.00     0.127 S 
ATOM     80  O   UNL A   1      34.429  32.471  30.974  1.00  0.00    -0.237 OA
ATOM     81  O   UNL A   1      35.876  34.317  31.733  1.00  0.00    -0.237 OA
ATOM     82  O   UNL A   1      36.111  33.452  29.451  1.00  0.00    -0.744 OA
ENDBRANCH  76  79
ENDBRANCH  48  72
BRANCH  60  83
ATOM     83  C   UNL A   1      45.043  33.442  29.452  1.00  0.00     0.023 A 
ATOM     84  C   UNL A   1      45.873  33.619  30.577  1.00  0.00     0.012 A 
ATOM     85  C   UNL A   1      44.877  34.500  28.537  1.00  0.00     0.148 A 
ATOM     86  C   UNL A   1      46.507  34.839  30.802  1.00  0.00     0.002 A 
ATOM     87  C   UNL A   1      45.551  35.697  28.743  1.00  0.00     0.091 A 
ATOM     88  F   UNL A   1      44.068  34.317  27.484  1.00  0.00    -0.205 F 
ATOM     89  C   UNL A   1      46.356  35.873  29.880  1.00  0.00     0.022 A 
BRANCH  87  90
ATOM     90  S   UNL A   1      45.492  37.045  27.557  1.00  0.00     0.127 S 
ATOM     91  O   UNL A   1      44.069  37.381  27.557  1.00  0.00    -0.237 OA
ATOM     92  O   UNL A   1      46.357  38.048  28.180  1.00  0.00    -0.237 OA
ATOM     93  O   UNL A   1      46.008  36.499  26.309  1.00  0.00    -0.744 OA
ENDBRANCH  87  90
ENDBRANCH  60  83
ENDBRANCH  34  35
ENDBRANCH  27  29
ENDBRANCH  26  27
ENDBRANCH  25  26
ENDBRANCH  24  25
ENDBRANCH  23  24
ENDBRANCH   1  23
TORSDOF 23
ENDMDL
MODEL 2
REMARK VINA RESULT:     -10.1      1.706      2.432
REMARK SMILES C=CCN(CC(=O)OCCOCCOC(=O)c1ccc(-c2c3nc(c(-c4cccc(S(=O)(=O)[O-])c4F)c4ccc([nH]4)c(-c4cccc(S(=O)(=O)[O-])c4F)c4nc(c(-c5cccc(S(=O)(=O)[O-])c5F)c5ccc2[nH]5)C=C4)C=C3)cc1)C(=O)N(C)[C@H]1CCC[N@H+](C)C1
REMARK SMILES IDX 10 1 9 2 8 3 6 4 7 5 5 6 4 7 3 8 2 9 1 10 80 11 81 12 82 13
REMARK SMILES IDX 83 14 84 15 85 16 90 17 86 18 88 19 87 20 89 21 11 23 12 24
REMARK SMILES IDX 13 25 14 26 15 27 16 28 17 29 18 30 79 31 19 32 78 33 20 34
REMARK SMILES IDX 21 35 22 36 72 37 23 38 77 39 71 40 73 41 24 42 76 43 70 44
REMARK SMILES IDX 69 45 25 47 57 48 37 49 56 50 38 51 41 52 55 53 74 54 39 55
REMARK SMILES IDX 40 56 54 58 75 59 42 60 26 61 27 62 35 63 28 64 30 65 36 66
REMARK SMILES IDX 29 67 31 68 32 69 33 70 34 71 58 72 59 73 67 74 60 75 62 76
REMARK SMILES IDX 68 77 61 78 63 79 64 80 65 81 66 82 43 83 44 84 52 85 45 86
REMARK SMILES IDX 47 87 53 88 46 89 48 90 49 91 50 92 51 93
REMARK H PARENT 88 22 73 46 41 57
REMARK Flexibility Score: inf
ROOT
ATOM      1  C   UNL A   1      35.423  22.587  23.775  1.00  0.00     0.202 C 
ENDROOT
BRANCH   1   2
ATOM      2  C   UNL A   1      34.293  23.000  22.818  1.00  0.00     0.261 C 
BRANCH   2   3
ATOM      3  O   UNL A   1      34.076  24.430  22.765  1.00  0.00    -0.462 OA
BRANCH   3   4
ATOM      4  C   UNL A   1      32.830  24.833  22.381  1.00  0.00     0.325 C 
ATOM      5  O   UNL A   1      32.602  25.552  21.413  1.00  0.00    -0.250 OA
BRANCH   4   6
ATOM      6  C   UNL A   1      31.694  24.342  23.296  1.00  0.00     0.244 C 
BRANCH   6   7
ATOM      7  N   UNL A   1      31.505  25.049  24.568  1.00  0.00    -0.310 N 
BRANCH   7   8
ATOM      8  C   UNL A   1      32.250  24.452  25.683  1.00  0.00     0.149 C 
BRANCH   8   9
ATOM      9  C   UNL A   1      31.709  23.062  25.906  1.00  0.00    -0.013 C 
ATOM     10  C   UNL A   1      30.469  22.800  26.344  1.00  0.00     0.006 C 
ENDBRANCH   8   9
ENDBRANCH   7   8
BRANCH   7  11
ATOM     11  C   UNL A   1      30.725  26.150  24.893  1.00  0.00     0.321 C 
ATOM     12  O   UNL A   1      30.340  26.261  26.062  1.00  0.00    -0.248 OA
BRANCH  11  13
ATOM     13  N   UNL A   1      30.396  27.148  23.978  1.00  0.00    -0.319 N 
ATOM     14  C   UNL A   1      29.057  27.444  23.492  1.00  0.00     0.149 C 
BRANCH  13  15
ATOM     15  C   UNL A   1      31.482  28.140  23.572  1.00  0.00     0.141 C 
ATOM     16  C   UNL A   1      31.126  29.642  23.666  1.00  0.00     0.037 C 
ATOM     17  C   UNL A   1      32.852  28.001  24.311  1.00  0.00     0.287 C 
ATOM     18  C   UNL A   1      31.044  30.091  25.115  1.00  0.00     0.064 C 
ATOM     19  N   UNL A   1      32.759  28.387  25.731  1.00  0.00    -0.336 N 
ATOM     20  C   UNL A   1      32.352  29.797  25.852  1.00  0.00     0.262 C 
ATOM     21  C   UNL A   1      34.036  28.165  26.404  1.00  0.00     0.332 C 
ATOM     22  H   UNL A   1      32.052  27.805  26.180  1.00  0.00     0.347 HD
ENDBRANCH  13  15
ENDBRANCH  11  13
ENDBRANCH   7  11
ENDBRANCH   6   7
ENDBRANCH   4   6
ENDBRANCH   3   4
ENDBRANCH   2   3
ENDBRANCH   1   2
BRANCH   1  23
ATOM     23  O   UNL A   1      35.364  21.252  24.293  1.00  0.00    -0.374 OA
BRANCH  23  24
ATOM     24  C   UNL A   1      36.232  20.960  25.381  1.00  0.00     0.202 C 
BRANCH  24  25
ATOM     25  C   UNL A   1      37.702  20.729  25.045  1.00  0.00     0.261 C 
BRANCH  25  26
ATOM     26  O   UNL A   1      38.545  21.825  25.361  1.00  0.00    -0.460 OA
BRANCH  26  27
ATOM     27  C   UNL A   1      39.534  21.530  26.228  1.00  0.00     0.338 C 
ATOM     28  O   UNL A   1      40.124  20.478  26.383  1.00  0.00    -0.246 OA
BRANCH  27  29
ATOM     29  C   UNL A   1      39.909  22.784  26.876  1.00  0.00     0.060 A 
ATOM     30  C   UNL A   1      39.238  23.940  26.474  1.00  0.00     0.016 A 
ATOM     31  C   UNL A   1      40.922  22.810  27.836  1.00  0.00     0.016 A 
ATOM     32  C   UNL A   1      39.633  25.162  26.995  1.00  0.00     0.010 A 
ATOM     33  C   UNL A   1      41.313  24.038  28.361  1.00  0.00     0.010 A 
ATOM     34  C   UNL A   1      40.700  25.217  27.903  1.00  0.00    -0.014 A 
BRANCH  34  35
ATOM     35  C   UNL A   1      41.262  26.534  28.247  1.00  0.00     0.031 A 
ATOM     36  C   UNL A   1      42.670  26.842  27.833  1.00  0.00     0.074 A 
ATOM     37  C   UNL A   1      40.502  27.440  28.883  1.00  0.00     0.049 A 
ATOM     38  N   UNL A   1      43.338  27.959  27.945  1.00  0.00    -0.248 NA
ATOM     39  C   UNL A   1      43.431  25.746  27.207  1.00  0.00     0.031 C 
ATOM     40  C   UNL A   1      39.134  27.212  29.346  1.00  0.00     0.029 A 
ATOM     41  N   UNL A   1      40.779  28.726  29.259  1.00  0.00    -0.354 N 
ATOM     42  C   UNL A   1      44.598  27.696  27.424  1.00  0.00     0.074 A 
ATOM     43  C   UNL A   1      44.613  26.311  27.014  1.00  0.00     0.031 C 
ATOM     44  C   UNL A   1      38.696  28.319  29.968  1.00  0.00     0.029 A 
ATOM     45  C   UNL A   1      39.755  29.326  29.950  1.00  0.00     0.049 A 
ATOM     46  H   UNL A   1      41.629  29.178  29.053  1.00  0.00     0.167 HD
ATOM     47  C   UNL A   1      45.641  28.546  27.283  1.00  0.00     0.034 A 
ATOM     48  C   UNL A   1      39.691  30.549  30.509  1.00  0.00     0.034 A 
ATOM     49  C   UNL A   1      45.598  29.924  27.685  1.00  0.00     0.049 A 
ATOM     50  C   UNL A   1      40.855  31.483  30.320  1.00  0.00     0.074 A 
ATOM     51  C   UNL A   1      46.569  30.897  27.540  1.00  0.00     0.029 A 
ATOM     52  N   UNL A   1      44.524  30.521  28.331  1.00  0.00    -0.354 N 
ATOM     53  N   UNL A   1      41.987  31.273  29.689  1.00  0.00    -0.248 NA
ATOM     54  C   UNL A   1      40.722  32.835  30.879  1.00  0.00     0.031 C 
ATOM     55  C   UNL A   1      46.089  32.076  28.122  1.00  0.00     0.029 A 
ATOM     56  C   UNL A   1      44.811  31.845  28.607  1.00  0.00     0.049 A 
ATOM     57  H   UNL A   1      43.680  30.067  28.558  1.00  0.00     0.167 HD
ATOM     58  C   UNL A   1      42.691  32.469  29.751  1.00  0.00     0.074 A 
ATOM     59  C   UNL A   1      41.844  33.408  30.462  1.00  0.00     0.031 C 
ATOM     60  C   UNL A   1      43.929  32.764  29.281  1.00  0.00     0.034 A 
BRANCH  47  61
ATOM     61  C   UNL A   1      46.895  28.006  26.649  1.00  0.00     0.023 A 
ATOM     62  C   UNL A   1      47.907  27.454  27.461  1.00  0.00     0.012 A 
ATOM     63  C   UNL A   1      47.067  28.026  25.252  1.00  0.00     0.148 A 
ATOM     64  C   UNL A   1      49.086  26.966  26.897  1.00  0.00     0.002 A 
ATOM     65  C   UNL A   1      48.227  27.501  24.693  1.00  0.00     0.091 A 
ATOM     66  F   UNL A   1      46.109  28.582  24.497  1.00  0.00    -0.205 F 
ATOM     67  C   UNL A   1      49.241  26.980  25.514  1.00  0.00     0.022 A 
BRANCH  65  68
ATOM     68  S   UNL A   1      48.488  27.412  22.918  1.00  0.00     0.127 S 
ATOM     69  O   UNL A   1      47.358  28.190  22.413  1.00  0.00    -0.237 OA
ATOM     70  O   UNL A   1      49.791  28.061  22.764  1.00  0.00    -0.237 OA
ATOM     71  O   UNL A   1      48.475  25.995  22.583  1.00  0.00    -0.744 OA
ENDBRANCH  65  68
ENDBRANCH  47  61
BRANCH  48  72
ATOM     72  C   UNL A   1      38.462  30.956  31.243  1.00  0.00     0.023 A 
ATOM     73  C   UNL A   1      38.394  30.800  32.640  1.00  0.00     0.012 A 
ATOM     74  C   UNL A   1      37.384  31.563  30.567  1.00  0.00     0.148 A 
ATOM     75  C   UNL A   1      37.268  31.223  33.348  1.00  0.00     0.002 A 
ATOM     76  C   UNL A   1      36.291  32.032  31.284  1.00  0.00     0.091 A 
ATOM     77  F   UNL A   1      37.461  31.689  29.235  1.00  0.00    -0.205 F 
ATOM     78  C   UNL A   1      36.223  31.850  32.673  1.00  0.00     0.022 A 
BRANCH  76  79
ATOM     79  S   UNL A   1      34.972  32.978  30.512  1.00  0.00     0.127 S 
ATOM     80  O   UNL A   1      34.498  32.051  29.488  1.00  0.00    -0.237 OA
ATOM     81  O   UNL A   1      34.051  33.183  31.631  1.00  0.00    -0.237 OA
ATOM     82  O   UNL A   1      35.599  34.198  30.024  1.00  0.00    -0.744 OA
ENDBRANCH  76  79
ENDBRANCH  48  72
BRANCH  60  83
ATOM     83  C   UNL A   1      44.439  34.161  29.508  1.00  0.00     0.023 A 
ATOM     84  C   UNL A   1      44.979  34.510  30.761  1.00  0.00     0.012 A 
ATOM     85  C   UNL A   1      44.459  35.099  28.456  1.00  0.00     0.148 A 
ATOM     86  C   UNL A   1      45.507  35.783  30.973  1.00  0.00     0.002 A 
ATOM     87  C   UNL A   1      45.030  36.348  28.661  1.00  0.00     0.091 A 
ATOM     88  F   UNL A   1      43.922  34.752  27.278  1.00  0.00    -0.205 F 
ATOM     89  C   UNL A   1      45.544  36.696  29.922  1.00  0.00     0.022 A 
BRANCH  87  90
ATOM     90  S   UNL A   1      45.209  37.548  27.337  1.00  0.00     0.127 S 
ATOM     91  O   UNL A   1      46.116  38.524  27.939  1.00  0.00    -0.237 OA
ATOM     92  O   UNL A   1      45.799  36.745  26.265  1.00  0.00    -0.237 OA
ATOM     93  O   UNL A   1      43.865  38.032  27.054  1.00  0.00    -0.744 OA
ENDBRANCH  87  90
ENDBRANCH  60  83
ENDBRANCH  34  35
ENDBRANCH  27  29
ENDBRANCH  26  27
ENDBRANCH  25  26
ENDBRANCH  24  25
ENDBRANCH  23  24
ENDBRANCH   1  23
TORSDOF 23
ENDMDL
MODEL 3
REMARK VINA RESULT:      -9.7      1.589      7.666
REMARK SMILES C=CCN(CC(=O)OCCOCCOC(=O)c1ccc(-c2c3nc(c(-c4cccc(S(=O)(=O)[O-])c4F)c4ccc([nH]4)c(-c4cccc(S(=O)(=O)[O-])c4F)c4nc(c(-c5cccc(S(=O)(=O)[O-])c5F)c5ccc2[nH]5)C=C4)C=C3)cc1)C(=O)N(C)[C@H]1CCC[N@H+](C)C1
REMARK SMILES IDX 10 1 9 2 8 3 6 4 7 5 5 6 4 7 3 8 2 9 1 10 80 11 81 12 82 13
REMARK SMILES IDX 83 14 84 15 85 16 90 17 86 18 88 19 87 20 89 21 11 23 12 24
REMARK SMILES IDX 13 25 14 26 15 27 16 28 17 29 18 30 79 31 19 32 78 33 20 34
REMARK SMILES IDX 21 35 22 36 72 37 23 38 77 39 71 40 73 41 24 42 76 43 70 44
REMARK SMILES IDX 69 45 25 47 57 48 37 49 56 50 38 51 41 52 55 53 74 54 39 55
REMARK SMILES IDX 40 56 54 58 75 59 42 60 26 61 27 62 35 63 28 64 30 65 36 66
REMARK SMILES IDX 29 67 31 68 32 69 33 70 34 71 58 72 59 73 67 74 60 75 62 76
REMARK SMILES IDX 68 77 61 78 63 79 64 80 65 81 66 82 43 83 44 84 52 85 45 86
REMARK SMILES IDX 47 87 53 88 46 89 48 90 49 91 50 92 51 93
REMARK H PARENT 88 22 73 46 41 57
REMARK Flexibility Score: inf
ROOT
ATOM      1  C   UNL A   1      33.181  21.928  26.256  1.00  0.00     0.202 C 
ENDROOT
BRANCH   1   2
ATOM      2  C   UNL A   1      31.936  21.706  25.384  1.00  0.00     0.261 C 
BRANCH   2   3
ATOM      3  O   UNL A   1      30.772  22.436  25.842  1.00  0.00    -0.462 OA
BRANCH   3   4
ATOM      4  C   UNL A   1      30.982  23.739  26.189  1.00  0.00     0.325 C 
ATOM      5  O   UNL A   1      31.335  24.111  27.304  1.00  0.00    -0.250 OA
BRANCH   4   6
ATOM      6  C   UNL A   1      30.697  24.750  25.063  1.00  0.00     0.244 C 
BRANCH   6   7
ATOM      7  N   UNL A   1      31.850  25.248  24.303  1.00  0.00    -0.310 N 
BRANCH   7   8
ATOM      8  C   UNL A   1      31.774  24.950  22.868  1.00  0.00     0.149 C 
BRANCH   8   9
ATOM      9  C   UNL A   1      32.393  23.592  22.647  1.00  0.00    -0.013 C 
ATOM     10  C   UNL A   1      33.199  23.294  21.617  1.00  0.00     0.006 C 
ENDBRANCH   8   9
ENDBRANCH   7   8
BRANCH   7  11
ATOM     11  C   UNL A   1      32.996  25.912  24.716  1.00  0.00     0.321 C 
ATOM     12  O   UNL A   1      34.089  25.404  24.440  1.00  0.00    -0.248 OA
BRANCH  11  13
ATOM     13  N   UNL A   1      32.972  27.136  25.380  1.00  0.00    -0.319 N 
ATOM     14  C   UNL A   1      32.889  27.316  26.822  1.00  0.00     0.149 C 
BRANCH  13  15
ATOM     15  C   UNL A   1      33.228  28.403  24.569  1.00  0.00     0.141 C 
ATOM     16  C   UNL A   1      32.396  28.585  23.279  1.00  0.00     0.037 C 
ATOM     17  C   UNL A   1      33.082  29.755  25.340  1.00  0.00     0.287 C 
ATOM     18  C   UNL A   1      30.947  28.905  23.606  1.00  0.00     0.064 C 
ATOM     19  N   UNL A   1      31.682  30.038  25.705  1.00  0.00    -0.336 N 
ATOM     20  C   UNL A   1      30.850  30.148  24.494  1.00  0.00     0.262 C 
ATOM     21  C   UNL A   1      31.599  31.265  26.492  1.00  0.00     0.332 C 
ATOM     22  H   UNL A   1      31.331  29.267  26.271  1.00  0.00     0.347 HD
ENDBRANCH  13  15
ENDBRANCH  11  13
ENDBRANCH   7  11
ENDBRANCH   6   7
ENDBRANCH   4   6
ENDBRANCH   3   4
ENDBRANCH   2   3
ENDBRANCH   1   2
BRANCH   1  23
ATOM     23  O   UNL A   1      34.279  21.032  26.041  1.00  0.00    -0.374 OA
BRANCH  23  24
ATOM     24  C   UNL A   1      35.569  21.625  25.966  1.00  0.00     0.202 C 
BRANCH  24  25
ATOM     25  C   UNL A   1      36.655  20.822  25.256  1.00  0.00     0.261 C 
BRANCH  25  26
ATOM     26  O   UNL A   1      37.862  21.538  25.052  1.00  0.00    -0.460 OA
BRANCH  26  27
ATOM     27  C   UNL A   1      38.884  21.133  25.832  1.00  0.00     0.338 C 
ATOM     28  O   UNL A   1      39.366  20.022  25.940  1.00  0.00    -0.246 OA
BRANCH  27  29
ATOM     29  C   UNL A   1      39.448  22.334  26.440  1.00  0.00     0.060 A 
ATOM     30  C   UNL A   1      38.820  23.549  26.163  1.00  0.00     0.016 A 
ATOM     31  C   UNL A   1      40.589  22.255  27.240  1.00  0.00     0.016 A 
ATOM     32  C   UNL A   1      39.383  24.722  26.641  1.00  0.00     0.010 A 
ATOM     33  C   UNL A   1      41.150  23.433  27.724  1.00  0.00     0.010 A 
ATOM     34  C   UNL A   1      40.572  24.668  27.383  1.00  0.00    -0.014 A 
BRANCH  34  35
ATOM     35  C   UNL A   1      41.282  25.928  27.664  1.00  0.00     0.031 A 
ATOM     36  C   UNL A   1      40.560  27.003  28.421  1.00  0.00     0.074 A 
ATOM     37  C   UNL A   1      42.559  26.076  27.277  1.00  0.00     0.049 A 
ATOM     38  N   UNL A   1      41.010  28.149  28.858  1.00  0.00    -0.248 NA
ATOM     39  C   UNL A   1      39.139  26.758  28.728  1.00  0.00     0.031 C 
ATOM     40  C   UNL A   1      43.324  25.093  26.513  1.00  0.00     0.029 A 
ATOM     41  N   UNL A   1      43.429  27.116  27.463  1.00  0.00    -0.354 N 
ATOM     42  C   UNL A   1      39.929  28.767  29.473  1.00  0.00     0.074 A 
ATOM     43  C   UNL A   1      38.795  27.882  29.336  1.00  0.00     0.031 C 
ATOM     44  C   UNL A   1      44.550  25.588  26.273  1.00  0.00     0.029 A 
ATOM     45  C   UNL A   1      44.648  26.922  26.862  1.00  0.00     0.049 A 
ATOM     46  H   UNL A   1      43.203  27.924  27.978  1.00  0.00     0.167 HD
ATOM     47  C   UNL A   1      39.896  29.958  30.112  1.00  0.00     0.034 A 
ATOM     48  C   UNL A   1      45.716  27.737  26.794  1.00  0.00     0.034 A 
ATOM     49  C   UNL A   1      41.042  30.814  30.248  1.00  0.00     0.049 A 
ATOM     50  C   UNL A   1      45.663  29.048  27.530  1.00  0.00     0.074 A 
ATOM     51  C   UNL A   1      41.147  32.016  30.923  1.00  0.00     0.029 A 
ATOM     52  N   UNL A   1      42.282  30.563  29.678  1.00  0.00    -0.354 N 
ATOM     53  N   UNL A   1      44.683  29.556  28.241  1.00  0.00    -0.248 NA
ATOM     54  C   UNL A   1      46.873  29.881  27.497  1.00  0.00     0.031 C 
ATOM     55  C   UNL A   1      42.446  32.503  30.739  1.00  0.00     0.029 A 
ATOM     56  C   UNL A   1      43.156  31.593  29.970  1.00  0.00     0.049 A 
ATOM     57  H   UNL A   1      42.505  29.767  29.144  1.00  0.00     0.167 HD
ATOM     58  C   UNL A   1      45.161  30.752  28.759  1.00  0.00     0.074 A 
ATOM     59  C   UNL A   1      46.532  30.880  28.300  1.00  0.00     0.031 C 
ATOM     60  C   UNL A   1      44.527  31.670  29.530  1.00  0.00     0.034 A 
BRANCH  47  61
ATOM     61  C   UNL A   1      38.588  30.380  30.727  1.00  0.00     0.023 A 
ATOM     62  C   UNL A   1      38.295  30.024  32.059  1.00  0.00     0.012 A 
ATOM     63  C   UNL A   1      37.658  31.144  29.997  1.00  0.00     0.148 A 
ATOM     64  C   UNL A   1      37.081  30.387  32.642  1.00  0.00     0.002 A 
ATOM     65  C   UNL A   1      36.468  31.538  30.597  1.00  0.00     0.091 A 
ATOM     66  F   UNL A   1      37.940  31.448  28.721  1.00  0.00    -0.205 F 
ATOM     67  C   UNL A   1      36.173  31.152  31.915  1.00  0.00     0.022 A 
BRANCH  65  68
ATOM     68  S   UNL A   1      35.266  32.582  29.764  1.00  0.00     0.127 S 
ATOM     69  O   UNL A   1      36.100  33.695  29.317  1.00  0.00    -0.237 OA
ATOM     70  O   UNL A   1      34.789  31.709  28.691  1.00  0.00    -0.237 OA
ATOM     71  O   UNL A   1      34.262  32.912  30.767  1.00  0.00    -0.744 OA
ENDBRANCH  65  68
ENDBRANCH  47  61
BRANCH  48  72
ATOM     72  C   UNL A   1      46.926  27.301  26.044  1.00  0.00     0.023 A 
ATOM     73  C   UNL A   1      47.824  26.389  26.628  1.00  0.00     0.012 A 
ATOM     74  C   UNL A   1      47.154  27.737  24.723  1.00  0.00     0.148 A 
ATOM     75  C   UNL A   1      48.936  25.933  25.918  1.00  0.00     0.002 A 
ATOM     76  C   UNL A   1      48.230  27.236  24.002  1.00  0.00     0.091 A 
ATOM     77  F   UNL A   1      46.295  28.618  24.189  1.00  0.00    -0.205 F 
ATOM     78  C   UNL A   1      49.132  26.346  24.603  1.00  0.00     0.022 A 
BRANCH  76  79
ATOM     79  S   UNL A   1      48.473  27.604  22.260  1.00  0.00     0.127 S 
ATOM     80  O   UNL A   1      49.666  28.445  22.294  1.00  0.00    -0.237 OA
ATOM     81  O   UNL A   1      48.675  26.269  21.693  1.00  0.00    -0.237 OA
ATOM     82  O   UNL A   1      47.247  28.258  21.823  1.00  0.00    -0.744 OA
ENDBRANCH  76  79
ENDBRANCH  48  72
BRANCH  60  83
ATOM     83  C   UNL A   1      45.309  32.890  29.937  1.00  0.00     0.023 A 
ATOM     84  C   UNL A   1      46.116  32.846  31.091  1.00  0.00     0.012 A 
ATOM     85  C   UNL A   1      45.310  34.045  29.132  1.00  0.00     0.148 A 
ATOM     86  C   UNL A   1      46.891  33.946  31.454  1.00  0.00     0.002 A 
ATOM     87  C   UNL A   1      46.122  35.119  29.473  1.00  0.00     0.091 A 
ATOM     88  F   UNL A   1      44.520  34.072  28.049  1.00  0.00    -0.205 F 
ATOM     89  C   UNL A   1      46.904  35.076  30.639  1.00  0.00     0.022 A 
BRANCH  87  90
ATOM     90  S   UNL A   1      46.274  36.573  28.430  1.00  0.00     0.127 S 
ATOM     91  O   UNL A   1      46.310  37.648  29.420  1.00  0.00    -0.237 OA
ATOM     92  O   UNL A   1      47.543  36.333  27.742  1.00  0.00    -0.237 OA
ATOM     93  O   UNL A   1      45.107  36.562  27.558  1.00  0.00    -0.744 OA
ENDBRANCH  87  90
ENDBRANCH  60  83
ENDBRANCH  34  35
ENDBRANCH  27  29
ENDBRANCH  26  27
ENDBRANCH  25  26
ENDBRANCH  24  25
ENDBRANCH  23  24
ENDBRANCH   1  23
TORSDOF 23
ENDMDL
