MODEL 1
REMARK VINA RESULT:     -11.0      0.000      0.000
REMARK SMILES COC(=O)c1ccc2c(c1)=N[C@H](c1cn(CCC(=O)OCCOCCOC(=O)c3ccc(-c4c5nc(c(-c6cccc(S(=O)(=O)[O-])c6F)c6ccc([nH]6)c(-c6cccc(S(=O)(=O)[O-])c6F)c6nc(c(-c7cccc(S(=O)(=O)[O-])c7F)c7ccc4[nH]7)C=C6)C=C5)cc3)c3ccccc13)N=2
REMARK SMILES IDX 22 1 21 2 20 3 18 4 19 5 17 6 16 7 15 8 13 9 14 10 97 11
REMARK SMILES IDX 92 12 96 13 93 14 95 15 94 16 12 17 5 18 6 19 10 20 7 21
REMARK SMILES IDX 9 22 8 23 11 24 98 25 3 26 4 27 2 28 1 29 23 30 24 31 25 32
REMARK SMILES IDX 26 33 27 34 28 35 29 36 30 37 91 38 31 39 90 40 32 41 33 42
REMARK SMILES IDX 34 43 84 44 35 45 89 46 83 47 85 48 36 49 88 50 82 51 81 52
REMARK SMILES IDX 37 54 69 55 49 56 68 57 50 58 53 59 67 60 86 61 51 62 52 63
REMARK SMILES IDX 66 65 87 66 54 67 38 68 39 69 47 70 40 71 42 72 48 73 41 74
REMARK SMILES IDX 43 75 44 76 45 77 46 78 70 79 71 80 79 81 72 82 74 83 80 84
REMARK SMILES IDX 73 85 75 86 76 87 77 88 78 89 55 90 56 91 64 92 57 93 59 94
REMARK SMILES IDX 65 95 58 96 60 97 61 98 62 99 63 100
REMARK H PARENT 85 53 53 64
REMARK Flexibility Score: inf
ROOT
ATOM      1  C   UNL A   1      33.565  31.941  28.237  1.00  0.00     0.202 C 
ENDROOT
BRANCH   1   2
ATOM      2  C   UNL A   1      34.170  30.935  27.255  1.00  0.00     0.261 C 
BRANCH   2   3
ATOM      3  O   UNL A   1      33.232  29.896  26.903  1.00  0.00    -0.463 OA
BRANCH   3   4
ATOM      4  C   UNL A   1      32.518  30.073  25.766  1.00  0.00     0.307 C 
ATOM      5  O   UNL A   1      31.512  30.763  25.655  1.00  0.00    -0.252 OA
BRANCH   4   6
ATOM      6  C   UNL A   1      33.121  29.321  24.604  1.00  0.00     0.144 C 
BRANCH   6   7
ATOM      7  C   UNL A   1      32.109  28.510  23.789  1.00  0.00     0.134 C 
BRANCH   7   8
ATOM      8  N   UNL A   1      32.124  27.089  24.092  1.00  0.00    -0.346 N 
ATOM      9  C   UNL A   1      31.914  25.327  25.380  1.00  0.00     0.024 A 
ATOM     10  C   UNL A   1      31.190  26.389  24.822  1.00  0.00     0.094 A 
ATOM     11  C   UNL A   1      33.308  25.771  25.266  1.00  0.00     0.007 A 
ATOM     12  C   UNL A   1      33.169  26.208  23.939  1.00  0.00     0.048 A 
ATOM     13  C   UNL A   1      34.520  25.119  25.535  1.00  0.00     0.011 A 
ATOM     14  C   UNL A   1      33.550  25.327  22.911  1.00  0.00     0.027 A 
ATOM     15  C   UNL A   1      34.913  24.194  24.579  1.00  0.00     0.001 A 
ATOM     16  C   UNL A   1      34.326  24.226  23.313  1.00  0.00     0.002 A 
BRANCH   9  17
ATOM     17  C   UNL A   1      31.376  23.975  25.806  1.00  0.00     0.255 C 
ATOM     18  C   UNL A   1      32.878  19.892  24.467  1.00  0.00     0.062 A 
ATOM     19  C   UNL A   1      33.595  20.015  25.733  1.00  0.00     0.018 A 
ATOM     20  C   UNL A   1      32.114  20.890  23.982  1.00  0.00     0.046 A 
ATOM     21  C   UNL A   1      33.497  21.091  26.532  1.00  0.00     0.031 A 
ATOM     22  C   UNL A   1      31.930  22.096  24.809  1.00  0.00     0.087 A 
ATOM     23  C   UNL A   1      32.605  22.185  26.117  1.00  0.00     0.086 A 
ATOM     24  N   UNL A   1      31.176  23.117  24.583  1.00  0.00    -0.252 NA
ATOM     25  N   UNL A   1      32.273  23.250  26.754  1.00  0.00    -0.252 NA
BRANCH  18  26
ATOM     26  C   UNL A   1      32.943  18.646  23.639  1.00  0.00     0.337 C 
ATOM     27  O   UNL A   1      32.192  18.401  22.705  1.00  0.00    -0.246 OA
BRANCH  26  28
ATOM     28  O   UNL A   1      33.896  17.805  24.126  1.00  0.00    -0.465 OA
ATOM     29  C   UNL A   1      33.998  16.556  23.433  1.00  0.00     0.282 C 
ENDBRANCH  26  28
ENDBRANCH  18  26
ENDBRANCH   9  17
ENDBRANCH   7   8
ENDBRANCH   6   7
ENDBRANCH   4   6
ENDBRANCH   3   4
ENDBRANCH   2   3
ENDBRANCH   1   2
BRANCH   1  30
ATOM     30  O   UNL A   1      33.904  33.316  28.002  1.00  0.00    -0.374 OA
BRANCH  30  31
ATOM     31  C   UNL A   1      33.604  34.192  29.088  1.00  0.00     0.202 C 
BRANCH  31  32
ATOM     32  C   UNL A   1      34.671  34.248  30.189  1.00  0.00     0.261 C 
BRANCH  32  33
ATOM     33  O   UNL A   1      35.726  33.327  29.893  1.00  0.00    -0.460 OA
BRANCH  33  34
ATOM     34  C   UNL A   1      35.920  32.325  30.785  1.00  0.00     0.338 C 
ATOM     35  O   UNL A   1      35.143  31.947  31.646  1.00  0.00    -0.246 OA
BRANCH  34  36
ATOM     36  C   UNL A   1      37.128  31.600  30.346  1.00  0.00     0.060 A 
ATOM     37  C   UNL A   1      37.109  30.217  30.250  1.00  0.00     0.016 A 
ATOM     38  C   UNL A   1      38.338  32.283  30.247  1.00  0.00     0.016 A 
ATOM     39  C   UNL A   1      38.298  29.506  30.255  1.00  0.00     0.010 A 
ATOM     40  C   UNL A   1      39.534  31.566  30.149  1.00  0.00     0.010 A 
ATOM     41  C   UNL A   1      39.533  30.171  30.228  1.00  0.00    -0.014 A 
BRANCH  41  42
ATOM     42  C   UNL A   1      40.743  29.322  30.145  1.00  0.00     0.031 A 
ATOM     43  C   UNL A   1      41.317  28.973  31.485  1.00  0.00     0.074 A 
ATOM     44  C   UNL A   1      41.287  28.799  29.020  1.00  0.00     0.049 A 
ATOM     45  N   UNL A   1      42.483  29.286  31.957  1.00  0.00    -0.248 NA
ATOM     46  C   UNL A   1      40.414  28.366  32.481  1.00  0.00     0.031 C 
ATOM     47  C   UNL A   1      40.734  28.850  27.664  1.00  0.00     0.029 A 
ATOM     48  N   UNL A   1      42.386  27.986  28.861  1.00  0.00    -0.354 N 
ATOM     49  C   UNL A   1      42.538  28.693  33.217  1.00  0.00     0.074 A 
ATOM     50  C   UNL A   1      41.193  28.319  33.563  1.00  0.00     0.031 C 
ATOM     51  C   UNL A   1      41.298  27.880  26.912  1.00  0.00     0.029 A 
ATOM     52  C   UNL A   1      42.363  27.253  27.671  1.00  0.00     0.049 A 
ATOM     53  H   UNL A   1      43.116  27.926  29.520  1.00  0.00     0.167 HD
ATOM     54  C   UNL A   1      43.713  28.256  33.747  1.00  0.00     0.034 A 
ATOM     55  C   UNL A   1      43.117  26.172  27.353  1.00  0.00     0.034 A 
ATOM     56  C   UNL A   1      44.855  28.798  33.078  1.00  0.00     0.049 A 
ATOM     57  C   UNL A   1      44.347  26.225  28.166  1.00  0.00     0.074 A 
ATOM     58  C   UNL A   1      45.617  29.942  33.105  1.00  0.00     0.029 A 
ATOM     59  N   UNL A   1      45.160  28.126  31.930  1.00  0.00    -0.354 N 
ATOM     60  N   UNL A   1      45.275  27.128  28.017  1.00  0.00    -0.248 NA
ATOM     61  C   UNL A   1      44.462  25.379  29.350  1.00  0.00     0.031 C 
ATOM     62  C   UNL A   1      46.335  29.977  31.872  1.00  0.00     0.029 A 
ATOM     63  C   UNL A   1      46.013  28.839  31.140  1.00  0.00     0.049 A 
ATOM     64  H   UNL A   1      44.807  27.237  31.701  1.00  0.00     0.167 HD
ATOM     65  C   UNL A   1      45.812  27.244  29.280  1.00  0.00     0.074 A 
ATOM     66  C   UNL A   1      45.422  26.040  29.997  1.00  0.00     0.031 C 
ATOM     67  C   UNL A   1      46.194  28.455  29.763  1.00  0.00     0.034 A 
BRANCH  54  68
ATOM     68  C   UNL A   1      43.827  26.955  34.510  1.00  0.00     0.023 A 
ATOM     69  C   UNL A   1      44.112  26.997  35.890  1.00  0.00     0.012 A 
ATOM     70  C   UNL A   1      43.955  25.701  33.867  1.00  0.00     0.148 A 
ATOM     71  C   UNL A   1      44.472  25.840  36.596  1.00  0.00     0.002 A 
ATOM     72  C   UNL A   1      44.225  24.545  34.584  1.00  0.00     0.091 A 
ATOM     73  F   UNL A   1      43.962  25.645  32.531  1.00  0.00    -0.205 F 
ATOM     74  C   UNL A   1      44.503  24.608  35.949  1.00  0.00     0.022 A 
BRANCH  72  75
ATOM     75  S   UNL A   1      44.233  22.933  33.789  1.00  0.00     0.127 S 
ATOM     76  O   UNL A   1      44.371  22.042  34.935  1.00  0.00    -0.237 OA
ATOM     77  O   UNL A   1      42.922  22.917  33.140  1.00  0.00    -0.237 OA
ATOM     78  O   UNL A   1      45.356  22.971  32.860  1.00  0.00    -0.744 OA
ENDBRANCH  72  75
ENDBRANCH  54  68
BRANCH  55  79
ATOM     79  C   UNL A   1      42.812  24.960  26.543  1.00  0.00     0.023 A 
ATOM     80  C   UNL A   1      43.771  24.506  25.606  1.00  0.00     0.012 A 
ATOM     81  C   UNL A   1      41.777  24.073  26.904  1.00  0.00     0.148 A 
ATOM     82  C   UNL A   1      43.754  23.192  25.123  1.00  0.00     0.002 A 
ATOM     83  C   UNL A   1      41.758  22.769  26.412  1.00  0.00     0.091 A 
ATOM     84  F   UNL A   1      40.868  24.470  27.804  1.00  0.00    -0.205 F 
ATOM     85  C   UNL A   1      42.758  22.318  25.541  1.00  0.00     0.022 A 
BRANCH  83  86
ATOM     86  S   UNL A   1      40.504  21.580  26.910  1.00  0.00     0.127 S 
ATOM     87  O   UNL A   1      40.866  20.403  26.119  1.00  0.00    -0.237 OA
ATOM     88  O   UNL A   1      40.758  21.455  28.342  1.00  0.00    -0.237 OA
ATOM     89  O   UNL A   1      39.228  22.178  26.539  1.00  0.00    -0.744 OA
ENDBRANCH  83  86
ENDBRANCH  55  79
BRANCH  67  90
ATOM     90  C   UNL A   1      46.670  29.487  28.800  1.00  0.00     0.023 A 
ATOM     91  C   UNL A   1      47.972  29.515  28.273  1.00  0.00     0.012 A 
ATOM     92  C   UNL A   1      45.700  30.379  28.318  1.00  0.00     0.148 A 
ATOM     93  C   UNL A   1      48.293  30.421  27.257  1.00  0.00     0.002 A 
ATOM     94  C   UNL A   1      46.011  31.246  27.287  1.00  0.00     0.091 A 
ATOM     95  F   UNL A   1      44.473  30.326  28.859  1.00  0.00    -0.205 F 
ATOM     96  C   UNL A   1      47.308  31.274  26.753  1.00  0.00     0.022 A 
BRANCH  94  97
ATOM     97  S   UNL A   1      44.764  32.292  26.534  1.00  0.00     0.127 S 
ATOM     98  O   UNL A   1      45.527  32.981  25.496  1.00  0.00    -0.237 OA
ATOM     99  O   UNL A   1      43.799  31.308  26.039  1.00  0.00    -0.237 OA
ATOM    100  O   UNL A   1      44.253  33.148  27.598  1.00  0.00    -0.744 OA
ENDBRANCH  94  97
ENDBRANCH  67  90
ENDBRANCH  41  42
ENDBRANCH  34  36
ENDBRANCH  33  34
ENDBRANCH  32  33
ENDBRANCH  31  32
ENDBRANCH  30  31
ENDBRANCH   1  30
TORSDOF 22
ENDMDL
MODEL 2
REMARK VINA RESULT:     -10.3      1.880      2.646
REMARK SMILES COC(=O)c1ccc2c(c1)=N[C@H](c1cn(CCC(=O)OCCOCCOC(=O)c3ccc(-c4c5nc(c(-c6cccc(S(=O)(=O)[O-])c6F)c6ccc([nH]6)c(-c6cccc(S(=O)(=O)[O-])c6F)c6nc(c(-c7cccc(S(=O)(=O)[O-])c7F)c7ccc4[nH]7)C=C6)C=C5)cc3)c3ccccc13)N=2
REMARK SMILES IDX 22 1 21 2 20 3 18 4 19 5 17 6 16 7 15 8 13 9 14 10 97 11
REMARK SMILES IDX 92 12 96 13 93 14 95 15 94 16 12 17 5 18 6 19 10 20 7 21
REMARK SMILES IDX 9 22 8 23 11 24 98 25 3 26 4 27 2 28 1 29 23 30 24 31 25 32
REMARK SMILES IDX 26 33 27 34 28 35 29 36 30 37 91 38 31 39 90 40 32 41 33 42
REMARK SMILES IDX 34 43 84 44 35 45 89 46 83 47 85 48 36 49 88 50 82 51 81 52
REMARK SMILES IDX 37 54 69 55 49 56 68 57 50 58 53 59 67 60 86 61 51 62 52 63
REMARK SMILES IDX 66 65 87 66 54 67 38 68 39 69 47 70 40 71 42 72 48 73 41 74
REMARK SMILES IDX 43 75 44 76 45 77 46 78 70 79 71 80 79 81 72 82 74 83 80 84
REMARK SMILES IDX 73 85 75 86 76 87 77 88 78 89 55 90 56 91 64 92 57 93 59 94
REMARK SMILES IDX 65 95 58 96 60 97 61 98 62 99 63 100
REMARK H PARENT 85 53 53 64
REMARK Flexibility Score: inf
ROOT
ATOM      1  C   UNL A   1      34.515  33.431  29.019  1.00  0.00     0.202 C 
ENDROOT
BRANCH   1   2
ATOM      2  C   UNL A   1      33.624  32.723  27.995  1.00  0.00     0.261 C 
BRANCH   2   3
ATOM      3  O   UNL A   1      34.297  31.601  27.383  1.00  0.00    -0.463 OA
BRANCH   3   4
ATOM      4  C   UNL A   1      33.596  30.446  27.283  1.00  0.00     0.307 C 
ATOM      5  O   UNL A   1      34.060  29.319  27.409  1.00  0.00    -0.252 OA
BRANCH   4   6
ATOM      6  C   UNL A   1      32.134  30.699  27.008  1.00  0.00     0.144 C 
BRANCH   6   7
ATOM      7  C   UNL A   1      31.712  30.428  25.560  1.00  0.00     0.134 C 
BRANCH   7   8
ATOM      8  N   UNL A   1      31.991  29.072  25.118  1.00  0.00    -0.346 N 
ATOM      9  C   UNL A   1      32.248  27.476  23.636  1.00  0.00     0.024 A 
ATOM     10  C   UNL A   1      32.793  28.694  24.064  1.00  0.00     0.094 A 
ATOM     11  C   UNL A   1      30.902  27.484  24.218  1.00  0.00     0.007 A 
ATOM     12  C   UNL A   1      31.336  27.918  25.481  1.00  0.00     0.048 A 
ATOM     13  C   UNL A   1      29.897  26.507  24.259  1.00  0.00     0.011 A 
ATOM     14  C   UNL A   1      31.567  26.945  26.469  1.00  0.00     0.027 A 
ATOM     15  C   UNL A   1      30.104  25.489  25.178  1.00  0.00     0.001 A 
ATOM     16  C   UNL A   1      31.037  25.671  26.201  1.00  0.00     0.002 A 
BRANCH   9  17
ATOM     17  C   UNL A   1      32.970  26.353  22.917  1.00  0.00     0.255 C 
ATOM     18  C   UNL A   1      33.686  22.133  24.468  1.00  0.00     0.062 A 
ATOM     19  C   UNL A   1      32.495  21.899  23.658  1.00  0.00     0.018 A 
ATOM     20  C   UNL A   1      34.196  23.368  24.643  1.00  0.00     0.046 A 
ATOM     21  C   UNL A   1      31.863  22.871  22.980  1.00  0.00     0.031 A 
ATOM     22  C   UNL A   1      33.580  24.489  23.912  1.00  0.00     0.087 A 
ATOM     23  C   UNL A   1      32.416  24.234  23.043  1.00  0.00     0.086 A 
ATOM     24  N   UNL A   1      33.961  25.720  23.861  1.00  0.00    -0.252 NA
ATOM     25  N   UNL A   1      32.054  25.290  22.407  1.00  0.00    -0.252 NA
BRANCH  18  26
ATOM     26  C   UNL A   1      34.416  21.014  25.144  1.00  0.00     0.337 C 
ATOM     27  O   UNL A   1      35.470  20.539  24.744  1.00  0.00    -0.246 OA
BRANCH  26  28
ATOM     28  O   UNL A   1      33.701  20.559  26.209  1.00  0.00    -0.465 OA
ATOM     29  C   UNL A   1      33.818  21.359  27.391  1.00  0.00     0.282 C 
ENDBRANCH  26  28
ENDBRANCH  18  26
ENDBRANCH   9  17
ENDBRANCH   7   8
ENDBRANCH   6   7
ENDBRANCH   4   6
ENDBRANCH   3   4
ENDBRANCH   2   3
ENDBRANCH   1   2
BRANCH   1  30
ATOM     30  O   UNL A   1      33.914  33.671  30.301  1.00  0.00    -0.374 OA
BRANCH  30  31
ATOM     31  C   UNL A   1      34.846  33.912  31.353  1.00  0.00     0.202 C 
BRANCH  31  32
ATOM     32  C   UNL A   1      35.206  32.680  32.194  1.00  0.00     0.261 C 
BRANCH  32  33
ATOM     33  O   UNL A   1      36.441  32.119  31.734  1.00  0.00    -0.460 OA
BRANCH  33  34
ATOM     34  C   UNL A   1      37.571  32.779  32.089  1.00  0.00     0.338 C 
ATOM     35  O   UNL A   1      37.669  33.690  32.895  1.00  0.00    -0.246 OA
BRANCH  34  36
ATOM     36  C   UNL A   1      38.699  32.012  31.526  1.00  0.00     0.060 A 
ATOM     37  C   UNL A   1      38.470  30.781  30.931  1.00  0.00     0.016 A 
ATOM     38  C   UNL A   1      40.004  32.419  31.791  1.00  0.00     0.016 A 
ATOM     39  C   UNL A   1      39.511  29.879  30.783  1.00  0.00     0.010 A 
ATOM     40  C   UNL A   1      41.068  31.546  31.546  1.00  0.00     0.010 A 
ATOM     41  C   UNL A   1      40.827  30.240  31.110  1.00  0.00    -0.014 A 
BRANCH  41  42
ATOM     42  C   UNL A   1      41.880  29.237  30.832  1.00  0.00     0.031 A 
ATOM     43  C   UNL A   1      42.489  28.655  32.072  1.00  0.00     0.074 A 
ATOM     44  C   UNL A   1      42.251  28.772  29.615  1.00  0.00     0.049 A 
ATOM     45  N   UNL A   1      43.721  28.738  32.467  1.00  0.00    -0.248 NA
ATOM     46  C   UNL A   1      41.579  28.078  33.078  1.00  0.00     0.031 C 
ATOM     47  C   UNL A   1      41.614  29.060  28.327  1.00  0.00     0.029 A 
ATOM     48  N   UNL A   1      43.195  27.830  29.275  1.00  0.00    -0.354 N 
ATOM     49  C   UNL A   1      43.776  28.002  33.649  1.00  0.00     0.074 A 
ATOM     50  C   UNL A   1      42.418  27.793  34.075  1.00  0.00     0.031 C 
ATOM     51  C   UNL A   1      41.964  28.111  27.432  1.00  0.00     0.029 A 
ATOM     52  C   UNL A   1      42.971  27.251  28.023  1.00  0.00     0.049 A 
ATOM     53  H   UNL A   1      43.953  27.588  29.856  1.00  0.00     0.167 HD
ATOM     54  C   UNL A   1      44.904  27.339  34.023  1.00  0.00     0.034 A 
ATOM     55  C   UNL A   1      43.521  26.114  27.529  1.00  0.00     0.034 A 
ATOM     56  C   UNL A   1      46.064  27.780  33.313  1.00  0.00     0.049 A 
ATOM     57  C   UNL A   1      44.801  25.891  28.229  1.00  0.00     0.074 A 
ATOM     58  C   UNL A   1      46.996  28.789  33.388  1.00  0.00     0.029 A 
ATOM     59  N   UNL A   1      46.175  27.207  32.079  1.00  0.00    -0.354 N 
ATOM     60  N   UNL A   1      45.844  26.659  28.090  1.00  0.00    -0.248 NA
ATOM     61  C   UNL A   1      44.868  24.908  29.305  1.00  0.00     0.031 C 
ATOM     62  C   UNL A   1      47.617  28.859  32.106  1.00  0.00     0.029 A 
ATOM     63  C   UNL A   1      47.069  27.872  31.293  1.00  0.00     0.049 A 
ATOM     64  H   UNL A   1      45.672  26.412  31.793  1.00  0.00     0.167 HD
ATOM     65  C   UNL A   1      46.485  26.549  29.305  1.00  0.00     0.074 A 
ATOM     66  C   UNL A   1      45.965  25.341  29.927  1.00  0.00     0.031 C 
ATOM     67  C   UNL A   1      47.085  27.627  29.873  1.00  0.00     0.034 A 
BRANCH  54  68
ATOM     68  C   UNL A   1      44.870  25.956  34.636  1.00  0.00     0.023 A 
ATOM     69  C   UNL A   1      44.132  24.943  33.990  1.00  0.00     0.012 A 
ATOM     70  C   UNL A   1      45.289  25.698  35.962  1.00  0.00     0.148 A 
ATOM     71  C   UNL A   1      43.859  23.722  34.625  1.00  0.00     0.002 A 
ATOM     72  C   UNL A   1      45.094  24.458  36.554  1.00  0.00     0.091 A 
ATOM     73  F   UNL A   1      45.751  26.703  36.714  1.00  0.00    -0.205 F 
ATOM     74  C   UNL A   1      44.362  23.469  35.897  1.00  0.00     0.022 A 
BRANCH  72  75
ATOM     75  S   UNL A   1      45.764  24.083  38.178  1.00  0.00     0.127 S 
ATOM     76  O   UNL A   1      47.123  24.598  38.061  1.00  0.00    -0.237 OA
ATOM     77  O   UNL A   1      44.877  24.854  39.049  1.00  0.00    -0.237 OA
ATOM     78  O   UNL A   1      45.630  22.638  38.323  1.00  0.00    -0.744 OA
ENDBRANCH  72  75
ENDBRANCH  54  68
BRANCH  55  79
ATOM     79  C   UNL A   1      42.972  25.061  26.630  1.00  0.00     0.023 A 
ATOM     80  C   UNL A   1      43.778  24.578  25.572  1.00  0.00     0.012 A 
ATOM     81  C   UNL A   1      41.837  24.304  26.989  1.00  0.00     0.148 A 
ATOM     82  C   UNL A   1      43.520  23.345  24.962  1.00  0.00     0.002 A 
ATOM     83  C   UNL A   1      41.578  23.082  26.370  1.00  0.00     0.091 A 
ATOM     84  F   UNL A   1      41.069  24.728  28.000  1.00  0.00    -0.205 F 
ATOM     85  C   UNL A   1      42.430  22.588  25.375  1.00  0.00     0.022 A 
BRANCH  83  86
ATOM     86  S   UNL A   1      40.189  22.046  26.854  1.00  0.00     0.127 S 
ATOM     87  O   UNL A   1      40.086  21.124  25.720  1.00  0.00    -0.237 OA
ATOM     88  O   UNL A   1      40.678  21.442  28.089  1.00  0.00    -0.237 OA
ATOM     89  O   UNL A   1      39.054  22.949  26.991  1.00  0.00    -0.744 OA
ENDBRANCH  83  86
ENDBRANCH  55  79
BRANCH  67  90
ATOM     90  C   UNL A   1      47.645  28.681  28.982  1.00  0.00     0.023 A 
ATOM     91  C   UNL A   1      48.938  28.631  28.436  1.00  0.00     0.012 A 
ATOM     92  C   UNL A   1      46.756  29.692  28.584  1.00  0.00     0.148 A 
ATOM     93  C   UNL A   1      49.331  29.578  27.485  1.00  0.00     0.002 A 
ATOM     94  C   UNL A   1      47.135  30.603  27.616  1.00  0.00     0.091 A 
ATOM     95  F   UNL A   1      45.535  29.711  29.142  1.00  0.00    -0.205 F 
ATOM     96  C   UNL A   1      48.424  30.553  27.063  1.00  0.00     0.022 A 
BRANCH  94  97
ATOM     97  S   UNL A   1      45.982  31.812  26.965  1.00  0.00     0.127 S 
ATOM     98  O   UNL A   1      45.529  32.489  28.179  1.00  0.00    -0.237 OA
ATOM     99  O   UNL A   1      46.841  32.617  26.096  1.00  0.00    -0.237 OA
ATOM    100  O   UNL A   1      44.954  31.057  26.259  1.00  0.00    -0.744 OA
ENDBRANCH  94  97
ENDBRANCH  67  90
ENDBRANCH  41  42
ENDBRANCH  34  36
ENDBRANCH  33  34
ENDBRANCH  32  33
ENDBRANCH  31  32
ENDBRANCH  30  31
ENDBRANCH   1  30
TORSDOF 22
ENDMDL
MODEL 3
REMARK VINA RESULT:      -9.9      4.629      8.631
REMARK SMILES COC(=O)c1ccc2c(c1)=N[C@H](c1cn(CCC(=O)OCCOCCOC(=O)c3ccc(-c4c5nc(c(-c6cccc(S(=O)(=O)[O-])c6F)c6ccc([nH]6)c(-c6cccc(S(=O)(=O)[O-])c6F)c6nc(c(-c7cccc(S(=O)(=O)[O-])c7F)c7ccc4[nH]7)C=C6)C=C5)cc3)c3ccccc13)N=2
REMARK SMILES IDX 22 1 21 2 20 3 18 4 19 5 17 6 16 7 15 8 13 9 14 10 97 11
REMARK SMILES IDX 92 12 96 13 93 14 95 15 94 16 12 17 5 18 6 19 10 20 7 21
REMARK SMILES IDX 9 22 8 23 11 24 98 25 3 26 4 27 2 28 1 29 23 30 24 31 25 32
REMARK SMILES IDX 26 33 27 34 28 35 29 36 30 37 91 38 31 39 90 40 32 41 33 42
REMARK SMILES IDX 34 43 84 44 35 45 89 46 83 47 85 48 36 49 88 50 82 51 81 52
REMARK SMILES IDX 37 54 69 55 49 56 68 57 50 58 53 59 67 60 86 61 51 62 52 63
REMARK SMILES IDX 66 65 87 66 54 67 38 68 39 69 47 70 40 71 42 72 48 73 41 74
REMARK SMILES IDX 43 75 44 76 45 77 46 78 70 79 71 80 79 81 72 82 74 83 80 84
REMARK SMILES IDX 73 85 75 86 76 87 77 88 78 89 55 90 56 91 64 92 57 93 59 94
REMARK SMILES IDX 65 95 58 96 60 97 61 98 62 99 63 100
REMARK H PARENT 85 53 53 64
REMARK Flexibility Score: inf
ROOT
ATOM      1  C   UNL A   1      34.499  33.331  31.631  1.00  0.00     0.202 C 
ENDROOT
BRANCH   1   2
ATOM      2  C   UNL A   1      34.152  33.513  33.111  1.00  0.00     0.261 C 
BRANCH   2   3
ATOM      3  O   UNL A   1      35.244  33.121  33.971  1.00  0.00    -0.463 OA
BRANCH   3   4
ATOM      4  C   UNL A   1      36.399  33.819  33.854  1.00  0.00     0.307 C 
ATOM      5  O   UNL A   1      36.519  35.028  34.007  1.00  0.00    -0.252 OA
BRANCH   4   6
ATOM      6  C   UNL A   1      37.566  32.920  33.522  1.00  0.00     0.144 C 
BRANCH   6   7
ATOM      7  C   UNL A   1      38.108  33.097  32.100  1.00  0.00     0.134 C 
BRANCH   7   8
ATOM      8  N   UNL A   1      39.480  33.572  32.056  1.00  0.00    -0.346 N 
ATOM      9  C   UNL A   1      41.594  33.496  31.478  1.00  0.00     0.024 A 
ATOM     10  C   UNL A   1      40.302  33.627  30.952  1.00  0.00     0.094 A 
ATOM     11  C   UNL A   1      41.361  32.936  32.813  1.00  0.00     0.007 A 
ATOM     12  C   UNL A   1      40.317  33.823  33.118  1.00  0.00     0.048 A 
ATOM     13  C   UNL A   1      42.232  32.680  33.883  1.00  0.00     0.011 A 
ATOM     14  C   UNL A   1      40.629  34.982  33.851  1.00  0.00     0.027 A 
ATOM     15  C   UNL A   1      42.619  33.800  34.605  1.00  0.00     0.001 A 
ATOM     16  C   UNL A   1      41.886  34.981  34.480  1.00  0.00     0.002 A 
BRANCH   9  17
ATOM     17  C   UNL A   1      42.886  34.007  30.870  1.00  0.00     0.255 C 
ATOM     18  C   UNL A   1      43.867  34.357  26.438  1.00  0.00     0.062 A 
ATOM     19  C   UNL A   1      43.440  35.728  26.705  1.00  0.00     0.018 A 
ATOM     20  C   UNL A   1      43.804  33.396  27.380  1.00  0.00     0.046 A 
ATOM     21  C   UNL A   1      43.021  36.146  27.911  1.00  0.00     0.031 A 
ATOM     22  C   UNL A   1      43.382  33.776  28.740  1.00  0.00     0.087 A 
ATOM     23  C   UNL A   1      43.015  35.177  29.019  1.00  0.00     0.086 A 
ATOM     24  N   UNL A   1      43.342  33.045  29.801  1.00  0.00    -0.252 NA
ATOM     25  N   UNL A   1      42.761  35.365  30.264  1.00  0.00    -0.252 NA
BRANCH  18  26
ATOM     26  C   UNL A   1      44.407  33.942  25.104  1.00  0.00     0.337 C 
ATOM     27  O   UNL A   1      44.028  32.959  24.485  1.00  0.00    -0.246 OA
BRANCH  26  28
ATOM     28  O   UNL A   1      45.422  34.767  24.729  1.00  0.00    -0.465 OA
ATOM     29  C   UNL A   1      46.536  34.788  25.629  1.00  0.00     0.282 C 
ENDBRANCH  26  28
ENDBRANCH  18  26
ENDBRANCH   9  17
ENDBRANCH   7   8
ENDBRANCH   6   7
ENDBRANCH   4   6
ENDBRANCH   3   4
ENDBRANCH   2   3
ENDBRANCH   1   2
BRANCH   1  30
ATOM     30  O   UNL A   1      33.698  34.087  30.711  1.00  0.00    -0.374 OA
BRANCH  30  31
ATOM     31  C   UNL A   1      34.229  34.160  29.389  1.00  0.00     0.202 C 
BRANCH  31  32
ATOM     32  C   UNL A   1      35.729  33.859  29.275  1.00  0.00     0.261 C 
BRANCH  32  33
ATOM     33  O   UNL A   1      36.002  33.196  28.035  1.00  0.00    -0.460 OA
BRANCH  33  34
ATOM     34  C   UNL A   1      35.579  31.913  27.934  1.00  0.00     0.338 C 
ATOM     35  O   UNL A   1      34.599  31.505  27.331  1.00  0.00    -0.246 OA
BRANCH  34  36
ATOM     36  C   UNL A   1      36.671  31.069  28.457  1.00  0.00     0.060 A 
ATOM     37  C   UNL A   1      37.810  31.659  28.984  1.00  0.00     0.016 A 
ATOM     38  C   UNL A   1      36.652  29.697  28.217  1.00  0.00     0.016 A 
ATOM     39  C   UNL A   1      38.984  30.931  29.086  1.00  0.00     0.010 A 
ATOM     40  C   UNL A   1      37.811  28.941  28.416  1.00  0.00     0.010 A 
ATOM     41  C   UNL A   1      39.008  29.561  28.781  1.00  0.00    -0.014 A 
BRANCH  41  42
ATOM     42  C   UNL A   1      40.289  28.854  29.006  1.00  0.00     0.031 A 
ATOM     43  C   UNL A   1      40.695  28.805  30.448  1.00  0.00     0.074 A 
ATOM     44  C   UNL A   1      41.033  28.213  28.073  1.00  0.00     0.049 A 
ATOM     45  N   UNL A   1      41.749  29.325  30.996  1.00  0.00    -0.248 NA
ATOM     46  C   UNL A   1      39.718  28.277  31.419  1.00  0.00     0.031 C 
ATOM     47  C   UNL A   1      40.676  27.969  26.672  1.00  0.00     0.029 A 
ATOM     48  N   UNL A   1      42.212  27.515  28.204  1.00  0.00    -0.354 N 
ATOM     49  C   UNL A   1      41.677  28.965  32.340  1.00  0.00     0.074 A 
ATOM     50  C   UNL A   1      40.335  28.504  32.580  1.00  0.00     0.031 C 
ATOM     51  C   UNL A   1      41.427  26.957  26.188  1.00  0.00     0.029 A 
ATOM     52  C   UNL A   1      42.426  26.593  27.175  1.00  0.00     0.049 A 
ATOM     53  H   UNL A   1      42.843  27.652  28.948  1.00  0.00     0.167 HD
ATOM     54  C   UNL A   1      42.798  28.761  33.084  1.00  0.00     0.034 A 
ATOM     55  C   UNL A   1      43.311  25.567  27.158  1.00  0.00     0.034 A 
ATOM     56  C   UNL A   1      43.971  29.308  32.473  1.00  0.00     0.049 A 
ATOM     57  C   UNL A   1      44.403  25.897  28.094  1.00  0.00     0.074 A 
ATOM     58  C   UNL A   1      44.615  30.520  32.385  1.00  0.00     0.029 A 
ATOM     59  N   UNL A   1      44.496  28.490  31.515  1.00  0.00    -0.354 N 
ATOM     60  N   UNL A   1      45.257  26.861  27.898  1.00  0.00    -0.248 NA
ATOM     61  C   UNL A   1      44.423  25.284  29.417  1.00  0.00     0.031 C 
ATOM     62  C   UNL A   1      45.495  30.426  31.266  1.00  0.00     0.029 A 
ATOM     63  C   UNL A   1      45.385  29.151  30.721  1.00  0.00     0.049 A 
ATOM     64  H   UNL A   1      44.261  27.540  31.412  1.00  0.00     0.167 HD
ATOM     65  C   UNL A   1      45.596  27.251  29.175  1.00  0.00     0.074 A 
ATOM     66  C   UNL A   1      45.218  26.150  30.046  1.00  0.00     0.031 C 
ATOM     67  C   UNL A   1      45.794  28.562  29.471  1.00  0.00     0.034 A 
BRANCH  54  68
ATOM     68  C   UNL A   1      42.920  27.630  34.081  1.00  0.00     0.023 A 
ATOM     69  C   UNL A   1      41.964  26.594  34.057  1.00  0.00     0.012 A 
ATOM     70  C   UNL A   1      43.759  27.701  35.217  1.00  0.00     0.148 A 
ATOM     71  C   UNL A   1      41.875  25.659  35.098  1.00  0.00     0.002 A 
ATOM     72  C   UNL A   1      43.728  26.723  36.202  1.00  0.00     0.091 A 
ATOM     73  F   UNL A   1      44.493  28.800  35.426  1.00  0.00    -0.205 F 
ATOM     74  C   UNL A   1      42.775  25.707  36.158  1.00  0.00     0.022 A 
BRANCH  72  75
ATOM     75  S   UNL A   1      44.901  26.732  37.564  1.00  0.00     0.127 S 
ATOM     76  O   UNL A   1      44.644  25.435  38.179  1.00  0.00    -0.237 OA
ATOM     77  O   UNL A   1      46.176  26.846  36.856  1.00  0.00    -0.237 OA
ATOM     78  O   UNL A   1      44.556  27.905  38.358  1.00  0.00    -0.744 OA
ENDBRANCH  72  75
ENDBRANCH  54  68
BRANCH  55  79
ATOM     79  C   UNL A   1      43.235  24.208  26.552  1.00  0.00     0.023 A 
ATOM     80  C   UNL A   1      44.406  23.643  25.994  1.00  0.00     0.012 A 
ATOM     81  C   UNL A   1      42.150  23.346  26.810  1.00  0.00     0.148 A 
ATOM     82  C   UNL A   1      44.526  22.263  25.792  1.00  0.00     0.002 A 
ATOM     83  C   UNL A   1      42.269  21.974  26.596  1.00  0.00     0.091 A 
ATOM     84  F   UNL A   1      41.036  23.851  27.356  1.00  0.00    -0.205 F 
ATOM     85  C   UNL A   1      43.463  21.426  26.111  1.00  0.00     0.022 A 
BRANCH  83  86
ATOM     86  S   UNL A   1      40.938  20.829  26.988  1.00  0.00     0.127 S 
ATOM     87  O   UNL A   1      39.903  21.222  26.030  1.00  0.00    -0.237 OA
ATOM     88  O   UNL A   1      41.561  19.537  26.719  1.00  0.00    -0.237 OA
ATOM     89  O   UNL A   1      40.592  21.092  28.379  1.00  0.00    -0.744 OA
ENDBRANCH  83  86
ENDBRANCH  55  79
BRANCH  67  90
ATOM     90  C   UNL A   1      46.308  29.462  28.402  1.00  0.00     0.023 A 
ATOM     91  C   UNL A   1      45.478  30.214  27.553  1.00  0.00     0.012 A 
ATOM     92  C   UNL A   1      47.700  29.643  28.360  1.00  0.00     0.148 A 
ATOM     93  C   UNL A   1      46.038  31.152  26.681  1.00  0.00     0.002 A 
ATOM     94  C   UNL A   1      48.247  30.599  27.524  1.00  0.00     0.091 A 
ATOM     95  F   UNL A   1      48.456  28.894  29.177  1.00  0.00    -0.205 F 
ATOM     96  C   UNL A   1      47.421  31.357  26.680  1.00  0.00     0.022 A 
BRANCH  94  97
ATOM     97  S   UNL A   1      50.000  30.973  27.551  1.00  0.00     0.127 S 
ATOM     98  O   UNL A   1      50.143  31.857  26.396  1.00  0.00    -0.237 OA
ATOM     99  O   UNL A   1      50.153  31.628  28.850  1.00  0.00    -0.237 OA
ATOM    100  O   UNL A   1      50.692  29.695  27.440  1.00  0.00    -0.744 OA
ENDBRANCH  94  97
ENDBRANCH  67  90
ENDBRANCH  41  42
ENDBRANCH  34  36
ENDBRANCH  33  34
ENDBRANCH  32  33
ENDBRANCH  31  32
ENDBRANCH  30  31
ENDBRANCH   1  30
TORSDOF 22
ENDMDL
