MODEL 1
REMARK VINA RESULT:     -12.9      0.000      0.000
REMARK SMILES O=C(OCCOCCOC(=O)c1ccc(-c2c3nc(c(-c4cccc(S(=O)(=O)[O-])c4F)c4ccc([nH]4)c(-c4cccc(S(=O)(=O)[O-])c4F)c4nc(c(-c5cccc(S(=O)(=O)[O-])c5F)c5ccc2[nH]5)C=C4)C=C3)cc1)C1=Cc2cc(S(F)(F)(F)(F)F)cc(Br)c2O[C@@H]1C(F)(F)F
REMARK SMILES IDX 7 1 6 2 5 3 4 4 3 5 2 6 1 7 75 8 76 9 91 10 77 11 90 12
REMARK SMILES IDX 78 13 89 14 79 15 87 16 86 17 88 18 92 19 93 20 94 21 95 22
REMARK SMILES IDX 80 23 81 24 82 25 83 26 84 27 85 28 8 29 9 30 10 31 11 32
REMARK SMILES IDX 12 33 13 34 74 35 14 36 73 37 15 38 16 39 17 40 67 41 18 42
REMARK SMILES IDX 72 43 66 44 68 45 19 46 71 47 65 48 64 49 20 51 52 52 32 53
REMARK SMILES IDX 51 54 33 55 36 56 50 57 69 58 34 59 35 60 49 62 70 63 37 64
REMARK SMILES IDX 21 65 22 66 30 67 23 68 25 69 31 70 24 71 26 72 27 73 28 74
REMARK SMILES IDX 29 75 53 76 54 77 62 78 55 79 57 80 63 81 56 82 58 83 59 84
REMARK SMILES IDX 60 85 61 86 38 87 39 88 47 89 40 90 42 91 48 92 41 93 43 94
REMARK SMILES IDX 44 95 45 96 46 97
REMARK H PARENT 68 50 36 61
REMARK Flexibility Score: inf
ROOT
ATOM      1  C   UNL A   1      31.852  28.751  24.607  1.00  0.00     0.202 C 
ENDROOT
BRANCH   1   2
ATOM      2  O   UNL A   1      32.549  27.897  23.712  1.00  0.00    -0.374 OA
BRANCH   2   3
ATOM      3  C   UNL A   1      33.003  26.748  24.412  1.00  0.00     0.202 C 
BRANCH   3   4
ATOM      4  C   UNL A   1      33.653  25.782  23.434  1.00  0.00     0.261 C 
BRANCH   4   5
ATOM      5  O   UNL A   1      33.786  24.508  24.046  1.00  0.00    -0.460 OA
BRANCH   5   6
ATOM      6  C   UNL A   1      32.971  23.426  23.619  1.00  0.00     0.338 C 
ATOM      7  O   UNL A   1      33.244  22.813  22.540  1.00  0.00    -0.246 OA
BRANCH   6   8
ATOM      8  C   UNL A   1      31.772  23.002  24.452  1.00  0.00     0.087 C 
ATOM      9  C   UNL A   1      31.695  21.733  24.936  1.00  0.00     0.027 C 
ATOM     10  C   UNL A   1      30.660  23.996  24.746  1.00  0.00     0.316 C 
ATOM     11  C   UNL A   1      32.807  20.739  24.642  1.00  0.00     0.020 A 
ATOM     12  O   UNL A   1      34.298  22.570  24.905  1.00  0.00    -0.474 OA
ATOM     13  C   UNL A   1      32.541  19.407  24.370  1.00  0.00     0.036 A 
ATOM     14  C   UNL A   1      34.052  21.177  24.787  1.00  0.00     0.142 A 
ATOM     15  C   UNL A   1      33.652  18.551  24.554  1.00  0.00     0.109 A 
ATOM     16  C   UNL A   1      35.104  20.295  24.823  1.00  0.00     0.062 A 
ATOM     17  C   UNL A   1      34.907  18.957  24.619  1.00  0.00     0.044 A 
ATOM     18  Br  UNL A   1      36.914  20.962  25.170  1.00  0.00    -0.047 Br
BRANCH  10  19
ATOM     19  C   UNL A   1      30.531  24.183  26.248  1.00  0.00     0.430 C 
ATOM     20  F   UNL A   1      29.898  23.136  26.773  1.00  0.00    -0.167 F 
ATOM     21  F   UNL A   1      31.743  24.283  26.789  1.00  0.00    -0.167 F 
ATOM     22  F   UNL A   1      29.841  25.291  26.500  1.00  0.00    -0.167 F 
ENDBRANCH  10  19
BRANCH  15  23
ATOM     23  S   UNL A   1      33.331  16.777  24.711  1.00  0.00     0.310 S 
ATOM     24  F   UNL A   1      34.813  16.485  25.196  1.00  0.00    -0.094 F 
ATOM     25  F   UNL A   1      33.849  16.584  23.236  1.00  0.00    -0.094 F 
ATOM     26  F   UNL A   1      33.053  15.252  24.842  1.00  0.00    -0.094 F 
ATOM     27  F   UNL A   1      32.949  16.969  26.231  1.00  0.00    -0.094 F 
ATOM     28  F   UNL A   1      33.714  18.308  24.630  1.00  0.00    -0.094 F 
ENDBRANCH  15  23
ENDBRANCH   6   8
ENDBRANCH   5   6
ENDBRANCH   4   5
ENDBRANCH   3   4
ENDBRANCH   2   3
ENDBRANCH   1   2
BRANCH   1  29
ATOM     29  C   UNL A   1      32.834  29.713  25.257  1.00  0.00     0.261 C 
BRANCH  29  30
ATOM     30  O   UNL A   1      32.149  30.515  26.208  1.00  0.00    -0.460 OA
BRANCH  30  31
ATOM     31  C   UNL A   1      32.869  31.444  27.005  1.00  0.00     0.338 C 
ATOM     32  O   UNL A   1      32.371  32.587  27.253  1.00  0.00    -0.246 OA
BRANCH  31  33
ATOM     33  C   UNL A   1      34.234  31.071  27.561  1.00  0.00     0.060 A 
ATOM     34  C   UNL A   1      34.499  29.776  27.975  1.00  0.00     0.016 A 
ATOM     35  C   UNL A   1      35.091  32.058  27.791  1.00  0.00     0.016 A 
ATOM     36  C   UNL A   1      35.576  29.676  28.886  1.00  0.00     0.010 A 
ATOM     37  C   UNL A   1      36.197  31.853  28.581  1.00  0.00     0.010 A 
ATOM     38  C   UNL A   1      36.489  30.612  29.074  1.00  0.00    -0.014 A 
BRANCH  38  39
ATOM     39  C   UNL A   1      37.795  30.323  29.796  1.00  0.00     0.031 A 
ATOM     40  C   UNL A   1      37.910  30.887  31.068  1.00  0.00     0.074 A 
ATOM     41  C   UNL A   1      38.709  29.435  29.258  1.00  0.00     0.049 A 
ATOM     42  N   UNL A   1      38.861  30.658  31.976  1.00  0.00    -0.248 NA
ATOM     43  C   UNL A   1      36.958  31.857  31.630  1.00  0.00     0.031 C 
ATOM     44  C   UNL A   1      38.596  28.855  27.978  1.00  0.00     0.029 A 
ATOM     45  N   UNL A   1      39.864  28.957  29.835  1.00  0.00    -0.354 N 
ATOM     46  C   UNL A   1      38.622  31.366  33.082  1.00  0.00     0.074 A 
ATOM     47  C   UNL A   1      37.399  32.152  32.872  1.00  0.00     0.031 C 
ATOM     48  C   UNL A   1      39.672  28.049  27.783  1.00  0.00     0.029 A 
ATOM     49  C   UNL A   1      40.476  28.110  28.936  1.00  0.00     0.049 A 
ATOM     50  H   UNL A   1      40.196  29.181  30.735  1.00  0.00     0.167 HD
ATOM     51  C   UNL A   1      39.375  31.386  34.257  1.00  0.00     0.034 A 
ATOM     52  C   UNL A   1      41.669  27.423  29.096  1.00  0.00     0.034 A 
ATOM     53  C   UNL A   1      40.546  30.664  34.432  1.00  0.00     0.049 A 
ATOM     54  C   UNL A   1      42.454  27.488  30.250  1.00  0.00     0.074 A 
ATOM     55  C   UNL A   1      41.313  30.667  35.612  1.00  0.00     0.029 A 
ATOM     56  N   UNL A   1      41.170  29.838  33.524  1.00  0.00    -0.354 N 
ATOM     57  N   UNL A   1      42.194  28.166  31.368  1.00  0.00    -0.248 NA
ATOM     58  C   UNL A   1      43.735  26.790  30.416  1.00  0.00     0.031 C 
ATOM     59  C   UNL A   1      42.389  29.861  35.417  1.00  0.00     0.029 A 
ATOM     60  C   UNL A   1      42.314  29.342  34.110  1.00  0.00     0.049 A 
ATOM     61  H   UNL A   1      40.854  29.637  32.614  1.00  0.00     0.167 HD
ATOM     62  C   UNL A   1      43.167  27.969  32.261  1.00  0.00     0.074 A 
ATOM     63  C   UNL A   1      44.176  27.087  31.657  1.00  0.00     0.031 C 
ATOM     64  C   UNL A   1      43.252  28.486  33.554  1.00  0.00     0.034 A 
BRANCH  51  65
ATOM     65  C   UNL A   1      38.884  32.247  35.410  1.00  0.00     0.023 A 
ATOM     66  C   UNL A   1      39.170  33.601  35.460  1.00  0.00     0.012 A 
ATOM     67  C   UNL A   1      38.190  31.653  36.373  1.00  0.00     0.148 A 
ATOM     68  C   UNL A   1      38.926  34.192  36.721  1.00  0.00     0.002 A 
ATOM     69  C   UNL A   1      37.868  32.334  37.523  1.00  0.00     0.091 A 
ATOM     70  F   UNL A   1      37.804  30.389  36.225  1.00  0.00    -0.205 F 
ATOM     71  C   UNL A   1      38.171  33.658  37.665  1.00  0.00     0.022 A 
BRANCH  69  72
ATOM     72  S   UNL A   1      37.027  31.461  38.869  1.00  0.00     0.127 S 
ATOM     73  O   UNL A   1      37.859  31.575  40.148  1.00  0.00    -0.237 OA
ATOM     74  O   UNL A   1      35.649  32.087  39.099  1.00  0.00    -0.237 OA
ATOM     75  O   UNL A   1      36.843  29.813  38.453  1.00  0.00    -0.744 OA
ENDBRANCH  69  72
ENDBRANCH  51  65
BRANCH  52  76
ATOM     76  C   UNL A   1      42.151  26.550  27.948  1.00  0.00     0.023 A 
ATOM     77  C   UNL A   1      42.958  27.130  26.983  1.00  0.00     0.012 A 
ATOM     78  C   UNL A   1      41.811  25.268  27.882  1.00  0.00     0.148 A 
ATOM     79  C   UNL A   1      43.122  26.339  25.822  1.00  0.00     0.002 A 
ATOM     80  C   UNL A   1      42.123  24.518  26.774  1.00  0.00     0.091 A 
ATOM     81  F   UNL A   1      41.162  24.705  28.898  1.00  0.00    -0.205 F 
ATOM     82  C   UNL A   1      42.868  25.044  25.756  1.00  0.00     0.022 A 
BRANCH  80  83
ATOM     83  S   UNL A   1      41.540  22.808  26.661  1.00  0.00     0.127 S 
ATOM     84  O   UNL A   1      40.010  22.791  26.641  1.00  0.00    -0.237 OA
ATOM     85  O   UNL A   1      42.075  22.171  25.376  1.00  0.00    -0.237 OA
ATOM     86  O   UNL A   1      42.103  21.924  28.012  1.00  0.00    -0.744 OA
ENDBRANCH  80  83
ENDBRANCH  52  76
BRANCH  64  87
ATOM     87  C   UNL A   1      44.446  28.086  34.406  1.00  0.00     0.023 A 
ATOM     88  C   UNL A   1      45.615  28.828  34.391  1.00  0.00     0.012 A 
ATOM     89  C   UNL A   1      44.365  26.940  35.074  1.00  0.00     0.148 A 
ATOM     90  C   UNL A   1      46.744  28.127  34.878  1.00  0.00     0.002 A 
ATOM     91  C   UNL A   1      45.485  26.381  35.640  1.00  0.00     0.091 A 
ATOM     92  F   UNL A   1      43.190  26.329  35.193  1.00  0.00    -0.205 F 
ATOM     93  C   UNL A   1      46.687  27.032  35.612  1.00  0.00     0.022 A 
BRANCH  91  94
ATOM     94  S   UNL A   1      45.366  24.759  36.436  1.00  0.00     0.127 S 
ATOM     95  O   UNL A   1      44.373  24.834  37.599  1.00  0.00    -0.237 OA
ATOM     96  O   UNL A   1      44.881  23.726  35.417  1.00  0.00    -0.237 OA
ATOM     97  O   UNL A   1      46.903  24.300  37.026  1.00  0.00    -0.744 OA
ENDBRANCH  91  94
ENDBRANCH  64  87
ENDBRANCH  38  39
ENDBRANCH  31  33
ENDBRANCH  30  31
ENDBRANCH  29  30
ENDBRANCH   1  29
TORSDOF 19
ENDMDL
MODEL 2
REMARK VINA RESULT:     -12.7      5.403     10.469
REMARK SMILES O=C(OCCOCCOC(=O)c1ccc(-c2c3nc(c(-c4cccc(S(=O)(=O)[O-])c4F)c4ccc([nH]4)c(-c4cccc(S(=O)(=O)[O-])c4F)c4nc(c(-c5cccc(S(=O)(=O)[O-])c5F)c5ccc2[nH]5)C=C4)C=C3)cc1)C1=Cc2cc(S(F)(F)(F)(F)F)cc(Br)c2O[C@@H]1C(F)(F)F
REMARK SMILES IDX 7 1 6 2 5 3 4 4 3 5 2 6 1 7 75 8 76 9 91 10 77 11 90 12
REMARK SMILES IDX 78 13 89 14 79 15 87 16 86 17 88 18 92 19 93 20 94 21 95 22
REMARK SMILES IDX 80 23 81 24 82 25 83 26 84 27 85 28 8 29 9 30 10 31 11 32
REMARK SMILES IDX 12 33 13 34 74 35 14 36 73 37 15 38 16 39 17 40 67 41 18 42
REMARK SMILES IDX 72 43 66 44 68 45 19 46 71 47 65 48 64 49 20 51 52 52 32 53
REMARK SMILES IDX 51 54 33 55 36 56 50 57 69 58 34 59 35 60 49 62 70 63 37 64
REMARK SMILES IDX 21 65 22 66 30 67 23 68 25 69 31 70 24 71 26 72 27 73 28 74
REMARK SMILES IDX 29 75 53 76 54 77 62 78 55 79 57 80 63 81 56 82 58 83 59 84
REMARK SMILES IDX 60 85 61 86 38 87 39 88 47 89 40 90 42 91 48 92 41 93 43 94
REMARK SMILES IDX 44 95 45 96 46 97
REMARK H PARENT 68 50 36 61
REMARK Flexibility Score: inf
ROOT
ATOM      1  C   UNL A   1      35.819  22.307  24.462  1.00  0.00     0.202 C 
ENDROOT
BRANCH   1   2
ATOM      2  O   UNL A   1      35.123  23.188  25.331  1.00  0.00    -0.374 OA
BRANCH   2   3
ATOM      3  C   UNL A   1      34.878  22.536  26.569  1.00  0.00     0.202 C 
BRANCH   3   4
ATOM      4  C   UNL A   1      33.427  22.743  26.972  1.00  0.00     0.261 C 
BRANCH   4   5
ATOM      5  O   UNL A   1      32.988  24.015  26.521  1.00  0.00    -0.460 OA
BRANCH   5   6
ATOM      6  C   UNL A   1      31.655  24.184  26.061  1.00  0.00     0.338 C 
ATOM      7  O   UNL A   1      30.797  24.764  26.799  1.00  0.00    -0.246 OA
BRANCH   6   8
ATOM      8  C   UNL A   1      31.254  23.672  24.687  1.00  0.00     0.087 C 
ATOM      9  C   UNL A   1      30.838  24.546  23.731  1.00  0.00     0.027 C 
ATOM     10  C   UNL A   1      31.318  22.185  24.382  1.00  0.00     0.316 C 
ATOM     11  C   UNL A   1      30.774  26.033  24.036  1.00  0.00     0.020 A 
ATOM     12  O   UNL A   1      32.769  25.702  25.284  1.00  0.00    -0.474 OA
ATOM     13  C   UNL A   1      29.747  26.832  23.561  1.00  0.00     0.036 A 
ATOM     14  C   UNL A   1      31.816  26.558  24.671  1.00  0.00     0.142 A 
ATOM     15  C   UNL A   1      30.052  28.213  23.550  1.00  0.00     0.109 A 
ATOM     16  C   UNL A   1      31.981  27.919  24.739  1.00  0.00     0.062 A 
ATOM     17  C   UNL A   1      31.033  28.768  24.238  1.00  0.00     0.044 A 
ATOM     18  Br  UNL A   1      33.597  28.657  25.567  1.00  0.00    -0.047 Br
BRANCH  10  19
ATOM     19  C   UNL A   1      32.275  21.946  23.226  1.00  0.00     0.430 C 
ATOM     20  F   UNL A   1      32.988  23.047  23.005  1.00  0.00    -0.167 F 
ATOM     21  F   UNL A   1      33.093  20.941  23.527  1.00  0.00    -0.167 F 
ATOM     22  F   UNL A   1      31.582  21.639  22.133  1.00  0.00    -0.167 F 
ENDBRANCH  10  19
BRANCH  15  23
ATOM     23  S   UNL A   1      29.025  29.293  22.524  1.00  0.00     0.310 S 
ATOM     24  F   UNL A   1      29.346  30.561  23.423  1.00  0.00    -0.094 F 
ATOM     25  F   UNL A   1      27.812  29.004  23.487  1.00  0.00    -0.094 F 
ATOM     26  F   UNL A   1      28.140  30.220  21.643  1.00  0.00    -0.094 F 
ATOM     27  F   UNL A   1      30.284  29.682  21.654  1.00  0.00    -0.094 F 
ATOM     28  F   UNL A   1      29.962  28.447  23.474  1.00  0.00    -0.094 F 
ENDBRANCH  15  23
ENDBRANCH   6   8
ENDBRANCH   5   6
ENDBRANCH   4   5
ENDBRANCH   3   4
ENDBRANCH   2   3
ENDBRANCH   1   2
BRANCH   1  29
ATOM     29  C   UNL A   1      36.425  21.171  25.271  1.00  0.00     0.261 C 
BRANCH  29  30
ATOM     30  O   UNL A   1      37.756  20.938  24.835  1.00  0.00    -0.460 OA
BRANCH  30  31
ATOM     31  C   UNL A   1      38.817  20.901  25.777  1.00  0.00     0.338 C 
ATOM     32  O   UNL A   1      39.336  19.787  26.106  1.00  0.00    -0.246 OA
BRANCH  31  33
ATOM     33  C   UNL A   1      39.333  22.191  26.393  1.00  0.00     0.060 A 
ATOM     34  C   UNL A   1      38.854  23.419  25.966  1.00  0.00     0.016 A 
ATOM     35  C   UNL A   1      40.367  22.105  27.220  1.00  0.00     0.016 A 
ATOM     36  C   UNL A   1      39.722  24.501  26.243  1.00  0.00     0.010 A 
ATOM     37  C   UNL A   1      41.089  23.225  27.556  1.00  0.00     0.010 A 
ATOM     38  C   UNL A   1      40.708  24.464  27.121  1.00  0.00    -0.014 A 
BRANCH  38  39
ATOM     39  C   UNL A   1      41.381  25.731  27.622  1.00  0.00     0.031 A 
ATOM     40  C   UNL A   1      42.710  25.898  27.227  1.00  0.00     0.074 A 
ATOM     41  C   UNL A   1      40.646  26.695  28.289  1.00  0.00     0.049 A 
ATOM     42  N   UNL A   1      43.474  26.981  27.380  1.00  0.00    -0.248 NA
ATOM     43  C   UNL A   1      43.505  24.863  26.550  1.00  0.00     0.031 C 
ATOM     44  C   UNL A   1      39.302  26.538  28.683  1.00  0.00     0.029 A 
ATOM     45  N   UNL A   1      41.057  27.949  28.686  1.00  0.00    -0.354 N 
ATOM     46  C   UNL A   1      44.684  26.769  26.858  1.00  0.00     0.074 A 
ATOM     47  C   UNL A   1      44.722  25.401  26.322  1.00  0.00     0.031 C 
ATOM     48  C   UNL A   1      38.913  27.675  29.318  1.00  0.00     0.029 A 
ATOM     49  C   UNL A   1      40.005  28.562  29.331  1.00  0.00     0.049 A 
ATOM     50  H   UNL A   1      41.948  28.339  28.534  1.00  0.00     0.167 HD
ATOM     51  C   UNL A   1      45.755  27.662  26.805  1.00  0.00     0.034 A 
ATOM     52  C   UNL A   1      39.983  29.822  29.906  1.00  0.00     0.034 A 
ATOM     53  C   UNL A   1      45.718  28.939  27.343  1.00  0.00     0.049 A 
ATOM     54  C   UNL A   1      41.074  30.695  29.906  1.00  0.00     0.074 A 
ATOM     55  C   UNL A   1      46.786  29.855  27.293  1.00  0.00     0.029 A 
ATOM     56  N   UNL A   1      44.675  29.543  28.010  1.00  0.00    -0.354 N 
ATOM     57  N   UNL A   1      42.269  30.497  29.350  1.00  0.00    -0.248 NA
ATOM     58  C   UNL A   1      41.071  32.019  30.542  1.00  0.00     0.031 C 
ATOM     59  C   UNL A   1      46.396  30.992  27.927  1.00  0.00     0.029 A 
ATOM     60  C   UNL A   1      45.079  30.804  28.387  1.00  0.00     0.049 A 
ATOM     61  H   UNL A   1      43.793  29.142  28.187  1.00  0.00     0.167 HD
ATOM     62  C   UNL A   1      43.047  31.565  29.539  1.00  0.00     0.074 A 
ATOM     63  C   UNL A   1      42.289  32.557  30.315  1.00  0.00     0.031 C 
ATOM     64  C   UNL A   1      44.356  31.754  29.093  1.00  0.00     0.034 A 
BRANCH  51  65
ATOM     65  C   UNL A   1      47.035  27.209  26.120  1.00  0.00     0.023 A 
ATOM     66  C   UNL A   1      48.063  26.628  26.844  1.00  0.00     0.012 A 
ATOM     67  C   UNL A   1      47.139  27.407  24.812  1.00  0.00     0.148 A 
ATOM     68  C   UNL A   1      49.287  26.552  26.140  1.00  0.00     0.002 A 
ATOM     69  C   UNL A   1      48.330  27.181  24.164  1.00  0.00     0.091 A 
ATOM     70  F   UNL A   1      46.082  27.827  24.122  1.00  0.00    -0.205 F 
ATOM     71  C   UNL A   1      49.406  26.664  24.829  1.00  0.00     0.022 A 
BRANCH  69  72
ATOM     72  S   UNL A   1      48.475  27.576  22.403  1.00  0.00     0.127 S 
ATOM     73  O   UNL A   1      47.215  28.312  21.940  1.00  0.00    -0.237 OA
ATOM     74  O   UNL A   1      49.698  28.469  22.180  1.00  0.00    -0.237 OA
ATOM     75  O   UNL A   1      48.653  26.131  21.507  1.00  0.00    -0.744 OA
ENDBRANCH  69  72
ENDBRANCH  51  65
BRANCH  52  76
ATOM     76  C   UNL A   1      38.698  30.281  30.577  1.00  0.00     0.023 A 
ATOM     77  C   UNL A   1      38.455  29.860  31.875  1.00  0.00     0.012 A 
ATOM     78  C   UNL A   1      37.841  31.066  29.936  1.00  0.00     0.148 A 
ATOM     79  C   UNL A   1      37.129  30.089  32.313  1.00  0.00     0.002 A 
ATOM     80  C   UNL A   1      36.616  31.360  30.485  1.00  0.00     0.091 A 
ATOM     81  F   UNL A   1      38.171  31.574  28.752  1.00  0.00    -0.205 F 
ATOM     82  C   UNL A   1      36.286  30.928  31.739  1.00  0.00     0.022 A 
BRANCH  80  83
ATOM     83  S   UNL A   1      35.422  32.333  29.534  1.00  0.00     0.127 S 
ATOM     84  O   UNL A   1      35.025  31.562  28.273  1.00  0.00    -0.237 OA
ATOM     85  O   UNL A   1      34.178  32.589  30.388  1.00  0.00    -0.237 OA
ATOM     86  O   UNL A   1      36.127  33.827  29.093  1.00  0.00    -0.744 OA
ENDBRANCH  80  83
ENDBRANCH  52  76
BRANCH  64  87
ATOM     87  C   UNL A   1      45.030  33.081  29.399  1.00  0.00     0.023 A 
ATOM     88  C   UNL A   1      45.716  33.277  30.587  1.00  0.00     0.012 A 
ATOM     89  C   UNL A   1      44.840  34.077  28.541  1.00  0.00     0.148 A 
ATOM     90  C   UNL A   1      45.914  34.640  30.915  1.00  0.00     0.002 A 
ATOM     91  C   UNL A   1      45.183  35.364  28.876  1.00  0.00     0.091 A 
ATOM     92  F   UNL A   1      44.313  33.824  27.346  1.00  0.00    -0.205 F 
ATOM     93  C   UNL A   1      45.810  35.639  30.059  1.00  0.00     0.022 A 
BRANCH  91  94
ATOM     94  S   UNL A   1      44.799  36.715  27.734  1.00  0.00     0.127 S 
ATOM     95  O   UNL A   1      45.150  38.053  28.389  1.00  0.00    -0.237 OA
ATOM     96  O   UNL A   1      45.615  36.546  26.451  1.00  0.00    -0.237 OA
ATOM     97  O   UNL A   1      43.132  36.685  27.356  1.00  0.00    -0.744 OA
ENDBRANCH  91  94
ENDBRANCH  64  87
ENDBRANCH  38  39
ENDBRANCH  31  33
ENDBRANCH  30  31
ENDBRANCH  29  30
ENDBRANCH   1  29
TORSDOF 19
ENDMDL
MODEL 3
REMARK VINA RESULT:     -12.7      5.696     10.774
REMARK SMILES O=C(OCCOCCOC(=O)c1ccc(-c2c3nc(c(-c4cccc(S(=O)(=O)[O-])c4F)c4ccc([nH]4)c(-c4cccc(S(=O)(=O)[O-])c4F)c4nc(c(-c5cccc(S(=O)(=O)[O-])c5F)c5ccc2[nH]5)C=C4)C=C3)cc1)C1=Cc2cc(S(F)(F)(F)(F)F)cc(Br)c2O[C@@H]1C(F)(F)F
REMARK SMILES IDX 7 1 6 2 5 3 4 4 3 5 2 6 1 7 75 8 76 9 91 10 77 11 90 12
REMARK SMILES IDX 78 13 89 14 79 15 87 16 86 17 88 18 92 19 93 20 94 21 95 22
REMARK SMILES IDX 80 23 81 24 82 25 83 26 84 27 85 28 8 29 9 30 10 31 11 32
REMARK SMILES IDX 12 33 13 34 74 35 14 36 73 37 15 38 16 39 17 40 67 41 18 42
REMARK SMILES IDX 72 43 66 44 68 45 19 46 71 47 65 48 64 49 20 51 52 52 32 53
REMARK SMILES IDX 51 54 33 55 36 56 50 57 69 58 34 59 35 60 49 62 70 63 37 64
REMARK SMILES IDX 21 65 22 66 30 67 23 68 25 69 31 70 24 71 26 72 27 73 28 74
REMARK SMILES IDX 29 75 53 76 54 77 62 78 55 79 57 80 63 81 56 82 58 83 59 84
REMARK SMILES IDX 60 85 61 86 38 87 39 88 47 89 40 90 42 91 48 92 41 93 43 94
REMARK SMILES IDX 44 95 45 96 46 97
REMARK H PARENT 68 50 36 61
REMARK Flexibility Score: inf
ROOT
ATOM      1  C   UNL A   1      34.645  21.557  25.257  1.00  0.00     0.202 C 
ENDROOT
BRANCH   1   2
ATOM      2  O   UNL A   1      34.557  22.319  26.452  1.00  0.00    -0.374 OA
BRANCH   2   3
ATOM      3  C   UNL A   1      34.265  23.671  26.130  1.00  0.00     0.202 C 
BRANCH   3   4
ATOM      4  C   UNL A   1      32.831  23.987  26.521  1.00  0.00     0.261 C 
BRANCH   4   5
ATOM      5  O   UNL A   1      32.470  25.261  26.007  1.00  0.00    -0.460 OA
BRANCH   5   6
ATOM      6  C   UNL A   1      31.319  25.394  25.185  1.00  0.00     0.338 C 
ATOM      7  O   UNL A   1      30.194  25.672  25.708  1.00  0.00    -0.246 OA
BRANCH   6   8
ATOM      8  C   UNL A   1      31.432  25.205  23.681  1.00  0.00     0.087 C 
ATOM      9  C   UNL A   1      31.109  26.225  22.842  1.00  0.00     0.027 C 
ATOM     10  C   UNL A   1      31.905  23.876  23.116  1.00  0.00     0.316 C 
ATOM     11  C   UNL A   1      30.636  27.554  23.407  1.00  0.00     0.020 A 
ATOM     12  O   UNL A   1      32.236  27.211  25.129  1.00  0.00    -0.474 OA
ATOM     13  C   UNL A   1      29.626  28.285  22.803  1.00  0.00     0.036 A 
ATOM     14  C   UNL A   1      31.322  28.045  24.433  1.00  0.00     0.142 A 
ATOM     15  C   UNL A   1      29.608  29.651  23.171  1.00  0.00     0.109 A 
ATOM     16  C   UNL A   1      31.155  29.350  24.826  1.00  0.00     0.062 A 
ATOM     17  C   UNL A   1      30.216  30.148  24.233  1.00  0.00     0.044 A 
ATOM     18  Br  UNL A   1      32.278  30.079  26.257  1.00  0.00    -0.047 Br
BRANCH  10  19
ATOM     19  C   UNL A   1      33.169  24.094  22.301  1.00  0.00     0.430 C 
ATOM     20  F   UNL A   1      32.843  24.482  21.071  1.00  0.00    -0.167 F 
ATOM     21  F   UNL A   1      33.913  25.033  22.879  1.00  0.00    -0.167 F 
ATOM     22  F   UNL A   1      33.859  22.959  22.239  1.00  0.00    -0.167 F 
ENDBRANCH  10  19
BRANCH  15  23
ATOM     23  S   UNL A   1      28.686  30.795  22.115  1.00  0.00     0.310 S 
ATOM     24  F   UNL A   1      27.820  29.623  21.489  1.00  0.00    -0.094 F 
ATOM     25  F   UNL A   1      29.738  30.536  20.970  1.00  0.00    -0.094 F 
ATOM     26  F   UNL A   1      27.898  31.781  21.206  1.00  0.00    -0.094 F 
ATOM     27  F   UNL A   1      27.568  30.933  23.221  1.00  0.00    -0.094 F 
ATOM     28  F   UNL A   1      29.413  29.712  23.007  1.00  0.00    -0.094 F 
ENDBRANCH  15  23
ENDBRANCH   6   8
ENDBRANCH   5   6
ENDBRANCH   4   5
ENDBRANCH   3   4
ENDBRANCH   2   3
ENDBRANCH   1   2
BRANCH   1  29
ATOM     29  C   UNL A   1      36.107  21.380  24.876  1.00  0.00     0.261 C 
BRANCH  29  30
ATOM     30  O   UNL A   1      36.909  21.426  26.047  1.00  0.00    -0.460 OA
BRANCH  30  31
ATOM     31  C   UNL A   1      38.315  21.592  25.939  1.00  0.00     0.338 C 
ATOM     32  O   UNL A   1      39.018  20.702  25.364  1.00  0.00    -0.246 OA
BRANCH  31  33
ATOM     33  C   UNL A   1      38.979  22.833  26.513  1.00  0.00     0.060 A 
ATOM     34  C   UNL A   1      38.592  24.097  26.101  1.00  0.00     0.016 A 
ATOM     35  C   UNL A   1      40.046  22.656  27.283  1.00  0.00     0.016 A 
ATOM     36  C   UNL A   1      39.569  25.096  26.319  1.00  0.00     0.010 A 
ATOM     37  C   UNL A   1      40.885  23.706  27.568  1.00  0.00     0.010 A 
ATOM     38  C   UNL A   1      40.595  24.973  27.142  1.00  0.00    -0.014 A 
BRANCH  38  39
ATOM     39  C   UNL A   1      41.408  26.175  27.593  1.00  0.00     0.031 A 
ATOM     40  C   UNL A   1      42.722  26.218  27.124  1.00  0.00     0.074 A 
ATOM     41  C   UNL A   1      40.802  27.206  28.290  1.00  0.00     0.049 A 
ATOM     42  N   UNL A   1      43.589  27.227  27.224  1.00  0.00    -0.248 NA
ATOM     43  C   UNL A   1      43.380  25.111  26.413  1.00  0.00     0.031 C 
ATOM     44  C   UNL A   1      39.473  27.174  28.760  1.00  0.00     0.029 A 
ATOM     45  N   UNL A   1      41.347  28.418  28.652  1.00  0.00    -0.354 N 
ATOM     46  C   UNL A   1      44.744  26.903  26.637  1.00  0.00     0.074 A 
ATOM     47  C   UNL A   1      44.627  25.535  26.113  1.00  0.00     0.031 C 
ATOM     48  C   UNL A   1      39.226  28.345  29.404  1.00  0.00     0.029 A 
ATOM     49  C   UNL A   1      40.394  29.128  29.349  1.00  0.00     0.049 A 
ATOM     50  H   UNL A   1      42.260  28.724  28.448  1.00  0.00     0.167 HD
ATOM     51  C   UNL A   1      45.887  27.694  26.517  1.00  0.00     0.034 A 
ATOM     52  C   UNL A   1      40.518  30.388  29.912  1.00  0.00     0.034 A 
ATOM     53  C   UNL A   1      45.996  28.971  27.044  1.00  0.00     0.049 A 
ATOM     54  C   UNL A   1      41.683  31.157  29.843  1.00  0.00     0.074 A 
ATOM     55  C   UNL A   1      47.139  29.785  26.926  1.00  0.00     0.029 A 
ATOM     56  N   UNL A   1      45.052  29.671  27.762  1.00  0.00    -0.354 N 
ATOM     57  N   UNL A   1      42.822  30.847  29.223  1.00  0.00    -0.248 NA
ATOM     58  C   UNL A   1      41.836  32.478  30.465  1.00  0.00     0.031 C 
ATOM     59  C   UNL A   1      46.891  30.956  27.570  1.00  0.00     0.029 A 
ATOM     60  C   UNL A   1      45.590  30.892  28.104  1.00  0.00     0.049 A 
ATOM     61  H   UNL A   1      44.149  29.353  27.991  1.00  0.00     0.167 HD
ATOM     62  C   UNL A   1      43.704  31.841  29.359  1.00  0.00     0.074 A 
ATOM     63  C   UNL A   1      43.084  32.901  30.167  1.00  0.00     0.031 C 
ATOM     64  C   UNL A   1      44.997  31.907  28.840  1.00  0.00     0.034 A 
BRANCH  51  65
ATOM     65  C   UNL A   1      47.079  27.123  25.767  1.00  0.00     0.023 A 
ATOM     66  C   UNL A   1      48.021  26.340  26.415  1.00  0.00     0.012 A 
ATOM     67  C   UNL A   1      47.197  27.416  24.478  1.00  0.00     0.148 A 
ATOM     68  C   UNL A   1      49.213  26.149  25.678  1.00  0.00     0.002 A 
ATOM     69  C   UNL A   1      48.336  27.078  23.785  1.00  0.00     0.091 A 
ATOM     70  F   UNL A   1      46.205  28.041  23.850  1.00  0.00    -0.205 F 
ATOM     71  C   UNL A   1      49.332  26.356  24.379  1.00  0.00     0.022 A 
BRANCH  69  72
ATOM     72  S   UNL A   1      48.517  27.599  22.061  1.00  0.00     0.127 S 
ATOM     73  O   UNL A   1      48.574  26.364  21.158  1.00  0.00    -0.237 OA
ATOM     74  O   UNL A   1      47.320  28.466  21.662  1.00  0.00    -0.237 OA
ATOM     75  O   UNL A   1      49.959  28.500  21.885  1.00  0.00    -0.744 OA
ENDBRANCH  69  72
ENDBRANCH  51  65
BRANCH  52  76
ATOM     76  C   UNL A   1      39.320  30.965  30.649  1.00  0.00     0.023 A 
ATOM     77  C   UNL A   1      38.318  31.557  29.897  1.00  0.00     0.012 A 
ATOM     78  C   UNL A   1      39.239  30.895  31.972  1.00  0.00     0.148 A 
ATOM     79  C   UNL A   1      37.397  32.310  30.663  1.00  0.00     0.002 A 
ATOM     80  C   UNL A   1      38.233  31.543  32.647  1.00  0.00     0.091 A 
ATOM     81  F   UNL A   1      40.141  30.191  32.651  1.00  0.00    -0.205 F 
ATOM     82  C   UNL A   1      37.241  32.198  31.970  1.00  0.00     0.022 A 
BRANCH  80  83
ATOM     83  S   UNL A   1      38.219  31.530  34.456  1.00  0.00     0.127 S 
ATOM     84  O   UNL A   1      36.957  32.232  34.962  1.00  0.00    -0.237 OA
ATOM     85  O   UNL A   1      38.233  30.084  34.956  1.00  0.00    -0.237 OA
ATOM     86  O   UNL A   1      39.601  32.348  35.043  1.00  0.00    -0.744 OA
ENDBRANCH  80  83
ENDBRANCH  52  76
BRANCH  64  87
ATOM     87  C   UNL A   1      45.806  33.168  29.095  1.00  0.00     0.023 A 
ATOM     88  C   UNL A   1      46.551  33.317  30.253  1.00  0.00     0.012 A 
ATOM     89  C   UNL A   1      45.679  34.164  28.225  1.00  0.00     0.148 A 
ATOM     90  C   UNL A   1      46.891  34.659  30.547  1.00  0.00     0.002 A 
ATOM     91  C   UNL A   1      46.155  35.418  28.523  1.00  0.00     0.091 A 
ATOM     92  F   UNL A   1      45.084  33.944  27.056  1.00  0.00    -0.205 F 
ATOM     93  C   UNL A   1      46.850  35.650  29.677  1.00  0.00     0.022 A 
BRANCH  91  94
ATOM     94  S   UNL A   1      45.858  36.781  27.369  1.00  0.00     0.127 S 
ATOM     95  O   UNL A   1      46.376  38.086  27.978  1.00  0.00    -0.237 OA
ATOM     96  O   UNL A   1      46.590  36.505  26.054  1.00  0.00    -0.237 OA
ATOM     97  O   UNL A   1      44.181  36.917  27.069  1.00  0.00    -0.744 OA
ENDBRANCH  91  94
ENDBRANCH  64  87
ENDBRANCH  38  39
ENDBRANCH  31  33
ENDBRANCH  30  31
ENDBRANCH  29  30
ENDBRANCH   1  29
TORSDOF 19
ENDMDL
