MODEL 1
REMARK VINA RESULT:     -11.2      0.000      0.000
REMARK SMILES Cc1nc2cc(SCC(=O)OCCOCCOC(=O)c3ccc(-c4c5nc(c(-c6cccc(S(=O)(=O)[O-])c6F)c6ccc([nH]6)c(-c6cccc(S(=O)(=O)[O-])c6F)c6nc(c(-c7cccc(S(=O)(=O)[O-])c7F)c7ccc4[nH]7)C=C6)C=C5)cc3)ccc2s1
REMARK SMILES IDX 15 1 14 2 13 3 12 4 11 5 9 6 10 7 8 8 7 9 6 10 1 11 2 12
REMARK SMILES IDX 3 13 86 14 4 15 85 16 5 17 84 18 83 19 16 20 17 21 18 22
REMARK SMILES IDX 19 23 20 24 21 25 82 26 22 27 81 28 23 29 24 30 25 31 75 32
REMARK SMILES IDX 26 33 80 34 74 35 76 36 27 37 79 38 73 39 72 40 28 42 60 43
REMARK SMILES IDX 40 44 59 45 41 46 44 47 58 48 77 49 42 50 43 51 57 53 78 54
REMARK SMILES IDX 45 55 29 56 30 57 38 58 31 59 33 60 39 61 32 62 34 63 35 64
REMARK SMILES IDX 36 65 37 66 61 67 62 68 70 69 63 70 65 71 71 72 64 73 66 74
REMARK SMILES IDX 67 75 68 76 69 77 46 78 47 79 55 80 48 81 50 82 56 83 49 84
REMARK SMILES IDX 51 85 52 86 53 87 54 88
REMARK H PARENT 76 41 44 52
REMARK Flexibility Score: inf
ROOT
ATOM      1  C   UNL A   1      31.275  29.717  25.396  1.00  0.00     0.202 C 
ENDROOT
BRANCH   1   2
ATOM      2  O   UNL A   1      30.514  29.844  24.197  1.00  0.00    -0.374 OA
BRANCH   2   3
ATOM      3  C   UNL A   1      30.518  28.729  23.304  1.00  0.00     0.202 C 
BRANCH   3   4
ATOM      4  C   UNL A   1      31.889  28.192  22.875  1.00  0.00     0.261 C 
BRANCH   4   5
ATOM      5  O   UNL A   1      31.917  26.765  22.668  1.00  0.00    -0.463 OA
BRANCH   5   6
ATOM      6  C   UNL A   1      33.141  26.172  22.704  1.00  0.00     0.316 C 
ATOM      7  O   UNL A   1      33.942  26.181  21.773  1.00  0.00    -0.251 OA
BRANCH   6   8
ATOM      8  C   UNL A   1      33.447  25.413  23.978  1.00  0.00     0.197 C 
BRANCH   8   9
ATOM      9  S   UNL A   1      32.065  24.537  24.766  1.00  0.00    -0.114 SA
BRANCH   9  10
ATOM     10  C   UNL A   1      32.060  22.877  24.093  1.00  0.00     0.010 A 
ATOM     11  C   UNL A   1      32.994  16.997  25.390  1.00  0.00     0.079 C 
ATOM     12  C   UNL A   1      32.672  18.324  24.795  1.00  0.00     0.091 A 
ATOM     13  N   UNL A   1      32.515  19.424  25.495  1.00  0.00    -0.241 NA
ATOM     14  S   UNL A   1      32.510  18.501  23.094  1.00  0.00    -0.119 S 
ATOM     15  C   UNL A   1      32.315  20.502  24.651  1.00  0.00     0.083 A 
ATOM     16  C   UNL A   1      32.264  20.194  23.292  1.00  0.00     0.055 A 
ATOM     17  C   UNL A   1      32.194  21.850  25.045  1.00  0.00     0.045 A 
ATOM     18  C   UNL A   1      32.066  21.191  22.322  1.00  0.00     0.022 A 
ATOM     19  C   UNL A   1      31.969  22.529  22.744  1.00  0.00     0.016 A 
ENDBRANCH   9  10
ENDBRANCH   8   9
ENDBRANCH   6   8
ENDBRANCH   5   6
ENDBRANCH   4   5
ENDBRANCH   3   4
ENDBRANCH   2   3
ENDBRANCH   1   2
BRANCH   1  20
ATOM     20  C   UNL A   1      31.706  31.019  26.074  1.00  0.00     0.261 C 
BRANCH  20  21
ATOM     21  O   UNL A   1      32.615  30.798  27.159  1.00  0.00    -0.460 OA
BRANCH  21  22
ATOM     22  C   UNL A   1      33.355  31.881  27.479  1.00  0.00     0.338 C 
ATOM     23  O   UNL A   1      32.957  33.027  27.650  1.00  0.00    -0.246 OA
BRANCH  22  24
ATOM     24  C   UNL A   1      34.734  31.483  27.786  1.00  0.00     0.060 A 
ATOM     25  C   UNL A   1      34.974  30.117  27.968  1.00  0.00     0.016 A 
ATOM     26  C   UNL A   1      35.741  32.426  28.003  1.00  0.00     0.016 A 
ATOM     27  C   UNL A   1      36.207  29.692  28.446  1.00  0.00     0.010 A 
ATOM     28  C   UNL A   1      36.982  31.995  28.485  1.00  0.00     0.010 A 
ATOM     29  C   UNL A   1      37.200  30.633  28.754  1.00  0.00    -0.014 A 
BRANCH  29  30
ATOM     30  C   UNL A   1      38.398  30.177  29.494  1.00  0.00     0.031 A 
ATOM     31  C   UNL A   1      38.622  30.669  30.898  1.00  0.00     0.074 A 
ATOM     32  C   UNL A   1      39.237  29.286  28.939  1.00  0.00     0.049 A 
ATOM     33  N   UNL A   1      39.534  30.311  31.763  1.00  0.00    -0.248 NA
ATOM     34  C   UNL A   1      37.694  31.699  31.395  1.00  0.00     0.031 C 
ATOM     35  C   UNL A   1      39.121  28.755  27.580  1.00  0.00     0.029 A 
ATOM     36  N   UNL A   1      40.354  28.674  29.447  1.00  0.00    -0.354 N 
ATOM     37  C   UNL A   1      39.299  31.076  32.900  1.00  0.00     0.074 A 
ATOM     38  C   UNL A   1      38.173  31.935  32.608  1.00  0.00     0.031 C 
ATOM     39  C   UNL A   1      40.137  27.903  27.358  1.00  0.00     0.029 A 
ATOM     40  C   UNL A   1      40.972  27.832  28.555  1.00  0.00     0.049 A 
ATOM     41  H   UNL A   1      40.680  28.823  30.364  1.00  0.00     0.167 HD
ATOM     42  C   UNL A   1      39.947  31.046  34.088  1.00  0.00     0.034 A 
ATOM     43  C   UNL A   1      42.087  27.087  28.693  1.00  0.00     0.034 A 
ATOM     44  C   UNL A   1      41.055  30.175  34.374  1.00  0.00     0.049 A 
ATOM     45  C   UNL A   1      42.788  27.070  30.026  1.00  0.00     0.074 A 
ATOM     46  C   UNL A   1      41.752  30.028  35.560  1.00  0.00     0.029 A 
ATOM     47  N   UNL A   1      41.633  29.309  33.459  1.00  0.00    -0.354 N 
ATOM     48  N   UNL A   1      42.465  27.689  31.138  1.00  0.00    -0.248 NA
ATOM     49  C   UNL A   1      43.982  26.220  30.139  1.00  0.00     0.031 C 
ATOM     50  C   UNL A   1      42.766  29.086  35.354  1.00  0.00     0.029 A 
ATOM     51  C   UNL A   1      42.689  28.633  34.046  1.00  0.00     0.049 A 
ATOM     52  H   UNL A   1      41.338  29.193  32.528  1.00  0.00     0.167 HD
ATOM     53  C   UNL A   1      43.398  27.285  32.086  1.00  0.00     0.074 A 
ATOM     54  C   UNL A   1      44.282  26.346  31.424  1.00  0.00     0.031 C 
ATOM     55  C   UNL A   1      43.527  27.669  33.381  1.00  0.00     0.034 A 
BRANCH  42  56
ATOM     56  C   UNL A   1      39.448  31.957  35.177  1.00  0.00     0.023 A 
ATOM     57  C   UNL A   1      38.494  31.477  36.099  1.00  0.00     0.012 A 
ATOM     58  C   UNL A   1      39.945  33.267  35.318  1.00  0.00     0.148 A 
ATOM     59  C   UNL A   1      38.022  32.295  37.125  1.00  0.00     0.002 A 
ATOM     60  C   UNL A   1      39.498  34.064  36.367  1.00  0.00     0.091 A 
ATOM     61  F   UNL A   1      40.832  33.715  34.418  1.00  0.00    -0.205 F 
ATOM     62  C   UNL A   1      38.530  33.583  37.264  1.00  0.00     0.022 A 
BRANCH  60  63
ATOM     63  S   UNL A   1      40.139  35.715  36.670  1.00  0.00     0.127 S 
ATOM     64  O   UNL A   1      41.581  35.474  36.679  1.00  0.00    -0.237 OA
ATOM     65  O   UNL A   1      39.653  36.454  35.504  1.00  0.00    -0.237 OA
ATOM     66  O   UNL A   1      39.566  36.141  37.939  1.00  0.00    -0.744 OA
ENDBRANCH  60  63
ENDBRANCH  42  56
BRANCH  43  67
ATOM     67  C   UNL A   1      42.566  26.251  27.557  1.00  0.00     0.023 A 
ATOM     68  C   UNL A   1      43.487  26.787  26.638  1.00  0.00     0.012 A 
ATOM     69  C   UNL A   1      42.142  24.916  27.405  1.00  0.00     0.148 A 
ATOM     70  C   UNL A   1      43.961  26.017  25.573  1.00  0.00     0.002 A 
ATOM     71  C   UNL A   1      42.659  24.138  26.376  1.00  0.00     0.091 A 
ATOM     72  F   UNL A   1      41.249  24.429  28.278  1.00  0.00    -0.205 F 
ATOM     73  C   UNL A   1      43.556  24.690  25.450  1.00  0.00     0.022 A 
BRANCH  71  74
ATOM     74  S   UNL A   1      42.294  22.385  26.226  1.00  0.00     0.127 S 
ATOM     75  O   UNL A   1      42.816  21.861  27.485  1.00  0.00    -0.237 OA
ATOM     76  O   UNL A   1      40.834  22.386  26.117  1.00  0.00    -0.237 OA
ATOM     77  O   UNL A   1      42.981  21.946  25.019  1.00  0.00    -0.744 OA
ENDBRANCH  71  74
ENDBRANCH  43  67
BRANCH  55  78
ATOM     78  C   UNL A   1      44.659  27.068  34.172  1.00  0.00     0.023 A 
ATOM     79  C   UNL A   1      45.896  27.739  34.230  1.00  0.00     0.012 A 
ATOM     80  C   UNL A   1      44.478  25.883  34.911  1.00  0.00     0.148 A 
ATOM     81  C   UNL A   1      46.948  27.223  34.986  1.00  0.00     0.002 A 
ATOM     82  C   UNL A   1      45.515  25.399  35.699  1.00  0.00     0.091 A 
ATOM     83  F   UNL A   1      43.299  25.248  34.826  1.00  0.00    -0.205 F 
ATOM     84  C   UNL A   1      46.753  26.060  35.730  1.00  0.00     0.022 A 
BRANCH  82  85
ATOM     85  S   UNL A   1      45.318  23.961  36.758  1.00  0.00     0.127 S 
ATOM     86  O   UNL A   1      44.481  24.493  37.832  1.00  0.00    -0.237 OA
ATOM     87  O   UNL A   1      44.644  23.009  35.873  1.00  0.00    -0.237 OA
ATOM     88  O   UNL A   1      46.666  23.568  37.146  1.00  0.00    -0.744 OA
ENDBRANCH  82  85
ENDBRANCH  55  78
ENDBRANCH  29  30
ENDBRANCH  22  24
ENDBRANCH  21  22
ENDBRANCH  20  21
ENDBRANCH   1  20
TORSDOF 19
ENDMDL
MODEL 2
REMARK VINA RESULT:     -11.1      2.307      3.576
REMARK SMILES Cc1nc2cc(SCC(=O)OCCOCCOC(=O)c3ccc(-c4c5nc(c(-c6cccc(S(=O)(=O)[O-])c6F)c6ccc([nH]6)c(-c6cccc(S(=O)(=O)[O-])c6F)c6nc(c(-c7cccc(S(=O)(=O)[O-])c7F)c7ccc4[nH]7)C=C6)C=C5)cc3)ccc2s1
REMARK SMILES IDX 15 1 14 2 13 3 12 4 11 5 9 6 10 7 8 8 7 9 6 10 1 11 2 12
REMARK SMILES IDX 3 13 86 14 4 15 85 16 5 17 84 18 83 19 16 20 17 21 18 22
REMARK SMILES IDX 19 23 20 24 21 25 82 26 22 27 81 28 23 29 24 30 25 31 75 32
REMARK SMILES IDX 26 33 80 34 74 35 76 36 27 37 79 38 73 39 72 40 28 42 60 43
REMARK SMILES IDX 40 44 59 45 41 46 44 47 58 48 77 49 42 50 43 51 57 53 78 54
REMARK SMILES IDX 45 55 29 56 30 57 38 58 31 59 33 60 39 61 32 62 34 63 35 64
REMARK SMILES IDX 36 65 37 66 61 67 62 68 70 69 63 70 65 71 71 72 64 73 66 74
REMARK SMILES IDX 67 75 68 76 69 77 46 78 47 79 55 80 48 81 50 82 56 83 49 84
REMARK SMILES IDX 51 85 52 86 53 87 54 88
REMARK H PARENT 76 41 44 52
REMARK Flexibility Score: inf
ROOT
ATOM      1  C   UNL A   1      31.494  30.321  25.868  1.00  0.00     0.202 C 
ENDROOT
BRANCH   1   2
ATOM      2  O   UNL A   1      32.371  29.310  26.358  1.00  0.00    -0.374 OA
BRANCH   2   3
ATOM      3  C   UNL A   1      31.798  28.303  27.194  1.00  0.00     0.202 C 
BRANCH   3   4
ATOM      4  C   UNL A   1      32.291  26.865  26.984  1.00  0.00     0.261 C 
BRANCH   4   5
ATOM      5  O   UNL A   1      31.235  25.919  26.723  1.00  0.00    -0.463 OA
BRANCH   5   6
ATOM      6  C   UNL A   1      31.582  24.797  26.037  1.00  0.00     0.316 C 
ATOM      7  O   UNL A   1      31.127  23.679  26.264  1.00  0.00    -0.251 OA
BRANCH   6   8
ATOM      8  C   UNL A   1      32.649  24.996  24.982  1.00  0.00     0.197 C 
BRANCH   8   9
ATOM      9  S   UNL A   1      32.094  25.058  23.253  1.00  0.00    -0.114 SA
BRANCH   9  10
ATOM     10  C   UNL A   1      30.679  26.154  23.207  1.00  0.00     0.010 A 
ATOM     11  C   UNL A   1      28.775  31.732  21.662  1.00  0.00     0.079 C 
ATOM     12  C   UNL A   1      28.936  30.317  22.099  1.00  0.00     0.091 A 
ATOM     13  N   UNL A   1      30.005  29.593  21.859  1.00  0.00    -0.241 NA
ATOM     14  S   UNL A   1      27.700  29.535  22.999  1.00  0.00    -0.119 S 
ATOM     15  C   UNL A   1      29.889  28.356  22.468  1.00  0.00     0.083 A 
ATOM     16  C   UNL A   1      28.685  28.129  23.132  1.00  0.00     0.055 A 
ATOM     17  C   UNL A   1      30.878  27.352  22.497  1.00  0.00     0.045 A 
ATOM     18  C   UNL A   1      28.432  26.916  23.796  1.00  0.00     0.022 A 
ATOM     19  C   UNL A   1      29.445  25.941  23.824  1.00  0.00     0.016 A 
ENDBRANCH   9  10
ENDBRANCH   8   9
ENDBRANCH   6   8
ENDBRANCH   5   6
ENDBRANCH   4   5
ENDBRANCH   3   4
ENDBRANCH   2   3
ENDBRANCH   1   2
BRANCH   1  20
ATOM     20  C   UNL A   1      31.653  31.717  26.474  1.00  0.00     0.261 C 
BRANCH  20  21
ATOM     21  O   UNL A   1      32.464  31.713  27.655  1.00  0.00    -0.460 OA
BRANCH  21  22
ATOM     22  C   UNL A   1      33.347  32.733  27.713  1.00  0.00     0.338 C 
ATOM     23  O   UNL A   1      33.097  33.933  27.698  1.00  0.00    -0.246 OA
BRANCH  22  24
ATOM     24  C   UNL A   1      34.696  32.224  27.985  1.00  0.00     0.060 A 
ATOM     25  C   UNL A   1      34.815  30.857  28.257  1.00  0.00     0.016 A 
ATOM     26  C   UNL A   1      35.798  33.077  28.084  1.00  0.00     0.016 A 
ATOM     27  C   UNL A   1      36.027  30.348  28.708  1.00  0.00     0.010 A 
ATOM     28  C   UNL A   1      37.016  32.561  28.538  1.00  0.00     0.010 A 
ATOM     29  C   UNL A   1      37.118  31.206  28.899  1.00  0.00    -0.014 A 
BRANCH  29  30
ATOM     30  C   UNL A   1      38.306  30.687  29.614  1.00  0.00     0.031 A 
ATOM     31  C   UNL A   1      38.547  31.114  31.037  1.00  0.00     0.074 A 
ATOM     32  C   UNL A   1      39.120  29.799  29.018  1.00  0.00     0.049 A 
ATOM     33  N   UNL A   1      39.451  30.696  31.882  1.00  0.00    -0.248 NA
ATOM     34  C   UNL A   1      37.648  32.146  31.580  1.00  0.00     0.031 C 
ATOM     35  C   UNL A   1      38.986  29.329  27.639  1.00  0.00     0.029 A 
ATOM     36  N   UNL A   1      40.220  29.136  29.496  1.00  0.00    -0.354 N 
ATOM     37  C   UNL A   1      39.240  31.418  33.051  1.00  0.00     0.074 A 
ATOM     38  C   UNL A   1      38.136  32.318  32.800  1.00  0.00     0.031 C 
ATOM     39  C   UNL A   1      39.978  28.460  27.378  1.00  0.00     0.029 A 
ATOM     40  C   UNL A   1      40.814  28.317  28.567  1.00  0.00     0.049 A 
ATOM     41  H   UNL A   1      40.554  29.238  30.417  1.00  0.00     0.167 HD
ATOM     42  C   UNL A   1      39.890  31.321  34.235  1.00  0.00     0.034 A 
ATOM     43  C   UNL A   1      41.908  27.537  28.670  1.00  0.00     0.034 A 
ATOM     44  C   UNL A   1      40.974  30.409  34.480  1.00  0.00     0.049 A 
ATOM     45  C   UNL A   1      42.613  27.445  29.998  1.00  0.00     0.074 A 
ATOM     46  C   UNL A   1      41.671  30.194  35.656  1.00  0.00     0.029 A 
ATOM     47  N   UNL A   1      41.527  29.567  33.527  1.00  0.00    -0.354 N 
ATOM     48  N   UNL A   1      42.309  28.025  31.136  1.00  0.00    -0.248 NA
ATOM     49  C   UNL A   1      43.783  26.560  30.071  1.00  0.00     0.031 C 
ATOM     50  C   UNL A   1      42.658  29.234  35.407  1.00  0.00     0.029 A 
ATOM     51  C   UNL A   1      42.566  28.839  34.081  1.00  0.00     0.049 A 
ATOM     52  H   UNL A   1      41.226  29.498  32.592  1.00  0.00     0.167 HD
ATOM     53  C   UNL A   1      43.233  27.556  32.063  1.00  0.00     0.074 A 
ATOM     54  C   UNL A   1      44.090  26.623  31.359  1.00  0.00     0.031 C 
ATOM     55  C   UNL A   1      43.376  27.882  33.372  1.00  0.00     0.034 A 
BRANCH  42  56
ATOM     56  C   UNL A   1      39.418  32.198  35.363  1.00  0.00     0.023 A 
ATOM     57  C   UNL A   1      38.476  31.695  36.285  1.00  0.00     0.012 A 
ATOM     58  C   UNL A   1      39.930  33.498  35.540  1.00  0.00     0.148 A 
ATOM     59  C   UNL A   1      38.029  32.481  37.347  1.00  0.00     0.002 A 
ATOM     60  C   UNL A   1      39.508  34.262  36.623  1.00  0.00     0.091 A 
ATOM     61  F   UNL A   1      40.804  33.969  34.640  1.00  0.00    -0.205 F 
ATOM     62  C   UNL A   1      38.552  33.759  37.520  1.00  0.00     0.022 A 
BRANCH  60  63
ATOM     63  S   UNL A   1      40.169  35.896  36.970  1.00  0.00     0.127 S 
ATOM     64  O   UNL A   1      39.524  36.211  38.244  1.00  0.00    -0.237 OA
ATOM     65  O   UNL A   1      41.606  35.634  37.063  1.00  0.00    -0.237 OA
ATOM     66  O   UNL A   1      39.778  36.734  35.845  1.00  0.00    -0.744 OA
ENDBRANCH  60  63
ENDBRANCH  42  56
BRANCH  43  67
ATOM     67  C   UNL A   1      42.362  26.737  27.498  1.00  0.00     0.023 A 
ATOM     68  C   UNL A   1      43.177  27.337  26.519  1.00  0.00     0.012 A 
ATOM     69  C   UNL A   1      42.022  25.376  27.369  1.00  0.00     0.148 A 
ATOM     70  C   UNL A   1      43.625  26.603  25.419  1.00  0.00     0.002 A 
ATOM     71  C   UNL A   1      42.517  24.637  26.301  1.00  0.00     0.091 A 
ATOM     72  F   UNL A   1      41.229  24.828  28.300  1.00  0.00    -0.205 F 
ATOM     73  C   UNL A   1      43.305  25.251  25.316  1.00  0.00     0.022 A 
BRANCH  71  74
ATOM     74  S   UNL A   1      42.265  22.863  26.168  1.00  0.00     0.127 S 
ATOM     75  O   UNL A   1      42.975  22.369  27.343  1.00  0.00    -0.237 OA
ATOM     76  O   UNL A   1      40.806  22.756  26.239  1.00  0.00    -0.237 OA
ATOM     77  O   UNL A   1      42.827  22.485  24.877  1.00  0.00    -0.744 OA
ENDBRANCH  71  74
ENDBRANCH  43  67
BRANCH  55  78
ATOM     78  C   UNL A   1      44.493  27.219  34.133  1.00  0.00     0.023 A 
ATOM     79  C   UNL A   1      45.770  27.816  34.152  1.00  0.00     0.012 A 
ATOM     80  C   UNL A   1      44.265  26.049  34.884  1.00  0.00     0.148 A 
ATOM     81  C   UNL A   1      46.810  27.241  34.880  1.00  0.00     0.002 A 
ATOM     82  C   UNL A   1      45.295  25.507  35.643  1.00  0.00     0.091 A 
ATOM     83  F   UNL A   1      43.049  25.484  34.836  1.00  0.00    -0.205 F 
ATOM     84  C   UNL A   1      46.570  26.094  35.635  1.00  0.00     0.022 A 
BRANCH  82  85
ATOM     85  S   UNL A   1      45.045  24.087  36.715  1.00  0.00     0.127 S 
ATOM     86  O   UNL A   1      44.195  24.649  37.763  1.00  0.00    -0.237 OA
ATOM     87  O   UNL A   1      44.372  23.137  35.827  1.00  0.00    -0.237 OA
ATOM     88  O   UNL A   1      46.376  23.671  37.138  1.00  0.00    -0.744 OA
ENDBRANCH  82  85
ENDBRANCH  55  78
ENDBRANCH  29  30
ENDBRANCH  22  24
ENDBRANCH  21  22
ENDBRANCH  20  21
ENDBRANCH   1  20
TORSDOF 19
ENDMDL
MODEL 3
REMARK VINA RESULT:     -10.9      1.624      2.407
REMARK SMILES Cc1nc2cc(SCC(=O)OCCOCCOC(=O)c3ccc(-c4c5nc(c(-c6cccc(S(=O)(=O)[O-])c6F)c6ccc([nH]6)c(-c6cccc(S(=O)(=O)[O-])c6F)c6nc(c(-c7cccc(S(=O)(=O)[O-])c7F)c7ccc4[nH]7)C=C6)C=C5)cc3)ccc2s1
REMARK SMILES IDX 15 1 14 2 13 3 12 4 11 5 9 6 10 7 8 8 7 9 6 10 1 11 2 12
REMARK SMILES IDX 3 13 86 14 4 15 85 16 5 17 84 18 83 19 16 20 17 21 18 22
REMARK SMILES IDX 19 23 20 24 21 25 82 26 22 27 81 28 23 29 24 30 25 31 75 32
REMARK SMILES IDX 26 33 80 34 74 35 76 36 27 37 79 38 73 39 72 40 28 42 60 43
REMARK SMILES IDX 40 44 59 45 41 46 44 47 58 48 77 49 42 50 43 51 57 53 78 54
REMARK SMILES IDX 45 55 29 56 30 57 38 58 31 59 33 60 39 61 32 62 34 63 35 64
REMARK SMILES IDX 36 65 37 66 61 67 62 68 70 69 63 70 65 71 71 72 64 73 66 74
REMARK SMILES IDX 67 75 68 76 69 77 46 78 47 79 55 80 48 81 50 82 56 83 49 84
REMARK SMILES IDX 51 85 52 86 53 87 54 88
REMARK H PARENT 76 41 44 52
REMARK Flexibility Score: inf
ROOT
ATOM      1  C   UNL A   1      31.595  30.005  25.319  1.00  0.00     0.202 C 
ENDROOT
BRANCH   1   2
ATOM      2  O   UNL A   1      32.670  29.069  25.341  1.00  0.00    -0.374 OA
BRANCH   2   3
ATOM      3  C   UNL A   1      32.477  27.876  26.103  1.00  0.00     0.202 C 
BRANCH   3   4
ATOM      4  C   UNL A   1      32.238  26.582  25.315  1.00  0.00     0.261 C 
BRANCH   4   5
ATOM      5  O   UNL A   1      32.343  25.386  26.113  1.00  0.00    -0.463 OA
BRANCH   5   6
ATOM      6  C   UNL A   1      31.198  24.672  26.288  1.00  0.00     0.316 C 
ATOM      7  O   UNL A   1      30.100  25.172  26.524  1.00  0.00    -0.251 OA
BRANCH   6   8
ATOM      8  C   UNL A   1      31.366  23.169  26.238  1.00  0.00     0.197 C 
BRANCH   8   9
ATOM      9  S   UNL A   1      32.039  22.467  24.704  1.00  0.00    -0.114 SA
BRANCH   9  10
ATOM     10  C   UNL A   1      33.756  22.074  25.028  1.00  0.00     0.010 A 
ATOM     11  C   UNL A   1      39.205  24.423  26.413  1.00  0.00     0.079 C 
ATOM     12  C   UNL A   1      38.019  23.573  26.110  1.00  0.00     0.091 A 
ATOM     13  N   UNL A   1      36.781  24.012  26.116  1.00  0.00    -0.241 NA
ATOM     14  S   UNL A   1      38.215  21.918  25.694  1.00  0.00    -0.119 S 
ATOM     15  C   UNL A   1      35.918  23.011  25.708  1.00  0.00     0.083 A 
ATOM     16  C   UNL A   1      36.516  21.779  25.445  1.00  0.00     0.055 A 
ATOM     17  C   UNL A   1      34.529  23.145  25.512  1.00  0.00     0.045 A 
ATOM     18  C   UNL A   1      35.759  20.673  25.022  1.00  0.00     0.022 A 
ATOM     19  C   UNL A   1      34.378  20.843  24.817  1.00  0.00     0.016 A 
ENDBRANCH   9  10
ENDBRANCH   8   9
ENDBRANCH   6   8
ENDBRANCH   5   6
ENDBRANCH   4   5
ENDBRANCH   3   4
ENDBRANCH   2   3
ENDBRANCH   1   2
BRANCH   1  20
ATOM     20  C   UNL A   1      31.629  31.109  26.378  1.00  0.00     0.261 C 
BRANCH  20  21
ATOM     21  O   UNL A   1      32.677  30.919  27.336  1.00  0.00    -0.460 OA
BRANCH  21  22
ATOM     22  C   UNL A   1      33.448  32.012  27.523  1.00  0.00     0.338 C 
ATOM     23  O   UNL A   1      33.079  33.179  27.587  1.00  0.00    -0.246 OA
BRANCH  22  24
ATOM     24  C   UNL A   1      34.827  31.615  27.831  1.00  0.00     0.060 A 
ATOM     25  C   UNL A   1      35.061  30.253  28.047  1.00  0.00     0.016 A 
ATOM     26  C   UNL A   1      35.840  32.559  28.018  1.00  0.00     0.016 A 
ATOM     27  C   UNL A   1      36.296  29.834  28.527  1.00  0.00     0.010 A 
ATOM     28  C   UNL A   1      37.082  32.134  28.502  1.00  0.00     0.010 A 
ATOM     29  C   UNL A   1      37.295  30.778  28.805  1.00  0.00    -0.014 A 
BRANCH  29  30
ATOM     30  C   UNL A   1      38.496  30.335  29.549  1.00  0.00     0.031 A 
ATOM     31  C   UNL A   1      38.681  30.785  30.972  1.00  0.00     0.074 A 
ATOM     32  C   UNL A   1      39.372  29.492  28.977  1.00  0.00     0.049 A 
ATOM     33  N   UNL A   1      39.591  30.426  31.839  1.00  0.00    -0.248 NA
ATOM     34  C   UNL A   1      37.712  31.766  31.489  1.00  0.00     0.031 C 
ATOM     35  C   UNL A   1      39.295  29.006  27.599  1.00  0.00     0.029 A 
ATOM     36  N   UNL A   1      40.500  28.898  29.482  1.00  0.00    -0.354 N 
ATOM     37  C   UNL A   1      39.314  31.142  32.998  1.00  0.00     0.074 A 
ATOM     38  C   UNL A   1      38.165  31.975  32.717  1.00  0.00     0.031 C 
ATOM     39  C   UNL A   1      40.341  28.195  27.365  1.00  0.00     0.029 A 
ATOM     40  C   UNL A   1      41.160  28.109  28.572  1.00  0.00     0.049 A 
ATOM     41  H   UNL A   1      40.807  29.026  30.409  1.00  0.00     0.167 HD
ATOM     42  C   UNL A   1      39.944  31.092  34.195  1.00  0.00     0.034 A 
ATOM     43  C   UNL A   1      42.296  27.395  28.703  1.00  0.00     0.034 A 
ATOM     44  C   UNL A   1      41.075  30.248  34.470  1.00  0.00     0.049 A 
ATOM     45  C   UNL A   1      42.977  27.354  30.046  1.00  0.00     0.074 A 
ATOM     46  C   UNL A   1      41.758  30.081  35.661  1.00  0.00     0.029 A 
ATOM     47  N   UNL A   1      41.696  29.433  33.535  1.00  0.00    -0.354 N 
ATOM     48  N   UNL A   1      42.616  27.923  31.173  1.00  0.00    -0.248 NA
ATOM     49  C   UNL A   1      44.195  26.540  30.149  1.00  0.00     0.031 C 
ATOM     50  C   UNL A   1      42.805  29.180  35.440  1.00  0.00     0.029 A 
ATOM     51  C   UNL A   1      42.764  28.771  34.116  1.00  0.00     0.049 A 
ATOM     52  H   UNL A   1      41.418  29.340  32.595  1.00  0.00     0.167 HD
ATOM     53  C   UNL A   1      43.547  27.516  32.122  1.00  0.00     0.074 A 
ATOM     54  C   UNL A   1      44.471  26.630  31.443  1.00  0.00     0.031 C 
ATOM     55  C   UNL A   1      43.644  27.859  33.431  1.00  0.00     0.034 A 
BRANCH  42  56
ATOM     56  C   UNL A   1      39.398  31.948  35.307  1.00  0.00     0.023 A 
ATOM     57  C   UNL A   1      38.414  31.419  36.168  1.00  0.00     0.012 A 
ATOM     58  C   UNL A   1      39.880  33.252  35.528  1.00  0.00     0.148 A 
ATOM     59  C   UNL A   1      37.899  32.185  37.214  1.00  0.00     0.002 A 
ATOM     60  C   UNL A   1      39.389  33.996  36.595  1.00  0.00     0.091 A 
ATOM     61  F   UNL A   1      40.796  33.747  34.683  1.00  0.00    -0.205 F 
ATOM     62  C   UNL A   1      38.392  33.467  37.432  1.00  0.00     0.022 A 
BRANCH  60  63
ATOM     63  S   UNL A   1      40.006  35.634  36.999  1.00  0.00     0.127 S 
ATOM     64  O   UNL A   1      39.609  36.399  35.818  1.00  0.00    -0.237 OA
ATOM     65  O   UNL A   1      39.256  35.957  38.214  1.00  0.00    -0.237 OA
ATOM     66  O   UNL A   1      41.441  35.484  37.196  1.00  0.00    -0.744 OA
ENDBRANCH  60  63
ENDBRANCH  42  56
BRANCH  43  67
ATOM     67  C   UNL A   1      42.820  26.616  27.547  1.00  0.00     0.023 A 
ATOM     68  C   UNL A   1      43.580  27.266  26.556  1.00  0.00     0.012 A 
ATOM     69  C   UNL A   1      42.601  25.228  27.445  1.00  0.00     0.148 A 
ATOM     70  C   UNL A   1      44.092  26.552  25.470  1.00  0.00     0.002 A 
ATOM     71  C   UNL A   1      43.160  24.514  26.391  1.00  0.00     0.091 A 
ATOM     72  F   UNL A   1      41.857  24.630  28.386  1.00  0.00    -0.205 F 
ATOM     73  C   UNL A   1      43.893  25.175  25.395  1.00  0.00     0.022 A 
BRANCH  71  74
ATOM     74  S   UNL A   1      43.065  22.723  26.293  1.00  0.00     0.127 S 
ATOM     75  O   UNL A   1      44.408  22.327  26.707  1.00  0.00    -0.237 OA
ATOM     76  O   UNL A   1      42.008  22.420  27.260  1.00  0.00    -0.237 OA
ATOM     77  O   UNL A   1      42.710  22.427  24.911  1.00  0.00    -0.744 OA
ENDBRANCH  71  74
ENDBRANCH  43  67
BRANCH  55  78
ATOM     78  C   UNL A   1      44.782  27.268  34.220  1.00  0.00     0.023 A 
ATOM     79  C   UNL A   1      46.013  27.951  34.278  1.00  0.00     0.012 A 
ATOM     80  C   UNL A   1      44.613  26.079  34.957  1.00  0.00     0.148 A 
ATOM     81  C   UNL A   1      47.070  27.443  35.032  1.00  0.00     0.002 A 
ATOM     82  C   UNL A   1      45.656  25.603  35.742  1.00  0.00     0.091 A 
ATOM     83  F   UNL A   1      43.441  25.432  34.871  1.00  0.00    -0.205 F 
ATOM     84  C   UNL A   1      46.887  26.276  35.773  1.00  0.00     0.022 A 
BRANCH  82  85
ATOM     85  S   UNL A   1      45.474  24.161  36.798  1.00  0.00     0.127 S 
ATOM     86  O   UNL A   1      46.803  24.062  37.400  1.00  0.00    -0.237 OA
ATOM     87  O   UNL A   1      44.416  24.578  37.720  1.00  0.00    -0.237 OA
ATOM     88  O   UNL A   1      45.100  23.067  35.912  1.00  0.00    -0.744 OA
ENDBRANCH  82  85
ENDBRANCH  55  78
ENDBRANCH  29  30
ENDBRANCH  22  24
ENDBRANCH  21  22
ENDBRANCH  20  21
ENDBRANCH   1  20
TORSDOF 19
ENDMDL
