MODEL 1
REMARK VINA RESULT:     -11.6      0.000      0.000
REMARK SMILES O=C(C[C@@H]1C(=O)NCC[N@@H+]1Cc1ccc(F)c(F)c1)OCCOCCOC(=O)c1ccc(-c2c3nc(c(-c4cccc(S(=O)(=O)[O-])c4F)c4ccc([nH]4)c(-c4cccc(S(=O)(=O)[O-])c4F)c4nc(c(-c5cccc(S(=O)(=O)[O-])c5F)c5ccc2[nH]5)C=C4)C=C3)cc1
REMARK SMILES IDX 23 1 22 2 21 3 20 4 2 5 1 6 3 7 4 8 5 9 10 10 6 11 7 12 9 13
REMARK SMILES IDX 8 15 11 17 12 18 13 19 19 20 14 21 17 22 15 23 18 24 16 25
REMARK SMILES IDX 24 26 25 27 26 28 27 29 28 30 29 31 30 32 91 33 31 34 90 35
REMARK SMILES IDX 32 36 33 37 34 38 84 39 35 40 89 41 83 42 85 43 36 44 88 45
REMARK SMILES IDX 82 46 81 47 37 49 69 50 49 51 68 52 50 53 53 54 67 55 86 56
REMARK SMILES IDX 51 57 52 58 66 60 87 61 54 62 38 63 39 64 47 65 40 66 42 67
REMARK SMILES IDX 48 68 41 69 43 70 44 71 45 72 46 73 70 74 71 75 79 76 72 77
REMARK SMILES IDX 74 78 80 79 73 80 75 81 76 82 77 83 78 84 55 85 56 86 64 87
REMARK SMILES IDX 57 88 59 89 65 90 58 91 60 92 61 93 62 94 63 95
REMARK H PARENT 10 14 7 16 85 48 53 59
REMARK Flexibility Score: inf
ROOT
ATOM      1  O   UNL A   1      31.288  29.040  23.667  1.00  0.00    -0.374 OA
ENDROOT
BRANCH   1   2
ATOM      2  C   UNL A   1      30.283  28.196  23.121  1.00  0.00     0.202 C 
BRANCH   2   3
ATOM      3  C   UNL A   1      30.032  26.816  23.739  1.00  0.00     0.261 C 
BRANCH   3   4
ATOM      4  O   UNL A   1      30.957  25.797  23.359  1.00  0.00    -0.463 OA
BRANCH   4   5
ATOM      5  C   UNL A   1      31.688  25.084  24.248  1.00  0.00     0.312 C 
ATOM      6  O   UNL A   1      32.384  25.665  25.079  1.00  0.00    -0.252 OA
BRANCH   5   7
ATOM      7  C   UNL A   1      31.827  23.590  24.058  1.00  0.00     0.198 C 
BRANCH   7   8
ATOM      8  C   UNL A   1      33.130  22.902  24.458  1.00  0.00     0.285 C 
ATOM      9  C   UNL A   1      34.321  22.992  23.482  1.00  0.00     0.279 C 
ATOM     10  N   UNL A   1      32.951  21.532  25.021  1.00  0.00    -0.319 N 
ATOM     11  O   UNL A   1      34.365  23.736  22.510  1.00  0.00    -0.268 OA
ATOM     12  N   UNL A   1      35.447  22.295  23.834  1.00  0.00    -0.345 N 
ATOM     13  C   UNL A   1      34.196  21.090  25.661  1.00  0.00     0.284 C 
ATOM     14  H   UNL A   1      32.237  21.621  25.744  1.00  0.00     0.349 HD
ATOM     15  C   UNL A   1      35.487  21.260  24.842  1.00  0.00     0.177 C 
ATOM     16  H   UNL A   1      36.286  22.515  23.369  1.00  0.00     0.163 HD
BRANCH  10  17
ATOM     17  C   UNL A   1      32.264  20.533  24.186  1.00  0.00     0.299 C 
BRANCH  17  18
ATOM     18  C   UNL A   1      32.658  19.085  24.365  1.00  0.00     0.009 A 
ATOM     19  C   UNL A   1      32.457  18.429  25.587  1.00  0.00     0.013 A 
ATOM     20  C   UNL A   1      33.286  18.378  23.325  1.00  0.00     0.052 A 
ATOM     21  C   UNL A   1      32.992  17.157  25.809  1.00  0.00     0.043 A 
ATOM     22  C   UNL A   1      33.807  17.106  23.546  1.00  0.00     0.159 A 
ATOM     23  C   UNL A   1      33.683  16.512  24.791  1.00  0.00     0.158 A 
ATOM     24  F   UNL A   1      34.423  16.462  22.545  1.00  0.00    -0.204 F 
ATOM     25  F   UNL A   1      34.204  15.298  25.018  1.00  0.00    -0.204 F 
ENDBRANCH  17  18
ENDBRANCH  10  17
ENDBRANCH   7   8
ENDBRANCH   5   7
ENDBRANCH   4   5
ENDBRANCH   3   4
ENDBRANCH   2   3
ENDBRANCH   1   2
BRANCH   1  26
ATOM     26  C   UNL A   1      31.452  29.111  25.087  1.00  0.00     0.202 C 
BRANCH  26  27
ATOM     27  C   UNL A   1      31.666  30.469  25.753  1.00  0.00     0.261 C 
BRANCH  27  28
ATOM     28  O   UNL A   1      32.477  30.382  26.934  1.00  0.00    -0.460 OA
BRANCH  28  29
ATOM     29  C   UNL A   1      33.148  31.514  27.236  1.00  0.00     0.338 C 
ATOM     30  O   UNL A   1      32.680  32.640  27.362  1.00  0.00    -0.246 OA
BRANCH  29  31
ATOM     31  C   UNL A   1      34.529  31.194  27.617  1.00  0.00     0.060 A 
ATOM     32  C   UNL A   1      34.847  29.842  27.809  1.00  0.00     0.016 A 
ATOM     33  C   UNL A   1      35.457  32.199  27.898  1.00  0.00     0.016 A 
ATOM     34  C   UNL A   1      36.072  29.494  28.357  1.00  0.00     0.010 A 
ATOM     35  C   UNL A   1      36.683  31.847  28.463  1.00  0.00     0.010 A 
ATOM     36  C   UNL A   1      36.967  30.499  28.743  1.00  0.00    -0.014 A 
BRANCH  36  37
ATOM     37  C   UNL A   1      38.094  30.128  29.625  1.00  0.00     0.031 A 
ATOM     38  C   UNL A   1      39.109  29.143  29.115  1.00  0.00     0.074 A 
ATOM     39  C   UNL A   1      38.236  30.713  30.826  1.00  0.00     0.049 A 
ATOM     40  N   UNL A   1      40.207  28.719  29.682  1.00  0.00    -0.248 NA
ATOM     41  C   UNL A   1      38.858  28.563  27.784  1.00  0.00     0.031 C 
ATOM     42  C   UNL A   1      37.307  31.680  31.408  1.00  0.00     0.029 A 
ATOM     43  N   UNL A   1      39.214  30.566  31.773  1.00  0.00    -0.354 N 
ATOM     44  C   UNL A   1      40.771  27.818  28.787  1.00  0.00     0.074 A 
ATOM     45  C   UNL A   1      39.884  27.736  27.647  1.00  0.00     0.031 C 
ATOM     46  C   UNL A   1      37.747  32.020  32.632  1.00  0.00     0.029 A 
ATOM     47  C   UNL A   1      38.978  31.287  32.918  1.00  0.00     0.049 A 
ATOM     48  H   UNL A   1      40.009  30.000  31.646  1.00  0.00     0.167 HD
ATOM     49  C   UNL A   1      41.937  27.139  28.893  1.00  0.00     0.034 A 
ATOM     50  C   UNL A   1      39.675  31.333  34.070  1.00  0.00     0.034 A 
ATOM     51  C   UNL A   1      42.813  27.232  30.028  1.00  0.00     0.049 A 
ATOM     52  C   UNL A   1      40.962  30.557  34.169  1.00  0.00     0.074 A 
ATOM     53  C   UNL A   1      44.024  26.597  30.238  1.00  0.00     0.029 A 
ATOM     54  N   UNL A   1      42.566  28.006  31.152  1.00  0.00    -0.354 N 
ATOM     55  N   UNL A   1      41.538  29.793  33.269  1.00  0.00    -0.248 NA
ATOM     56  C   UNL A   1      41.717  30.683  35.422  1.00  0.00     0.031 C 
ATOM     57  C   UNL A   1      44.502  26.977  31.498  1.00  0.00     0.029 A 
ATOM     58  C   UNL A   1      43.601  27.867  32.060  1.00  0.00     0.049 A 
ATOM     59  H   UNL A   1      41.772  28.572  31.284  1.00  0.00     0.167 HD
ATOM     60  C   UNL A   1      42.735  29.372  33.838  1.00  0.00     0.074 A 
ATOM     61  C   UNL A   1      42.816  29.993  35.144  1.00  0.00     0.031 C 
ATOM     62  C   UNL A   1      43.676  28.533  33.335  1.00  0.00     0.034 A 
BRANCH  49  63
ATOM     63  C   UNL A   1      42.345  26.267  27.734  1.00  0.00     0.023 A 
ATOM     64  C   UNL A   1      43.192  26.793  26.736  1.00  0.00     0.012 A 
ATOM     65  C   UNL A   1      41.929  24.925  27.649  1.00  0.00     0.148 A 
ATOM     66  C   UNL A   1      43.597  26.006  25.659  1.00  0.00     0.002 A 
ATOM     67  C   UNL A   1      42.371  24.133  26.594  1.00  0.00     0.091 A 
ATOM     68  F   UNL A   1      41.104  24.450  28.593  1.00  0.00    -0.205 F 
ATOM     69  C   UNL A   1      43.195  24.675  25.593  1.00  0.00     0.022 A 
BRANCH  67  70
ATOM     70  S   UNL A   1      41.969  22.388  26.453  1.00  0.00     0.127 S 
ATOM     71  O   UNL A   1      40.509  22.426  26.374  1.00  0.00    -0.237 OA
ATOM     72  O   UNL A   1      42.639  22.020  25.205  1.00  0.00    -0.237 OA
ATOM     73  O   UNL A   1      42.512  21.753  27.645  1.00  0.00    -0.744 OA
ENDBRANCH  67  70
ENDBRANCH  49  63
BRANCH  50  74
ATOM     74  C   UNL A   1      39.187  32.168  35.202  1.00  0.00     0.023 A 
ATOM     75  C   UNL A   1      39.309  33.569  35.146  1.00  0.00     0.012 A 
ATOM     76  C   UNL A   1      38.583  31.576  36.329  1.00  0.00     0.148 A 
ATOM     77  C   UNL A   1      38.869  34.364  36.206  1.00  0.00     0.002 A 
ATOM     78  C   UNL A   1      38.098  32.377  37.356  1.00  0.00     0.091 A 
ATOM     79  F   UNL A   1      38.493  30.239  36.374  1.00  0.00    -0.205 F 
ATOM     80  C   UNL A   1      38.255  33.769  37.305  1.00  0.00     0.022 A 
BRANCH  78  81
ATOM     81  S   UNL A   1      37.177  31.702  38.744  1.00  0.00     0.127 S 
ATOM     82  O   UNL A   1      36.003  32.572  38.773  1.00  0.00    -0.237 OA
ATOM     83  O   UNL A   1      36.918  30.332  38.298  1.00  0.00    -0.237 OA
ATOM     84  O   UNL A   1      38.071  31.802  39.889  1.00  0.00    -0.744 OA
ENDBRANCH  78  81
ENDBRANCH  50  74
BRANCH  62  85
ATOM     85  C   UNL A   1      44.885  28.260  34.194  1.00  0.00     0.023 A 
ATOM     86  C   UNL A   1      46.027  29.077  34.073  1.00  0.00     0.012 A 
ATOM     87  C   UNL A   1      44.869  27.228  35.153  1.00  0.00     0.148 A 
ATOM     88  C   UNL A   1      47.151  28.844  34.863  1.00  0.00     0.002 A 
ATOM     89  C   UNL A   1      45.975  27.034  35.972  1.00  0.00     0.091 A 
ATOM     90  F   UNL A   1      43.782  26.450  35.241  1.00  0.00    -0.205 F 
ATOM     91  C   UNL A   1      47.122  27.831  35.819  1.00  0.00     0.022 A 
BRANCH  89  92
ATOM     92  S   UNL A   1      45.986  25.815  37.290  1.00  0.00     0.127 S 
ATOM     93  O   UNL A   1      44.793  26.184  38.048  1.00  0.00    -0.237 OA
ATOM     94  O   UNL A   1      45.876  24.556  36.553  1.00  0.00    -0.237 OA
ATOM     95  O   UNL A   1      47.254  25.994  37.986  1.00  0.00    -0.744 OA
ENDBRANCH  89  92
ENDBRANCH  62  85
ENDBRANCH  36  37
ENDBRANCH  29  31
ENDBRANCH  28  29
ENDBRANCH  27  28
ENDBRANCH  26  27
ENDBRANCH   1  26
TORSDOF 20
ENDMDL
MODEL 2
REMARK VINA RESULT:     -11.5      1.428      2.270
REMARK SMILES O=C(C[C@@H]1C(=O)NCC[N@@H+]1Cc1ccc(F)c(F)c1)OCCOCCOC(=O)c1ccc(-c2c3nc(c(-c4cccc(S(=O)(=O)[O-])c4F)c4ccc([nH]4)c(-c4cccc(S(=O)(=O)[O-])c4F)c4nc(c(-c5cccc(S(=O)(=O)[O-])c5F)c5ccc2[nH]5)C=C4)C=C3)cc1
REMARK SMILES IDX 23 1 22 2 21 3 20 4 2 5 1 6 3 7 4 8 5 9 10 10 6 11 7 12 9 13
REMARK SMILES IDX 8 15 11 17 12 18 13 19 19 20 14 21 17 22 15 23 18 24 16 25
REMARK SMILES IDX 24 26 25 27 26 28 27 29 28 30 29 31 30 32 91 33 31 34 90 35
REMARK SMILES IDX 32 36 33 37 34 38 84 39 35 40 89 41 83 42 85 43 36 44 88 45
REMARK SMILES IDX 82 46 81 47 37 49 69 50 49 51 68 52 50 53 53 54 67 55 86 56
REMARK SMILES IDX 51 57 52 58 66 60 87 61 54 62 38 63 39 64 47 65 40 66 42 67
REMARK SMILES IDX 48 68 41 69 43 70 44 71 45 72 46 73 70 74 71 75 79 76 72 77
REMARK SMILES IDX 74 78 80 79 73 80 75 81 76 82 77 83 78 84 55 85 56 86 64 87
REMARK SMILES IDX 57 88 59 89 65 90 58 91 60 92 61 93 62 94 63 95
REMARK H PARENT 10 14 7 16 85 48 53 59
REMARK Flexibility Score: inf
ROOT
ATOM      1  O   UNL A   1      32.083  30.538  26.728  1.00  0.00    -0.374 OA
ENDROOT
BRANCH   1   2
ATOM      2  C   UNL A   1      32.094  29.368  25.922  1.00  0.00     0.202 C 
BRANCH   2   3
ATOM      3  C   UNL A   1      31.267  29.328  24.631  1.00  0.00     0.261 C 
BRANCH   3   4
ATOM      4  O   UNL A   1      31.966  28.883  23.469  1.00  0.00    -0.463 OA
BRANCH   4   5
ATOM      5  C   UNL A   1      31.516  27.895  22.660  1.00  0.00     0.312 C 
ATOM      6  O   UNL A   1      30.470  28.045  22.030  1.00  0.00    -0.252 OA
BRANCH   5   7
ATOM      7  C   UNL A   1      32.172  26.533  22.723  1.00  0.00     0.198 C 
BRANCH   7   8
ATOM      8  C   UNL A   1      31.929  25.641  23.937  1.00  0.00     0.285 C 
ATOM      9  C   UNL A   1      32.936  25.722  25.103  1.00  0.00     0.279 C 
ATOM     10  N   UNL A   1      31.555  24.237  23.599  1.00  0.00    -0.319 N 
ATOM     11  O   UNL A   1      33.796  26.587  25.217  1.00  0.00    -0.268 OA
ATOM     12  N   UNL A   1      32.734  24.850  26.140  1.00  0.00    -0.345 N 
ATOM     13  C   UNL A   1      31.038  23.558  24.794  1.00  0.00     0.284 C 
ATOM     14  H   UNL A   1      30.796  24.308  22.922  1.00  0.00     0.349 HD
ATOM     15  C   UNL A   1      31.882  23.684  26.075  1.00  0.00     0.177 C 
ATOM     16  H   UNL A   1      33.201  25.029  26.988  1.00  0.00     0.163 HD
BRANCH  10  17
ATOM     17  C   UNL A   1      32.489  23.460  22.768  1.00  0.00     0.299 C 
BRANCH  17  18
ATOM     18  C   UNL A   1      32.926  22.109  23.287  1.00  0.00     0.009 A 
ATOM     19  C   UNL A   1      32.172  20.957  23.024  1.00  0.00     0.013 A 
ATOM     20  C   UNL A   1      34.071  21.985  24.093  1.00  0.00     0.052 A 
ATOM     21  C   UNL A   1      32.472  19.750  23.658  1.00  0.00     0.043 A 
ATOM     22  C   UNL A   1      34.373  20.777  24.715  1.00  0.00     0.159 A 
ATOM     23  C   UNL A   1      33.561  19.673  24.518  1.00  0.00     0.158 A 
ATOM     24  F   UNL A   1      35.457  20.691  25.498  1.00  0.00    -0.204 F 
ATOM     25  F   UNL A   1      33.831  18.513  25.133  1.00  0.00    -0.204 F 
ENDBRANCH  17  18
ENDBRANCH  10  17
ENDBRANCH   7   8
ENDBRANCH   5   7
ENDBRANCH   4   5
ENDBRANCH   3   4
ENDBRANCH   2   3
ENDBRANCH   1   2
BRANCH   1  26
ATOM     26  C   UNL A   1      31.331  31.679  26.304  1.00  0.00     0.202 C 
BRANCH  26  27
ATOM     27  C   UNL A   1      31.843  33.082  26.628  1.00  0.00     0.261 C 
BRANCH  27  28
ATOM     28  O   UNL A   1      32.498  33.148  27.903  1.00  0.00    -0.460 OA
BRANCH  28  29
ATOM     29  C   UNL A   1      33.596  33.935  27.929  1.00  0.00     0.338 C 
ATOM     30  O   UNL A   1      33.628  35.160  27.886  1.00  0.00    -0.246 OA
BRANCH  29  31
ATOM     31  C   UNL A   1      34.785  33.131  28.236  1.00  0.00     0.060 A 
ATOM     32  C   UNL A   1      34.577  31.860  28.790  1.00  0.00     0.016 A 
ATOM     33  C   UNL A   1      36.071  33.655  28.098  1.00  0.00     0.016 A 
ATOM     34  C   UNL A   1      35.654  31.139  29.281  1.00  0.00     0.010 A 
ATOM     35  C   UNL A   1      37.152  32.934  28.606  1.00  0.00     0.010 A 
ATOM     36  C   UNL A   1      36.937  31.701  29.247  1.00  0.00    -0.014 A 
BRANCH  36  37
ATOM     37  C   UNL A   1      37.993  31.079  30.072  1.00  0.00     0.031 A 
ATOM     38  C   UNL A   1      38.865  30.026  29.446  1.00  0.00     0.074 A 
ATOM     39  C   UNL A   1      38.207  31.499  31.329  1.00  0.00     0.049 A 
ATOM     40  N   UNL A   1      39.888  29.391  29.952  1.00  0.00    -0.248 NA
ATOM     41  C   UNL A   1      38.545  29.641  28.060  1.00  0.00     0.031 C 
ATOM     42  C   UNL A   1      37.418  32.515  32.025  1.00  0.00     0.029 A 
ATOM     43  N   UNL A   1      39.148  31.111  32.246  1.00  0.00    -0.354 N 
ATOM     44  C   UNL A   1      40.328  28.527  28.956  1.00  0.00     0.074 A 
ATOM     45  C   UNL A   1      39.446  28.699  27.822  1.00  0.00     0.031 C 
ATOM     46  C   UNL A   1      37.891  32.650  33.276  1.00  0.00     0.029 A 
ATOM     47  C   UNL A   1      39.006  31.724  33.467  1.00  0.00     0.049 A 
ATOM     48  H   UNL A   1      39.857  30.457  32.049  1.00  0.00     0.167 HD
ATOM     49  C   UNL A   1      41.386  27.684  28.975  1.00  0.00     0.034 A 
ATOM     50  C   UNL A   1      39.693  31.542  34.611  1.00  0.00     0.034 A 
ATOM     51  C   UNL A   1      42.258  27.525  30.106  1.00  0.00     0.049 A 
ATOM     52  C   UNL A   1      40.858  30.587  34.611  1.00  0.00     0.074 A 
ATOM     53  C   UNL A   1      43.367  26.707  30.233  1.00  0.00     0.029 A 
ATOM     54  N   UNL A   1      42.113  28.194  31.312  1.00  0.00    -0.354 N 
ATOM     55  N   UNL A   1      41.329  29.857  33.627  1.00  0.00    -0.248 NA
ATOM     56  C   UNL A   1      41.614  30.464  35.864  1.00  0.00     0.031 C 
ATOM     57  C   UNL A   1      43.883  26.872  31.524  1.00  0.00     0.029 A 
ATOM     58  C   UNL A   1      43.111  27.810  32.191  1.00  0.00     0.049 A 
ATOM     59  H   UNL A   1      41.405  28.847  31.514  1.00  0.00     0.167 HD
ATOM     60  C   UNL A   1      42.451  29.211  34.134  1.00  0.00     0.074 A 
ATOM     61  C   UNL A   1      42.607  29.663  35.501  1.00  0.00     0.031 C 
ATOM     62  C   UNL A   1      43.269  28.311  33.532  1.00  0.00     0.034 A 
BRANCH  49  63
ATOM     63  C   UNL A   1      41.677  26.900  27.722  1.00  0.00     0.023 A 
ATOM     64  C   UNL A   1      42.175  27.571  26.585  1.00  0.00     0.012 A 
ATOM     65  C   UNL A   1      41.499  25.504  27.677  1.00  0.00     0.148 A 
ATOM     66  C   UNL A   1      42.465  26.870  25.416  1.00  0.00     0.002 A 
ATOM     67  C   UNL A   1      41.832  24.806  26.521  1.00  0.00     0.091 A 
ATOM     68  F   UNL A   1      41.002  24.887  28.758  1.00  0.00    -0.205 F 
ATOM     69  C   UNL A   1      42.304  25.488  25.386  1.00  0.00     0.022 A 
BRANCH  67  70
ATOM     70  S   UNL A   1      41.727  23.016  26.402  1.00  0.00     0.127 S 
ATOM     71  O   UNL A   1      42.400  22.764  25.128  1.00  0.00    -0.237 OA
ATOM     72  O   UNL A   1      42.475  22.587  27.584  1.00  0.00    -0.237 OA
ATOM     73  O   UNL A   1      40.307  22.694  26.431  1.00  0.00    -0.744 OA
ENDBRANCH  67  70
ENDBRANCH  49  63
BRANCH  50  74
ATOM     74  C   UNL A   1      39.318  32.304  35.834  1.00  0.00     0.023 A 
ATOM     75  C   UNL A   1      39.810  33.608  36.028  1.00  0.00     0.012 A 
ATOM     76  C   UNL A   1      38.458  31.744  36.799  1.00  0.00     0.148 A 
ATOM     77  C   UNL A   1      39.479  34.329  37.176  1.00  0.00     0.002 A 
ATOM     78  C   UNL A   1      38.088  32.488  37.913  1.00  0.00     0.091 A 
ATOM     79  F   UNL A   1      38.015  30.493  36.607  1.00  0.00    -0.205 F 
ATOM     80  C   UNL A   1      38.610  33.774  38.112  1.00  0.00     0.022 A 
BRANCH  78  81
ATOM     81  S   UNL A   1      36.873  31.899  39.098  1.00  0.00     0.127 S 
ATOM     82  O   UNL A   1      36.912  30.457  38.872  1.00  0.00    -0.237 OA
ATOM     83  O   UNL A   1      37.450  32.341  40.369  1.00  0.00    -0.237 OA
ATOM     84  O   UNL A   1      35.627  32.566  38.742  1.00  0.00    -0.744 OA
ENDBRANCH  78  81
ENDBRANCH  50  74
BRANCH  62  85
ATOM     85  C   UNL A   1      44.421  27.776  34.344  1.00  0.00     0.023 A 
ATOM     86  C   UNL A   1      45.651  28.464  34.350  1.00  0.00     0.012 A 
ATOM     87  C   UNL A   1      44.268  26.624  35.139  1.00  0.00     0.148 A 
ATOM     88  C   UNL A   1      46.725  27.988  35.100  1.00  0.00     0.002 A 
ATOM     89  C   UNL A   1      45.328  26.184  35.924  1.00  0.00     0.091 A 
ATOM     90  F   UNL A   1      43.097  25.972  35.108  1.00  0.00    -0.205 F 
ATOM     91  C   UNL A   1      46.561  26.856  35.895  1.00  0.00     0.022 A 
BRANCH  89  92
ATOM     92  S   UNL A   1      45.173  24.792  37.047  1.00  0.00     0.127 S 
ATOM     93  O   UNL A   1      46.531  24.678  37.572  1.00  0.00    -0.237 OA
ATOM     94  O   UNL A   1      44.184  25.276  38.011  1.00  0.00    -0.237 OA
ATOM     95  O   UNL A   1      44.717  23.673  36.231  1.00  0.00    -0.744 OA
ENDBRANCH  89  92
ENDBRANCH  62  85
ENDBRANCH  36  37
ENDBRANCH  29  31
ENDBRANCH  28  29
ENDBRANCH  27  28
ENDBRANCH  26  27
ENDBRANCH   1  26
TORSDOF 20
ENDMDL
MODEL 3
REMARK VINA RESULT:     -11.4      5.161      8.132
REMARK SMILES O=C(C[C@@H]1C(=O)NCC[N@@H+]1Cc1ccc(F)c(F)c1)OCCOCCOC(=O)c1ccc(-c2c3nc(c(-c4cccc(S(=O)(=O)[O-])c4F)c4ccc([nH]4)c(-c4cccc(S(=O)(=O)[O-])c4F)c4nc(c(-c5cccc(S(=O)(=O)[O-])c5F)c5ccc2[nH]5)C=C4)C=C3)cc1
REMARK SMILES IDX 23 1 22 2 21 3 20 4 2 5 1 6 3 7 4 8 5 9 10 10 6 11 7 12 9 13
REMARK SMILES IDX 8 15 11 17 12 18 13 19 19 20 14 21 17 22 15 23 18 24 16 25
REMARK SMILES IDX 24 26 25 27 26 28 27 29 28 30 29 31 30 32 91 33 31 34 90 35
REMARK SMILES IDX 32 36 33 37 34 38 84 39 35 40 89 41 83 42 85 43 36 44 88 45
REMARK SMILES IDX 82 46 81 47 37 49 69 50 49 51 68 52 50 53 53 54 67 55 86 56
REMARK SMILES IDX 51 57 52 58 66 60 87 61 54 62 38 63 39 64 47 65 40 66 42 67
REMARK SMILES IDX 48 68 41 69 43 70 44 71 45 72 46 73 70 74 71 75 79 76 72 77
REMARK SMILES IDX 74 78 80 79 73 80 75 81 76 82 77 83 78 84 55 85 56 86 64 87
REMARK SMILES IDX 57 88 59 89 65 90 58 91 60 92 61 93 62 94 63 95
REMARK H PARENT 10 14 7 16 85 48 53 59
REMARK Flexibility Score: inf
ROOT
ATOM      1  O   UNL A   1      38.211  21.534  25.447  1.00  0.00    -0.374 OA
ENDROOT
BRANCH   1   2
ATOM      2  C   UNL A   1      37.374  22.414  24.710  1.00  0.00     0.202 C 
BRANCH   2   3
ATOM      3  C   UNL A   1      36.338  23.272  25.447  1.00  0.00     0.261 C 
BRANCH   3   4
ATOM      4  O   UNL A   1      35.027  23.269  24.882  1.00  0.00    -0.463 OA
BRANCH   4   5
ATOM      5  C   UNL A   1      34.464  24.354  24.300  1.00  0.00     0.312 C 
ATOM      6  O   UNL A   1      34.591  24.539  23.090  1.00  0.00    -0.252 OA
BRANCH   5   7
ATOM      7  C   UNL A   1      33.890  25.446  25.175  1.00  0.00     0.198 C 
BRANCH   7   8
ATOM      8  C   UNL A   1      32.806  26.364  24.614  1.00  0.00     0.285 C 
ATOM      9  C   UNL A   1      32.259  27.476  25.531  1.00  0.00     0.279 C 
ATOM     10  N   UNL A   1      31.729  25.652  23.869  1.00  0.00    -0.319 N 
ATOM     11  O   UNL A   1      32.763  27.806  26.598  1.00  0.00    -0.268 OA
ATOM     12  N   UNL A   1      31.231  28.227  25.025  1.00  0.00    -0.345 N 
ATOM     13  C   UNL A   1      30.926  26.618  23.109  1.00  0.00     0.284 C 
ATOM     14  H   UNL A   1      32.207  25.044  23.203  1.00  0.00     0.349 HD
ATOM     15  C   UNL A   1      30.435  27.858  23.877  1.00  0.00     0.177 C 
ATOM     16  H   UNL A   1      31.020  29.078  25.474  1.00  0.00     0.163 HD
BRANCH  10  17
ATOM     17  C   UNL A   1      30.975  24.608  24.583  1.00  0.00     0.299 C 
BRANCH  17  18
ATOM     18  C   UNL A   1      31.347  23.168  24.310  1.00  0.00     0.009 A 
ATOM     19  C   UNL A   1      31.598  22.276  25.361  1.00  0.00     0.013 A 
ATOM     20  C   UNL A   1      31.505  22.705  22.991  1.00  0.00     0.052 A 
ATOM     21  C   UNL A   1      32.123  21.007  25.108  1.00  0.00     0.043 A 
ATOM     22  C   UNL A   1      32.017  21.436  22.743  1.00  0.00     0.159 A 
ATOM     23  C   UNL A   1      32.350  20.602  23.798  1.00  0.00     0.158 A 
ATOM     24  F   UNL A   1      32.180  21.027  21.477  1.00  0.00    -0.204 F 
ATOM     25  F   UNL A   1      32.867  19.388  23.566  1.00  0.00    -0.204 F 
ENDBRANCH  17  18
ENDBRANCH  10  17
ENDBRANCH   7   8
ENDBRANCH   5   7
ENDBRANCH   4   5
ENDBRANCH   3   4
ENDBRANCH   2   3
ENDBRANCH   1   2
BRANCH   1  26
ATOM     26  C   UNL A   1      38.302  20.159  25.062  1.00  0.00     0.202 C 
BRANCH  26  27
ATOM     27  C   UNL A   1      39.353  19.262  25.715  1.00  0.00     0.261 C 
BRANCH  27  28
ATOM     28  O   UNL A   1      40.688  19.585  25.300  1.00  0.00    -0.460 OA
BRANCH  28  29
ATOM     29  C   UNL A   1      41.545  19.831  26.314  1.00  0.00     0.338 C 
ATOM     30  O   UNL A   1      42.418  19.085  26.741  1.00  0.00    -0.246 OA
BRANCH  29  31
ATOM     31  C   UNL A   1      41.445  21.236  26.729  1.00  0.00     0.060 A 
ATOM     32  C   UNL A   1      41.541  22.211  25.726  1.00  0.00     0.016 A 
ATOM     33  C   UNL A   1      41.380  21.593  28.076  1.00  0.00     0.016 A 
ATOM     34  C   UNL A   1      41.652  23.549  26.075  1.00  0.00     0.010 A 
ATOM     35  C   UNL A   1      41.506  22.938  28.426  1.00  0.00     0.010 A 
ATOM     36  C   UNL A   1      41.697  23.909  27.428  1.00  0.00    -0.014 A 
BRANCH  36  37
ATOM     37  C   UNL A   1      42.155  25.271  27.771  1.00  0.00     0.031 A 
ATOM     38  C   UNL A   1      43.545  25.683  27.370  1.00  0.00     0.074 A 
ATOM     39  C   UNL A   1      41.319  26.138  28.366  1.00  0.00     0.049 A 
ATOM     40  N   UNL A   1      44.137  26.839  27.507  1.00  0.00    -0.248 NA
ATOM     41  C   UNL A   1      44.378  24.655  26.722  1.00  0.00     0.031 C 
ATOM     42  C   UNL A   1      39.953  25.836  28.791  1.00  0.00     0.029 A 
ATOM     43  N   UNL A   1      41.505  27.447  28.723  1.00  0.00    -0.354 N 
ATOM     44  C   UNL A   1      45.410  26.678  26.975  1.00  0.00     0.074 A 
ATOM     45  C   UNL A   1      45.517  25.305  26.532  1.00  0.00     0.031 C 
ATOM     46  C   UNL A   1      39.432  26.925  29.382  1.00  0.00     0.029 A 
ATOM     47  C   UNL A   1      40.431  27.991  29.383  1.00  0.00     0.049 A 
ATOM     48  H   UNL A   1      42.329  27.949  28.526  1.00  0.00     0.167 HD
ATOM     49  C   UNL A   1      46.393  27.598  26.842  1.00  0.00     0.034 A 
ATOM     50  C   UNL A   1      40.283  29.210  29.936  1.00  0.00     0.034 A 
ATOM     51  C   UNL A   1      46.274  28.961  27.281  1.00  0.00     0.049 A 
ATOM     52  C   UNL A   1      41.398  30.212  29.788  1.00  0.00     0.074 A 
ATOM     53  C   UNL A   1      47.203  29.982  27.188  1.00  0.00     0.029 A 
ATOM     54  N   UNL A   1      45.156  29.492  27.905  1.00  0.00    -0.354 N 
ATOM     55  N   UNL A   1      42.556  30.078  29.184  1.00  0.00    -0.248 NA
ATOM     56  C   UNL A   1      41.170  31.547  30.357  1.00  0.00     0.031 C 
ATOM     57  C   UNL A   1      46.649  31.128  27.772  1.00  0.00     0.029 A 
ATOM     58  C   UNL A   1      45.367  30.827  28.204  1.00  0.00     0.049 A 
ATOM     59  H   UNL A   1      44.331  28.994  28.106  1.00  0.00     0.167 HD
ATOM     60  C   UNL A   1      43.181  31.316  29.277  1.00  0.00     0.074 A 
ATOM     61  C   UNL A   1      42.258  32.196  29.964  1.00  0.00     0.031 C 
ATOM     62  C   UNL A   1      44.413  31.691  28.849  1.00  0.00     0.034 A 
BRANCH  49  63
ATOM     63  C   UNL A   1      47.667  27.165  26.163  1.00  0.00     0.023 A 
ATOM     64  C   UNL A   1      48.654  26.489  26.911  1.00  0.00     0.012 A 
ATOM     65  C   UNL A   1      47.873  27.387  24.788  1.00  0.00     0.148 A 
ATOM     66  C   UNL A   1      49.837  26.064  26.307  1.00  0.00     0.002 A 
ATOM     67  C   UNL A   1      49.036  26.922  24.184  1.00  0.00     0.091 A 
ATOM     68  F   UNL A   1      46.935  28.052  24.100  1.00  0.00    -0.205 F 
ATOM     69  C   UNL A   1      50.024  26.272  24.943  1.00  0.00     0.022 A 
BRANCH  67  70
ATOM     70  S   UNL A   1      49.344  27.076  22.420  1.00  0.00     0.127 S 
ATOM     71  O   UNL A   1      48.783  28.396  22.136  1.00  0.00    -0.237 OA
ATOM     72  O   UNL A   1      50.804  27.007  22.358  1.00  0.00    -0.237 OA
ATOM     73  O   UNL A   1      48.654  25.957  21.793  1.00  0.00    -0.744 OA
ENDBRANCH  67  70
ENDBRANCH  49  63
BRANCH  50  74
ATOM     74  C   UNL A   1      39.022  29.557  30.647  1.00  0.00     0.023 A 
ATOM     75  C   UNL A   1      38.783  29.055  31.940  1.00  0.00     0.012 A 
ATOM     76  C   UNL A   1      38.064  30.401  30.051  1.00  0.00     0.148 A 
ATOM     77  C   UNL A   1      37.599  29.359  32.613  1.00  0.00     0.002 A 
ATOM     78  C   UNL A   1      36.913  30.745  30.750  1.00  0.00     0.091 A 
ATOM     79  F   UNL A   1      38.300  30.854  28.811  1.00  0.00    -0.205 F 
ATOM     80  C   UNL A   1      36.670  30.212  32.023  1.00  0.00     0.022 A 
BRANCH  78  81
ATOM     81  S   UNL A   1      35.729  31.940  30.117  1.00  0.00     0.127 S 
ATOM     82  O   UNL A   1      34.783  32.036  31.225  1.00  0.00    -0.237 OA
ATOM     83  O   UNL A   1      36.569  33.122  29.919  1.00  0.00    -0.237 OA
ATOM     84  O   UNL A   1      35.211  31.359  28.886  1.00  0.00    -0.744 OA
ENDBRANCH  78  81
ENDBRANCH  50  74
BRANCH  62  85
ATOM     85  C   UNL A   1      44.822  33.122  29.092  1.00  0.00     0.023 A 
ATOM     86  C   UNL A   1      45.521  33.458  30.268  1.00  0.00     0.012 A 
ATOM     87  C   UNL A   1      44.557  34.119  28.133  1.00  0.00     0.148 A 
ATOM     88  C   UNL A   1      45.913  34.774  30.507  1.00  0.00     0.002 A 
ATOM     89  C   UNL A   1      44.996  35.419  28.355  1.00  0.00     0.091 A 
ATOM     90  F   UNL A   1      43.875  33.785  27.030  1.00  0.00    -0.205 F 
ATOM     91  C   UNL A   1      45.661  35.752  29.547  1.00  0.00     0.022 A 
BRANCH  89  92
ATOM     92  S   UNL A   1      44.797  36.718  27.131  1.00  0.00     0.127 S 
ATOM     93  O   UNL A   1      43.368  36.635  26.838  1.00  0.00    -0.237 OA
ATOM     94  O   UNL A   1      45.200  37.913  27.873  1.00  0.00    -0.237 OA
ATOM     95  O   UNL A   1      45.686  36.366  26.031  1.00  0.00    -0.744 OA
ENDBRANCH  89  92
ENDBRANCH  62  85
ENDBRANCH  36  37
ENDBRANCH  29  31
ENDBRANCH  28  29
ENDBRANCH  27  28
ENDBRANCH  26  27
ENDBRANCH   1  26
TORSDOF 20
ENDMDL
