MODEL 1
REMARK VINA RESULT:     -12.3      0.000      0.000
REMARK SMILES O=C(OCCOCCOC(=O)[C@H]1Cc2[nH]cnc2CN1C(=O)c1ccncc1Cl)c1ccc(-c2c3nc(c(-c4cccc(S(=O)(=O)[O-])c4F)c4ccc([nH]4)c(-c4cccc(S(=O)(=O)[O-])c4F)c4nc(c(-c5cccc(S(=O)(=O)[O-])c5F)c5ccc2[nH]5)C=C4)C=C3)cc1
REMARK SMILES IDX 5 1 4 2 3 3 2 4 1 5 30 6 31 7 92 8 32 9 91 10 33 11 34 12
REMARK SMILES IDX 35 13 85 14 36 15 90 16 84 17 86 18 37 19 89 20 83 21 82 22
REMARK SMILES IDX 38 24 70 25 50 26 69 27 51 28 54 29 68 30 87 31 52 32 53 33
REMARK SMILES IDX 67 35 88 36 55 37 39 38 40 39 48 40 41 41 43 42 49 43 42 44
REMARK SMILES IDX 44 45 45 46 46 47 47 48 71 49 72 50 80 51 73 52 75 53 81 54
REMARK SMILES IDX 74 55 76 56 77 57 78 58 79 59 56 60 57 61 65 62 58 63 60 64
REMARK SMILES IDX 66 65 59 66 61 67 62 68 63 69 64 70 6 71 7 72 8 73 9 74
REMARK SMILES IDX 10 75 11 76 12 77 13 78 20 79 14 80 19 81 15 82 18 83 16 84
REMARK SMILES IDX 17 86 21 87 22 88 23 89 24 90 28 91 25 92 27 93 29 94 26 95
REMARK H PARENT 86 23 54 34 15 85
REMARK Flexibility Score: inf
ROOT
ATOM      1  C   UNL A   1      35.990  21.813  24.427  1.00  0.00     0.202 C 
ENDROOT
BRANCH   1   2
ATOM      2  C   UNL A   1      36.500  20.466  24.944  1.00  0.00     0.261 C 
BRANCH   2   3
ATOM      3  O   UNL A   1      37.865  20.233  24.572  1.00  0.00    -0.460 OA
BRANCH   3   4
ATOM      4  C   UNL A   1      38.970  20.210  25.348  1.00  0.00     0.338 C 
ATOM      5  O   UNL A   1      39.702  19.224  25.268  1.00  0.00    -0.246 OA
BRANCH   4   6
ATOM      6  C   UNL A   1      39.358  21.267  26.325  1.00  0.00     0.060 A 
ATOM      7  C   UNL A   1      38.846  22.559  26.372  1.00  0.00     0.016 A 
ATOM      8  C   UNL A   1      40.415  20.931  27.197  1.00  0.00     0.016 A 
ATOM      9  C   UNL A   1      39.556  23.551  27.018  1.00  0.00     0.010 A 
ATOM     10  C   UNL A   1      41.083  21.907  27.916  1.00  0.00     0.010 A 
ATOM     11  C   UNL A   1      40.716  23.228  27.723  1.00  0.00    -0.014 A 
BRANCH  11  12
ATOM     12  C   UNL A   1      41.459  24.336  28.288  1.00  0.00     0.031 A 
ATOM     13  C   UNL A   1      40.697  25.611  28.298  1.00  0.00     0.074 A 
ATOM     14  C   UNL A   1      42.725  24.211  28.729  1.00  0.00     0.049 A 
ATOM     15  N   UNL A   1      40.896  26.650  27.556  1.00  0.00    -0.248 NA
ATOM     16  C   UNL A   1      39.445  25.650  29.066  1.00  0.00     0.031 C 
ATOM     17  C   UNL A   1      43.483  22.985  28.992  1.00  0.00     0.029 A 
ATOM     18  N   UNL A   1      43.570  25.186  29.154  1.00  0.00    -0.354 N 
ATOM     19  C   UNL A   1      39.920  27.570  27.932  1.00  0.00     0.074 A 
ATOM     20  C   UNL A   1      38.957  26.839  28.710  1.00  0.00     0.031 C 
ATOM     21  C   UNL A   1      44.542  23.283  29.780  1.00  0.00     0.029 A 
ATOM     22  C   UNL A   1      44.614  24.723  29.943  1.00  0.00     0.049 A 
ATOM     23  H   UNL A   1      43.452  26.136  28.922  1.00  0.00     0.167 HD
ATOM     24  C   UNL A   1      40.113  28.908  27.773  1.00  0.00     0.034 A 
ATOM     25  C   UNL A   1      45.404  25.480  30.745  1.00  0.00     0.034 A 
ATOM     26  C   UNL A   1      41.179  29.175  26.843  1.00  0.00     0.049 A 
ATOM     27  C   UNL A   1      45.313  26.878  30.258  1.00  0.00     0.074 A 
ATOM     28  C   UNL A   1      41.398  28.915  25.506  1.00  0.00     0.029 A 
ATOM     29  N   UNL A   1      42.407  29.477  27.381  1.00  0.00    -0.354 N 
ATOM     30  N   UNL A   1      45.767  27.259  29.096  1.00  0.00    -0.248 NA
ATOM     31  C   UNL A   1      44.307  27.742  30.856  1.00  0.00     0.031 C 
ATOM     32  C   UNL A   1      42.786  28.603  25.419  1.00  0.00     0.029 A 
ATOM     33  C   UNL A   1      43.344  28.759  26.691  1.00  0.00     0.049 A 
ATOM     34  H   UNL A   1      42.580  30.096  28.127  1.00  0.00     0.167 HD
ATOM     35  C   UNL A   1      44.794  28.128  28.619  1.00  0.00     0.074 A 
ATOM     36  C   UNL A   1      43.972  28.461  29.780  1.00  0.00     0.031 C 
ATOM     37  C   UNL A   1      44.567  28.262  27.280  1.00  0.00     0.034 A 
BRANCH  24  38
ATOM     38  C   UNL A   1      39.634  29.970  28.736  1.00  0.00     0.023 A 
ATOM     39  C   UNL A   1      40.318  30.075  29.970  1.00  0.00     0.012 A 
ATOM     40  C   UNL A   1      38.394  30.639  28.635  1.00  0.00     0.148 A 
ATOM     41  C   UNL A   1      39.759  30.738  31.066  1.00  0.00     0.002 A 
ATOM     42  C   UNL A   1      37.872  31.354  29.706  1.00  0.00     0.091 A 
ATOM     43  F   UNL A   1      37.636  30.490  27.547  1.00  0.00    -0.205 F 
ATOM     44  C   UNL A   1      38.533  31.377  30.935  1.00  0.00     0.022 A 
BRANCH  42  45
ATOM     45  S   UNL A   1      36.305  32.225  29.583  1.00  0.00     0.127 S 
ATOM     46  O   UNL A   1      35.384  31.130  29.295  1.00  0.00    -0.237 OA
ATOM     47  O   UNL A   1      36.184  32.806  30.920  1.00  0.00    -0.237 OA
ATOM     48  O   UNL A   1      36.482  33.208  28.519  1.00  0.00    -0.744 OA
ENDBRANCH  42  45
ENDBRANCH  24  38
BRANCH  25  49
ATOM     49  C   UNL A   1      45.937  25.149  32.090  1.00  0.00     0.023 A 
ATOM     50  C   UNL A   1      47.215  25.604  32.470  1.00  0.00     0.012 A 
ATOM     51  C   UNL A   1      45.086  24.639  33.096  1.00  0.00     0.148 A 
ATOM     52  C   UNL A   1      47.622  25.573  33.810  1.00  0.00     0.002 A 
ATOM     53  C   UNL A   1      45.496  24.604  34.424  1.00  0.00     0.091 A 
ATOM     54  F   UNL A   1      43.840  24.277  32.763  1.00  0.00    -0.205 F 
ATOM     55  C   UNL A   1      46.762  25.081  34.788  1.00  0.00     0.022 A 
BRANCH  53  56
ATOM     56  S   UNL A   1      44.426  24.015  35.745  1.00  0.00     0.127 S 
ATOM     57  O   UNL A   1      44.155  22.642  35.323  1.00  0.00    -0.237 OA
ATOM     58  O   UNL A   1      45.289  24.141  36.912  1.00  0.00    -0.237 OA
ATOM     59  O   UNL A   1      43.255  24.889  35.727  1.00  0.00    -0.744 OA
ENDBRANCH  53  56
ENDBRANCH  25  49
BRANCH  37  60
ATOM     60  C   UNL A   1      45.542  27.635  26.320  1.00  0.00     0.023 A 
ATOM     61  C   UNL A   1      46.775  28.236  25.990  1.00  0.00     0.012 A 
ATOM     62  C   UNL A   1      45.300  26.308  25.929  1.00  0.00     0.148 A 
ATOM     63  C   UNL A   1      47.745  27.523  25.277  1.00  0.00     0.002 A 
ATOM     64  C   UNL A   1      46.286  25.588  25.271  1.00  0.00     0.091 A 
ATOM     65  F   UNL A   1      44.122  25.758  26.258  1.00  0.00    -0.205 F 
ATOM     66  C   UNL A   1      47.507  26.193  24.934  1.00  0.00     0.022 A 
BRANCH  64  67
ATOM     67  S   UNL A   1      46.100  23.835  24.943  1.00  0.00     0.127 S 
ATOM     68  O   UNL A   1      44.666  23.724  24.685  1.00  0.00    -0.237 OA
ATOM     69  O   UNL A   1      46.952  23.646  23.768  1.00  0.00    -0.237 OA
ATOM     70  O   UNL A   1      46.575  23.148  26.137  1.00  0.00    -0.744 OA
ENDBRANCH  64  67
ENDBRANCH  37  60
ENDBRANCH  11  12
ENDBRANCH   4   6
ENDBRANCH   3   4
ENDBRANCH   2   3
ENDBRANCH   1   2
BRANCH   1  71
ATOM     71  O   UNL A   1      35.246  22.616  25.332  1.00  0.00    -0.374 OA
BRANCH  71  72
ATOM     72  C   UNL A   1      33.895  22.954  25.002  1.00  0.00     0.202 C 
BRANCH  72  73
ATOM     73  C   UNL A   1      33.656  23.677  23.675  1.00  0.00     0.261 C 
BRANCH  73  74
ATOM     74  O   UNL A   1      34.432  24.895  23.597  1.00  0.00    -0.462 OA
BRANCH  74  75
ATOM     75  C   UNL A   1      33.880  25.924  22.907  1.00  0.00     0.329 C 
ATOM     76  O   UNL A   1      33.849  25.990  21.684  1.00  0.00    -0.250 OA
BRANCH  75  77
ATOM     77  C   UNL A   1      33.075  26.887  23.793  1.00  0.00     0.201 C 
ATOM     78  C   UNL A   1      33.896  28.194  24.004  1.00  0.00     0.093 C 
ATOM     79  N   UNL A   1      31.601  27.192  23.737  1.00  0.00    -0.318 N 
ATOM     80  C   UNL A   1      33.278  28.943  25.124  1.00  0.00     0.042 A 
ATOM     81  C   UNL A   1      31.054  27.714  25.026  1.00  0.00     0.179 C 
ATOM     82  N   UNL A   1      33.817  29.917  25.909  1.00  0.00    -0.348 N 
ATOM     83  C   UNL A   1      31.999  28.736  25.589  1.00  0.00     0.081 A 
ATOM     84  C   UNL A   1      32.862  30.237  26.839  1.00  0.00     0.197 A 
ATOM     85  H   UNL A   1      34.714  30.312  25.826  1.00  0.00     0.167 HD
ATOM     86  N   UNL A   1      31.759  29.534  26.678  1.00  0.00    -0.240 NA
BRANCH  79  87
ATOM     87  C   UNL A   1      30.771  27.371  22.635  1.00  0.00     0.256 C 
ATOM     88  O   UNL A   1      30.888  26.721  21.595  1.00  0.00    -0.269 OA
BRANCH  87  89
ATOM     89  C   UNL A   1      29.730  28.401  22.576  1.00  0.00     0.061 A 
ATOM     90  C   UNL A   1      30.113  29.677  22.160  1.00  0.00     0.035 A 
ATOM     91  C   UNL A   1      28.472  28.210  23.142  1.00  0.00     0.072 A 
ATOM     92  C   UNL A   1      29.195  30.706  22.265  1.00  0.00     0.112 A 
ATOM     93  C   UNL A   1      27.624  29.308  23.199  1.00  0.00     0.132 A 
ATOM     94  Cl  UNL A   1      27.931  26.699  23.762  1.00  0.00    -0.082 Cl
ATOM     95  N   UNL A   1      27.949  30.546  22.758  1.00  0.00    -0.263 NA
ENDBRANCH  87  89
ENDBRANCH  79  87
ENDBRANCH  75  77
ENDBRANCH  74  75
ENDBRANCH  73  74
ENDBRANCH  72  73
ENDBRANCH  71  72
ENDBRANCH   1  71
TORSDOF 19
ENDMDL
MODEL 2
REMARK VINA RESULT:     -12.2      3.394      7.728
REMARK SMILES O=C(OCCOCCOC(=O)[C@H]1Cc2[nH]cnc2CN1C(=O)c1ccncc1Cl)c1ccc(-c2c3nc(c(-c4cccc(S(=O)(=O)[O-])c4F)c4ccc([nH]4)c(-c4cccc(S(=O)(=O)[O-])c4F)c4nc(c(-c5cccc(S(=O)(=O)[O-])c5F)c5ccc2[nH]5)C=C4)C=C3)cc1
REMARK SMILES IDX 5 1 4 2 3 3 2 4 1 5 30 6 31 7 92 8 32 9 91 10 33 11 34 12
REMARK SMILES IDX 35 13 85 14 36 15 90 16 84 17 86 18 37 19 89 20 83 21 82 22
REMARK SMILES IDX 38 24 70 25 50 26 69 27 51 28 54 29 68 30 87 31 52 32 53 33
REMARK SMILES IDX 67 35 88 36 55 37 39 38 40 39 48 40 41 41 43 42 49 43 42 44
REMARK SMILES IDX 44 45 45 46 46 47 47 48 71 49 72 50 80 51 73 52 75 53 81 54
REMARK SMILES IDX 74 55 76 56 77 57 78 58 79 59 56 60 57 61 65 62 58 63 60 64
REMARK SMILES IDX 66 65 59 66 61 67 62 68 63 69 64 70 6 71 7 72 8 73 9 74
REMARK SMILES IDX 10 75 11 76 12 77 13 78 20 79 14 80 19 81 15 82 18 83 16 84
REMARK SMILES IDX 17 86 21 87 22 88 23 89 24 90 28 91 25 92 27 93 29 94 26 95
REMARK H PARENT 86 23 54 34 15 85
REMARK Flexibility Score: inf
ROOT
ATOM      1  C   UNL A   1      36.438  21.185  24.508  1.00  0.00     0.202 C 
ENDROOT
BRANCH   1   2
ATOM      2  C   UNL A   1      37.504  22.178  24.976  1.00  0.00     0.261 C 
BRANCH   2   3
ATOM      3  O   UNL A   1      38.547  21.532  25.719  1.00  0.00    -0.460 OA
BRANCH   3   4
ATOM      4  C   UNL A   1      39.694  22.050  26.207  1.00  0.00     0.338 C 
ATOM      5  O   UNL A   1      40.745  21.475  25.920  1.00  0.00    -0.246 OA
BRANCH   4   6
ATOM      6  C   UNL A   1      39.793  23.241  27.098  1.00  0.00     0.060 A 
ATOM      7  C   UNL A   1      38.890  24.298  27.145  1.00  0.00     0.016 A 
ATOM      8  C   UNL A   1      40.969  23.327  27.872  1.00  0.00     0.016 A 
ATOM      9  C   UNL A   1      39.285  25.508  27.677  1.00  0.00     0.010 A 
ATOM     10  C   UNL A   1      41.335  24.514  28.482  1.00  0.00     0.010 A 
ATOM     11  C   UNL A   1      40.540  25.628  28.275  1.00  0.00    -0.014 A 
BRANCH  11  12
ATOM     12  C   UNL A   1      40.922  26.954  28.719  1.00  0.00     0.031 A 
ATOM     13  C   UNL A   1      42.242  27.390  28.198  1.00  0.00     0.074 A 
ATOM     14  C   UNL A   1      40.156  27.690  29.546  1.00  0.00     0.049 A 
ATOM     15  N   UNL A   1      43.345  27.515  28.861  1.00  0.00    -0.248 NA
ATOM     16  C   UNL A   1      42.400  27.492  26.741  1.00  0.00     0.031 C 
ATOM     17  C   UNL A   1      38.756  27.478  29.925  1.00  0.00     0.029 A 
ATOM     18  N   UNL A   1      40.453  28.877  30.136  1.00  0.00    -0.354 N 
ATOM     19  C   UNL A   1      44.293  27.936  27.931  1.00  0.00     0.074 A 
ATOM     20  C   UNL A   1      43.710  27.719  26.635  1.00  0.00     0.031 C 
ATOM     21  C   UNL A   1      38.260  28.628  30.437  1.00  0.00     0.029 A 
ATOM     22  C   UNL A   1      39.339  29.591  30.558  1.00  0.00     0.049 A 
ATOM     23  H   UNL A   1      41.375  29.201  30.254  1.00  0.00     0.167 HD
ATOM     24  C   UNL A   1      45.386  28.652  28.314  1.00  0.00     0.034 A 
ATOM     25  C   UNL A   1      39.312  30.908  30.883  1.00  0.00     0.034 A 
ATOM     26  C   UNL A   1      45.618  28.535  29.729  1.00  0.00     0.049 A 
ATOM     27  C   UNL A   1      40.703  31.310  31.202  1.00  0.00     0.074 A 
ATOM     28  C   UNL A   1      45.913  27.498  30.589  1.00  0.00     0.029 A 
ATOM     29  N   UNL A   1      45.173  29.571  30.516  1.00  0.00    -0.354 N 
ATOM     30  N   UNL A   1      41.358  30.854  32.233  1.00  0.00    -0.248 NA
ATOM     31  C   UNL A   1      41.519  31.849  30.126  1.00  0.00     0.031 C 
ATOM     32  C   UNL A   1      45.182  27.791  31.776  1.00  0.00     0.029 A 
ATOM     33  C   UNL A   1      44.543  29.020  31.597  1.00  0.00     0.049 A 
ATOM     34  H   UNL A   1      45.287  30.531  30.334  1.00  0.00     0.167 HD
ATOM     35  C   UNL A   1      42.639  30.625  31.749  1.00  0.00     0.074 A 
ATOM     36  C   UNL A   1      42.705  31.344  30.479  1.00  0.00     0.031 C 
ATOM     37  C   UNL A   1      43.423  29.638  32.272  1.00  0.00     0.034 A 
BRANCH  24  38
ATOM     38  C   UNL A   1      46.007  29.772  27.510  1.00  0.00     0.023 A 
ATOM     39  C   UNL A   1      47.417  29.885  27.548  1.00  0.00     0.012 A 
ATOM     40  C   UNL A   1      45.292  30.874  26.989  1.00  0.00     0.148 A 
ATOM     41  C   UNL A   1      48.070  31.062  27.166  1.00  0.00     0.002 A 
ATOM     42  C   UNL A   1      45.949  32.015  26.548  1.00  0.00     0.091 A 
ATOM     43  F   UNL A   1      43.958  30.889  27.030  1.00  0.00    -0.205 F 
ATOM     44  C   UNL A   1      47.335  32.130  26.668  1.00  0.00     0.022 A 
BRANCH  42  45
ATOM     45  S   UNL A   1      45.051  33.415  25.866  1.00  0.00     0.127 S 
ATOM     46  O   UNL A   1      46.143  34.309  25.496  1.00  0.00    -0.237 OA
ATOM     47  O   UNL A   1      44.346  32.795  24.745  1.00  0.00    -0.237 OA
ATOM     48  O   UNL A   1      44.177  33.882  26.936  1.00  0.00    -0.744 OA
ENDBRANCH  42  45
ENDBRANCH  24  38
BRANCH  25  49
ATOM     49  C   UNL A   1      38.252  31.905  30.594  1.00  0.00     0.023 A 
ATOM     50  C   UNL A   1      37.904  32.193  29.259  1.00  0.00     0.012 A 
ATOM     51  C   UNL A   1      37.391  32.358  31.619  1.00  0.00     0.148 A 
ATOM     52  C   UNL A   1      36.725  32.888  28.956  1.00  0.00     0.002 A 
ATOM     53  C   UNL A   1      36.225  33.052  31.314  1.00  0.00     0.091 A 
ATOM     54  F   UNL A   1      37.667  32.024  32.887  1.00  0.00    -0.205 F 
ATOM     55  C   UNL A   1      35.882  33.310  29.981  1.00  0.00     0.022 A 
BRANCH  53  56
ATOM     56  S   UNL A   1      35.073  33.598  32.583  1.00  0.00     0.127 S 
ATOM     57  O   UNL A   1      34.814  34.980  32.180  1.00  0.00    -0.237 OA
ATOM     58  O   UNL A   1      33.955  32.682  32.390  1.00  0.00    -0.237 OA
ATOM     59  O   UNL A   1      35.786  33.467  33.851  1.00  0.00    -0.744 OA
ENDBRANCH  53  56
ENDBRANCH  25  49
BRANCH  37  60
ATOM     60  C   UNL A   1      42.972  28.958  33.537  1.00  0.00     0.023 A 
ATOM     61  C   UNL A   1      42.075  27.868  33.535  1.00  0.00     0.012 A 
ATOM     62  C   UNL A   1      43.648  29.287  34.723  1.00  0.00     0.148 A 
ATOM     63  C   UNL A   1      41.857  27.125  34.700  1.00  0.00     0.002 A 
ATOM     64  C   UNL A   1      43.470  28.513  35.860  1.00  0.00     0.091 A 
ATOM     65  F   UNL A   1      44.497  30.324  34.699  1.00  0.00    -0.205 F 
ATOM     66  C   UNL A   1      42.568  27.437  35.858  1.00  0.00     0.022 A 
BRANCH  64  67
ATOM     67  S   UNL A   1      44.469  28.767  37.327  1.00  0.00     0.127 S 
ATOM     68  O   UNL A   1      45.820  28.803  36.774  1.00  0.00    -0.237 OA
ATOM     69  O   UNL A   1      43.973  30.053  37.822  1.00  0.00    -0.237 OA
ATOM     70  O   UNL A   1      44.184  27.642  38.210  1.00  0.00    -0.744 OA
ENDBRANCH  64  67
ENDBRANCH  37  60
ENDBRANCH  11  12
ENDBRANCH   4   6
ENDBRANCH   3   4
ENDBRANCH   2   3
ENDBRANCH   1   2
BRANCH   1  71
ATOM     71  O   UNL A   1      35.150  21.289  25.098  1.00  0.00    -0.374 OA
BRANCH  71  72
ATOM     72  C   UNL A   1      35.055  21.559  26.500  1.00  0.00     0.202 C 
BRANCH  72  73
ATOM     73  C   UNL A   1      33.680  21.401  27.154  1.00  0.00     0.261 C 
BRANCH  73  74
ATOM     74  O   UNL A   1      33.204  22.663  27.679  1.00  0.00    -0.462 OA
BRANCH  74  75
ATOM     75  C   UNL A   1      32.124  23.207  27.066  1.00  0.00     0.329 C 
ATOM     76  O   UNL A   1      31.013  23.285  27.577  1.00  0.00    -0.250 OA
BRANCH  75  77
ATOM     77  C   UNL A   1      32.472  23.943  25.763  1.00  0.00     0.201 C 
ATOM     78  C   UNL A   1      31.801  23.204  24.565  1.00  0.00     0.093 C 
ATOM     79  N   UNL A   1      32.510  25.427  25.513  1.00  0.00    -0.318 N 
ATOM     80  C   UNL A   1      32.425  23.704  23.317  1.00  0.00     0.042 A 
ATOM     81  C   UNL A   1      33.384  25.814  24.365  1.00  0.00     0.179 C 
ATOM     82  N   UNL A   1      32.456  23.131  22.082  1.00  0.00    -0.348 N 
ATOM     83  C   UNL A   1      33.136  24.878  23.216  1.00  0.00     0.081 A 
ATOM     84  C   UNL A   1      33.212  23.958  21.291  1.00  0.00     0.197 A 
ATOM     85  H   UNL A   1      32.022  22.291  21.810  1.00  0.00     0.167 HD
ATOM     86  N   UNL A   1      33.645  25.014  21.950  1.00  0.00    -0.240 NA
BRANCH  79  87
ATOM     87  C   UNL A   1      31.644  26.426  25.950  1.00  0.00     0.256 C 
ATOM     88  O   UNL A   1      31.523  26.735  27.137  1.00  0.00    -0.269 OA
BRANCH  87  89
ATOM     89  C   UNL A   1      30.739  27.149  25.053  1.00  0.00     0.061 A 
ATOM     90  C   UNL A   1      29.649  26.446  24.539  1.00  0.00     0.035 A 
ATOM     91  C   UNL A   1      31.067  28.396  24.525  1.00  0.00     0.072 A 
ATOM     92  C   UNL A   1      28.884  27.047  23.556  1.00  0.00     0.112 A 
ATOM     93  C   UNL A   1      30.232  28.912  23.543  1.00  0.00     0.132 A 
ATOM     94  Cl  UNL A   1      32.435  29.310  25.029  1.00  0.00    -0.082 Cl
ATOM     95  N   UNL A   1      29.140  28.276  23.059  1.00  0.00    -0.263 NA
ENDBRANCH  87  89
ENDBRANCH  79  87
ENDBRANCH  75  77
ENDBRANCH  74  75
ENDBRANCH  73  74
ENDBRANCH  72  73
ENDBRANCH  71  72
ENDBRANCH   1  71
TORSDOF 19
ENDMDL
MODEL 3
REMARK VINA RESULT:     -12.2      3.077      7.675
REMARK SMILES O=C(OCCOCCOC(=O)[C@H]1Cc2[nH]cnc2CN1C(=O)c1ccncc1Cl)c1ccc(-c2c3nc(c(-c4cccc(S(=O)(=O)[O-])c4F)c4ccc([nH]4)c(-c4cccc(S(=O)(=O)[O-])c4F)c4nc(c(-c5cccc(S(=O)(=O)[O-])c5F)c5ccc2[nH]5)C=C4)C=C3)cc1
REMARK SMILES IDX 5 1 4 2 3 3 2 4 1 5 30 6 31 7 92 8 32 9 91 10 33 11 34 12
REMARK SMILES IDX 35 13 85 14 36 15 90 16 84 17 86 18 37 19 89 20 83 21 82 22
REMARK SMILES IDX 38 24 70 25 50 26 69 27 51 28 54 29 68 30 87 31 52 32 53 33
REMARK SMILES IDX 67 35 88 36 55 37 39 38 40 39 48 40 41 41 43 42 49 43 42 44
REMARK SMILES IDX 44 45 45 46 46 47 47 48 71 49 72 50 80 51 73 52 75 53 81 54
REMARK SMILES IDX 74 55 76 56 77 57 78 58 79 59 56 60 57 61 65 62 58 63 60 64
REMARK SMILES IDX 66 65 59 66 61 67 62 68 63 69 64 70 6 71 7 72 8 73 9 74
REMARK SMILES IDX 10 75 11 76 12 77 13 78 20 79 14 80 19 81 15 82 18 83 16 84
REMARK SMILES IDX 17 86 21 87 22 88 23 89 24 90 28 91 25 92 27 93 29 94 26 95
REMARK H PARENT 86 23 54 34 15 85
REMARK Flexibility Score: inf
ROOT
ATOM      1  C   UNL A   1      33.898  31.024  27.657  1.00  0.00     0.202 C 
ENDROOT
BRANCH   1   2
ATOM      2  C   UNL A   1      34.134  32.419  28.239  1.00  0.00     0.261 C 
BRANCH   2   3
ATOM      3  O   UNL A   1      34.808  32.365  29.504  1.00  0.00    -0.460 OA
BRANCH   3   4
ATOM      4  C   UNL A   1      36.090  32.665  29.802  1.00  0.00     0.338 C 
ATOM      5  O   UNL A   1      36.302  33.718  30.404  1.00  0.00    -0.246 OA
BRANCH   4   6
ATOM      6  C   UNL A   1      37.277  31.845  29.428  1.00  0.00     0.060 A 
ATOM      7  C   UNL A   1      37.245  30.622  28.768  1.00  0.00     0.016 A 
ATOM      8  C   UNL A   1      38.520  32.326  29.891  1.00  0.00     0.016 A 
ATOM      9  C   UNL A   1      38.331  29.775  28.848  1.00  0.00     0.010 A 
ATOM     10  C   UNL A   1      39.640  31.513  29.900  1.00  0.00     0.010 A 
ATOM     11  C   UNL A   1      39.498  30.201  29.484  1.00  0.00    -0.014 A 
BRANCH  11  12
ATOM     12  C   UNL A   1      40.558  29.220  29.616  1.00  0.00     0.031 A 
ATOM     13  C   UNL A   1      40.867  28.877  31.027  1.00  0.00     0.074 A 
ATOM     14  C   UNL A   1      41.206  28.705  28.555  1.00  0.00     0.049 A 
ATOM     15  N   UNL A   1      41.920  29.207  31.702  1.00  0.00    -0.248 NA
ATOM     16  C   UNL A   1      39.793  28.286  31.836  1.00  0.00     0.031 C 
ATOM     17  C   UNL A   1      40.839  28.777  27.137  1.00  0.00     0.029 A 
ATOM     18  N   UNL A   1      42.292  27.889  28.545  1.00  0.00    -0.354 N 
ATOM     19  C   UNL A   1      41.735  28.661  32.971  1.00  0.00     0.074 A 
ATOM     20  C   UNL A   1      40.350  28.282  33.048  1.00  0.00     0.031 C 
ATOM     21  C   UNL A   1      41.514  27.820  26.459  1.00  0.00     0.029 A 
ATOM     22  C   UNL A   1      42.456  27.184  27.360  1.00  0.00     0.049 A 
ATOM     23  H   UNL A   1      42.907  27.806  29.310  1.00  0.00     0.167 HD
ATOM     24  C   UNL A   1      42.795  28.346  33.765  1.00  0.00     0.034 A 
ATOM     25  C   UNL A   1      43.244  26.092  27.184  1.00  0.00     0.034 A 
ATOM     26  C   UNL A   1      43.994  29.008  33.321  1.00  0.00     0.049 A 
ATOM     27  C   UNL A   1      44.250  26.098  28.273  1.00  0.00     0.074 A 
ATOM     28  C   UNL A   1      44.393  30.322  33.191  1.00  0.00     0.029 A 
ATOM     29  N   UNL A   1      44.866  28.265  32.562  1.00  0.00    -0.354 N 
ATOM     30  N   UNL A   1      45.177  27.009  28.382  1.00  0.00    -0.248 NA
ATOM     31  C   UNL A   1      43.939  25.367  29.490  1.00  0.00     0.031 C 
ATOM     32  C   UNL A   1      45.169  30.349  31.995  1.00  0.00     0.029 A 
ATOM     33  C   UNL A   1      45.255  29.043  31.507  1.00  0.00     0.049 A 
ATOM     34  H   UNL A   1      45.156  27.342  32.745  1.00  0.00     0.167 HD
ATOM     35  C   UNL A   1      45.230  27.280  29.743  1.00  0.00     0.074 A 
ATOM     36  C   UNL A   1      44.519  26.175  30.383  1.00  0.00     0.031 C 
ATOM     37  C   UNL A   1      45.582  28.516  30.201  1.00  0.00     0.034 A 
BRANCH  24  38
ATOM     38  C   UNL A   1      42.859  27.147  34.683  1.00  0.00     0.023 A 
ATOM     39  C   UNL A   1      42.663  27.383  36.064  1.00  0.00     0.012 A 
ATOM     40  C   UNL A   1      43.394  25.891  34.320  1.00  0.00     0.148 A 
ATOM     41  C   UNL A   1      43.055  26.453  37.031  1.00  0.00     0.002 A 
ATOM     42  C   UNL A   1      43.720  24.943  35.280  1.00  0.00     0.091 A 
ATOM     43  F   UNL A   1      43.717  25.639  33.050  1.00  0.00    -0.205 F 
ATOM     44  C   UNL A   1      43.587  25.231  36.639  1.00  0.00     0.022 A 
BRANCH  42  45
ATOM     45  S   UNL A   1      44.383  23.333  34.830  1.00  0.00     0.127 S 
ATOM     46  O   UNL A   1      44.663  22.756  36.140  1.00  0.00    -0.237 OA
ATOM     47  O   UNL A   1      43.254  22.739  34.115  1.00  0.00    -0.237 OA
ATOM     48  O   UNL A   1      45.545  23.607  33.990  1.00  0.00    -0.744 OA
ENDBRANCH  42  45
ENDBRANCH  24  38
BRANCH  25  49
ATOM     49  C   UNL A   1      42.969  24.882  26.372  1.00  0.00     0.023 A 
ATOM     50  C   UNL A   1      43.891  24.473  25.388  1.00  0.00     0.012 A 
ATOM     51  C   UNL A   1      41.957  23.973  26.753  1.00  0.00     0.148 A 
ATOM     52  C   UNL A   1      43.820  23.194  24.821  1.00  0.00     0.002 A 
ATOM     53  C   UNL A   1      41.886  22.706  26.184  1.00  0.00     0.091 A 
ATOM     54  F   UNL A   1      41.122  24.317  27.743  1.00  0.00    -0.205 F 
ATOM     55  C   UNL A   1      42.823  22.308  25.223  1.00  0.00     0.022 A 
BRANCH  53  56
ATOM     56  S   UNL A   1      40.648  21.498  26.679  1.00  0.00     0.127 S 
ATOM     57  O   UNL A   1      39.418  22.102  26.170  1.00  0.00    -0.237 OA
ATOM     58  O   UNL A   1      41.089  20.305  25.967  1.00  0.00    -0.237 OA
ATOM     59  O   UNL A   1      40.722  21.428  28.136  1.00  0.00    -0.744 OA
ENDBRANCH  53  56
ENDBRANCH  25  49
BRANCH  37  60
ATOM     60  C   UNL A   1      46.142  29.511  29.221  1.00  0.00     0.023 A 
ATOM     61  C   UNL A   1      47.490  29.493  28.805  1.00  0.00     0.012 A 
ATOM     62  C   UNL A   1      45.228  30.333  28.542  1.00  0.00     0.148 A 
ATOM     63  C   UNL A   1      47.915  30.284  27.733  1.00  0.00     0.002 A 
ATOM     64  C   UNL A   1      45.642  31.073  27.445  1.00  0.00     0.091 A 
ATOM     65  F   UNL A   1      43.951  30.331  28.953  1.00  0.00    -0.205 F 
ATOM     66  C   UNL A   1      46.987  31.060  27.041  1.00  0.00     0.022 A 
BRANCH  64  67
ATOM     67  S   UNL A   1      44.468  31.965  26.424  1.00  0.00     0.127 S 
ATOM     68  O   UNL A   1      44.015  33.019  27.330  1.00  0.00    -0.237 OA
ATOM     69  O   UNL A   1      45.308  32.427  25.317  1.00  0.00    -0.237 OA
ATOM     70  O   UNL A   1      43.452  30.996  26.034  1.00  0.00    -0.744 OA
ENDBRANCH  64  67
ENDBRANCH  37  60
ENDBRANCH  11  12
ENDBRANCH   4   6
ENDBRANCH   3   4
ENDBRANCH   2   3
ENDBRANCH   1   2
BRANCH   1  71
ATOM     71  O   UNL A   1      32.576  30.707  27.247  1.00  0.00    -0.374 OA
BRANCH  71  72
ATOM     72  C   UNL A   1      32.168  29.335  27.241  1.00  0.00     0.202 C 
BRANCH  72  73
ATOM     73  C   UNL A   1      33.270  28.274  27.287  1.00  0.00     0.261 C 
BRANCH  73  74
ATOM     74  O   UNL A   1      32.920  27.123  26.484  1.00  0.00    -0.462 OA
BRANCH  74  75
ATOM     75  C   UNL A   1      33.124  27.231  25.147  1.00  0.00     0.329 C 
ATOM     76  O   UNL A   1      34.180  26.952  24.591  1.00  0.00    -0.250 OA
BRANCH  75  77
ATOM     77  C   UNL A   1      31.836  27.501  24.355  1.00  0.00     0.201 C 
ATOM     78  C   UNL A   1      32.183  28.334  23.085  1.00  0.00     0.093 C 
ATOM     79  N   UNL A   1      30.701  26.553  24.071  1.00  0.00    -0.318 N 
ATOM     80  C   UNL A   1      30.917  28.878  22.538  1.00  0.00     0.042 A 
ATOM     81  C   UNL A   1      29.410  27.244  23.774  1.00  0.00     0.179 C 
ATOM     82  N   UNL A   1      30.725  29.930  21.695  1.00  0.00    -0.348 N 
ATOM     83  C   UNL A   1      29.665  28.392  22.840  1.00  0.00     0.081 A 
ATOM     84  C   UNL A   1      29.368  30.065  21.547  1.00  0.00     0.197 A 
ATOM     85  H   UNL A   1      31.422  30.484  21.275  1.00  0.00     0.167 HD
ATOM     86  N   UNL A   1      28.703  29.159  22.234  1.00  0.00    -0.240 NA
BRANCH  79  87
ATOM     87  C   UNL A   1      30.733  25.204  23.730  1.00  0.00     0.256 C 
ATOM     88  O   UNL A   1      30.306  24.773  22.658  1.00  0.00    -0.269 OA
BRANCH  87  89
ATOM     89  C   UNL A   1      31.205  24.159  24.643  1.00  0.00     0.061 A 
ATOM     90  C   UNL A   1      30.773  24.224  25.969  1.00  0.00     0.035 A 
ATOM     91  C   UNL A   1      32.231  23.284  24.294  1.00  0.00     0.072 A 
ATOM     92  C   UNL A   1      31.340  23.360  26.888  1.00  0.00     0.112 A 
ATOM     93  C   UNL A   1      32.731  22.457  25.291  1.00  0.00     0.132 A 
ATOM     94  Cl  UNL A   1      32.894  23.184  22.710  1.00  0.00    -0.082 Cl
ATOM     95  N   UNL A   1      32.298  22.462  26.574  1.00  0.00    -0.263 NA
ENDBRANCH  87  89
ENDBRANCH  79  87
ENDBRANCH  75  77
ENDBRANCH  74  75
ENDBRANCH  73  74
ENDBRANCH  72  73
ENDBRANCH  71  72
ENDBRANCH   1  71
TORSDOF 19
ENDMDL
