MODEL 1
REMARK VINA RESULT:     -11.0      0.000      0.000
REMARK SMILES CC[C@@](C)(NC(=O)Nc1c(C)cccc1Cl)C(=O)OCCOCCOC(=O)c1ccc(-c2c3nc(c(-c4cccc(S(=O)(=O)[O-])c4F)c4ccc([nH]4)c(-c4cccc(S(=O)(=O)[O-])c4F)c4nc(c(-c5cccc(S(=O)(=O)[O-])c5F)c5ccc2[nH]5)C=C4)C=C3)cc1
REMARK SMILES IDX 23 1 22 2 21 3 20 4 19 5 17 6 18 7 3 8 4 9 2 10 1 11 5 12
REMARK SMILES IDX 6 13 7 15 8 16 9 18 10 19 15 20 11 21 12 22 14 23 16 24
REMARK SMILES IDX 13 25 24 26 25 27 26 28 27 29 28 30 29 31 90 32 30 33 89 34
REMARK SMILES IDX 31 35 32 36 33 37 83 38 34 39 88 40 82 41 84 42 35 43 87 44
REMARK SMILES IDX 81 45 80 46 36 48 68 49 48 50 67 51 49 52 52 53 66 54 85 55
REMARK SMILES IDX 50 56 51 57 65 59 86 60 53 61 37 62 38 63 46 64 39 65 41 66
REMARK SMILES IDX 47 67 40 68 42 69 43 70 44 71 45 72 69 73 70 74 78 75 71 76
REMARK SMILES IDX 73 77 79 78 72 79 74 80 75 81 76 82 77 83 54 84 55 85 63 86
REMARK SMILES IDX 56 87 58 88 64 89 57 90 59 91 60 92 61 93 62 94
REMARK H PARENT 5 14 8 17 84 47 52 58
REMARK Flexibility Score: inf
ROOT
ATOM      1  C   UNL A   1      36.716  22.232  23.968  1.00  0.00     0.202 C 
ENDROOT
BRANCH   1   2
ATOM      2  O   UNL A   1      35.339  21.857  23.958  1.00  0.00    -0.374 OA
BRANCH   2   3
ATOM      3  C   UNL A   1      34.448  22.458  24.888  1.00  0.00     0.202 C 
BRANCH   3   4
ATOM      4  C   UNL A   1      32.995  22.279  24.337  1.00  0.00     0.261 C 
BRANCH   4   5
ATOM      5  O   UNL A   1      32.398  23.590  24.055  1.00  0.00    -0.462 OA
BRANCH   5   6
ATOM      6  C   UNL A   1      31.089  24.024  24.076  1.00  0.00     0.331 C 
ATOM      7  O   UNL A   1      30.288  23.792  23.184  1.00  0.00    -0.249 OA
BRANCH   6   8
ATOM      8  C   UNL A   1      30.735  24.876  25.417  1.00  0.00     0.136 C 
ATOM      9  C   UNL A   1      30.647  23.799  26.522  1.00  0.00     0.047 C 
BRANCH   8  10
ATOM     10  C   UNL A   1      31.328  26.139  26.159  1.00  0.00     0.037 C 
ATOM     11  C   UNL A   1      32.786  26.417  26.413  1.00  0.00     0.007 C 
ENDBRANCH   8  10
BRANCH   8  12
ATOM     12  N   UNL A   1      29.451  25.384  25.004  1.00  0.00    -0.322 N 
ATOM     13  C   UNL A   1      29.271  26.350  24.075  1.00  0.00     0.320 C 
ATOM     14  H   UNL A   1      28.649  25.001  25.427  1.00  0.00     0.166 HD
ATOM     15  O   UNL A   1      28.126  26.699  23.878  1.00  0.00    -0.248 OA
ATOM     16  N   UNL A   1      30.271  27.042  23.459  1.00  0.00    -0.306 N 
ATOM     17  H   UNL A   1      29.785  27.797  23.056  1.00  0.00     0.171 HD
BRANCH  16  18
ATOM     18  C   UNL A   1      31.643  27.308  23.054  1.00  0.00     0.064 A 
ATOM     19  C   UNL A   1      32.617  26.743  22.154  1.00  0.00    -0.026 A 
ATOM     20  C   UNL A   1      32.079  28.525  23.685  1.00  0.00     0.064 A 
ATOM     21  C   UNL A   1      32.639  25.554  21.226  1.00  0.00     0.046 C 
ATOM     22  C   UNL A   1      33.875  27.406  21.976  1.00  0.00     0.005 A 
ATOM     23  C   UNL A   1      33.299  29.163  23.436  1.00  0.00     0.023 A 
ATOM     24  Cl  UNL A   1      31.084  29.330  24.883  1.00  0.00    -0.082 Cl
ATOM     25  C   UNL A   1      34.205  28.602  22.573  1.00  0.00     0.002 A 
ENDBRANCH  16  18
ENDBRANCH   8  12
ENDBRANCH   6   8
ENDBRANCH   5   6
ENDBRANCH   4   5
ENDBRANCH   3   4
ENDBRANCH   2   3
ENDBRANCH   1   2
BRANCH   1  26
ATOM     26  C   UNL A   1      37.468  21.017  24.552  1.00  0.00     0.261 C 
BRANCH  26  27
ATOM     27  O   UNL A   1      37.787  21.290  25.932  1.00  0.00    -0.460 OA
BRANCH  27  28
ATOM     28  C   UNL A   1      39.108  21.201  26.147  1.00  0.00     0.338 C 
ATOM     29  O   UNL A   1      39.860  20.403  25.577  1.00  0.00    -0.246 OA
BRANCH  28  30
ATOM     30  C   UNL A   1      39.613  22.401  26.843  1.00  0.00     0.060 A 
ATOM     31  C   UNL A   1      38.858  23.568  26.662  1.00  0.00     0.016 A 
ATOM     32  C   UNL A   1      40.782  22.433  27.608  1.00  0.00     0.016 A 
ATOM     33  C   UNL A   1      39.332  24.789  27.115  1.00  0.00     0.010 A 
ATOM     34  C   UNL A   1      41.272  23.672  28.053  1.00  0.00     0.010 A 
ATOM     35  C   UNL A   1      40.586  24.860  27.731  1.00  0.00    -0.014 A 
BRANCH  35  36
ATOM     36  C   UNL A   1      41.252  26.188  27.733  1.00  0.00     0.031 A 
ATOM     37  C   UNL A   1      40.569  27.324  28.457  1.00  0.00     0.074 A 
ATOM     38  C   UNL A   1      42.498  26.358  27.256  1.00  0.00     0.049 A 
ATOM     39  N   UNL A   1      41.024  28.515  28.747  1.00  0.00    -0.248 NA
ATOM     40  C   UNL A   1      39.196  27.075  28.933  1.00  0.00     0.031 C 
ATOM     41  C   UNL A   1      43.285  25.346  26.558  1.00  0.00     0.029 A 
ATOM     42  N   UNL A   1      43.320  27.457  27.301  1.00  0.00    -0.354 N 
ATOM     43  C   UNL A   1      39.999  29.156  29.433  1.00  0.00     0.074 A 
ATOM     44  C   UNL A   1      38.886  28.236  29.489  1.00  0.00     0.031 C 
ATOM     45  C   UNL A   1      44.473  25.879  26.218  1.00  0.00     0.029 A 
ATOM     46  C   UNL A   1      44.529  27.268  26.677  1.00  0.00     0.049 A 
ATOM     47  H   UNL A   1      43.067  28.302  27.740  1.00  0.00     0.167 HD
ATOM     48  C   UNL A   1      39.987  30.385  29.999  1.00  0.00     0.034 A 
ATOM     49  C   UNL A   1      45.561  28.118  26.494  1.00  0.00     0.034 A 
ATOM     50  C   UNL A   1      41.087  31.309  29.964  1.00  0.00     0.049 A 
ATOM     51  C   UNL A   1      45.509  29.497  27.103  1.00  0.00     0.074 A 
ATOM     52  C   UNL A   1      41.166  32.573  30.521  1.00  0.00     0.029 A 
ATOM     53  N   UNL A   1      42.297  31.074  29.332  1.00  0.00    -0.354 N 
ATOM     54  N   UNL A   1      44.581  30.039  27.853  1.00  0.00    -0.248 NA
ATOM     55  C   UNL A   1      46.675  30.367  26.877  1.00  0.00     0.031 C 
ATOM     56  C   UNL A   1      42.419  33.111  30.209  1.00  0.00     0.029 A 
ATOM     57  C   UNL A   1      43.128  32.172  29.478  1.00  0.00     0.049 A 
ATOM     58  H   UNL A   1      42.532  30.248  28.849  1.00  0.00     0.167 HD
ATOM     59  C   UNL A   1      45.061  31.297  28.209  1.00  0.00     0.074 A 
ATOM     60  C   UNL A   1      46.379  31.421  27.624  1.00  0.00     0.031 C 
ATOM     61  C   UNL A   1      44.458  32.270  28.937  1.00  0.00     0.034 A 
BRANCH  48  62
ATOM     62  C   UNL A   1      38.745  30.790  30.748  1.00  0.00     0.023 A 
ATOM     63  C   UNL A   1      38.675  30.571  32.139  1.00  0.00     0.012 A 
ATOM     64  C   UNL A   1      37.678  31.431  30.092  1.00  0.00     0.148 A 
ATOM     65  C   UNL A   1      37.550  30.964  32.862  1.00  0.00     0.002 A 
ATOM     66  C   UNL A   1      36.579  31.858  30.826  1.00  0.00     0.091 A 
ATOM     67  F   UNL A   1      37.756  31.605  28.765  1.00  0.00    -0.205 F 
ATOM     68  C   UNL A   1      36.509  31.617  32.209  1.00  0.00     0.022 A 
BRANCH  66  69
ATOM     69  S   UNL A   1      35.221  32.775  30.092  1.00  0.00     0.127 S 
ATOM     70  O   UNL A   1      34.329  32.951  31.237  1.00  0.00    -0.237 OA
ATOM     71  O   UNL A   1      35.885  34.000  29.643  1.00  0.00    -0.237 OA
ATOM     72  O   UNL A   1      34.703  31.937  29.020  1.00  0.00    -0.744 OA
ENDBRANCH  66  69
ENDBRANCH  48  62
BRANCH  49  73
ATOM     73  C   UNL A   1      46.754  27.682  25.716  1.00  0.00     0.023 A 
ATOM     74  C   UNL A   1      46.796  27.877  24.322  1.00  0.00     0.012 A 
ATOM     75  C   UNL A   1      47.842  27.056  26.354  1.00  0.00     0.148 A 
ATOM     76  C   UNL A   1      47.883  27.424  23.574  1.00  0.00     0.002 A 
ATOM     77  C   UNL A   1      48.948  26.660  25.611  1.00  0.00     0.091 A 
ATOM     78  F   UNL A   1      47.773  26.856  27.678  1.00  0.00    -0.205 F 
ATOM     79  C   UNL A   1      48.963  26.825  24.219  1.00  0.00     0.022 A 
BRANCH  77  80
ATOM     80  S   UNL A   1      50.431  26.001  26.380  1.00  0.00     0.127 S 
ATOM     81  O   UNL A   1      49.929  24.776  26.997  1.00  0.00    -0.237 OA
ATOM     82  O   UNL A   1      51.305  25.798  25.225  1.00  0.00    -0.237 OA
ATOM     83  O   UNL A   1      50.886  27.036  27.299  1.00  0.00    -0.744 OA
ENDBRANCH  77  80
ENDBRANCH  49  73
BRANCH  61  84
ATOM     84  C   UNL A   1      45.220  33.553  29.163  1.00  0.00     0.023 A 
ATOM     85  C   UNL A   1      46.041  33.685  30.301  1.00  0.00     0.012 A 
ATOM     86  C   UNL A   1      45.168  34.606  28.227  1.00  0.00     0.148 A 
ATOM     87  C   UNL A   1      46.760  34.859  30.528  1.00  0.00     0.002 A 
ATOM     88  C   UNL A   1      45.925  35.755  28.436  1.00  0.00     0.091 A 
ATOM     89  F   UNL A   1      44.371  34.474  27.156  1.00  0.00    -0.205 F 
ATOM     90  C   UNL A   1      46.710  35.888  29.592  1.00  0.00     0.022 A 
BRANCH  88  91
ATOM     91  S   UNL A   1      45.988  37.092  27.237  1.00  0.00     0.127 S 
ATOM     92  O   UNL A   1      46.887  38.039  27.893  1.00  0.00    -0.237 OA
ATOM     93  O   UNL A   1      46.553  36.432  26.059  1.00  0.00    -0.237 OA
ATOM     94  O   UNL A   1      44.612  37.539  27.070  1.00  0.00    -0.744 OA
ENDBRANCH  88  91
ENDBRANCH  61  84
ENDBRANCH  35  36
ENDBRANCH  28  30
ENDBRANCH  27  28
ENDBRANCH  26  27
ENDBRANCH   1  26
TORSDOF 20
ENDMDL
MODEL 2
REMARK VINA RESULT:     -10.9      5.311     10.199
REMARK SMILES CC[C@@](C)(NC(=O)Nc1c(C)cccc1Cl)C(=O)OCCOCCOC(=O)c1ccc(-c2c3nc(c(-c4cccc(S(=O)(=O)[O-])c4F)c4ccc([nH]4)c(-c4cccc(S(=O)(=O)[O-])c4F)c4nc(c(-c5cccc(S(=O)(=O)[O-])c5F)c5ccc2[nH]5)C=C4)C=C3)cc1
REMARK SMILES IDX 23 1 22 2 21 3 20 4 19 5 17 6 18 7 3 8 4 9 2 10 1 11 5 12
REMARK SMILES IDX 6 13 7 15 8 16 9 18 10 19 15 20 11 21 12 22 14 23 16 24
REMARK SMILES IDX 13 25 24 26 25 27 26 28 27 29 28 30 29 31 90 32 30 33 89 34
REMARK SMILES IDX 31 35 32 36 33 37 83 38 34 39 88 40 82 41 84 42 35 43 87 44
REMARK SMILES IDX 81 45 80 46 36 48 68 49 48 50 67 51 49 52 52 53 66 54 85 55
REMARK SMILES IDX 50 56 51 57 65 59 86 60 53 61 37 62 38 63 46 64 39 65 41 66
REMARK SMILES IDX 47 67 40 68 42 69 43 70 44 71 45 72 69 73 70 74 78 75 71 76
REMARK SMILES IDX 73 77 79 78 72 79 74 80 75 81 76 82 77 83 54 84 55 85 63 86
REMARK SMILES IDX 56 87 58 88 64 89 57 90 59 91 60 92 61 93 62 94
REMARK H PARENT 5 14 8 17 84 47 52 58
REMARK Flexibility Score: inf
ROOT
ATOM      1  C   UNL A   1      32.238  29.308  25.322  1.00  0.00     0.202 C 
ENDROOT
BRANCH   1   2
ATOM      2  O   UNL A   1      31.298  28.357  25.822  1.00  0.00    -0.374 OA
BRANCH   2   3
ATOM      3  C   UNL A   1      31.592  26.971  25.724  1.00  0.00     0.202 C 
BRANCH   3   4
ATOM      4  C   UNL A   1      30.493  26.315  24.824  1.00  0.00     0.261 C 
BRANCH   4   5
ATOM      5  O   UNL A   1      31.104  25.743  23.618  1.00  0.00    -0.462 OA
BRANCH   5   6
ATOM      6  C   UNL A   1      31.191  24.445  23.163  1.00  0.00     0.331 C 
ATOM      7  O   UNL A   1      30.262  23.653  23.206  1.00  0.00    -0.249 OA
BRANCH   6   8
ATOM      8  C   UNL A   1      32.661  24.089  22.564  1.00  0.00     0.136 C 
ATOM      9  C   UNL A   1      32.921  25.214  21.537  1.00  0.00     0.047 C 
BRANCH   8  10
ATOM     10  C   UNL A   1      34.092  23.775  23.159  1.00  0.00     0.037 C 
ATOM     11  C   UNL A   1      34.821  24.587  24.196  1.00  0.00     0.007 C 
ENDBRANCH   8  10
BRANCH   8  12
ATOM     12  N   UNL A   1      32.336  22.821  21.962  1.00  0.00    -0.322 N 
ATOM     13  C   UNL A   1      32.187  21.663  22.644  1.00  0.00     0.320 C 
ATOM     14  H   UNL A   1      32.213  22.796  20.985  1.00  0.00     0.166 HD
ATOM     15  O   UNL A   1      31.962  20.673  21.979  1.00  0.00    -0.248 OA
ATOM     16  N   UNL A   1      32.406  21.505  23.980  1.00  0.00    -0.306 N 
ATOM     17  H   UNL A   1      32.443  20.526  24.072  1.00  0.00     0.171 HD
BRANCH  16  18
ATOM     18  C   UNL A   1      32.617  21.952  25.349  1.00  0.00     0.064 A 
ATOM     19  C   UNL A   1      31.865  22.626  26.377  1.00  0.00    -0.026 A 
ATOM     20  C   UNL A   1      33.911  21.501  25.783  1.00  0.00     0.064 A 
ATOM     21  C   UNL A   1      30.479  23.216  26.464  1.00  0.00     0.046 C 
ATOM     22  C   UNL A   1      32.443  22.785  27.679  1.00  0.00     0.005 A 
ATOM     23  C   UNL A   1      34.410  21.634  27.083  1.00  0.00     0.023 A 
ATOM     24  Cl  UNL A   1      35.024  20.735  24.667  1.00  0.00    -0.082 Cl
ATOM     25  C   UNL A   1      33.671  22.279  28.042  1.00  0.00     0.002 A 
ENDBRANCH  16  18
ENDBRANCH   8  12
ENDBRANCH   6   8
ENDBRANCH   5   6
ENDBRANCH   4   5
ENDBRANCH   3   4
ENDBRANCH   2   3
ENDBRANCH   1   2
BRANCH   1  26
ATOM     26  C   UNL A   1      31.844  30.654  25.968  1.00  0.00     0.261 C 
BRANCH  26  27
ATOM     27  O   UNL A   1      32.448  30.733  27.275  1.00  0.00    -0.460 OA
BRANCH  27  28
ATOM     28  C   UNL A   1      33.225  31.821  27.381  1.00  0.00     0.338 C 
ATOM     29  O   UNL A   1      32.802  32.979  27.472  1.00  0.00    -0.246 OA
BRANCH  28  30
ATOM     30  C   UNL A   1      34.604  31.453  27.760  1.00  0.00     0.060 A 
ATOM     31  C   UNL A   1      34.831  30.084  27.955  1.00  0.00     0.016 A 
ATOM     32  C   UNL A   1      35.636  32.373  27.962  1.00  0.00     0.016 A 
ATOM     33  C   UNL A   1      36.033  29.641  28.487  1.00  0.00     0.010 A 
ATOM     34  C   UNL A   1      36.848  31.927  28.515  1.00  0.00     0.010 A 
ATOM     35  C   UNL A   1      37.012  30.569  28.856  1.00  0.00    -0.014 A 
BRANCH  35  36
ATOM     36  C   UNL A   1      38.018  30.115  29.849  1.00  0.00     0.031 A 
ATOM     37  C   UNL A   1      39.086  29.151  29.388  1.00  0.00     0.074 A 
ATOM     38  C   UNL A   1      38.098  30.656  31.078  1.00  0.00     0.049 A 
ATOM     39  N   UNL A   1      40.164  28.748  30.010  1.00  0.00    -0.248 NA
ATOM     40  C   UNL A   1      38.924  28.579  28.040  1.00  0.00     0.031 C 
ATOM     41  C   UNL A   1      37.154  31.614  31.646  1.00  0.00     0.029 A 
ATOM     42  N   UNL A   1      39.033  30.473  32.067  1.00  0.00    -0.354 N 
ATOM     43  C   UNL A   1      40.804  27.880  29.134  1.00  0.00     0.074 A 
ATOM     44  C   UNL A   1      39.980  27.787  27.950  1.00  0.00     0.031 C 
ATOM     45  C   UNL A   1      37.546  31.919  32.897  1.00  0.00     0.029 A 
ATOM     46  C   UNL A   1      38.768  31.180  33.214  1.00  0.00     0.049 A 
ATOM     47  H   UNL A   1      39.819  29.889  31.964  1.00  0.00     0.167 HD
ATOM     48  C   UNL A   1      41.988  27.240  29.278  1.00  0.00     0.034 A 
ATOM     49  C   UNL A   1      39.435  31.224  34.387  1.00  0.00     0.034 A 
ATOM     50  C   UNL A   1      42.826  27.330  30.442  1.00  0.00     0.049 A 
ATOM     51  C   UNL A   1      40.734  30.471  34.537  1.00  0.00     0.074 A 
ATOM     52  C   UNL A   1      44.048  26.722  30.669  1.00  0.00     0.029 A 
ATOM     53  N   UNL A   1      42.528  28.066  31.576  1.00  0.00    -0.354 N 
ATOM     54  N   UNL A   1      41.384  29.754  33.653  1.00  0.00    -0.248 NA
ATOM     55  C   UNL A   1      41.415  30.575  35.837  1.00  0.00     0.031 C 
ATOM     56  C   UNL A   1      44.481  27.076  31.951  1.00  0.00     0.029 A 
ATOM     57  C   UNL A   1      43.539  27.923  32.512  1.00  0.00     0.049 A 
ATOM     58  H   UNL A   1      41.717  28.609  31.700  1.00  0.00     0.167 HD
ATOM     59  C   UNL A   1      42.559  29.347  34.280  1.00  0.00     0.074 A 
ATOM     60  C   UNL A   1      42.548  29.928  35.605  1.00  0.00     0.031 C 
ATOM     61  C   UNL A   1      43.548  28.546  33.810  1.00  0.00     0.034 A 
BRANCH  48  62
ATOM     62  C   UNL A   1      42.470  26.408  28.120  1.00  0.00     0.023 A 
ATOM     63  C   UNL A   1      43.396  26.960  27.211  1.00  0.00     0.012 A 
ATOM     64  C   UNL A   1      42.054  25.074  27.960  1.00  0.00     0.148 A 
ATOM     65  C   UNL A   1      43.883  26.204  26.147  1.00  0.00     0.002 A 
ATOM     66  C   UNL A   1      42.576  24.312  26.922  1.00  0.00     0.091 A 
ATOM     67  F   UNL A   1      41.153  24.579  28.820  1.00  0.00    -0.205 F 
ATOM     68  C   UNL A   1      43.483  24.878  26.010  1.00  0.00     0.022 A 
BRANCH  66  69
ATOM     69  S   UNL A   1      42.181  22.574  26.704  1.00  0.00     0.127 S 
ATOM     70  O   UNL A   1      42.570  22.018  28.000  1.00  0.00    -0.237 OA
ATOM     71  O   UNL A   1      40.738  22.614  26.466  1.00  0.00    -0.237 OA
ATOM     72  O   UNL A   1      42.972  22.121  25.569  1.00  0.00    -0.744 OA
ENDBRANCH  66  69
ENDBRANCH  48  62
BRANCH  49  73
ATOM     73  C   UNL A   1      38.899  32.034  35.517  1.00  0.00     0.023 A 
ATOM     74  C   UNL A   1      39.046  33.435  35.512  1.00  0.00     0.012 A 
ATOM     75  C   UNL A   1      38.258  31.416  36.607  1.00  0.00     0.148 A 
ATOM     76  C   UNL A   1      38.598  34.200  36.589  1.00  0.00     0.002 A 
ATOM     77  C   UNL A   1      37.762  32.189  37.649  1.00  0.00     0.091 A 
ATOM     78  F   UNL A   1      38.150  30.079  36.607  1.00  0.00    -0.205 F 
ATOM     79  C   UNL A   1      37.947  33.579  37.653  1.00  0.00     0.022 A 
BRANCH  77  80
ATOM     80  S   UNL A   1      36.799  31.483  38.990  1.00  0.00     0.127 S 
ATOM     81  O   UNL A   1      37.754  31.515  40.095  1.00  0.00    -0.237 OA
ATOM     82  O   UNL A   1      35.693  32.434  39.102  1.00  0.00    -0.237 OA
ATOM     83  O   UNL A   1      36.403  30.159  38.531  1.00  0.00    -0.744 OA
ENDBRANCH  77  80
ENDBRANCH  49  73
BRANCH  61  84
ATOM     84  C   UNL A   1      44.716  28.261  34.722  1.00  0.00     0.023 A 
ATOM     85  C   UNL A   1      45.930  28.953  34.536  1.00  0.00     0.012 A 
ATOM     86  C   UNL A   1      44.599  27.353  35.793  1.00  0.00     0.148 A 
ATOM     87  C   UNL A   1      47.021  28.712  35.371  1.00  0.00     0.002 A 
ATOM     88  C   UNL A   1      45.677  27.153  36.650  1.00  0.00     0.091 A 
ATOM     89  F   UNL A   1      43.444  26.690  35.950  1.00  0.00    -0.205 F 
ATOM     90  C   UNL A   1      46.892  27.820  36.433  1.00  0.00     0.022 A 
BRANCH  88  91
ATOM     91  S   UNL A   1      45.567  26.090  38.096  1.00  0.00     0.127 S 
ATOM     92  O   UNL A   1      44.586  26.799  38.914  1.00  0.00    -0.237 OA
ATOM     93  O   UNL A   1      45.088  24.830  37.525  1.00  0.00    -0.237 OA
ATOM     94  O   UNL A   1      46.916  26.025  38.642  1.00  0.00    -0.744 OA
ENDBRANCH  88  91
ENDBRANCH  61  84
ENDBRANCH  35  36
ENDBRANCH  28  30
ENDBRANCH  27  28
ENDBRANCH  26  27
ENDBRANCH   1  26
TORSDOF 20
ENDMDL
MODEL 3
REMARK VINA RESULT:     -10.9      4.890      9.936
REMARK SMILES CC[C@@](C)(NC(=O)Nc1c(C)cccc1Cl)C(=O)OCCOCCOC(=O)c1ccc(-c2c3nc(c(-c4cccc(S(=O)(=O)[O-])c4F)c4ccc([nH]4)c(-c4cccc(S(=O)(=O)[O-])c4F)c4nc(c(-c5cccc(S(=O)(=O)[O-])c5F)c5ccc2[nH]5)C=C4)C=C3)cc1
REMARK SMILES IDX 23 1 22 2 21 3 20 4 19 5 17 6 18 7 3 8 4 9 2 10 1 11 5 12
REMARK SMILES IDX 6 13 7 15 8 16 9 18 10 19 15 20 11 21 12 22 14 23 16 24
REMARK SMILES IDX 13 25 24 26 25 27 26 28 27 29 28 30 29 31 90 32 30 33 89 34
REMARK SMILES IDX 31 35 32 36 33 37 83 38 34 39 88 40 82 41 84 42 35 43 87 44
REMARK SMILES IDX 81 45 80 46 36 48 68 49 48 50 67 51 49 52 52 53 66 54 85 55
REMARK SMILES IDX 50 56 51 57 65 59 86 60 53 61 37 62 38 63 46 64 39 65 41 66
REMARK SMILES IDX 47 67 40 68 42 69 43 70 44 71 45 72 69 73 70 74 78 75 71 76
REMARK SMILES IDX 73 77 79 78 72 79 74 80 75 81 76 82 77 83 54 84 55 85 63 86
REMARK SMILES IDX 56 87 58 88 64 89 57 90 59 91 60 92 61 93 62 94
REMARK H PARENT 5 14 8 17 84 47 52 58
REMARK Flexibility Score: inf
ROOT
ATOM      1  C   UNL A   1      31.114  29.828  25.067  1.00  0.00     0.202 C 
ENDROOT
BRANCH   1   2
ATOM      2  O   UNL A   1      31.766  28.640  24.619  1.00  0.00    -0.374 OA
BRANCH   2   3
ATOM      3  C   UNL A   1      32.135  28.522  23.253  1.00  0.00     0.202 C 
BRANCH   3   4
ATOM      4  C   UNL A   1      31.312  27.340  22.640  1.00  0.00     0.261 C 
BRANCH   4   5
ATOM      5  O   UNL A   1      31.722  26.070  23.252  1.00  0.00    -0.462 OA
BRANCH   5   6
ATOM      6  C   UNL A   1      30.989  25.042  23.806  1.00  0.00     0.331 C 
ATOM      7  O   UNL A   1      30.337  24.248  23.146  1.00  0.00    -0.249 OA
BRANCH   6   8
ATOM      8  C   UNL A   1      31.090  25.007  25.430  1.00  0.00     0.136 C 
ATOM      9  C   UNL A   1      29.937  25.927  25.889  1.00  0.00     0.047 C 
BRANCH   8  10
ATOM     10  C   UNL A   1      31.157  23.890  26.547  1.00  0.00     0.037 C 
ATOM     11  C   UNL A   1      30.081  22.885  26.866  1.00  0.00     0.007 C 
ENDBRANCH   8  10
BRANCH   8  12
ATOM     12  N   UNL A   1      32.394  25.603  25.566  1.00  0.00    -0.322 N 
ATOM     13  C   UNL A   1      33.562  24.943  25.398  1.00  0.00     0.320 C 
ATOM     14  H   UNL A   1      32.439  26.560  25.799  1.00  0.00     0.166 HD
ATOM     15  O   UNL A   1      34.575  25.582  25.599  1.00  0.00    -0.248 OA
ATOM     16  N   UNL A   1      33.680  23.606  25.160  1.00  0.00    -0.306 N 
ATOM     17  H   UNL A   1      34.636  23.446  25.337  1.00  0.00     0.171 HD
BRANCH  16  18
ATOM     18  C   UNL A   1      33.207  22.279  24.796  1.00  0.00     0.064 A 
ATOM     19  C   UNL A   1      32.693  21.615  23.625  1.00  0.00    -0.026 A 
ATOM     20  C   UNL A   1      33.404  21.400  25.918  1.00  0.00     0.064 A 
ATOM     21  C   UNL A   1      32.380  22.047  22.214  1.00  0.00     0.046 C 
ATOM     22  C   UNL A   1      32.431  20.207  23.674  1.00  0.00     0.005 A 
ATOM     23  C   UNL A   1      33.183  20.018  25.899  1.00  0.00     0.023 A 
ATOM     24  Cl  UNL A   1      33.938  22.017  27.468  1.00  0.00    -0.082 Cl
ATOM     25  C   UNL A   1      32.695  19.414  24.768  1.00  0.00     0.002 A 
ENDBRANCH  16  18
ENDBRANCH   8  12
ENDBRANCH   6   8
ENDBRANCH   5   6
ENDBRANCH   4   5
ENDBRANCH   3   4
ENDBRANCH   2   3
ENDBRANCH   1   2
BRANCH   1  26
ATOM     26  C   UNL A   1      31.750  30.154  26.435  1.00  0.00     0.261 C 
BRANCH  26  27
ATOM     27  O   UNL A   1      33.146  30.460  26.235  1.00  0.00    -0.460 OA
BRANCH  27  28
ATOM     28  C   UNL A   1      33.565  31.389  27.108  1.00  0.00     0.338 C 
ATOM     29  O   UNL A   1      32.821  32.162  27.721  1.00  0.00    -0.246 OA
BRANCH  28  30
ATOM     30  C   UNL A   1      34.954  31.128  27.533  1.00  0.00     0.060 A 
ATOM     31  C   UNL A   1      35.346  29.782  27.525  1.00  0.00     0.016 A 
ATOM     32  C   UNL A   1      35.844  32.116  27.962  1.00  0.00     0.016 A 
ATOM     33  C   UNL A   1      36.560  29.401  28.075  1.00  0.00     0.010 A 
ATOM     34  C   UNL A   1      37.068  31.729  28.534  1.00  0.00     0.010 A 
ATOM     35  C   UNL A   1      37.386  30.362  28.666  1.00  0.00    -0.014 A 
BRANCH  35  36
ATOM     36  C   UNL A   1      38.381  29.870  29.652  1.00  0.00     0.031 A 
ATOM     37  C   UNL A   1      39.401  28.858  29.187  1.00  0.00     0.074 A 
ATOM     38  C   UNL A   1      38.495  30.412  30.878  1.00  0.00     0.049 A 
ATOM     39  N   UNL A   1      40.466  28.411  29.801  1.00  0.00    -0.248 NA
ATOM     40  C   UNL A   1      39.202  28.287  27.843  1.00  0.00     0.031 C 
ATOM     41  C   UNL A   1      37.599  31.413  31.449  1.00  0.00     0.029 A 
ATOM     42  N   UNL A   1      39.431  30.193  31.859  1.00  0.00    -0.354 N 
ATOM     43  C   UNL A   1      41.060  27.512  28.924  1.00  0.00     0.074 A 
ATOM     44  C   UNL A   1      40.222  27.449  27.748  1.00  0.00     0.031 C 
ATOM     45  C   UNL A   1      38.016  31.707  32.695  1.00  0.00     0.029 A 
ATOM     46  C   UNL A   1      39.208  30.917  33.005  1.00  0.00     0.049 A 
ATOM     47  H   UNL A   1      40.190  29.575  31.751  1.00  0.00     0.167 HD
ATOM     48  C   UNL A   1      42.216  26.821  29.060  1.00  0.00     0.034 A 
ATOM     49  C   UNL A   1      39.886  30.937  34.171  1.00  0.00     0.034 A 
ATOM     50  C   UNL A   1      43.068  26.880  30.216  1.00  0.00     0.049 A 
ATOM     51  C   UNL A   1      41.153  30.129  34.313  1.00  0.00     0.074 A 
ATOM     52  C   UNL A   1      44.265  26.221  30.435  1.00  0.00     0.029 A 
ATOM     53  N   UNL A   1      42.813  27.634  31.349  1.00  0.00    -0.354 N 
ATOM     54  N   UNL A   1      41.763  29.380  33.427  1.00  0.00    -0.248 NA
ATOM     55  C   UNL A   1      41.850  30.209  35.607  1.00  0.00     0.031 C 
ATOM     56  C   UNL A   1      44.725  26.562  31.711  1.00  0.00     0.029 A 
ATOM     57  C   UNL A   1      43.826  27.452  32.276  1.00  0.00     0.049 A 
ATOM     58  H   UNL A   1      42.027  28.212  31.477  1.00  0.00     0.167 HD
ATOM     59  C   UNL A   1      42.925  28.925  34.046  1.00  0.00     0.074 A 
ATOM     60  C   UNL A   1      42.952  29.512  35.368  1.00  0.00     0.031 C 
ATOM     61  C   UNL A   1      43.873  28.079  33.570  1.00  0.00     0.034 A 
BRANCH  48  62
ATOM     62  C   UNL A   1      42.651  25.964  27.901  1.00  0.00     0.023 A 
ATOM     63  C   UNL A   1      43.617  26.457  27.001  1.00  0.00     0.012 A 
ATOM     64  C   UNL A   1      42.149  24.660  27.734  1.00  0.00     0.148 A 
ATOM     65  C   UNL A   1      44.061  25.674  25.937  1.00  0.00     0.002 A 
ATOM     66  C   UNL A   1      42.627  23.869  26.696  1.00  0.00     0.091 A 
ATOM     67  F   UNL A   1      41.211  24.222  28.586  1.00  0.00    -0.205 F 
ATOM     68  C   UNL A   1      43.575  24.378  25.792  1.00  0.00     0.022 A 
BRANCH  66  69
ATOM     69  S   UNL A   1      42.121  22.162  26.469  1.00  0.00     0.127 S 
ATOM     70  O   UNL A   1      40.675  22.301  26.301  1.00  0.00    -0.237 OA
ATOM     71  O   UNL A   1      42.842  21.787  25.252  1.00  0.00    -0.237 OA
ATOM     72  O   UNL A   1      42.544  21.454  27.668  1.00  0.00    -0.744 OA
ENDBRANCH  66  69
ENDBRANCH  48  62
BRANCH  49  73
ATOM     73  C   UNL A   1      39.397  31.776  35.302  1.00  0.00     0.023 A 
ATOM     74  C   UNL A   1      38.484  31.241  36.232  1.00  0.00     0.012 A 
ATOM     75  C   UNL A   1      39.821  33.110  35.446  1.00  0.00     0.148 A 
ATOM     76  C   UNL A   1      37.976  32.032  37.262  1.00  0.00     0.002 A 
ATOM     77  C   UNL A   1      39.356  33.874  36.509  1.00  0.00     0.091 A 
ATOM     78  F   UNL A   1      40.670  33.610  34.536  1.00  0.00    -0.205 F 
ATOM     79  C   UNL A   1      38.419  33.345  37.407  1.00  0.00     0.022 A 
BRANCH  77  80
ATOM     80  S   UNL A   1      39.975  35.527  36.841  1.00  0.00     0.127 S 
ATOM     81  O   UNL A   1      41.414  35.297  36.927  1.00  0.00    -0.237 OA
ATOM     82  O   UNL A   1      39.536  36.259  35.652  1.00  0.00    -0.237 OA
ATOM     83  O   UNL A   1      39.323  35.947  38.074  1.00  0.00    -0.744 OA
ENDBRANCH  77  80
ENDBRANCH  49  73
BRANCH  61  84
ATOM     84  C   UNL A   1      45.036  27.749  34.473  1.00  0.00     0.023 A 
ATOM     85  C   UNL A   1      46.183  28.569  34.462  1.00  0.00     0.012 A 
ATOM     86  C   UNL A   1      44.977  26.662  35.369  1.00  0.00     0.148 A 
ATOM     87  C   UNL A   1      47.267  28.287  35.293  1.00  0.00     0.002 A 
ATOM     88  C   UNL A   1      46.044  26.415  36.228  1.00  0.00     0.091 A 
ATOM     89  F   UNL A   1      43.887  25.880  35.359  1.00  0.00    -0.205 F 
ATOM     90  C   UNL A   1      47.194  27.218  36.182  1.00  0.00     0.022 A 
BRANCH  88  91
ATOM     91  S   UNL A   1      45.995  25.114  37.467  1.00  0.00     0.127 S 
ATOM     92  O   UNL A   1      44.758  25.426  38.180  1.00  0.00    -0.237 OA
ATOM     93  O   UNL A   1      45.937  23.902  36.648  1.00  0.00    -0.237 OA
ATOM     94  O   UNL A   1      47.222  25.257  38.239  1.00  0.00    -0.744 OA
ENDBRANCH  88  91
ENDBRANCH  61  84
ENDBRANCH  35  36
ENDBRANCH  28  30
ENDBRANCH  27  28
ENDBRANCH  26  27
ENDBRANCH   1  26
TORSDOF 20
ENDMDL
