MODEL 1
REMARK VINA RESULT:     -10.9      0.000      0.000
REMARK SMILES CC(C)c1cc(OCC(=O)OCCOCCOC(=O)c2ccc(-c3c4nc(c(-c5cccc(S(=O)(=O)[O-])c5F)c5ccc([nH]5)c(-c5cccc(S(=O)(=O)[O-])c5F)c5nc(c(-c6cccc(S(=O)(=O)[O-])c6F)c6ccc3[nH]6)C=C5)C=C4)cc2)nc(Nc2ccc(F)cc2F)n1
REMARK SMILES IDX 13 1 12 2 11 3 9 4 10 5 8 6 7 7 6 8 4 9 5 10 94 11 84 12
REMARK SMILES IDX 83 13 2 14 1 15 3 16 85 17 86 19 87 20 92 21 88 22 91 23
REMARK SMILES IDX 93 24 89 25 90 26 14 27 15 28 16 29 17 30 18 31 19 32 20 33
REMARK SMILES IDX 21 34 82 35 22 36 81 37 23 38 24 39 25 40 75 41 26 42 80 43
REMARK SMILES IDX 74 44 76 45 27 46 79 47 73 48 72 49 28 51 60 52 40 53 59 54
REMARK SMILES IDX 41 55 44 56 58 57 77 58 42 59 43 60 57 62 78 63 45 64 29 65
REMARK SMILES IDX 30 66 38 67 31 68 33 69 39 70 32 71 34 72 35 73 36 74 37 75
REMARK SMILES IDX 61 76 62 77 70 78 63 79 65 80 71 81 64 82 66 83 67 84 68 85
REMARK SMILES IDX 69 86 46 87 47 88 55 89 48 90 50 91 56 92 49 93 51 94 52 95
REMARK SMILES IDX 53 96 54 97
REMARK H PARENT 85 18 76 50 44 61
REMARK Flexibility Score: inf
ROOT
ATOM      1  C   UNL A   1      32.977  27.041  25.545  1.00  0.00     0.202 C 
ENDROOT
BRANCH   1   2
ATOM      2  C   UNL A   1      31.571  26.515  25.864  1.00  0.00     0.261 C 
BRANCH   2   3
ATOM      3  O   UNL A   1      31.568  25.568  26.956  1.00  0.00    -0.461 OA
BRANCH   3   4
ATOM      4  C   UNL A   1      30.826  24.440  26.786  1.00  0.00     0.344 C 
ATOM      5  O   UNL A   1      29.603  24.382  26.862  1.00  0.00    -0.248 OA
BRANCH   4   6
ATOM      6  C   UNL A   1      31.680  23.206  26.496  1.00  0.00     0.353 C 
BRANCH   6   7
ATOM      7  O   UNL A   1      31.584  22.579  25.236  1.00  0.00    -0.466 OA
BRANCH   7   8
ATOM      8  C   UNL A   1      32.328  23.025  24.183  1.00  0.00     0.218 A 
ATOM      9  C   UNL A   1      32.897  24.443  22.390  1.00  0.00     0.052 A 
ATOM     10  C   UNL A   1      31.922  23.957  23.247  1.00  0.00     0.092 A 
ATOM     11  N   UNL A   1      34.148  23.950  22.428  1.00  0.00    -0.217 NA
ATOM     12  C   UNL A   1      34.455  23.015  23.338  1.00  0.00     0.230 A 
ATOM     13  N   UNL A   1      33.576  22.533  24.217  1.00  0.00    -0.177 NA
BRANCH   9  14
ATOM     14  C   UNL A   1      32.724  25.733  21.592  1.00  0.00     0.032 C 
ATOM     15  C   UNL A   1      32.597  25.492  20.080  1.00  0.00     0.014 C 
ATOM     16  C   UNL A   1      31.594  26.644  22.067  1.00  0.00     0.014 C 
ENDBRANCH   9  14
BRANCH  12  17
ATOM     17  N   UNL A   1      35.752  22.514  23.390  1.00  0.00    -0.322 N 
ATOM     18  H   UNL A   1      36.050  21.979  22.619  1.00  0.00     0.170 HD
BRANCH  17  19
ATOM     19  C   UNL A   1      36.673  22.693  24.428  1.00  0.00     0.077 A 
ATOM     20  C   UNL A   1      36.752  23.936  25.067  1.00  0.00     0.032 A 
ATOM     21  C   UNL A   1      37.574  21.685  24.816  1.00  0.00     0.149 A 
ATOM     22  C   UNL A   1      37.651  24.135  26.119  1.00  0.00     0.041 A 
ATOM     23  C   UNL A   1      38.483  21.879  25.850  1.00  0.00     0.080 A 
ATOM     24  F   UNL A   1      37.583  20.505  24.174  1.00  0.00    -0.205 F 
ATOM     25  C   UNL A   1      38.501  23.103  26.503  1.00  0.00     0.126 A 
ATOM     26  F   UNL A   1      39.351  23.297  27.520  1.00  0.00    -0.207 F 
ENDBRANCH  17  19
ENDBRANCH  12  17
ENDBRANCH   7   8
ENDBRANCH   6   7
ENDBRANCH   4   6
ENDBRANCH   3   4
ENDBRANCH   2   3
ENDBRANCH   1   2
BRANCH   1  27
ATOM     27  O   UNL A   1      33.084  28.450  25.312  1.00  0.00    -0.374 OA
BRANCH  27  28
ATOM     28  C   UNL A   1      31.876  29.197  25.405  1.00  0.00     0.202 C 
BRANCH  28  29
ATOM     29  C   UNL A   1      31.957  30.555  26.108  1.00  0.00     0.261 C 
BRANCH  29  30
ATOM     30  O   UNL A   1      32.784  30.514  27.264  1.00  0.00    -0.460 OA
BRANCH  30  31
ATOM     31  C   UNL A   1      33.493  31.642  27.458  1.00  0.00     0.338 C 
ATOM     32  O   UNL A   1      33.079  32.794  27.500  1.00  0.00    -0.246 OA
BRANCH  31  33
ATOM     33  C   UNL A   1      34.864  31.273  27.809  1.00  0.00     0.060 A 
ATOM     34  C   UNL A   1      35.101  29.921  28.069  1.00  0.00     0.016 A 
ATOM     35  C   UNL A   1      35.878  32.229  27.919  1.00  0.00     0.016 A 
ATOM     36  C   UNL A   1      36.349  29.524  28.519  1.00  0.00     0.010 A 
ATOM     37  C   UNL A   1      37.133  31.827  28.369  1.00  0.00     0.010 A 
ATOM     38  C   UNL A   1      37.351  30.483  28.715  1.00  0.00    -0.014 A 
BRANCH  38  39
ATOM     39  C   UNL A   1      38.571  30.083  29.439  1.00  0.00     0.031 A 
ATOM     40  C   UNL A   1      38.730  30.515  30.868  1.00  0.00     0.074 A 
ATOM     41  C   UNL A   1      39.482  29.307  28.832  1.00  0.00     0.049 A 
ATOM     42  N   UNL A   1      39.678  30.220  31.716  1.00  0.00    -0.248 NA
ATOM     43  C   UNL A   1      37.685  31.399  31.415  1.00  0.00     0.031 C 
ATOM     44  C   UNL A   1      39.407  28.850  27.443  1.00  0.00     0.029 A 
ATOM     45  N   UNL A   1      40.652  28.774  29.302  1.00  0.00    -0.354 N 
ATOM     46  C   UNL A   1      39.355  30.894  32.888  1.00  0.00     0.074 A 
ATOM     47  C   UNL A   1      38.136  31.629  32.638  1.00  0.00     0.031 C 
ATOM     48  C   UNL A   1      40.499  28.117  27.169  1.00  0.00     0.029 A 
ATOM     49  C   UNL A   1      41.348  28.064  28.356  1.00  0.00     0.049 A 
ATOM     50  H   UNL A   1      40.963  28.890  30.228  1.00  0.00     0.167 HD
ATOM     51  C   UNL A   1      40.009  30.880  34.072  1.00  0.00     0.034 A 
ATOM     52  C   UNL A   1      42.542  27.447  28.446  1.00  0.00     0.034 A 
ATOM     53  C   UNL A   1      41.209  30.125  34.304  1.00  0.00     0.049 A 
ATOM     54  C   UNL A   1      43.247  27.443  29.776  1.00  0.00     0.074 A 
ATOM     55  C   UNL A   1      41.934  29.994  35.473  1.00  0.00     0.029 A 
ATOM     56  N   UNL A   1      41.866  29.378  33.336  1.00  0.00    -0.354 N 
ATOM     57  N   UNL A   1      42.863  27.973  30.914  1.00  0.00    -0.248 NA
ATOM     58  C   UNL A   1      44.526  26.726  29.849  1.00  0.00     0.031 C 
ATOM     59  C   UNL A   1      43.044  29.185  35.206  1.00  0.00     0.029 A 
ATOM     60  C   UNL A   1      42.997  28.793  33.876  1.00  0.00     0.049 A 
ATOM     61  H   UNL A   1      41.571  29.280  32.402  1.00  0.00     0.167 HD
ATOM     62  C   UNL A   1      43.836  27.630  31.844  1.00  0.00     0.074 A 
ATOM     63  C   UNL A   1      44.816  26.826  31.139  1.00  0.00     0.031 C 
ATOM     64  C   UNL A   1      43.926  27.958  33.157  1.00  0.00     0.034 A 
BRANCH  51  65
ATOM     65  C   UNL A   1      39.423  31.681  35.203  1.00  0.00     0.023 A 
ATOM     66  C   UNL A   1      38.437  31.103  36.030  1.00  0.00     0.012 A 
ATOM     67  C   UNL A   1      39.870  32.988  35.473  1.00  0.00     0.148 A 
ATOM     68  C   UNL A   1      37.885  31.823  37.088  1.00  0.00     0.002 A 
ATOM     69  C   UNL A   1      39.344  33.687  36.553  1.00  0.00     0.091 A 
ATOM     70  F   UNL A   1      40.787  33.530  34.659  1.00  0.00    -0.205 F 
ATOM     71  C   UNL A   1      38.344  33.110  37.355  1.00  0.00     0.022 A 
BRANCH  69  72
ATOM     72  S   UNL A   1      39.918  35.323  37.021  1.00  0.00     0.127 S 
ATOM     73  O   UNL A   1      41.369  35.144  36.999  1.00  0.00    -0.237 OA
ATOM     74  O   UNL A   1      39.389  36.156  35.942  1.00  0.00    -0.237 OA
ATOM     75  O   UNL A   1      39.342  35.590  38.332  1.00  0.00    -0.744 OA
ENDBRANCH  69  72
ENDBRANCH  51  65
BRANCH  52  76
ATOM     76  C   UNL A   1      43.104  26.744  27.260  1.00  0.00     0.023 A 
ATOM     77  C   UNL A   1      43.971  27.431  26.388  1.00  0.00     0.012 A 
ATOM     78  C   UNL A   1      42.823  25.385  27.018  1.00  0.00     0.148 A 
ATOM     79  C   UNL A   1      44.526  26.784  25.282  1.00  0.00     0.002 A 
ATOM     80  C   UNL A   1      43.422  24.732  25.947  1.00  0.00     0.091 A 
ATOM     81  F   UNL A   1      41.984  24.752  27.850  1.00  0.00    -0.205 F 
ATOM     82  C   UNL A   1      44.261  25.434  25.068  1.00  0.00     0.022 A 
BRANCH  80  83
ATOM     83  S   UNL A   1      43.243  22.964  25.681  1.00  0.00     0.127 S 
ATOM     84  O   UNL A   1      44.269  22.423  26.567  1.00  0.00    -0.237 OA
ATOM     85  O   UNL A   1      41.865  22.728  26.114  1.00  0.00    -0.237 OA
ATOM     86  O   UNL A   1      43.461  22.761  24.255  1.00  0.00    -0.744 OA
ENDBRANCH  80  83
ENDBRANCH  52  76
BRANCH  64  87
ATOM     87  C   UNL A   1      45.108  27.433  33.923  1.00  0.00     0.023 A 
ATOM     88  C   UNL A   1      46.281  28.208  34.010  1.00  0.00     0.012 A 
ATOM     89  C   UNL A   1      45.026  26.215  34.625  1.00  0.00     0.148 A 
ATOM     90  C   UNL A   1      47.367  27.764  34.763  1.00  0.00     0.002 A 
ATOM     91  C   UNL A   1      46.094  25.802  35.412  1.00  0.00     0.091 A 
ATOM     92  F   UNL A   1      43.907  25.485  34.513  1.00  0.00    -0.205 F 
ATOM     93  C   UNL A   1      47.269  26.570  35.473  1.00  0.00     0.022 A 
BRANCH  91  94
ATOM     94  S   UNL A   1      46.017  24.329  36.436  1.00  0.00     0.127 S 
ATOM     95  O   UNL A   1      45.764  23.288  35.443  1.00  0.00    -0.237 OA
ATOM     96  O   UNL A   1      47.352  24.294  37.033  1.00  0.00    -0.237 OA
ATOM     97  O   UNL A   1      44.939  24.562  37.389  1.00  0.00    -0.744 OA
ENDBRANCH  91  94
ENDBRANCH  64  87
ENDBRANCH  38  39
ENDBRANCH  31  33
ENDBRANCH  30  31
ENDBRANCH  29  30
ENDBRANCH  28  29
ENDBRANCH  27  28
ENDBRANCH   1  27
TORSDOF 22
ENDMDL
MODEL 2
REMARK VINA RESULT:     -10.6      2.020      2.880
REMARK SMILES CC(C)c1cc(OCC(=O)OCCOCCOC(=O)c2ccc(-c3c4nc(c(-c5cccc(S(=O)(=O)[O-])c5F)c5ccc([nH]5)c(-c5cccc(S(=O)(=O)[O-])c5F)c5nc(c(-c6cccc(S(=O)(=O)[O-])c6F)c6ccc3[nH]6)C=C5)C=C4)cc2)nc(Nc2ccc(F)cc2F)n1
REMARK SMILES IDX 13 1 12 2 11 3 9 4 10 5 8 6 7 7 6 8 4 9 5 10 94 11 84 12
REMARK SMILES IDX 83 13 2 14 1 15 3 16 85 17 86 19 87 20 92 21 88 22 91 23
REMARK SMILES IDX 93 24 89 25 90 26 14 27 15 28 16 29 17 30 18 31 19 32 20 33
REMARK SMILES IDX 21 34 82 35 22 36 81 37 23 38 24 39 25 40 75 41 26 42 80 43
REMARK SMILES IDX 74 44 76 45 27 46 79 47 73 48 72 49 28 51 60 52 40 53 59 54
REMARK SMILES IDX 41 55 44 56 58 57 77 58 42 59 43 60 57 62 78 63 45 64 29 65
REMARK SMILES IDX 30 66 38 67 31 68 33 69 39 70 32 71 34 72 35 73 36 74 37 75
REMARK SMILES IDX 61 76 62 77 70 78 63 79 65 80 71 81 64 82 66 83 67 84 68 85
REMARK SMILES IDX 69 86 46 87 47 88 55 89 48 90 50 91 56 92 49 93 51 94 52 95
REMARK SMILES IDX 53 96 54 97
REMARK H PARENT 85 18 76 50 44 61
REMARK Flexibility Score: inf
ROOT
ATOM      1  C   UNL A   1      30.610  28.232  23.824  1.00  0.00     0.202 C 
ENDROOT
BRANCH   1   2
ATOM      2  C   UNL A   1      29.393  27.312  23.653  1.00  0.00     0.261 C 
BRANCH   2   3
ATOM      3  O   UNL A   1      29.431  26.175  24.544  1.00  0.00    -0.461 OA
BRANCH   3   4
ATOM      4  C   UNL A   1      30.345  25.206  24.262  1.00  0.00     0.344 C 
ATOM      5  O   UNL A   1      30.943  25.090  23.198  1.00  0.00    -0.248 OA
BRANCH   4   6
ATOM      6  C   UNL A   1      30.557  24.236  25.423  1.00  0.00     0.353 C 
BRANCH   6   7
ATOM      7  O   UNL A   1      31.870  23.958  25.862  1.00  0.00    -0.466 OA
BRANCH   7   8
ATOM      8  C   UNL A   1      32.671  23.114  25.152  1.00  0.00     0.218 A 
ATOM      9  C   UNL A   1      34.700  22.257  24.316  1.00  0.00     0.052 A 
ATOM     10  C   UNL A   1      34.003  23.329  24.850  1.00  0.00     0.092 A 
ATOM     11  N   UNL A   1      34.070  21.104  24.031  1.00  0.00    -0.217 NA
ATOM     12  C   UNL A   1      32.765  20.985  24.315  1.00  0.00     0.230 A 
ATOM     13  N   UNL A   1      32.044  21.962  24.865  1.00  0.00    -0.177 NA
BRANCH   9  14
ATOM     14  C   UNL A   1      36.225  22.191  24.303  1.00  0.00     0.032 C 
ATOM     15  C   UNL A   1      36.844  22.815  23.043  1.00  0.00     0.014 C 
ATOM     16  C   UNL A   1      36.910  22.752  25.548  1.00  0.00     0.014 C 
ENDBRANCH   9  14
BRANCH  12  17
ATOM     17  N   UNL A   1      32.112  19.788  24.036  1.00  0.00    -0.322 N 
ATOM     18  H   UNL A   1      31.239  19.855  23.586  1.00  0.00     0.170 HD
BRANCH  17  19
ATOM     19  C   UNL A   1      32.573  18.500  24.331  1.00  0.00     0.077 A 
ATOM     20  C   UNL A   1      32.568  18.058  25.660  1.00  0.00     0.032 A 
ATOM     21  C   UNL A   1      33.104  17.647  23.347  1.00  0.00     0.149 A 
ATOM     22  C   UNL A   1      33.005  16.770  25.979  1.00  0.00     0.041 A 
ATOM     23  C   UNL A   1      33.558  16.370  23.658  1.00  0.00     0.080 A 
ATOM     24  F   UNL A   1      33.199  18.065  22.074  1.00  0.00    -0.205 F 
ATOM     25  C   UNL A   1      33.488  15.938  24.974  1.00  0.00     0.126 A 
ATOM     26  F   UNL A   1      33.894  14.700  25.285  1.00  0.00    -0.207 F 
ENDBRANCH  17  19
ENDBRANCH  12  17
ENDBRANCH   7   8
ENDBRANCH   6   7
ENDBRANCH   4   6
ENDBRANCH   3   4
ENDBRANCH   2   3
ENDBRANCH   1   2
BRANCH   1  27
ATOM     27  O   UNL A   1      30.846  28.723  25.148  1.00  0.00    -0.374 OA
BRANCH  27  28
ATOM     28  C   UNL A   1      31.384  30.037  25.246  1.00  0.00     0.202 C 
BRANCH  28  29
ATOM     29  C   UNL A   1      32.765  30.172  25.894  1.00  0.00     0.261 C 
BRANCH  29  30
ATOM     30  O   UNL A   1      32.683  30.580  27.253  1.00  0.00    -0.460 OA
BRANCH  30  31
ATOM     31  C   UNL A   1      33.390  31.694  27.524  1.00  0.00     0.338 C 
ATOM     32  O   UNL A   1      32.977  32.843  27.619  1.00  0.00    -0.246 OA
BRANCH  31  33
ATOM     33  C   UNL A   1      34.751  31.303  27.886  1.00  0.00     0.060 A 
ATOM     34  C   UNL A   1      34.972  29.942  28.113  1.00  0.00     0.016 A 
ATOM     35  C   UNL A   1      35.773  32.246  28.037  1.00  0.00     0.016 A 
ATOM     36  C   UNL A   1      36.209  29.522  28.571  1.00  0.00     0.010 A 
ATOM     37  C   UNL A   1      37.016  31.821  28.496  1.00  0.00     0.010 A 
ATOM     38  C   UNL A   1      37.217  30.467  28.809  1.00  0.00    -0.014 A 
BRANCH  38  39
ATOM     39  C   UNL A   1      38.422  30.036  29.540  1.00  0.00     0.031 A 
ATOM     40  C   UNL A   1      38.617  30.521  30.947  1.00  0.00     0.074 A 
ATOM     41  C   UNL A   1      39.286  29.187  28.961  1.00  0.00     0.049 A 
ATOM     42  N   UNL A   1      39.557  30.215  31.801  1.00  0.00    -0.248 NA
ATOM     43  C   UNL A   1      37.624  31.481  31.462  1.00  0.00     0.031 C 
ATOM     44  C   UNL A   1      39.174  28.675  27.595  1.00  0.00     0.029 A 
ATOM     45  N   UNL A   1      40.432  28.616  29.445  1.00  0.00    -0.354 N 
ATOM     46  C   UNL A   1      39.280  30.955  32.944  1.00  0.00     0.074 A 
ATOM     47  C   UNL A   1      38.098  31.741  32.671  1.00  0.00     0.031 C 
ATOM     48  C   UNL A   1      40.224  27.875  27.345  1.00  0.00     0.029 A 
ATOM     49  C   UNL A   1      41.081  27.830  28.526  1.00  0.00     0.049 A 
ATOM     50  H   UNL A   1      40.757  28.756  30.363  1.00  0.00     0.167 HD
ATOM     51  C   UNL A   1      39.944  30.959  34.122  1.00  0.00     0.034 A 
ATOM     52  C   UNL A   1      42.242  27.157  28.635  1.00  0.00     0.034 A 
ATOM     53  C   UNL A   1      41.106  30.154  34.378  1.00  0.00     0.049 A 
ATOM     54  C   UNL A   1      42.960  27.175  29.958  1.00  0.00     0.074 A 
ATOM     55  C   UNL A   1      41.835  30.038  35.546  1.00  0.00     0.029 A 
ATOM     56  N   UNL A   1      41.715  29.333  33.440  1.00  0.00    -0.354 N 
ATOM     57  N   UNL A   1      42.615  27.774  31.074  1.00  0.00    -0.248 NA
ATOM     58  C   UNL A   1      44.201  26.396  30.053  1.00  0.00     0.031 C 
ATOM     59  C   UNL A   1      42.900  29.161  35.307  1.00  0.00     0.029 A 
ATOM     60  C   UNL A   1      42.819  28.714  33.997  1.00  0.00     0.049 A 
ATOM     61  H   UNL A   1      41.406  29.209  32.513  1.00  0.00     0.167 HD
ATOM     62  C   UNL A   1      43.578  27.421  32.011  1.00  0.00     0.074 A 
ATOM     63  C   UNL A   1      44.508  26.538  31.335  1.00  0.00     0.031 C 
ATOM     64  C   UNL A   1      43.697  27.802  33.308  1.00  0.00     0.034 A 
BRANCH  51  65
ATOM     65  C   UNL A   1      39.412  31.838  35.222  1.00  0.00     0.023 A 
ATOM     66  C   UNL A   1      38.453  31.326  36.121  1.00  0.00     0.012 A 
ATOM     67  C   UNL A   1      39.882  33.154  35.389  1.00  0.00     0.148 A 
ATOM     68  C   UNL A   1      37.950  32.120  37.151  1.00  0.00     0.002 A 
ATOM     69  C   UNL A   1      39.406  33.927  36.442  1.00  0.00     0.091 A 
ATOM     70  F   UNL A   1      40.772  33.632  34.507  1.00  0.00    -0.205 F 
ATOM     71  C   UNL A   1      38.433  33.415  37.317  1.00  0.00     0.022 A 
BRANCH  69  72
ATOM     72  S   UNL A   1      40.015  35.582  36.782  1.00  0.00     0.127 S 
ATOM     73  O   UNL A   1      39.543  36.317  35.609  1.00  0.00    -0.237 OA
ATOM     74  O   UNL A   1      39.325  35.914  38.028  1.00  0.00    -0.237 OA
ATOM     75  O   UNL A   1      41.461  35.460  36.903  1.00  0.00    -0.744 OA
ENDBRANCH  69  72
ENDBRANCH  51  65
BRANCH  52  76
ATOM     76  C   UNL A   1      42.756  26.375  27.476  1.00  0.00     0.023 A 
ATOM     77  C   UNL A   1      43.699  26.954  26.606  1.00  0.00     0.012 A 
ATOM     78  C   UNL A   1      42.351  25.043  27.261  1.00  0.00     0.148 A 
ATOM     79  C   UNL A   1      44.210  26.231  25.527  1.00  0.00     0.002 A 
ATOM     80  C   UNL A   1      42.904  24.310  26.217  1.00  0.00     0.091 A 
ATOM     81  F   UNL A   1      41.442  24.512  28.090  1.00  0.00    -0.205 F 
ATOM     82  C   UNL A   1      43.822  24.907  25.339  1.00  0.00     0.022 A 
BRANCH  80  83
ATOM     83  S   UNL A   1      42.564  22.560  25.988  1.00  0.00     0.127 S 
ATOM     84  O   UNL A   1      43.244  21.970  27.137  1.00  0.00    -0.237 OA
ATOM     85  O   UNL A   1      41.102  22.524  26.052  1.00  0.00    -0.237 OA
ATOM     86  O   UNL A   1      43.111  22.225  24.681  1.00  0.00    -0.744 OA
ENDBRANCH  80  83
ENDBRANCH  52  76
BRANCH  64  87
ATOM     87  C   UNL A   1      44.859  27.250  34.087  1.00  0.00     0.023 A 
ATOM     88  C   UNL A   1      46.071  27.965  34.130  1.00  0.00     0.012 A 
ATOM     89  C   UNL A   1      44.721  26.070  34.844  1.00  0.00     0.148 A 
ATOM     90  C   UNL A   1      47.140  27.499  34.893  1.00  0.00     0.002 A 
ATOM     91  C   UNL A   1      45.774  25.638  35.640  1.00  0.00     0.091 A 
ATOM     92  F   UNL A   1      43.564  25.396  34.774  1.00  0.00    -0.205 F 
ATOM     93  C   UNL A   1      46.987  26.345  35.657  1.00  0.00     0.022 A 
BRANCH  91  94
ATOM     94  S   UNL A   1      45.631  24.218  36.731  1.00  0.00     0.127 S 
ATOM     95  O   UNL A   1      44.937  24.794  37.881  1.00  0.00    -0.237 OA
ATOM     96  O   UNL A   1      44.826  23.292  35.933  1.00  0.00    -0.237 OA
ATOM     97  O   UNL A   1      46.994  23.768  36.981  1.00  0.00    -0.744 OA
ENDBRANCH  91  94
ENDBRANCH  64  87
ENDBRANCH  38  39
ENDBRANCH  31  33
ENDBRANCH  30  31
ENDBRANCH  29  30
ENDBRANCH  28  29
ENDBRANCH  27  28
ENDBRANCH   1  27
TORSDOF 22
ENDMDL
MODEL 3
REMARK VINA RESULT:     -10.5      1.884      7.990
REMARK SMILES CC(C)c1cc(OCC(=O)OCCOCCOC(=O)c2ccc(-c3c4nc(c(-c5cccc(S(=O)(=O)[O-])c5F)c5ccc([nH]5)c(-c5cccc(S(=O)(=O)[O-])c5F)c5nc(c(-c6cccc(S(=O)(=O)[O-])c6F)c6ccc3[nH]6)C=C5)C=C4)cc2)nc(Nc2ccc(F)cc2F)n1
REMARK SMILES IDX 13 1 12 2 11 3 9 4 10 5 8 6 7 7 6 8 4 9 5 10 94 11 84 12
REMARK SMILES IDX 83 13 2 14 1 15 3 16 85 17 86 19 87 20 92 21 88 22 91 23
REMARK SMILES IDX 93 24 89 25 90 26 14 27 15 28 16 29 17 30 18 31 19 32 20 33
REMARK SMILES IDX 21 34 82 35 22 36 81 37 23 38 24 39 25 40 75 41 26 42 80 43
REMARK SMILES IDX 74 44 76 45 27 46 79 47 73 48 72 49 28 51 60 52 40 53 59 54
REMARK SMILES IDX 41 55 44 56 58 57 77 58 42 59 43 60 57 62 78 63 45 64 29 65
REMARK SMILES IDX 30 66 38 67 31 68 33 69 39 70 32 71 34 72 35 73 36 74 37 75
REMARK SMILES IDX 61 76 62 77 70 78 63 79 65 80 71 81 64 82 66 83 67 84 68 85
REMARK SMILES IDX 69 86 46 87 47 88 55 89 48 90 50 91 56 92 49 93 51 94 52 95
REMARK SMILES IDX 53 96 54 97
REMARK H PARENT 85 18 76 50 44 61
REMARK Flexibility Score: inf
ROOT
ATOM      1  C   UNL A   1      31.051  27.604  22.837  1.00  0.00     0.202 C 
ENDROOT
BRANCH   1   2
ATOM      2  C   UNL A   1      31.274  26.226  23.473  1.00  0.00     0.261 C 
BRANCH   2   3
ATOM      3  O   UNL A   1      32.595  25.702  23.208  1.00  0.00    -0.461 OA
BRANCH   3   4
ATOM      4  C   UNL A   1      32.666  24.580  22.440  1.00  0.00     0.344 C 
ATOM      5  O   UNL A   1      33.229  24.505  21.353  1.00  0.00    -0.248 OA
BRANCH   4   6
ATOM      6  C   UNL A   1      31.945  23.387  23.066  1.00  0.00     0.353 C 
BRANCH   6   7
ATOM      7  O   UNL A   1      32.159  22.095  22.538  1.00  0.00    -0.466 OA
BRANCH   7   8
ATOM      8  C   UNL A   1      32.480  21.057  23.362  1.00  0.00     0.218 A 
ATOM      9  C   UNL A   1      32.758  18.802  23.985  1.00  0.00     0.052 A 
ATOM     10  C   UNL A   1      32.152  19.731  23.154  1.00  0.00     0.092 A 
ATOM     11  N   UNL A   1      33.553  19.203  24.993  1.00  0.00    -0.217 NA
ATOM     12  C   UNL A   1      33.791  20.512  25.158  1.00  0.00     0.230 A 
ATOM     13  N   UNL A   1      33.271  21.454  24.371  1.00  0.00    -0.177 NA
BRANCH   9  14
ATOM     14  C   UNL A   1      32.828  17.316  23.646  1.00  0.00     0.032 C 
ATOM     15  C   UNL A   1      34.024  16.957  22.751  1.00  0.00     0.014 C 
ATOM     16  C   UNL A   1      32.780  16.372  24.846  1.00  0.00     0.014 C 
ENDBRANCH   9  14
BRANCH  12  17
ATOM     17  N   UNL A   1      34.623  20.929  26.191  1.00  0.00    -0.322 N 
ATOM     18  H   UNL A   1      34.450  20.546  27.082  1.00  0.00     0.170 HD
BRANCH  17  19
ATOM     19  C   UNL A   1      35.681  21.840  26.092  1.00  0.00     0.077 A 
ATOM     20  C   UNL A   1      36.956  21.374  25.747  1.00  0.00     0.032 A 
ATOM     21  C   UNL A   1      35.528  23.206  26.390  1.00  0.00     0.149 A 
ATOM     22  C   UNL A   1      38.025  22.265  25.623  1.00  0.00     0.041 A 
ATOM     23  C   UNL A   1      36.591  24.097  26.286  1.00  0.00     0.080 A 
ATOM     24  F   UNL A   1      34.340  23.676  26.802  1.00  0.00    -0.205 F 
ATOM     25  C   UNL A   1      37.829  23.617  25.887  1.00  0.00     0.126 A 
ATOM     26  F   UNL A   1      38.856  24.467  25.754  1.00  0.00    -0.207 F 
ENDBRANCH  17  19
ENDBRANCH  12  17
ENDBRANCH   7   8
ENDBRANCH   6   7
ENDBRANCH   4   6
ENDBRANCH   3   4
ENDBRANCH   2   3
ENDBRANCH   1   2
BRANCH   1  27
ATOM     27  O   UNL A   1      30.710  28.665  23.738  1.00  0.00    -0.374 OA
BRANCH  27  28
ATOM     28  C   UNL A   1      31.443  28.716  24.957  1.00  0.00     0.202 C 
BRANCH  28  29
ATOM     29  C   UNL A   1      31.793  30.106  25.495  1.00  0.00     0.261 C 
BRANCH  29  30
ATOM     30  O   UNL A   1      32.452  30.044  26.754  1.00  0.00    -0.460 OA
BRANCH  30  31
ATOM     31  C   UNL A   1      32.990  31.218  27.137  1.00  0.00     0.338 C 
ATOM     32  O   UNL A   1      32.438  32.308  27.221  1.00  0.00    -0.246 OA
BRANCH  31  33
ATOM     33  C   UNL A   1      34.341  30.967  27.636  1.00  0.00     0.060 A 
ATOM     34  C   UNL A   1      34.733  29.630  27.737  1.00  0.00     0.016 A 
ATOM     35  C   UNL A   1      35.186  32.010  28.029  1.00  0.00     0.016 A 
ATOM     36  C   UNL A   1      35.955  29.321  28.311  1.00  0.00     0.010 A 
ATOM     37  C   UNL A   1      36.415  31.697  28.603  1.00  0.00     0.010 A 
ATOM     38  C   UNL A   1      36.775  30.352  28.788  1.00  0.00    -0.014 A 
BRANCH  38  39
ATOM     39  C   UNL A   1      37.934  29.993  29.625  1.00  0.00     0.031 A 
ATOM     40  C   UNL A   1      38.953  29.042  29.068  1.00  0.00     0.074 A 
ATOM     41  C   UNL A   1      38.083  30.556  30.835  1.00  0.00     0.049 A 
ATOM     42  N   UNL A   1      40.081  28.645  29.591  1.00  0.00    -0.248 NA
ATOM     43  C   UNL A   1      38.663  28.458  27.746  1.00  0.00     0.031 C 
ATOM     44  C   UNL A   1      37.134  31.483  31.454  1.00  0.00     0.029 A 
ATOM     45  N   UNL A   1      39.081  30.422  31.762  1.00  0.00    -0.354 N 
ATOM     46  C   UNL A   1      40.626  27.753  28.676  1.00  0.00     0.074 A 
ATOM     47  C   UNL A   1      39.697  27.650  27.573  1.00  0.00     0.031 C 
ATOM     48  C   UNL A   1      37.591  31.822  32.671  1.00  0.00     0.029 A 
ATOM     49  C   UNL A   1      38.853  31.129  32.916  1.00  0.00     0.049 A 
ATOM     50  H   UNL A   1      39.883  29.871  31.614  1.00  0.00     0.167 HD
ATOM     51  C   UNL A   1      41.807  27.097  28.743  1.00  0.00     0.034 A 
ATOM     52  C   UNL A   1      39.585  31.197  34.044  1.00  0.00     0.034 A 
ATOM     53  C   UNL A   1      42.724  27.230  29.841  1.00  0.00     0.049 A 
ATOM     54  C   UNL A   1      40.897  30.461  34.092  1.00  0.00     0.074 A 
ATOM     55  C   UNL A   1      43.970  26.654  29.999  1.00  0.00     0.029 A 
ATOM     56  N   UNL A   1      42.484  27.990  30.977  1.00  0.00    -0.354 N 
ATOM     57  N   UNL A   1      41.464  29.726  33.163  1.00  0.00    -0.248 NA
ATOM     58  C   UNL A   1      41.689  30.592  35.322  1.00  0.00     0.031 C 
ATOM     59  C   UNL A   1      44.475  27.049  31.243  1.00  0.00     0.029 A 
ATOM     60  C   UNL A   1      43.553  27.889  31.848  1.00  0.00     0.049 A 
ATOM     61  H   UNL A   1      41.672  28.522  31.139  1.00  0.00     0.167 HD
ATOM     62  C   UNL A   1      42.690  29.332  33.683  1.00  0.00     0.074 A 
ATOM     63  C   UNL A   1      42.793  29.929  35.000  1.00  0.00     0.031 C 
ATOM     64  C   UNL A   1      43.642  28.537  33.133  1.00  0.00     0.034 A 
BRANCH  51  65
ATOM     65  C   UNL A   1      42.178  26.205  27.589  1.00  0.00     0.023 A 
ATOM     66  C   UNL A   1      42.758  26.766  26.433  1.00  0.00     0.012 A 
ATOM     67  C   UNL A   1      41.987  24.812  27.660  1.00  0.00     0.148 A 
ATOM     68  C   UNL A   1      43.115  25.958  25.354  1.00  0.00     0.002 A 
ATOM     69  C   UNL A   1      42.382  24.008  26.598  1.00  0.00     0.091 A 
ATOM     70  F   UNL A   1      41.409  24.301  28.757  1.00  0.00    -0.205 F 
ATOM     71  C   UNL A   1      42.937  24.580  25.440  1.00  0.00     0.022 A 
BRANCH  69  72
ATOM     72  S   UNL A   1      42.258  22.217  26.639  1.00  0.00     0.127 S 
ATOM     73  O   UNL A   1      40.833  22.026  26.906  1.00  0.00    -0.237 OA
ATOM     74  O   UNL A   1      42.681  21.847  25.288  1.00  0.00    -0.237 OA
ATOM     75  O   UNL A   1      43.157  21.777  27.698  1.00  0.00    -0.744 OA
ENDBRANCH  69  72
ENDBRANCH  51  65
BRANCH  52  76
ATOM     76  C   UNL A   1      39.115  32.034  35.183  1.00  0.00     0.023 A 
ATOM     77  C   UNL A   1      38.187  31.505  36.101  1.00  0.00     0.012 A 
ATOM     78  C   UNL A   1      39.619  33.333  35.389  1.00  0.00     0.148 A 
ATOM     79  C   UNL A   1      37.751  32.265  37.188  1.00  0.00     0.002 A 
ATOM     80  C   UNL A   1      39.222  34.063  36.502  1.00  0.00     0.091 A 
ATOM     81  F   UNL A   1      40.490  33.826  34.497  1.00  0.00    -0.205 F 
ATOM     82  C   UNL A   1      38.275  33.537  37.395  1.00  0.00     0.022 A 
BRANCH  80  83
ATOM     83  S   UNL A   1      39.952  35.652  36.917  1.00  0.00     0.127 S 
ATOM     84  O   UNL A   1      41.361  35.303  37.072  1.00  0.00    -0.237 OA
ATOM     85  O   UNL A   1      39.640  36.450  35.730  1.00  0.00    -0.237 OA
ATOM     86  O   UNL A   1      39.267  36.091  38.126  1.00  0.00    -0.744 OA
ENDBRANCH  80  83
ENDBRANCH  52  76
BRANCH  64  87
ATOM     87  C   UNL A   1      44.885  28.283  33.942  1.00  0.00     0.023 A 
ATOM     88  C   UNL A   1      46.010  29.112  33.769  1.00  0.00     0.012 A 
ATOM     89  C   UNL A   1      44.906  27.280  34.930  1.00  0.00     0.148 A 
ATOM     90  C   UNL A   1      47.150  28.929  34.549  1.00  0.00     0.002 A 
ATOM     91  C   UNL A   1      46.027  27.135  35.737  1.00  0.00     0.091 A 
ATOM     92  F   UNL A   1      43.830  26.491  35.065  1.00  0.00    -0.205 F 
ATOM     93  C   UNL A   1      47.154  27.950  35.540  1.00  0.00     0.022 A 
BRANCH  91  94
ATOM     94  S   UNL A   1      46.082  25.967  37.101  1.00  0.00     0.127 S 
ATOM     95  O   UNL A   1      47.215  26.468  37.876  1.00  0.00    -0.237 OA
ATOM     96  O   UNL A   1      44.776  26.163  37.731  1.00  0.00    -0.237 OA
ATOM     97  O   UNL A   1      46.267  24.654  36.496  1.00  0.00    -0.744 OA
ENDBRANCH  91  94
ENDBRANCH  64  87
ENDBRANCH  38  39
ENDBRANCH  31  33
ENDBRANCH  30  31
ENDBRANCH  29  30
ENDBRANCH  28  29
ENDBRANCH  27  28
ENDBRANCH   1  27
TORSDOF 22
ENDMDL
