MODEL 1
REMARK VINA RESULT:     -11.5      0.000      0.000
REMARK SMILES O=C(OCCOCCOC(=O)[C@@H]1CC=CC[C@@H]1C(=O)Nc1ccc(O)cc1)c1ccc(-c2c3nc(c(-c4cccc(S(=O)(=O)[O-])c4F)c4ccc([nH]4)c(-c4cccc(S(=O)(=O)[O-])c4F)c4nc(c(-c5cccc(S(=O)(=O)[O-])c5F)c5ccc2[nH]5)C=C4)C=C3)cc1
REMARK SMILES IDX 6 1 5 2 4 3 3 4 2 5 1 6 28 7 29 8 90 9 30 10 89 11 31 12
REMARK SMILES IDX 32 13 33 14 83 15 34 16 88 17 82 18 84 19 35 20 87 21 81 22
REMARK SMILES IDX 80 23 36 25 68 26 48 27 67 28 49 29 52 30 66 31 85 32 50 33
REMARK SMILES IDX 51 34 65 36 86 37 53 38 37 39 38 40 46 41 39 42 41 43 47 44
REMARK SMILES IDX 40 45 42 46 43 47 44 48 45 49 69 50 70 51 78 52 71 53 73 54
REMARK SMILES IDX 79 55 72 56 74 57 75 58 76 59 77 60 54 61 55 62 63 63 56 64
REMARK SMILES IDX 58 65 64 66 57 67 59 68 60 69 61 70 62 71 7 72 8 73 9 74
REMARK SMILES IDX 10 75 11 76 12 77 13 78 17 79 14 80 16 81 15 82 18 83 19 84
REMARK SMILES IDX 20 85 21 87 22 88 27 89 23 90 26 91 24 92 25 93
REMARK H PARENT 84 24 52 35 20 86 25 94
REMARK Flexibility Score: inf
ROOT
ATOM      1  O   UNL A   1      34.661  20.962  24.575  1.00  0.00    -0.374 OA
ENDROOT
BRANCH   1   2
ATOM      2  C   UNL A   1      35.837  21.420  25.244  1.00  0.00     0.202 C 
BRANCH   2   3
ATOM      3  C   UNL A   1      37.064  20.493  25.296  1.00  0.00     0.261 C 
BRANCH   3   4
ATOM      4  O   UNL A   1      38.303  21.206  25.176  1.00  0.00    -0.460 OA
BRANCH   4   5
ATOM      5  C   UNL A   1      39.325  21.236  26.070  1.00  0.00     0.338 C 
ATOM      6  O   UNL A   1      39.727  20.166  26.523  1.00  0.00    -0.246 OA
BRANCH   5   7
ATOM      7  C   UNL A   1      39.900  22.509  26.620  1.00  0.00     0.060 A 
ATOM      8  C   UNL A   1      39.489  23.787  26.250  1.00  0.00     0.016 A 
ATOM      9  C   UNL A   1      40.853  22.413  27.650  1.00  0.00     0.016 A 
ATOM     10  C   UNL A   1      39.916  24.920  26.896  1.00  0.00     0.010 A 
ATOM     11  C   UNL A   1      41.346  23.563  28.284  1.00  0.00     0.010 A 
ATOM     12  C   UNL A   1      40.864  24.815  27.898  1.00  0.00    -0.014 A 
BRANCH  12  13
ATOM     13  C   UNL A   1      41.454  26.101  28.275  1.00  0.00     0.031 A 
ATOM     14  C   UNL A   1      42.782  26.427  27.667  1.00  0.00     0.074 A 
ATOM     15  C   UNL A   1      40.675  27.028  28.858  1.00  0.00     0.049 A 
ATOM     16  N   UNL A   1      43.446  27.545  27.687  1.00  0.00    -0.248 NA
ATOM     17  C   UNL A   1      43.421  25.358  26.873  1.00  0.00     0.031 C 
ATOM     18  C   UNL A   1      39.284  26.821  29.272  1.00  0.00     0.029 A 
ATOM     19  N   UNL A   1      40.919  28.339  29.146  1.00  0.00    -0.354 N 
ATOM     20  C   UNL A   1      44.602  27.301  26.960  1.00  0.00     0.074 A 
ATOM     21  C   UNL A   1      44.535  25.945  26.470  1.00  0.00     0.031 C 
ATOM     22  C   UNL A   1      38.800  27.969  29.772  1.00  0.00     0.029 A 
ATOM     23  C   UNL A   1      39.862  28.970  29.758  1.00  0.00     0.049 A 
ATOM     24  H   UNL A   1      41.768  28.791  28.937  1.00  0.00     0.167 HD
ATOM     25  C   UNL A   1      45.640  28.137  26.750  1.00  0.00     0.034 A 
ATOM     26  C   UNL A   1      39.794  30.209  30.275  1.00  0.00     0.034 A 
ATOM     27  C   UNL A   1      45.674  29.470  27.275  1.00  0.00     0.049 A 
ATOM     28  C   UNL A   1      41.012  31.080  30.129  1.00  0.00     0.074 A 
ATOM     29  C   UNL A   1      46.695  30.397  27.220  1.00  0.00     0.029 A 
ATOM     30  N   UNL A   1      44.630  30.055  27.982  1.00  0.00    -0.354 N 
ATOM     31  N   UNL A   1      42.126  30.836  29.476  1.00  0.00    -0.248 NA
ATOM     32  C   UNL A   1      40.967  32.398  30.771  1.00  0.00     0.031 C 
ATOM     33  C   UNL A   1      46.284  31.525  27.937  1.00  0.00     0.029 A 
ATOM     34  C   UNL A   1      44.986  31.325  28.386  1.00  0.00     0.049 A 
ATOM     35  H   UNL A   1      43.763  29.626  28.165  1.00  0.00     0.167 HD
ATOM     36  C   UNL A   1      42.899  31.982  29.595  1.00  0.00     0.074 A 
ATOM     37  C   UNL A   1      42.115  32.927  30.370  1.00  0.00     0.031 C 
ATOM     38  C   UNL A   1      44.145  32.237  29.120  1.00  0.00     0.034 A 
BRANCH  25  39
ATOM     39  C   UNL A   1      46.833  27.573  26.033  1.00  0.00     0.023 A 
ATOM     40  C   UNL A   1      46.928  27.626  24.628  1.00  0.00     0.012 A 
ATOM     41  C   UNL A   1      47.844  26.926  26.771  1.00  0.00     0.148 A 
ATOM     42  C   UNL A   1      47.990  27.004  23.967  1.00  0.00     0.002 A 
ATOM     43  C   UNL A   1      48.920  26.352  26.111  1.00  0.00     0.091 A 
ATOM     44  F   UNL A   1      47.711  26.854  28.104  1.00  0.00    -0.205 F 
ATOM     45  C   UNL A   1      48.988  26.374  24.708  1.00  0.00     0.022 A 
BRANCH  43  46
ATOM     46  S   UNL A   1      50.280  25.569  26.982  1.00  0.00     0.127 S 
ATOM     47  O   UNL A   1      51.201  25.271  25.886  1.00  0.00    -0.237 OA
ATOM     48  O   UNL A   1      50.721  26.639  27.877  1.00  0.00    -0.237 OA
ATOM     49  O   UNL A   1      49.716  24.405  27.651  1.00  0.00    -0.744 OA
ENDBRANCH  43  46
ENDBRANCH  25  39
BRANCH  26  50
ATOM     50  C   UNL A   1      38.572  30.676  30.992  1.00  0.00     0.023 A 
ATOM     51  C   UNL A   1      38.416  30.422  32.367  1.00  0.00     0.012 A 
ATOM     52  C   UNL A   1      37.548  31.363  30.306  1.00  0.00     0.148 A 
ATOM     53  C   UNL A   1      37.252  30.808  33.036  1.00  0.00     0.002 A 
ATOM     54  C   UNL A   1      36.417  31.792  30.988  1.00  0.00     0.091 A 
ATOM     55  F   UNL A   1      37.701  31.582  28.992  1.00  0.00    -0.205 F 
ATOM     56  C   UNL A   1      36.256  31.498  32.350  1.00  0.00     0.022 A 
BRANCH  54  57
ATOM     57  S   UNL A   1      35.134  32.778  30.206  1.00  0.00     0.127 S 
ATOM     58  O   UNL A   1      34.639  31.865  29.179  1.00  0.00    -0.237 OA
ATOM     59  O   UNL A   1      34.214  33.013  31.319  1.00  0.00    -0.237 OA
ATOM     60  O   UNL A   1      35.801  33.977  29.715  1.00  0.00    -0.744 OA
ENDBRANCH  54  57
ENDBRANCH  26  50
BRANCH  38  61
ATOM     61  C   UNL A   1      44.704  33.609  29.374  1.00  0.00     0.023 A 
ATOM     62  C   UNL A   1      45.429  33.874  30.550  1.00  0.00     0.012 A 
ATOM     63  C   UNL A   1      44.576  34.608  28.390  1.00  0.00     0.148 A 
ATOM     64  C   UNL A   1      45.990  35.132  30.761  1.00  0.00     0.002 A 
ATOM     65  C   UNL A   1      45.191  35.835  28.578  1.00  0.00     0.091 A 
ATOM     66  F   UNL A   1      43.863  34.333  27.288  1.00  0.00    -0.205 F 
ATOM     67  C   UNL A   1      45.884  36.106  29.769  1.00  0.00     0.022 A 
BRANCH  65  68
ATOM     68  S   UNL A   1      45.209  37.097  27.301  1.00  0.00     0.127 S 
ATOM     69  O   UNL A   1      46.009  36.453  26.261  1.00  0.00    -0.237 OA
ATOM     70  O   UNL A   1      43.787  37.234  26.984  1.00  0.00    -0.237 OA
ATOM     71  O   UNL A   1      45.807  38.276  27.912  1.00  0.00    -0.744 OA
ENDBRANCH  65  68
ENDBRANCH  38  61
ENDBRANCH  12  13
ENDBRANCH   5   7
ENDBRANCH   4   5
ENDBRANCH   3   4
ENDBRANCH   2   3
ENDBRANCH   1   2
BRANCH   1  72
ATOM     72  C   UNL A   1      33.601  20.440  25.383  1.00  0.00     0.202 C 
BRANCH  72  73
ATOM     73  C   UNL A   1      32.486  21.468  25.521  1.00  0.00     0.261 C 
BRANCH  73  74
ATOM     74  O   UNL A   1      32.212  21.912  24.188  1.00  0.00    -0.463 OA
BRANCH  74  75
ATOM     75  C   UNL A   1      31.671  23.145  24.058  1.00  0.00     0.310 C 
ATOM     76  O   UNL A   1      30.686  23.408  23.399  1.00  0.00    -0.252 OA
BRANCH  75  77
ATOM     77  C   UNL A   1      32.367  24.086  25.038  1.00  0.00     0.116 C 
ATOM     78  C   UNL A   1      31.349  25.157  25.443  1.00  0.00     0.043 C 
ATOM     79  C   UNL A   1      33.797  24.526  24.673  1.00  0.00     0.097 C 
ATOM     80  C   UNL A   1      31.923  26.396  26.026  1.00  0.00    -0.030 C 
ATOM     81  C   UNL A   1      34.267  25.828  25.354  1.00  0.00     0.041 C 
ATOM     82  C   UNL A   1      33.222  26.698  25.976  1.00  0.00    -0.030 C 
BRANCH  79  83
ATOM     83  C   UNL A   1      34.074  24.543  23.182  1.00  0.00     0.228 C 
ATOM     84  O   UNL A   1      34.865  23.719  22.707  1.00  0.00    -0.274 OA
ATOM     85  N   UNL A   1      33.523  25.433  22.304  1.00  0.00    -0.326 N 
ATOM     86  H   UNL A   1      33.790  25.225  21.379  1.00  0.00     0.169 HD
BRANCH  85  87
ATOM     87  C   UNL A   1      32.679  26.571  22.343  1.00  0.00     0.041 A 
ATOM     88  C   UNL A   1      31.282  26.602  22.267  1.00  0.00     0.030 A 
ATOM     89  C   UNL A   1      33.336  27.796  22.570  1.00  0.00     0.030 A 
ATOM     90  C   UNL A   1      30.564  27.787  22.499  1.00  0.00     0.048 A 
ATOM     91  C   UNL A   1      32.626  28.983  22.783  1.00  0.00     0.048 A 
ATOM     92  C   UNL A   1      31.241  28.964  22.774  1.00  0.00     0.115 A 
BRANCH  92  93
ATOM     93  O   UNL A   1      30.578  30.119  23.059  1.00  0.00    -0.508 OA
ATOM     94  H   UNL A   1      30.377  30.724  22.373  1.00  0.00     0.293 HD
ENDBRANCH  92  93
ENDBRANCH  85  87
ENDBRANCH  79  83
ENDBRANCH  75  77
ENDBRANCH  74  75
ENDBRANCH  73  74
ENDBRANCH  72  73
ENDBRANCH   1  72
TORSDOF 20
ENDMDL
MODEL 2
REMARK VINA RESULT:     -11.4      1.682      2.449
REMARK SMILES O=C(OCCOCCOC(=O)[C@@H]1CC=CC[C@@H]1C(=O)Nc1ccc(O)cc1)c1ccc(-c2c3nc(c(-c4cccc(S(=O)(=O)[O-])c4F)c4ccc([nH]4)c(-c4cccc(S(=O)(=O)[O-])c4F)c4nc(c(-c5cccc(S(=O)(=O)[O-])c5F)c5ccc2[nH]5)C=C4)C=C3)cc1
REMARK SMILES IDX 6 1 5 2 4 3 3 4 2 5 1 6 28 7 29 8 90 9 30 10 89 11 31 12
REMARK SMILES IDX 32 13 33 14 83 15 34 16 88 17 82 18 84 19 35 20 87 21 81 22
REMARK SMILES IDX 80 23 36 25 68 26 48 27 67 28 49 29 52 30 66 31 85 32 50 33
REMARK SMILES IDX 51 34 65 36 86 37 53 38 37 39 38 40 46 41 39 42 41 43 47 44
REMARK SMILES IDX 40 45 42 46 43 47 44 48 45 49 69 50 70 51 78 52 71 53 73 54
REMARK SMILES IDX 79 55 72 56 74 57 75 58 76 59 77 60 54 61 55 62 63 63 56 64
REMARK SMILES IDX 58 65 64 66 57 67 59 68 60 69 61 70 62 71 7 72 8 73 9 74
REMARK SMILES IDX 10 75 11 76 12 77 13 78 17 79 14 80 16 81 15 82 18 83 19 84
REMARK SMILES IDX 20 85 21 87 22 88 27 89 23 90 26 91 24 92 25 93
REMARK H PARENT 84 24 52 35 20 86 25 94
REMARK Flexibility Score: inf
ROOT
ATOM      1  O   UNL A   1      35.307  21.801  26.343  1.00  0.00    -0.374 OA
ENDROOT
BRANCH   1   2
ATOM      2  C   UNL A   1      36.226  21.175  25.446  1.00  0.00     0.202 C 
BRANCH   2   3
ATOM      3  C   UNL A   1      37.634  21.774  25.295  1.00  0.00     0.261 C 
BRANCH   3   4
ATOM      4  O   UNL A   1      38.673  20.794  25.438  1.00  0.00    -0.460 OA
BRANCH   4   5
ATOM      5  C   UNL A   1      39.818  20.909  26.159  1.00  0.00     0.338 C 
ATOM      6  O   UNL A   1      40.408  19.877  26.472  1.00  0.00    -0.246 OA
BRANCH   5   7
ATOM      7  C   UNL A   1      40.328  22.216  26.691  1.00  0.00     0.060 A 
ATOM      8  C   UNL A   1      40.005  23.464  26.164  1.00  0.00     0.016 A 
ATOM      9  C   UNL A   1      41.108  22.194  27.861  1.00  0.00     0.016 A 
ATOM     10  C   UNL A   1      40.351  24.642  26.780  1.00  0.00     0.010 A 
ATOM     11  C   UNL A   1      41.522  23.387  28.473  1.00  0.00     0.010 A 
ATOM     12  C   UNL A   1      41.131  24.608  27.921  1.00  0.00    -0.014 A 
BRANCH  12  13
ATOM     13  C   UNL A   1      41.683  25.915  28.285  1.00  0.00     0.031 A 
ATOM     14  C   UNL A   1      43.009  26.267  27.687  1.00  0.00     0.074 A 
ATOM     15  C   UNL A   1      40.873  26.830  28.843  1.00  0.00     0.049 A 
ATOM     16  N   UNL A   1      43.644  27.402  27.698  1.00  0.00    -0.248 NA
ATOM     17  C   UNL A   1      43.685  25.203  26.918  1.00  0.00     0.031 C 
ATOM     18  C   UNL A   1      39.482  26.593  29.244  1.00  0.00     0.029 A 
ATOM     19  N   UNL A   1      41.078  28.152  29.113  1.00  0.00    -0.354 N 
ATOM     20  C   UNL A   1      44.814  27.177  26.989  1.00  0.00     0.074 A 
ATOM     21  C   UNL A   1      44.788  25.813  26.519  1.00  0.00     0.031 C 
ATOM     22  C   UNL A   1      38.962  27.736  29.720  1.00  0.00     0.029 A 
ATOM     23  C   UNL A   1      39.997  28.763  29.702  1.00  0.00     0.049 A 
ATOM     24  H   UNL A   1      41.918  28.622  28.908  1.00  0.00     0.167 HD
ATOM     25  C   UNL A   1      45.833  28.037  26.778  1.00  0.00     0.034 A 
ATOM     26  C   UNL A   1      39.891  30.009  30.199  1.00  0.00     0.034 A 
ATOM     27  C   UNL A   1      45.825  29.379  27.281  1.00  0.00     0.049 A 
ATOM     28  C   UNL A   1      41.087  30.909  30.053  1.00  0.00     0.074 A 
ATOM     29  C   UNL A   1      46.822  30.331  27.223  1.00  0.00     0.029 A 
ATOM     30  N   UNL A   1      44.757  29.947  27.966  1.00  0.00    -0.354 N 
ATOM     31  N   UNL A   1      42.215  30.685  29.417  1.00  0.00    -0.248 NA
ATOM     32  C   UNL A   1      41.000  32.236  30.673  1.00  0.00     0.031 C 
ATOM     33  C   UNL A   1      46.373  31.459  27.918  1.00  0.00     0.029 A 
ATOM     34  C   UNL A   1      45.075  31.232  28.355  1.00  0.00     0.049 A 
ATOM     35  H   UNL A   1      43.899  29.498  28.146  1.00  0.00     0.167 HD
ATOM     36  C   UNL A   1      42.957  31.852  29.528  1.00  0.00     0.074 A 
ATOM     37  C   UNL A   1      42.139  32.788  30.278  1.00  0.00     0.031 C 
ATOM     38  C   UNL A   1      44.201  32.133  29.064  1.00  0.00     0.034 A 
BRANCH  25  39
ATOM     39  C   UNL A   1      47.049  27.493  26.084  1.00  0.00     0.023 A 
ATOM     40  C   UNL A   1      48.034  26.782  26.796  1.00  0.00     0.012 A 
ATOM     41  C   UNL A   1      47.237  27.753  24.712  1.00  0.00     0.148 A 
ATOM     42  C   UNL A   1      49.209  26.374  26.161  1.00  0.00     0.002 A 
ATOM     43  C   UNL A   1      48.386  27.303  24.077  1.00  0.00     0.091 A 
ATOM     44  F   UNL A   1      46.305  28.467  24.065  1.00  0.00    -0.205 F 
ATOM     45  C   UNL A   1      49.382  26.629  24.802  1.00  0.00     0.022 A 
BRANCH  43  46
ATOM     46  S   UNL A   1      48.671  27.535  22.320  1.00  0.00     0.127 S 
ATOM     47  O   UNL A   1      49.959  28.226  22.318  1.00  0.00    -0.237 OA
ATOM     48  O   UNL A   1      48.717  26.155  21.837  1.00  0.00    -0.237 OA
ATOM     49  O   UNL A   1      47.547  28.318  21.827  1.00  0.00    -0.744 OA
ENDBRANCH  43  46
ENDBRANCH  25  39
BRANCH  26  50
ATOM     50  C   UNL A   1      38.648  30.454  30.893  1.00  0.00     0.023 A 
ATOM     51  C   UNL A   1      38.440  30.136  32.248  1.00  0.00     0.012 A 
ATOM     52  C   UNL A   1      37.657  31.185  30.205  1.00  0.00     0.148 A 
ATOM     53  C   UNL A   1      37.257  30.503  32.894  1.00  0.00     0.002 A 
ATOM     54  C   UNL A   1      36.505  31.593  30.867  1.00  0.00     0.091 A 
ATOM     55  F   UNL A   1      37.859  31.465  28.910  1.00  0.00    -0.205 F 
ATOM     56  C   UNL A   1      36.293  31.236  32.206  1.00  0.00     0.022 A 
BRANCH  54  57
ATOM     57  S   UNL A   1      35.261  32.630  30.088  1.00  0.00     0.127 S 
ATOM     58  O   UNL A   1      34.785  31.768  29.010  1.00  0.00    -0.237 OA
ATOM     59  O   UNL A   1      34.310  32.833  31.182  1.00  0.00    -0.237 OA
ATOM     60  O   UNL A   1      35.959  33.838  29.669  1.00  0.00    -0.744 OA
ENDBRANCH  54  57
ENDBRANCH  26  50
BRANCH  38  61
ATOM     61  C   UNL A   1      44.721  33.522  29.302  1.00  0.00     0.023 A 
ATOM     62  C   UNL A   1      45.447  33.819  30.471  1.00  0.00     0.012 A 
ATOM     63  C   UNL A   1      44.556  34.509  28.312  1.00  0.00     0.148 A 
ATOM     64  C   UNL A   1      45.971  35.094  30.667  1.00  0.00     0.002 A 
ATOM     65  C   UNL A   1      45.134  35.756  28.485  1.00  0.00     0.091 A 
ATOM     66  F   UNL A   1      43.842  34.204  27.218  1.00  0.00    -0.205 F 
ATOM     67  C   UNL A   1      45.828  36.057  29.668  1.00  0.00     0.022 A 
BRANCH  65  68
ATOM     68  S   UNL A   1      45.105  37.007  27.198  1.00  0.00     0.127 S 
ATOM     69  O   UNL A   1      45.882  36.363  26.142  1.00  0.00    -0.237 OA
ATOM     70  O   UNL A   1      43.674  37.127  26.918  1.00  0.00    -0.237 OA
ATOM     71  O   UNL A   1      45.707  38.198  27.783  1.00  0.00    -0.744 OA
ENDBRANCH  65  68
ENDBRANCH  38  61
ENDBRANCH  12  13
ENDBRANCH   5   7
ENDBRANCH   4   5
ENDBRANCH   3   4
ENDBRANCH   2   3
ENDBRANCH   1   2
BRANCH   1  72
ATOM     72  C   UNL A   1      34.849  23.116  26.009  1.00  0.00     0.202 C 
BRANCH  72  73
ATOM     73  C   UNL A   1      33.330  23.136  25.904  1.00  0.00     0.261 C 
BRANCH  73  74
ATOM     74  O   UNL A   1      33.040  23.951  24.764  1.00  0.00    -0.463 OA
BRANCH  74  75
ATOM     75  C   UNL A   1      31.905  23.663  24.085  1.00  0.00     0.310 C 
ATOM     76  O   UNL A   1      31.396  22.562  24.014  1.00  0.00    -0.252 OA
BRANCH  75  77
ATOM     77  C   UNL A   1      31.271  24.971  23.620  1.00  0.00     0.116 C 
ATOM     78  C   UNL A   1      32.403  25.873  23.117  1.00  0.00     0.043 C 
ATOM     79  C   UNL A   1      30.193  25.578  24.537  1.00  0.00     0.097 C 
ATOM     80  C   UNL A   1      32.077  27.319  23.034  1.00  0.00    -0.030 C 
ATOM     81  C   UNL A   1      29.954  27.089  24.341  1.00  0.00     0.041 C 
ATOM     82  C   UNL A   1      30.992  27.861  23.590  1.00  0.00    -0.030 C 
BRANCH  79  83
ATOM     83  C   UNL A   1      30.360  25.223  26.002  1.00  0.00     0.228 C 
ATOM     84  O   UNL A   1      29.668  24.320  26.487  1.00  0.00    -0.274 OA
ATOM     85  N   UNL A   1      31.221  25.853  26.857  1.00  0.00    -0.326 N 
ATOM     86  H   UNL A   1      31.214  25.423  27.742  1.00  0.00     0.169 HD
BRANCH  85  87
ATOM     87  C   UNL A   1      32.119  26.950  26.833  1.00  0.00     0.041 A 
ATOM     88  C   UNL A   1      33.414  26.983  26.304  1.00  0.00     0.030 A 
ATOM     89  C   UNL A   1      31.598  28.160  27.329  1.00  0.00     0.030 A 
ATOM     90  C   UNL A   1      34.126  28.188  26.188  1.00  0.00     0.048 A 
ATOM     91  C   UNL A   1      32.311  29.361  27.233  1.00  0.00     0.048 A 
ATOM     92  C   UNL A   1      33.561  29.371  26.636  1.00  0.00     0.115 A 
BRANCH  92  93
ATOM     93  O   UNL A   1      34.197  30.566  26.491  1.00  0.00    -0.508 OA
ATOM     94  H   UNL A   1      33.699  31.349  26.364  1.00  0.00     0.293 HD
ENDBRANCH  92  93
ENDBRANCH  85  87
ENDBRANCH  79  83
ENDBRANCH  75  77
ENDBRANCH  74  75
ENDBRANCH  73  74
ENDBRANCH  72  73
ENDBRANCH   1  72
TORSDOF 20
ENDMDL
MODEL 3
REMARK VINA RESULT:     -11.3      5.013     10.254
REMARK SMILES O=C(OCCOCCOC(=O)[C@@H]1CC=CC[C@@H]1C(=O)Nc1ccc(O)cc1)c1ccc(-c2c3nc(c(-c4cccc(S(=O)(=O)[O-])c4F)c4ccc([nH]4)c(-c4cccc(S(=O)(=O)[O-])c4F)c4nc(c(-c5cccc(S(=O)(=O)[O-])c5F)c5ccc2[nH]5)C=C4)C=C3)cc1
REMARK SMILES IDX 6 1 5 2 4 3 3 4 2 5 1 6 28 7 29 8 90 9 30 10 89 11 31 12
REMARK SMILES IDX 32 13 33 14 83 15 34 16 88 17 82 18 84 19 35 20 87 21 81 22
REMARK SMILES IDX 80 23 36 25 68 26 48 27 67 28 49 29 52 30 66 31 85 32 50 33
REMARK SMILES IDX 51 34 65 36 86 37 53 38 37 39 38 40 46 41 39 42 41 43 47 44
REMARK SMILES IDX 40 45 42 46 43 47 44 48 45 49 69 50 70 51 78 52 71 53 73 54
REMARK SMILES IDX 79 55 72 56 74 57 75 58 76 59 77 60 54 61 55 62 63 63 56 64
REMARK SMILES IDX 58 65 64 66 57 67 59 68 60 69 61 70 62 71 7 72 8 73 9 74
REMARK SMILES IDX 10 75 11 76 12 77 13 78 17 79 14 80 16 81 15 82 18 83 19 84
REMARK SMILES IDX 20 85 21 87 22 88 27 89 23 90 26 91 24 92 25 93
REMARK H PARENT 84 24 52 35 20 86 25 94
REMARK Flexibility Score: inf
ROOT
ATOM      1  O   UNL A   1      32.465  29.100  24.764  1.00  0.00    -0.374 OA
ENDROOT
BRANCH   1   2
ATOM      2  C   UNL A   1      32.812  29.833  25.940  1.00  0.00     0.202 C 
BRANCH   2   3
ATOM      3  C   UNL A   1      31.993  31.085  26.297  1.00  0.00     0.261 C 
BRANCH   3   4
ATOM      4  O   UNL A   1      32.440  31.715  27.506  1.00  0.00    -0.460 OA
BRANCH   4   5
ATOM      5  C   UNL A   1      33.521  32.522  27.662  1.00  0.00     0.338 C 
ATOM      6  O   UNL A   1      33.449  33.672  27.234  1.00  0.00    -0.246 OA
BRANCH   5   7
ATOM      7  C   UNL A   1      34.832  32.044  28.216  1.00  0.00     0.060 A 
ATOM      8  C   UNL A   1      35.086  30.739  28.633  1.00  0.00     0.016 A 
ATOM      9  C   UNL A   1      35.912  32.945  28.228  1.00  0.00     0.016 A 
ATOM     10  C   UNL A   1      36.341  30.299  28.971  1.00  0.00     0.010 A 
ATOM     11  C   UNL A   1      37.190  32.530  28.628  1.00  0.00     0.010 A 
ATOM     12  C   UNL A   1      37.393  31.198  28.995  1.00  0.00    -0.014 A 
BRANCH  12  13
ATOM     13  C   UNL A   1      38.584  30.678  29.668  1.00  0.00     0.031 A 
ATOM     14  C   UNL A   1      38.736  31.027  31.115  1.00  0.00     0.074 A 
ATOM     15  C   UNL A   1      39.283  29.692  29.082  1.00  0.00     0.049 A 
ATOM     16  N   UNL A   1      39.586  30.574  31.989  1.00  0.00    -0.248 NA
ATOM     17  C   UNL A   1      37.750  31.978  31.668  1.00  0.00     0.031 C 
ATOM     18  C   UNL A   1      39.027  29.158  27.741  1.00  0.00     0.029 A 
ATOM     19  N   UNL A   1      40.307  28.924  29.559  1.00  0.00    -0.354 N 
ATOM     20  C   UNL A   1      39.276  31.220  33.176  1.00  0.00     0.074 A 
ATOM     21  C   UNL A   1      38.132  32.065  32.931  1.00  0.00     0.031 C 
ATOM     22  C   UNL A   1      39.884  28.151  27.499  1.00  0.00     0.029 A 
ATOM     23  C   UNL A   1      40.774  28.009  28.646  1.00  0.00     0.049 A 
ATOM     24  H   UNL A   1      40.676  29.017  30.466  1.00  0.00     0.167 HD
ATOM     25  C   UNL A   1      39.918  31.131  34.360  1.00  0.00     0.034 A 
ATOM     26  C   UNL A   1      41.830  27.181  28.735  1.00  0.00     0.034 A 
ATOM     27  C   UNL A   1      41.065  30.294  34.553  1.00  0.00     0.049 A 
ATOM     28  C   UNL A   1      42.599  27.189  30.028  1.00  0.00     0.074 A 
ATOM     29  C   UNL A   1      41.870  30.171  35.667  1.00  0.00     0.029 A 
ATOM     30  N   UNL A   1      41.584  29.448  33.579  1.00  0.00    -0.354 N 
ATOM     31  N   UNL A   1      42.332  27.832  31.142  1.00  0.00    -0.248 NA
ATOM     32  C   UNL A   1      43.802  26.351  30.090  1.00  0.00     0.031 C 
ATOM     33  C   UNL A   1      42.905  29.286  35.348  1.00  0.00     0.029 A 
ATOM     34  C   UNL A   1      42.711  28.812  34.058  1.00  0.00     0.049 A 
ATOM     35  H   UNL A   1      41.202  29.321  32.681  1.00  0.00     0.167 HD
ATOM     36  C   UNL A   1      43.310  27.450  32.049  1.00  0.00     0.074 A 
ATOM     37  C   UNL A   1      44.165  26.503  31.356  1.00  0.00     0.031 C 
ATOM     38  C   UNL A   1      43.498  27.844  33.334  1.00  0.00     0.034 A 
BRANCH  25  39
ATOM     39  C   UNL A   1      39.452  32.044  35.457  1.00  0.00     0.023 A 
ATOM     40  C   UNL A   1      39.901  33.378  35.532  1.00  0.00     0.012 A 
ATOM     41  C   UNL A   1      38.600  31.543  36.461  1.00  0.00     0.148 A 
ATOM     42  C   UNL A   1      39.544  34.184  36.615  1.00  0.00     0.002 A 
ATOM     43  C   UNL A   1      38.212  32.365  37.509  1.00  0.00     0.091 A 
ATOM     44  F   UNL A   1      38.219  30.259  36.390  1.00  0.00    -0.205 F 
ATOM     45  C   UNL A   1      38.695  33.680  37.598  1.00  0.00     0.022 A 
BRANCH  43  46
ATOM     46  S   UNL A   1      37.078  31.822  38.791  1.00  0.00     0.127 S 
ATOM     47  O   UNL A   1      35.903  32.647  38.515  1.00  0.00    -0.237 OA
ATOM     48  O   UNL A   1      36.917  30.403  38.470  1.00  0.00    -0.237 OA
ATOM     49  O   UNL A   1      37.741  32.091  40.059  1.00  0.00    -0.744 OA
ENDBRANCH  43  46
ENDBRANCH  25  39
BRANCH  26  50
ATOM     50  C   UNL A   1      42.233  26.324  27.582  1.00  0.00     0.023 A 
ATOM     51  C   UNL A   1      42.954  26.875  26.507  1.00  0.00     0.012 A 
ATOM     52  C   UNL A   1      41.886  24.957  27.541  1.00  0.00     0.148 A 
ATOM     53  C   UNL A   1      43.291  26.094  25.399  1.00  0.00     0.002 A 
ATOM     54  C   UNL A   1      42.270  24.172  26.461  1.00  0.00     0.091 A 
ATOM     55  F   UNL A   1      41.182  24.449  28.563  1.00  0.00    -0.205 F 
ATOM     56  C   UNL A   1      42.955  24.742  25.378  1.00  0.00     0.022 A 
BRANCH  54  57
ATOM     57  S   UNL A   1      41.971  22.401  26.400  1.00  0.00     0.127 S 
ATOM     58  O   UNL A   1      42.566  21.954  27.657  1.00  0.00    -0.237 OA
ATOM     59  O   UNL A   1      40.510  22.343  26.355  1.00  0.00    -0.237 OA
ATOM     60  O   UNL A   1      42.628  21.930  25.188  1.00  0.00    -0.744 OA
ENDBRANCH  54  57
ENDBRANCH  26  50
BRANCH  38  61
ATOM     61  C   UNL A   1      44.631  27.205  34.085  1.00  0.00     0.023 A 
ATOM     62  C   UNL A   1      45.907  27.800  34.088  1.00  0.00     0.012 A 
ATOM     63  C   UNL A   1      44.394  26.055  34.861  1.00  0.00     0.148 A 
ATOM     64  C   UNL A   1      46.944  27.233  34.825  1.00  0.00     0.002 A 
ATOM     65  C   UNL A   1      45.414  25.534  35.642  1.00  0.00     0.091 A 
ATOM     66  F   UNL A   1      43.174  25.499  34.825  1.00  0.00    -0.205 F 
ATOM     67  C   UNL A   1      46.693  26.111  35.613  1.00  0.00     0.022 A 
BRANCH  65  68
ATOM     68  S   UNL A   1      45.142  24.172  36.778  1.00  0.00     0.127 S 
ATOM     69  O   UNL A   1      44.182  24.754  37.715  1.00  0.00    -0.237 OA
ATOM     70  O   UNL A   1      44.591  23.141  35.898  1.00  0.00    -0.237 OA
ATOM     71  O   UNL A   1      46.447  23.850  37.339  1.00  0.00    -0.744 OA
ENDBRANCH  65  68
ENDBRANCH  38  61
ENDBRANCH  12  13
ENDBRANCH   5   7
ENDBRANCH   4   5
ENDBRANCH   3   4
ENDBRANCH   2   3
ENDBRANCH   1   2
BRANCH   1  72
ATOM     72  C   UNL A   1      31.152  29.295  24.226  1.00  0.00     0.202 C 
BRANCH  72  73
ATOM     73  C   UNL A   1      30.530  27.956  23.853  1.00  0.00     0.261 C 
BRANCH  73  74
ATOM     74  O   UNL A   1      31.531  27.271  23.094  1.00  0.00    -0.463 OA
BRANCH  74  75
ATOM     75  C   UNL A   1      31.677  25.948  23.337  1.00  0.00     0.310 C 
ATOM     76  O   UNL A   1      30.834  25.102  23.118  1.00  0.00    -0.252 OA
BRANCH  75  77
ATOM     77  C   UNL A   1      33.131  25.681  23.719  1.00  0.00     0.116 C 
ATOM     78  C   UNL A   1      33.580  24.430  22.957  1.00  0.00     0.043 C 
ATOM     79  C   UNL A   1      33.484  25.804  25.212  1.00  0.00     0.097 C 
ATOM     80  C   UNL A   1      34.782  23.749  23.501  1.00  0.00    -0.030 C 
ATOM     81  C   UNL A   1      34.761  25.051  25.639  1.00  0.00     0.041 C 
ATOM     82  C   UNL A   1      35.301  24.019  24.700  1.00  0.00    -0.030 C 
BRANCH  79  83
ATOM     83  C   UNL A   1      32.325  25.514  26.145  1.00  0.00     0.228 C 
ATOM     84  O   UNL A   1      31.758  26.454  26.714  1.00  0.00    -0.274 OA
ATOM     85  N   UNL A   1      31.859  24.261  26.432  1.00  0.00    -0.326 N 
ATOM     86  H   UNL A   1      31.062  24.306  27.009  1.00  0.00     0.169 HD
BRANCH  85  87
ATOM     87  C   UNL A   1      32.195  22.915  26.137  1.00  0.00     0.041 A 
ATOM     88  C   UNL A   1      31.766  22.146  25.051  1.00  0.00     0.030 A 
ATOM     89  C   UNL A   1      33.137  22.331  27.005  1.00  0.00     0.030 A 
ATOM     90  C   UNL A   1      32.320  20.882  24.786  1.00  0.00     0.048 A 
ATOM     91  C   UNL A   1      33.679  21.064  26.756  1.00  0.00     0.048 A 
ATOM     92  C   UNL A   1      33.286  20.360  25.630  1.00  0.00     0.115 A 
BRANCH  92  93
ATOM     93  O   UNL A   1      33.886  19.164  25.375  1.00  0.00    -0.508 OA
ATOM     94  H   UNL A   1      33.613  18.651  24.640  1.00  0.00     0.293 HD
ENDBRANCH  92  93
ENDBRANCH  85  87
ENDBRANCH  79  83
ENDBRANCH  75  77
ENDBRANCH  74  75
ENDBRANCH  73  74
ENDBRANCH  72  73
ENDBRANCH   1  72
TORSDOF 20
ENDMDL
