MODEL 1
REMARK VINA RESULT:     -10.8      0.000      0.000
REMARK SMILES CC(C)CN(C)c1cc2c(cc1Cl)C=C(C(=O)OCCOCCOC(=O)c1ccc(-c3c4nc(c(-c5cccc(S(=O)(=O)[O-])c5F)c5ccc([nH]5)c(-c5cccc(S(=O)(=O)[O-])c5F)c5nc(c(-c6cccc(S(=O)(=O)[O-])c6F)c6ccc3[nH]6)C=C5)C=C4)cc1)[C@H](C(F)(F)F)O2
REMARK SMILES IDX 21 1 20 2 19 3 18 4 16 5 17 6 15 7 7 8 8 9 12 10 9 11 11 12
REMARK SMILES IDX 13 13 10 14 95 15 14 16 90 17 5 18 6 19 4 20 2 21 1 22 3 23
REMARK SMILES IDX 91 24 92 25 93 26 94 27 22 28 23 29 24 30 25 31 26 32 27 33
REMARK SMILES IDX 28 34 89 35 29 36 88 37 30 38 31 39 32 40 82 41 33 42 87 43
REMARK SMILES IDX 81 44 83 45 34 46 86 47 80 48 79 49 35 51 67 52 47 53 66 54
REMARK SMILES IDX 48 55 51 56 65 57 84 58 49 59 50 60 64 62 85 63 52 64 36 65
REMARK SMILES IDX 37 66 45 67 38 68 40 69 46 70 39 71 41 72 42 73 43 74 44 75
REMARK SMILES IDX 68 76 69 77 77 78 70 79 72 80 78 81 71 82 73 83 74 84 75 85
REMARK SMILES IDX 76 86 53 87 54 88 62 89 55 90 57 91 63 92 56 93 58 94 59 95
REMARK SMILES IDX 60 96 61 97
REMARK H PARENT 83 50 51 61
REMARK Flexibility Score: inf
ROOT
ATOM      1  O   UNL A   1      36.957  20.746  25.243  1.00  0.00    -0.374 OA
ENDROOT
BRANCH   1   2
ATOM      2  C   UNL A   1      36.036  21.804  25.494  1.00  0.00     0.202 C 
BRANCH   2   3
ATOM      3  C   UNL A   1      36.609  23.118  26.031  1.00  0.00     0.261 C 
BRANCH   3   4
ATOM      4  O   UNL A   1      35.735  24.227  25.765  1.00  0.00    -0.460 OA
BRANCH   4   5
ATOM      5  C   UNL A   1      34.437  23.986  26.026  1.00  0.00     0.338 C 
ATOM      6  O   UNL A   1      33.995  23.400  27.005  1.00  0.00    -0.246 OA
BRANCH   5   7
ATOM      7  C   UNL A   1      33.555  24.645  25.044  1.00  0.00     0.087 C 
ATOM      8  C   UNL A   1      30.381  28.264  23.578  1.00  0.00     0.059 A 
ATOM      9  C   UNL A   1      30.539  26.900  23.242  1.00  0.00     0.074 A 
ATOM     10  C   UNL A   1      31.332  28.817  24.462  1.00  0.00     0.065 A 
ATOM     11  C   UNL A   1      31.595  26.136  23.758  1.00  0.00     0.130 A 
ATOM     12  C   UNL A   1      32.456  28.096  24.860  1.00  0.00     0.034 A 
ATOM     13  Cl  UNL A   1      31.120  30.348  25.244  1.00  0.00    -0.082 Cl
ATOM     14  C   UNL A   1      32.576  26.752  24.521  1.00  0.00     0.019 A 
ATOM     15  O   UNL A   1      31.580  24.792  23.512  1.00  0.00    -0.475 OA
ATOM     16  C   UNL A   1      33.638  25.980  25.118  1.00  0.00     0.027 C 
ATOM     17  C   UNL A   1      32.533  23.916  24.211  1.00  0.00     0.316 C 
BRANCH   8  18
ATOM     18  N   UNL A   1      29.300  29.010  23.082  1.00  0.00    -0.373 N 
ATOM     19  C   UNL A   1      28.014  28.317  23.050  1.00  0.00     0.143 C 
BRANCH  18  20
ATOM     20  C   UNL A   1      29.559  29.975  21.987  1.00  0.00     0.119 C 
BRANCH  20  21
ATOM     21  C   UNL A   1      28.949  31.369  22.243  1.00  0.00     0.002 C 
ATOM     22  C   UNL A   1      28.127  31.864  21.047  1.00  0.00     0.009 C 
ATOM     23  C   UNL A   1      28.065  31.397  23.493  1.00  0.00     0.009 C 
ENDBRANCH  20  21
ENDBRANCH  18  20
ENDBRANCH   8  18
BRANCH  17  24
ATOM     24  C   UNL A   1      33.128  22.979  23.143  1.00  0.00     0.430 C 
ATOM     25  F   UNL A   1      34.266  23.484  22.608  1.00  0.00    -0.167 F 
ATOM     26  F   UNL A   1      33.402  21.748  23.622  1.00  0.00    -0.167 F 
ATOM     27  F   UNL A   1      32.258  22.797  22.116  1.00  0.00    -0.167 F 
ENDBRANCH  17  24
ENDBRANCH   5   7
ENDBRANCH   4   5
ENDBRANCH   3   4
ENDBRANCH   2   3
ENDBRANCH   1   2
BRANCH   1  28
ATOM     28  C   UNL A   1      38.350  20.998  25.439  1.00  0.00     0.202 C 
BRANCH  28  29
ATOM     29  C   UNL A   1      39.316  19.807  25.408  1.00  0.00     0.261 C 
BRANCH  29  30
ATOM     30  O   UNL A   1      40.243  19.825  26.507  1.00  0.00    -0.460 OA
BRANCH  30  31
ATOM     31  C   UNL A   1      41.551  19.887  26.158  1.00  0.00     0.338 C 
ATOM     32  O   UNL A   1      42.181  19.060  25.513  1.00  0.00    -0.246 OA
BRANCH  31  33
ATOM     33  C   UNL A   1      42.077  21.228  26.479  1.00  0.00     0.060 A 
ATOM     34  C   UNL A   1      42.314  22.174  25.480  1.00  0.00     0.016 A 
ATOM     35  C   UNL A   1      42.301  21.544  27.825  1.00  0.00     0.016 A 
ATOM     36  C   UNL A   1      42.750  23.452  25.840  1.00  0.00     0.010 A 
ATOM     37  C   UNL A   1      42.741  22.817  28.181  1.00  0.00     0.010 A 
ATOM     38  C   UNL A   1      42.951  23.788  27.193  1.00  0.00    -0.014 A 
BRANCH  38  39
ATOM     39  C   UNL A   1      43.247  25.189  27.582  1.00  0.00     0.031 A 
ATOM     40  C   UNL A   1      44.630  25.761  27.471  1.00  0.00     0.074 A 
ATOM     41  C   UNL A   1      42.249  25.938  28.089  1.00  0.00     0.049 A 
ATOM     42  N   UNL A   1      45.032  26.979  27.728  1.00  0.00    -0.248 NA
ATOM     43  C   UNL A   1      45.700  24.856  27.023  1.00  0.00     0.031 C 
ATOM     44  C   UNL A   1      40.879  25.471  28.310  1.00  0.00     0.029 A 
ATOM     45  N   UNL A   1      42.231  27.241  28.518  1.00  0.00    -0.354 N 
ATOM     46  C   UNL A   1      46.397  26.992  27.475  1.00  0.00     0.074 A 
ATOM     47  C   UNL A   1      46.762  25.651  27.067  1.00  0.00     0.031 C 
ATOM     48  C   UNL A   1      40.149  26.478  28.813  1.00  0.00     0.029 A 
ATOM     49  C   UNL A   1      41.001  27.654  28.970  1.00  0.00     0.049 A 
ATOM     50  H   UNL A   1      43.024  27.824  28.502  1.00  0.00     0.167 HD
ATOM     51  C   UNL A   1      47.259  28.034  27.552  1.00  0.00     0.034 A 
ATOM     52  C   UNL A   1      40.596  28.845  29.452  1.00  0.00     0.034 A 
ATOM     53  C   UNL A   1      46.892  29.368  27.945  1.00  0.00     0.049 A 
ATOM     54  C   UNL A   1      41.573  29.983  29.523  1.00  0.00     0.074 A 
ATOM     55  C   UNL A   1      47.692  30.498  27.989  1.00  0.00     0.029 A 
ATOM     56  N   UNL A   1      45.631  29.754  28.370  1.00  0.00    -0.354 N 
ATOM     57  N   UNL A   1      42.829  30.010  29.151  1.00  0.00    -0.248 NA
ATOM     58  C   UNL A   1      41.074  31.260  30.055  1.00  0.00     0.031 C 
ATOM     59  C   UNL A   1      46.919  31.563  28.460  1.00  0.00     0.029 A 
ATOM     60  C   UNL A   1      45.634  31.102  28.688  1.00  0.00     0.049 A 
ATOM     61  H   UNL A   1      44.850  29.159  28.436  1.00  0.00     0.167 HD
ATOM     62  C   UNL A   1      43.265  31.310  29.381  1.00  0.00     0.074 A 
ATOM     63  C   UNL A   1      42.136  32.045  29.913  1.00  0.00     0.031 C 
ATOM     64  C   UNL A   1      44.496  31.837  29.179  1.00  0.00     0.034 A 
BRANCH  51  65
ATOM     65  C   UNL A   1      48.687  27.805  27.135  1.00  0.00     0.023 A 
ATOM     66  C   UNL A   1      49.630  27.431  28.114  1.00  0.00     0.012 A 
ATOM     67  C   UNL A   1      49.065  27.832  25.779  1.00  0.00     0.148 A 
ATOM     68  C   UNL A   1      50.932  27.096  27.750  1.00  0.00     0.002 A 
ATOM     69  C   UNL A   1      50.358  27.469  25.422  1.00  0.00     0.091 A 
ATOM     70  F   UNL A   1      48.150  28.196  24.869  1.00  0.00    -0.205 F 
ATOM     71  C   UNL A   1      51.293  27.105  26.406  1.00  0.00     0.022 A 
BRANCH  69  72
ATOM     72  S   UNL A   1      50.915  27.398  23.715  1.00  0.00     0.127 S 
ATOM     73  O   UNL A   1      52.134  26.599  23.839  1.00  0.00    -0.237 OA
ATOM     74  O   UNL A   1      49.802  26.715  23.058  1.00  0.00    -0.237 OA
ATOM     75  O   UNL A   1      51.121  28.778  23.298  1.00  0.00    -0.744 OA
ENDBRANCH  69  72
ENDBRANCH  51  65
BRANCH  52  76
ATOM     76  C   UNL A   1      39.170  29.031  29.826  1.00  0.00     0.023 A 
ATOM     77  C   UNL A   1      38.767  28.759  31.147  1.00  0.00     0.012 A 
ATOM     78  C   UNL A   1      38.233  29.537  28.906  1.00  0.00     0.148 A 
ATOM     79  C   UNL A   1      37.450  28.983  31.546  1.00  0.00     0.002 A 
ATOM     80  C   UNL A   1      36.931  29.792  29.319  1.00  0.00     0.091 A 
ATOM     81  F   UNL A   1      38.647  29.787  27.655  1.00  0.00    -0.205 F 
ATOM     82  C   UNL A   1      36.535  29.507  30.636  1.00  0.00     0.022 A 
BRANCH  80  83
ATOM     83  S   UNL A   1      35.704  30.549  28.249  1.00  0.00     0.127 S 
ATOM     84  O   UNL A   1      35.260  29.408  27.452  1.00  0.00    -0.237 OA
ATOM     85  O   UNL A   1      34.727  31.041  29.219  1.00  0.00    -0.237 OA
ATOM     86  O   UNL A   1      36.407  31.589  27.510  1.00  0.00    -0.744 OA
ENDBRANCH  80  83
ENDBRANCH  52  76
BRANCH  64  87
ATOM     87  C   UNL A   1      44.711  33.286  29.517  1.00  0.00     0.023 A 
ATOM     88  C   UNL A   1      45.213  33.634  30.786  1.00  0.00     0.012 A 
ATOM     89  C   UNL A   1      44.539  34.287  28.540  1.00  0.00     0.148 A 
ATOM     90  C   UNL A   1      45.534  34.958  31.081  1.00  0.00     0.002 A 
ATOM     91  C   UNL A   1      44.893  35.600  28.830  1.00  0.00     0.091 A 
ATOM     92  F   UNL A   1      44.054  33.930  27.341  1.00  0.00    -0.205 F 
ATOM     93  C   UNL A   1      45.386  35.937  30.101  1.00  0.00     0.022 A 
BRANCH  91  94
ATOM     94  S   UNL A   1      44.807  36.919  27.613  1.00  0.00     0.127 S 
ATOM     95  O   UNL A   1      43.474  36.715  27.047  1.00  0.00    -0.237 OA
ATOM     96  O   UNL A   1      44.941  38.115  28.445  1.00  0.00    -0.237 OA
ATOM     97  O   UNL A   1      45.910  36.692  26.689  1.00  0.00    -0.744 OA
ENDBRANCH  91  94
ENDBRANCH  64  87
ENDBRANCH  38  39
ENDBRANCH  31  33
ENDBRANCH  30  31
ENDBRANCH  29  30
ENDBRANCH  28  29
ENDBRANCH   1  28
TORSDOF 21
ENDMDL
MODEL 2
REMARK VINA RESULT:     -10.1      7.020     10.910
REMARK SMILES CC(C)CN(C)c1cc2c(cc1Cl)C=C(C(=O)OCCOCCOC(=O)c1ccc(-c3c4nc(c(-c5cccc(S(=O)(=O)[O-])c5F)c5ccc([nH]5)c(-c5cccc(S(=O)(=O)[O-])c5F)c5nc(c(-c6cccc(S(=O)(=O)[O-])c6F)c6ccc3[nH]6)C=C5)C=C4)cc1)[C@H](C(F)(F)F)O2
REMARK SMILES IDX 21 1 20 2 19 3 18 4 16 5 17 6 15 7 7 8 8 9 12 10 9 11 11 12
REMARK SMILES IDX 13 13 10 14 95 15 14 16 90 17 5 18 6 19 4 20 2 21 1 22 3 23
REMARK SMILES IDX 91 24 92 25 93 26 94 27 22 28 23 29 24 30 25 31 26 32 27 33
REMARK SMILES IDX 28 34 89 35 29 36 88 37 30 38 31 39 32 40 82 41 33 42 87 43
REMARK SMILES IDX 81 44 83 45 34 46 86 47 80 48 79 49 35 51 67 52 47 53 66 54
REMARK SMILES IDX 48 55 51 56 65 57 84 58 49 59 50 60 64 62 85 63 52 64 36 65
REMARK SMILES IDX 37 66 45 67 38 68 40 69 46 70 39 71 41 72 42 73 43 74 44 75
REMARK SMILES IDX 68 76 69 77 77 78 70 79 72 80 78 81 71 82 73 83 74 84 75 85
REMARK SMILES IDX 76 86 53 87 54 88 62 89 55 90 57 91 63 92 56 93 58 94 59 95
REMARK SMILES IDX 60 96 61 97
REMARK H PARENT 83 50 51 61
REMARK Flexibility Score: inf
ROOT
ATOM      1  O   UNL A   1      33.479  32.658  27.868  1.00  0.00    -0.374 OA
ENDROOT
BRANCH   1   2
ATOM      2  C   UNL A   1      34.134  31.402  28.024  1.00  0.00     0.202 C 
BRANCH   2   3
ATOM      3  C   UNL A   1      33.941  30.370  26.910  1.00  0.00     0.261 C 
BRANCH   3   4
ATOM      4  O   UNL A   1      32.708  29.649  27.062  1.00  0.00    -0.460 OA
BRANCH   4   5
ATOM      5  C   UNL A   1      31.945  29.613  25.954  1.00  0.00     0.338 C 
ATOM      6  O   UNL A   1      31.336  30.557  25.468  1.00  0.00    -0.246 OA
BRANCH   5   7
ATOM      7  C   UNL A   1      32.031  28.305  25.277  1.00  0.00     0.087 C 
ATOM      8  C   UNL A   1      33.610  23.543  24.894  1.00  0.00     0.059 A 
ATOM      9  C   UNL A   1      33.284  24.549  23.956  1.00  0.00     0.074 A 
ATOM     10  C   UNL A   1      33.404  23.850  26.256  1.00  0.00     0.065 A 
ATOM     11  C   UNL A   1      32.775  25.790  24.360  1.00  0.00     0.130 A 
ATOM     12  C   UNL A   1      32.768  25.028  26.644  1.00  0.00     0.034 A 
ATOM     13  Cl  UNL A   1      34.046  22.895  27.550  1.00  0.00    -0.082 Cl
ATOM     14  C   UNL A   1      32.470  26.002  25.697  1.00  0.00     0.019 A 
ATOM     15  O   UNL A   1      32.641  26.758  23.405  1.00  0.00    -0.475 OA
ATOM     16  C   UNL A   1      32.005  27.290  26.150  1.00  0.00     0.027 C 
ATOM     17  C   UNL A   1      32.325  28.137  23.809  1.00  0.00     0.316 C 
BRANCH   8  18
ATOM     18  N   UNL A   1      34.152  22.316  24.479  1.00  0.00    -0.373 N 
ATOM     19  C   UNL A   1      33.182  21.281  24.129  1.00  0.00     0.143 C 
BRANCH  18  20
ATOM     20  C   UNL A   1      35.409  21.856  25.116  1.00  0.00     0.119 C 
BRANCH  20  21
ATOM     21  C   UNL A   1      36.673  22.505  24.513  1.00  0.00     0.002 C 
ATOM     22  C   UNL A   1      36.479  22.878  23.039  1.00  0.00     0.009 C 
ATOM     23  C   UNL A   1      37.111  23.754  25.283  1.00  0.00     0.009 C 
ENDBRANCH  20  21
ENDBRANCH  18  20
ENDBRANCH   8  18
BRANCH  17  24
ATOM     24  C   UNL A   1      31.202  28.620  22.871  1.00  0.00     0.430 C 
ATOM     25  F   UNL A   1      30.077  28.936  23.556  1.00  0.00    -0.167 F 
ATOM     26  F   UNL A   1      31.560  29.694  22.137  1.00  0.00    -0.167 F 
ATOM     27  F   UNL A   1      30.862  27.653  21.981  1.00  0.00    -0.167 F 
ENDBRANCH  17  24
ENDBRANCH   5   7
ENDBRANCH   4   5
ENDBRANCH   3   4
ENDBRANCH   2   3
ENDBRANCH   1   2
BRANCH   1  28
ATOM     28  C   UNL A   1      34.129  33.830  28.365  1.00  0.00     0.202 C 
BRANCH  28  29
ATOM     29  C   UNL A   1      33.257  34.986  28.870  1.00  0.00     0.261 C 
BRANCH  29  30
ATOM     30  O   UNL A   1      32.644  34.697  30.138  1.00  0.00    -0.460 OA
BRANCH  30  31
ATOM     31  C   UNL A   1      33.040  35.487  31.166  1.00  0.00     0.338 C 
ATOM     32  O   UNL A   1      32.475  36.489  31.583  1.00  0.00    -0.246 OA
BRANCH  31  33
ATOM     33  C   UNL A   1      34.156  34.836  31.878  1.00  0.00     0.060 A 
ATOM     34  C   UNL A   1      33.956  33.690  32.649  1.00  0.00     0.016 A 
ATOM     35  C   UNL A   1      35.438  35.379  31.730  1.00  0.00     0.016 A 
ATOM     36  C   UNL A   1      35.056  33.072  33.250  1.00  0.00     0.010 A 
ATOM     37  C   UNL A   1      36.533  34.764  32.335  1.00  0.00     0.010 A 
ATOM     38  C   UNL A   1      36.353  33.594  33.085  1.00  0.00    -0.014 A 
BRANCH  38  39
ATOM     39  C   UNL A   1      37.534  32.844  33.580  1.00  0.00     0.031 A 
ATOM     40  C   UNL A   1      38.078  31.657  32.841  1.00  0.00     0.074 A 
ATOM     41  C   UNL A   1      38.091  33.223  34.746  1.00  0.00     0.049 A 
ATOM     42  N   UNL A   1      39.129  30.931  33.124  1.00  0.00    -0.248 NA
ATOM     43  C   UNL A   1      37.353  31.221  31.638  1.00  0.00     0.031 C 
ATOM     44  C   UNL A   1      37.608  34.319  35.590  1.00  0.00     0.029 A 
ATOM     45  N   UNL A   1      39.174  32.728  35.429  1.00  0.00    -0.354 N 
ATOM     46  C   UNL A   1      39.196  29.954  32.141  1.00  0.00     0.074 A 
ATOM     47  C   UNL A   1      38.063  30.163  31.264  1.00  0.00     0.031 C 
ATOM     48  C   UNL A   1      38.403  34.426  36.665  1.00  0.00     0.029 A 
ATOM     49  C   UNL A   1      39.438  33.398  36.599  1.00  0.00     0.049 A 
ATOM     50  H   UNL A   1      39.710  31.968  35.109  1.00  0.00     0.167 HD
ATOM     51  C   UNL A   1      40.131  28.989  31.972  1.00  0.00     0.034 A 
ATOM     52  C   UNL A   1      40.406  33.213  37.517  1.00  0.00     0.034 A 
ATOM     53  C   UNL A   1      41.263  28.791  32.837  1.00  0.00     0.049 A 
ATOM     54  C   UNL A   1      41.431  32.137  37.303  1.00  0.00     0.074 A 
ATOM     55  C   UNL A   1      42.294  27.876  32.704  1.00  0.00     0.029 A 
ATOM     56  N   UNL A   1      41.512  29.506  33.999  1.00  0.00    -0.354 N 
ATOM     57  N   UNL A   1      41.553  31.310  36.294  1.00  0.00    -0.248 NA
ATOM     58  C   UNL A   1      42.466  31.984  38.338  1.00  0.00     0.031 C 
ATOM     59  C   UNL A   1      43.155  28.023  33.793  1.00  0.00     0.029 A 
ATOM     60  C   UNL A   1      42.673  29.045  34.595  1.00  0.00     0.049 A 
ATOM     61  H   UNL A   1      40.947  30.232  34.347  1.00  0.00     0.167 HD
ATOM     62  C   UNL A   1      42.690  30.554  36.559  1.00  0.00     0.074 A 
ATOM     63  C   UNL A   1      43.228  31.029  37.817  1.00  0.00     0.031 C 
ATOM     64  C   UNL A   1      43.226  29.549  35.826  1.00  0.00     0.034 A 
BRANCH  51  65
ATOM     65  C   UNL A   1      40.023  28.101  30.762  1.00  0.00     0.023 A 
ATOM     66  C   UNL A   1      39.019  27.113  30.731  1.00  0.00     0.012 A 
ATOM     67  C   UNL A   1      40.818  28.323  29.621  1.00  0.00     0.148 A 
ATOM     68  C   UNL A   1      38.811  26.352  29.582  1.00  0.00     0.002 A 
ATOM     69  C   UNL A   1      40.586  27.578  28.470  1.00  0.00     0.091 A 
ATOM     70  F   UNL A   1      41.769  29.265  29.680  1.00  0.00    -0.205 F 
ATOM     71  C   UNL A   1      39.587  26.591  28.451  1.00  0.00     0.022 A 
BRANCH  69  72
ATOM     72  S   UNL A   1      41.493  27.837  26.941  1.00  0.00     0.127 S 
ATOM     73  O   UNL A   1      41.230  29.253  26.682  1.00  0.00    -0.237 OA
ATOM     74  O   UNL A   1      42.866  27.536  27.345  1.00  0.00    -0.237 OA
ATOM     75  O   UNL A   1      40.922  26.915  25.970  1.00  0.00    -0.744 OA
ENDBRANCH  69  72
ENDBRANCH  51  65
BRANCH  52  76
ATOM     76  C   UNL A   1      40.487  34.132  38.683  1.00  0.00     0.023 A 
ATOM     77  C   UNL A   1      41.368  35.228  38.631  1.00  0.00     0.012 A 
ATOM     78  C   UNL A   1      39.651  33.966  39.803  1.00  0.00     0.148 A 
ATOM     79  C   UNL A   1      41.421  36.143  39.682  1.00  0.00     0.002 A 
ATOM     80  C   UNL A   1      39.683  34.901  40.830  1.00  0.00     0.091 A 
ATOM     81  F   UNL A   1      38.821  32.913  39.823  1.00  0.00    -0.205 F 
ATOM     82  C   UNL A   1      40.574  35.985  40.776  1.00  0.00     0.022 A 
BRANCH  80  83
ATOM     83  S   UNL A   1      38.570  34.836  42.237  1.00  0.00     0.127 S 
ATOM     84  O   UNL A   1      38.996  33.603  42.897  1.00  0.00    -0.237 OA
ATOM     85  O   UNL A   1      38.917  36.066  42.948  1.00  0.00    -0.237 OA
ATOM     86  O   UNL A   1      37.225  34.812  41.681  1.00  0.00    -0.744 OA
ENDBRANCH  80  83
ENDBRANCH  52  76
BRANCH  64  87
ATOM     87  C   UNL A   1      44.472  28.882  36.342  1.00  0.00     0.023 A 
ATOM     88  C   UNL A   1      45.724  29.485  36.115  1.00  0.00     0.012 A 
ATOM     89  C   UNL A   1      44.390  27.735  37.156  1.00  0.00     0.148 A 
ATOM     90  C   UNL A   1      46.879  28.952  36.684  1.00  0.00     0.002 A 
ATOM     91  C   UNL A   1      45.541  27.228  37.747  1.00  0.00     0.091 A 
ATOM     92  F   UNL A   1      43.186  27.177  37.351  1.00  0.00    -0.205 F 
ATOM     93  C   UNL A   1      46.786  27.833  37.509  1.00  0.00     0.022 A 
BRANCH  91  94
ATOM     94  S   UNL A   1      45.516  25.835  38.882  1.00  0.00     0.127 S 
ATOM     95  O   UNL A   1      46.943  25.629  39.130  1.00  0.00    -0.237 OA
ATOM     96  O   UNL A   1      44.771  26.375  40.018  1.00  0.00    -0.237 OA
ATOM     97  O   UNL A   1      44.851  24.748  38.176  1.00  0.00    -0.744 OA
ENDBRANCH  91  94
ENDBRANCH  64  87
ENDBRANCH  38  39
ENDBRANCH  31  33
ENDBRANCH  30  31
ENDBRANCH  29  30
ENDBRANCH  28  29
ENDBRANCH   1  28
TORSDOF 21
ENDMDL
MODEL 3
REMARK VINA RESULT:      -9.8      1.881      2.229
REMARK SMILES CC(C)CN(C)c1cc2c(cc1Cl)C=C(C(=O)OCCOCCOC(=O)c1ccc(-c3c4nc(c(-c5cccc(S(=O)(=O)[O-])c5F)c5ccc([nH]5)c(-c5cccc(S(=O)(=O)[O-])c5F)c5nc(c(-c6cccc(S(=O)(=O)[O-])c6F)c6ccc3[nH]6)C=C5)C=C4)cc1)[C@H](C(F)(F)F)O2
REMARK SMILES IDX 21 1 20 2 19 3 18 4 16 5 17 6 15 7 7 8 8 9 12 10 9 11 11 12
REMARK SMILES IDX 13 13 10 14 95 15 14 16 90 17 5 18 6 19 4 20 2 21 1 22 3 23
REMARK SMILES IDX 91 24 92 25 93 26 94 27 22 28 23 29 24 30 25 31 26 32 27 33
REMARK SMILES IDX 28 34 89 35 29 36 88 37 30 38 31 39 32 40 82 41 33 42 87 43
REMARK SMILES IDX 81 44 83 45 34 46 86 47 80 48 79 49 35 51 67 52 47 53 66 54
REMARK SMILES IDX 48 55 51 56 65 57 84 58 49 59 50 60 64 62 85 63 52 64 36 65
REMARK SMILES IDX 37 66 45 67 38 68 40 69 46 70 39 71 41 72 42 73 43 74 44 75
REMARK SMILES IDX 68 76 69 77 77 78 70 79 72 80 78 81 71 82 73 83 74 84 75 85
REMARK SMILES IDX 76 86 53 87 54 88 62 89 55 90 57 91 63 92 56 93 58 94 59 95
REMARK SMILES IDX 60 96 61 97
REMARK H PARENT 83 50 51 61
REMARK Flexibility Score: inf
ROOT
ATOM      1  O   UNL A   1      37.083  21.237  25.726  1.00  0.00    -0.374 OA
ENDROOT
BRANCH   1   2
ATOM      2  C   UNL A   1      36.302  22.324  25.232  1.00  0.00     0.202 C 
BRANCH   2   3
ATOM      3  C   UNL A   1      36.744  23.737  25.623  1.00  0.00     0.261 C 
BRANCH   3   4
ATOM      4  O   UNL A   1      35.688  24.693  25.439  1.00  0.00    -0.460 OA
BRANCH   4   5
ATOM      5  C   UNL A   1      34.464  24.238  25.763  1.00  0.00     0.338 C 
ATOM      6  O   UNL A   1      34.183  23.558  26.741  1.00  0.00    -0.246 OA
BRANCH   5   7
ATOM      7  C   UNL A   1      33.429  24.777  24.860  1.00  0.00     0.087 C 
ATOM      8  C   UNL A   1      29.953  28.162  23.526  1.00  0.00     0.059 A 
ATOM      9  C   UNL A   1      30.110  26.775  23.305  1.00  0.00     0.074 A 
ATOM     10  C   UNL A   1      31.000  28.821  24.205  1.00  0.00     0.065 A 
ATOM     11  C   UNL A   1      31.254  26.089  23.734  1.00  0.00     0.130 A 
ATOM     12  C   UNL A   1      32.194  28.167  24.504  1.00  0.00     0.034 A 
ATOM     13  Cl  UNL A   1      30.848  30.418  24.858  1.00  0.00    -0.082 Cl
ATOM     14  C   UNL A   1      32.312  26.799  24.283  1.00  0.00     0.019 A 
ATOM     15  O   UNL A   1      31.252  24.727  23.624  1.00  0.00    -0.475 OA
ATOM     16  C   UNL A   1      33.474  26.113  24.791  1.00  0.00     0.027 C 
ATOM     17  C   UNL A   1      32.325  23.946  24.259  1.00  0.00     0.316 C 
BRANCH   8  18
ATOM     18  N   UNL A   1      28.787  28.831  23.122  1.00  0.00    -0.373 N 
ATOM     19  C   UNL A   1      27.559  28.040  23.156  1.00  0.00     0.143 C 
BRANCH  18  20
ATOM     20  C   UNL A   1      28.897  29.837  22.039  1.00  0.00     0.119 C 
BRANCH  20  21
ATOM     21  C   UNL A   1      27.964  31.051  22.234  1.00  0.00     0.002 C 
ATOM     22  C   UNL A   1      27.517  31.202  23.692  1.00  0.00     0.009 C 
ATOM     23  C   UNL A   1      28.612  32.362  21.780  1.00  0.00     0.009 C 
ENDBRANCH  20  21
ENDBRANCH  18  20
ENDBRANCH   8  18
BRANCH  17  24
ATOM     24  C   UNL A   1      32.795  22.918  23.211  1.00  0.00     0.430 C 
ATOM     25  F   UNL A   1      33.455  21.883  23.783  1.00  0.00    -0.167 F 
ATOM     26  F   UNL A   1      31.778  22.413  22.482  1.00  0.00    -0.167 F 
ATOM     27  F   UNL A   1      33.649  23.487  22.321  1.00  0.00    -0.167 F 
ENDBRANCH  17  24
ENDBRANCH   5   7
ENDBRANCH   4   5
ENDBRANCH   3   4
ENDBRANCH   2   3
ENDBRANCH   1   2
BRANCH   1  28
ATOM     28  C   UNL A   1      38.472  21.459  25.977  1.00  0.00     0.202 C 
BRANCH  28  29
ATOM     29  C   UNL A   1      39.482  20.446  25.422  1.00  0.00     0.261 C 
BRANCH  29  30
ATOM     30  O   UNL A   1      40.343  19.917  26.444  1.00  0.00    -0.460 OA
BRANCH  30  31
ATOM     31  C   UNL A   1      41.669  19.975  26.169  1.00  0.00     0.338 C 
ATOM     32  O   UNL A   1      42.331  19.146  25.559  1.00  0.00    -0.246 OA
BRANCH  31  33
ATOM     33  C   UNL A   1      42.180  21.314  26.519  1.00  0.00     0.060 A 
ATOM     34  C   UNL A   1      42.487  22.255  25.535  1.00  0.00     0.016 A 
ATOM     35  C   UNL A   1      42.318  21.632  27.876  1.00  0.00     0.016 A 
ATOM     36  C   UNL A   1      42.905  23.532  25.919  1.00  0.00     0.010 A 
ATOM     37  C   UNL A   1      42.741  22.905  28.257  1.00  0.00     0.010 A 
ATOM     38  C   UNL A   1      43.019  23.872  27.282  1.00  0.00    -0.014 A 
BRANCH  38  39
ATOM     39  C   UNL A   1      43.297  25.272  27.686  1.00  0.00     0.031 A 
ATOM     40  C   UNL A   1      44.683  25.845  27.634  1.00  0.00     0.074 A 
ATOM     41  C   UNL A   1      42.277  26.019  28.151  1.00  0.00     0.049 A 
ATOM     42  N   UNL A   1      45.073  27.063  27.910  1.00  0.00    -0.248 NA
ATOM     43  C   UNL A   1      45.772  24.942  27.231  1.00  0.00     0.031 C 
ATOM     44  C   UNL A   1      40.900  25.551  28.312  1.00  0.00     0.029 A 
ATOM     45  N   UNL A   1      42.240  27.322  28.581  1.00  0.00    -0.354 N 
ATOM     46  C   UNL A   1      46.447  27.078  27.716  1.00  0.00     0.074 A 
ATOM     47  C   UNL A   1      46.830  25.739  27.322  1.00  0.00     0.031 C 
ATOM     48  C   UNL A   1      40.148  26.556  28.785  1.00  0.00     0.029 A 
ATOM     49  C   UNL A   1      40.991  27.732  28.980  1.00  0.00     0.049 A 
ATOM     50  H   UNL A   1      43.032  27.906  28.600  1.00  0.00     0.167 HD
ATOM     51  C   UNL A   1      47.304  28.121  27.832  1.00  0.00     0.034 A 
ATOM     52  C   UNL A   1      40.565  28.922  29.446  1.00  0.00     0.034 A 
ATOM     53  C   UNL A   1      46.919  29.455  28.211  1.00  0.00     0.049 A 
ATOM     54  C   UNL A   1      41.537  30.061  29.561  1.00  0.00     0.074 A 
ATOM     55  C   UNL A   1      47.715  30.585  28.292  1.00  0.00     0.029 A 
ATOM     56  N   UNL A   1      45.640  29.838  28.583  1.00  0.00    -0.354 N 
ATOM     57  N   UNL A   1      42.807  30.090  29.243  1.00  0.00    -0.248 NA
ATOM     58  C   UNL A   1      41.014  31.337  30.074  1.00  0.00     0.031 C 
ATOM     59  C   UNL A   1      46.922  31.648  28.730  1.00  0.00     0.029 A 
ATOM     60  C   UNL A   1      45.628  31.185  28.902  1.00  0.00     0.049 A 
ATOM     61  H   UNL A   1      44.858  29.242  28.614  1.00  0.00     0.167 HD
ATOM     62  C   UNL A   1      43.231  31.390  29.494  1.00  0.00     0.074 A 
ATOM     63  C   UNL A   1      42.080  32.122  29.978  1.00  0.00     0.031 C 
ATOM     64  C   UNL A   1      44.469  31.919  29.345  1.00  0.00     0.034 A 
BRANCH  51  65
ATOM     65  C   UNL A   1      48.748  27.894  27.476  1.00  0.00     0.023 A 
ATOM     66  C   UNL A   1      49.138  27.983  26.125  1.00  0.00     0.012 A 
ATOM     67  C   UNL A   1      49.727  27.723  28.473  1.00  0.00     0.148 A 
ATOM     68  C   UNL A   1      50.483  27.898  25.770  1.00  0.00     0.002 A 
ATOM     69  C   UNL A   1      51.069  27.666  28.113  1.00  0.00     0.091 A 
ATOM     70  F   UNL A   1      49.329  27.636  29.750  1.00  0.00    -0.205 F 
ATOM     71  C   UNL A   1      51.447  27.750  26.762  1.00  0.00     0.022 A 
BRANCH  69  72
ATOM     72  S   UNL A   1      52.397  27.527  29.315  1.00  0.00     0.127 S 
ATOM     73  O   UNL A   1      52.509  26.076  29.459  1.00  0.00    -0.237 OA
ATOM     74  O   UNL A   1      53.514  28.157  28.612  1.00  0.00    -0.237 OA
ATOM     75  O   UNL A   1      51.943  28.232  30.504  1.00  0.00    -0.744 OA
ENDBRANCH  69  72
ENDBRANCH  51  65
BRANCH  52  76
ATOM     76  C   UNL A   1      39.123  29.106  29.760  1.00  0.00     0.023 A 
ATOM     77  C   UNL A   1      38.663  28.820  31.059  1.00  0.00     0.012 A 
ATOM     78  C   UNL A   1      38.229  29.625  28.805  1.00  0.00     0.148 A 
ATOM     79  C   UNL A   1      37.330  29.041  31.402  1.00  0.00     0.002 A 
ATOM     80  C   UNL A   1      36.910  29.877  29.163  1.00  0.00     0.091 A 
ATOM     81  F   UNL A   1      38.697  29.889  27.577  1.00  0.00    -0.205 F 
ATOM     82  C   UNL A   1      36.457  29.577  30.458  1.00  0.00     0.022 A 
BRANCH  80  83
ATOM     83  S   UNL A   1      35.733  30.648  28.049  1.00  0.00     0.127 S 
ATOM     84  O   UNL A   1      36.414  31.897  27.714  1.00  0.00    -0.237 OA
ATOM     85  O   UNL A   1      35.668  29.671  26.963  1.00  0.00    -0.237 OA
ATOM     86  O   UNL A   1      34.501  30.795  28.811  1.00  0.00    -0.744 OA
ENDBRANCH  80  83
ENDBRANCH  52  76
BRANCH  64  87
ATOM     87  C   UNL A   1      44.668  33.368  29.695  1.00  0.00     0.023 A 
ATOM     88  C   UNL A   1      44.466  34.352  28.708  1.00  0.00     0.012 A 
ATOM     89  C   UNL A   1      44.927  33.758  31.024  1.00  0.00     0.148 A 
ATOM     90  C   UNL A   1      44.527  35.705  29.037  1.00  0.00     0.002 A 
ATOM     91  C   UNL A   1      44.953  35.109  31.351  1.00  0.00     0.091 A 
ATOM     92  F   UNL A   1      45.122  32.801  31.943  1.00  0.00    -0.205 F 
ATOM     93  C   UNL A   1      44.757  36.083  30.358  1.00  0.00     0.022 A 
BRANCH  91  94
ATOM     94  S   UNL A   1      45.171  35.696  33.035  1.00  0.00     0.127 S 
ATOM     95  O   UNL A   1      44.042  35.063  33.718  1.00  0.00    -0.237 OA
ATOM     96  O   UNL A   1      46.481  35.150  33.386  1.00  0.00    -0.237 OA
ATOM     97  O   UNL A   1      45.113  37.150  32.969  1.00  0.00    -0.744 OA
ENDBRANCH  91  94
ENDBRANCH  64  87
ENDBRANCH  38  39
ENDBRANCH  31  33
ENDBRANCH  30  31
ENDBRANCH  29  30
ENDBRANCH  28  29
ENDBRANCH   1  28
TORSDOF 21
ENDMDL
