MODEL 1
REMARK VINA RESULT:     -11.8      0.000      0.000
REMARK SMILES C[C@H]1[C@H](C(=O)OCCOCCOC(=O)c2ccc(-c3c4nc(c(-c5cccc(S(=O)(=O)[O-])c5F)c5ccc([nH]5)c(-c5cccc(S(=O)(=O)[O-])c5F)c5nc(c(-c6cccc(S(=O)(=O)[O-])c6F)c6ccc3[nH]6)C=C5)C=C4)cc2)CC[N@@H+]1Cc1ccc(C(F)(F)F)cc1
REMARK SMILES IDX 9 1 8 2 7 3 6 4 4 5 5 6 3 7 1 8 2 9 80 10 78 11 79 12 81 14
REMARK SMILES IDX 82 15 83 16 91 17 84 18 90 19 85 20 86 21 87 22 88 23 89 24
REMARK SMILES IDX 10 25 11 26 12 27 13 28 14 29 15 30 16 31 77 32 17 33 76 34
REMARK SMILES IDX 18 35 19 36 20 37 70 38 21 39 75 40 69 41 71 42 22 43 74 44
REMARK SMILES IDX 68 45 67 46 23 48 55 49 35 50 54 51 36 52 39 53 53 54 72 55
REMARK SMILES IDX 37 56 38 57 52 59 73 60 40 61 24 62 25 63 33 64 26 65 28 66
REMARK SMILES IDX 34 67 27 68 29 69 30 70 31 71 32 72 56 73 57 74 65 75 58 76
REMARK SMILES IDX 60 77 66 78 59 79 61 80 62 81 63 82 64 83 41 84 42 85 50 86
REMARK SMILES IDX 43 87 45 88 51 89 44 90 46 91 47 92 48 93 49 94
REMARK H PARENT 80 13 71 47 39 58
REMARK Flexibility Score: inf
ROOT
ATOM      1  O   UNL A   1      30.660  29.468  24.380  1.00  0.00    -0.374 OA
ENDROOT
BRANCH   1   2
ATOM      2  C   UNL A   1      31.137  28.988  23.119  1.00  0.00     0.202 C 
BRANCH   2   3
ATOM      3  C   UNL A   1      30.585  27.629  22.680  1.00  0.00     0.261 C 
BRANCH   3   4
ATOM      4  O   UNL A   1      29.832  27.033  23.752  1.00  0.00    -0.463 OA
BRANCH   4   5
ATOM      5  C   UNL A   1      30.333  25.899  24.292  1.00  0.00     0.315 C 
ATOM      6  O   UNL A   1      29.787  25.243  25.175  1.00  0.00    -0.252 OA
BRANCH   5   7
ATOM      7  C   UNL A   1      31.665  25.481  23.700  1.00  0.00     0.162 C 
ATOM      8  C   UNL A   1      33.973  26.202  24.440  1.00  0.00     0.076 C 
ATOM      9  C   UNL A   1      32.831  25.199  24.665  1.00  0.00     0.195 C 
ATOM     10  N   UNL A   1      33.355  23.867  24.322  1.00  0.00    -0.328 N 
ATOM     11  C   UNL A   1      31.482  24.208  22.888  1.00  0.00     0.083 C 
ATOM     12  C   UNL A   1      32.792  23.463  23.042  1.00  0.00     0.263 C 
ATOM     13  H   UNL A   1      34.368  23.940  24.217  1.00  0.00     0.348 HD
BRANCH  10  14
ATOM     14  C   UNL A   1      33.297  22.861  25.394  1.00  0.00     0.299 C 
BRANCH  14  15
ATOM     15  C   UNL A   1      33.463  21.408  25.003  1.00  0.00     0.006 A 
ATOM     16  C   UNL A   1      34.737  20.821  25.016  1.00  0.00     0.010 A 
ATOM     17  C   UNL A   1      32.375  20.623  24.603  1.00  0.00     0.010 A 
ATOM     18  C   UNL A   1      34.906  19.470  24.703  1.00  0.00     0.013 A 
ATOM     19  C   UNL A   1      32.537  19.266  24.312  1.00  0.00     0.013 A 
ATOM     20  C   UNL A   1      33.802  18.670  24.383  1.00  0.00     0.056 A 
BRANCH  20  21
ATOM     21  C   UNL A   1      33.984  17.194  24.126  1.00  0.00     0.416 C 
ATOM     22  F   UNL A   1      34.925  16.621  24.916  1.00  0.00    -0.166 F 
ATOM     23  F   UNL A   1      32.831  16.494  24.344  1.00  0.00    -0.166 F 
ATOM     24  F   UNL A   1      34.333  16.914  22.838  1.00  0.00    -0.166 F 
ENDBRANCH  20  21
ENDBRANCH  14  15
ENDBRANCH  10  14
ENDBRANCH   5   7
ENDBRANCH   4   5
ENDBRANCH   3   4
ENDBRANCH   2   3
ENDBRANCH   1   2
BRANCH   1  25
ATOM     25  C   UNL A   1      31.611  29.569  25.437  1.00  0.00     0.202 C 
BRANCH  25  26
ATOM     26  C   UNL A   1      31.781  30.954  26.075  1.00  0.00     0.261 C 
BRANCH  26  27
ATOM     27  O   UNL A   1      32.530  30.915  27.302  1.00  0.00    -0.460 OA
BRANCH  27  28
ATOM     28  C   UNL A   1      33.296  32.011  27.516  1.00  0.00     0.338 C 
ATOM     29  O   UNL A   1      32.909  33.172  27.601  1.00  0.00    -0.246 OA
BRANCH  28  30
ATOM     30  C   UNL A   1      34.694  31.635  27.790  1.00  0.00     0.060 A 
ATOM     31  C   UNL A   1      34.978  30.267  27.893  1.00  0.00     0.016 A 
ATOM     32  C   UNL A   1      35.686  32.584  28.051  1.00  0.00     0.016 A 
ATOM     33  C   UNL A   1      36.227  29.845  28.338  1.00  0.00     0.010 A 
ATOM     34  C   UNL A   1      36.946  32.156  28.488  1.00  0.00     0.010 A 
ATOM     35  C   UNL A   1      37.203  30.787  28.690  1.00  0.00    -0.014 A 
BRANCH  35  36
ATOM     36  C   UNL A   1      38.404  30.329  29.434  1.00  0.00     0.031 A 
ATOM     37  C   UNL A   1      38.605  30.792  30.853  1.00  0.00     0.074 A 
ATOM     38  C   UNL A   1      39.277  29.466  28.880  1.00  0.00     0.049 A 
ATOM     39  N   UNL A   1      39.532  30.454  31.710  1.00  0.00    -0.248 NA
ATOM     40  C   UNL A   1      37.631  31.766  31.377  1.00  0.00     0.031 C 
ATOM     41  C   UNL A   1      39.199  28.947  27.518  1.00  0.00     0.029 A 
ATOM     42  N   UNL A   1      40.405  28.882  29.399  1.00  0.00    -0.354 N 
ATOM     43  C   UNL A   1      39.268  31.183  32.863  1.00  0.00     0.074 A 
ATOM     44  C   UNL A   1      38.110  32.006  32.587  1.00  0.00     0.031 C 
ATOM     45  C   UNL A   1      40.245  28.133  27.299  1.00  0.00     0.029 A 
ATOM     46  C   UNL A   1      41.067  28.074  28.505  1.00  0.00     0.049 A 
ATOM     47  H   UNL A   1      40.710  29.026  30.324  1.00  0.00     0.167 HD
ATOM     48  C   UNL A   1      39.908  31.152  34.056  1.00  0.00     0.034 A 
ATOM     49  C   UNL A   1      42.204  27.363  28.646  1.00  0.00     0.034 A 
ATOM     50  C   UNL A   1      41.037  30.311  34.344  1.00  0.00     0.049 A 
ATOM     51  C   UNL A   1      42.895  27.339  29.986  1.00  0.00     0.074 A 
ATOM     52  C   UNL A   1      41.725  30.171  35.537  1.00  0.00     0.029 A 
ATOM     53  N   UNL A   1      41.650  29.469  33.429  1.00  0.00    -0.354 N 
ATOM     54  N   UNL A   1      42.549  27.929  31.105  1.00  0.00    -0.248 NA
ATOM     55  C   UNL A   1      44.105  26.510  30.095  1.00  0.00     0.031 C 
ATOM     56  C   UNL A   1      42.765  29.257  35.338  1.00  0.00     0.029 A 
ATOM     57  C   UNL A   1      42.711  28.812  34.026  1.00  0.00     0.049 A 
ATOM     58  H   UNL A   1      41.371  29.356  32.491  1.00  0.00     0.167 HD
ATOM     59  C   UNL A   1      43.474  27.514  32.058  1.00  0.00     0.074 A 
ATOM     60  C   UNL A   1      44.382  26.605  31.389  1.00  0.00     0.031 C 
ATOM     61  C   UNL A   1      43.572  27.866  33.364  1.00  0.00     0.034 A 
BRANCH  48  62
ATOM     62  C   UNL A   1      39.371  32.030  35.156  1.00  0.00     0.023 A 
ATOM     63  C   UNL A   1      38.371  31.533  36.016  1.00  0.00     0.012 A 
ATOM     64  C   UNL A   1      39.883  33.325  35.365  1.00  0.00     0.148 A 
ATOM     65  C   UNL A   1      37.865  32.321  37.047  1.00  0.00     0.002 A 
ATOM     66  C   UNL A   1      39.403  34.090  36.422  1.00  0.00     0.091 A 
ATOM     67  F   UNL A   1      40.814  33.789  34.521  1.00  0.00    -0.205 F 
ATOM     68  C   UNL A   1      38.387  33.595  37.256  1.00  0.00     0.022 A 
BRANCH  66  69
ATOM     69  S   UNL A   1      40.063  35.713  36.817  1.00  0.00     0.127 S 
ATOM     70  O   UNL A   1      39.656  36.489  35.646  1.00  0.00    -0.237 OA
ATOM     71  O   UNL A   1      39.346  36.047  38.048  1.00  0.00    -0.237 OA
ATOM     72  O   UNL A   1      41.499  35.533  36.980  1.00  0.00    -0.744 OA
ENDBRANCH  66  69
ENDBRANCH  48  62
BRANCH  49  73
ATOM     73  C   UNL A   1      42.727  26.561  27.504  1.00  0.00     0.023 A 
ATOM     74  C   UNL A   1      43.665  27.133  26.623  1.00  0.00     0.012 A 
ATOM     75  C   UNL A   1      42.308  25.232  27.294  1.00  0.00     0.148 A 
ATOM     76  C   UNL A   1      44.153  26.408  25.536  1.00  0.00     0.002 A 
ATOM     77  C   UNL A   1      42.839  24.498  26.239  1.00  0.00     0.091 A 
ATOM     78  F   UNL A   1      41.400  24.712  28.131  1.00  0.00    -0.205 F 
ATOM     79  C   UNL A   1      43.749  25.088  25.349  1.00  0.00     0.022 A 
BRANCH  77  80
ATOM     80  S   UNL A   1      42.461  22.759  25.993  1.00  0.00     0.127 S 
ATOM     81  O   UNL A   1      43.022  22.515  24.666  1.00  0.00    -0.237 OA
ATOM     82  O   UNL A   1      43.193  22.130  27.094  1.00  0.00    -0.237 OA
ATOM     83  O   UNL A   1      41.013  22.652  26.099  1.00  0.00    -0.744 OA
ENDBRANCH  77  80
ENDBRANCH  49  73
BRANCH  61  84
ATOM     84  C   UNL A   1      44.681  27.243  34.174  1.00  0.00     0.023 A 
ATOM     85  C   UNL A   1      45.960  27.835  34.183  1.00  0.00     0.012 A 
ATOM     86  C   UNL A   1      44.440  26.111  34.978  1.00  0.00     0.148 A 
ATOM     87  C   UNL A   1      46.989  27.291  34.949  1.00  0.00     0.002 A 
ATOM     88  C   UNL A   1      45.458  25.602  35.776  1.00  0.00     0.091 A 
ATOM     89  F   UNL A   1      43.223  25.548  34.943  1.00  0.00    -0.205 F 
ATOM     90  C   UNL A   1      46.735  26.182  35.754  1.00  0.00     0.022 A 
BRANCH  88  91
ATOM     91  S   UNL A   1      45.187  24.236  36.913  1.00  0.00     0.127 S 
ATOM     92  O   UNL A   1      44.779  23.167  36.004  1.00  0.00    -0.237 OA
ATOM     93  O   UNL A   1      46.511  24.058  37.511  1.00  0.00    -0.237 OA
ATOM     94  O   UNL A   1      44.165  24.696  37.845  1.00  0.00    -0.744 OA
ENDBRANCH  88  91
ENDBRANCH  61  84
ENDBRANCH  35  36
ENDBRANCH  28  30
ENDBRANCH  27  28
ENDBRANCH  26  27
ENDBRANCH  25  26
ENDBRANCH   1  25
TORSDOF 20
ENDMDL
MODEL 2
REMARK VINA RESULT:     -11.2      1.609      7.661
REMARK SMILES C[C@H]1[C@H](C(=O)OCCOCCOC(=O)c2ccc(-c3c4nc(c(-c5cccc(S(=O)(=O)[O-])c5F)c5ccc([nH]5)c(-c5cccc(S(=O)(=O)[O-])c5F)c5nc(c(-c6cccc(S(=O)(=O)[O-])c6F)c6ccc3[nH]6)C=C5)C=C4)cc2)CC[N@@H+]1Cc1ccc(C(F)(F)F)cc1
REMARK SMILES IDX 9 1 8 2 7 3 6 4 4 5 5 6 3 7 1 8 2 9 80 10 78 11 79 12 81 14
REMARK SMILES IDX 82 15 83 16 91 17 84 18 90 19 85 20 86 21 87 22 88 23 89 24
REMARK SMILES IDX 10 25 11 26 12 27 13 28 14 29 15 30 16 31 77 32 17 33 76 34
REMARK SMILES IDX 18 35 19 36 20 37 70 38 21 39 75 40 69 41 71 42 22 43 74 44
REMARK SMILES IDX 68 45 67 46 23 48 55 49 35 50 54 51 36 52 39 53 53 54 72 55
REMARK SMILES IDX 37 56 38 57 52 59 73 60 40 61 24 62 25 63 33 64 26 65 28 66
REMARK SMILES IDX 34 67 27 68 29 69 30 70 31 71 32 72 56 73 57 74 65 75 58 76
REMARK SMILES IDX 60 77 66 78 59 79 61 80 62 81 63 82 64 83 41 84 42 85 50 86
REMARK SMILES IDX 43 87 45 88 51 89 44 90 46 91 47 92 48 93 49 94
REMARK H PARENT 80 13 71 47 39 58
REMARK Flexibility Score: inf
ROOT
ATOM      1  O   UNL A   1      29.998  30.032  24.546  1.00  0.00    -0.374 OA
ENDROOT
BRANCH   1   2
ATOM      2  C   UNL A   1      29.736  30.172  23.147  1.00  0.00     0.202 C 
BRANCH   2   3
ATOM      3  C   UNL A   1      29.100  28.954  22.471  1.00  0.00     0.261 C 
BRANCH   3   4
ATOM      4  O   UNL A   1      29.483  27.750  23.160  1.00  0.00    -0.463 OA
BRANCH   4   5
ATOM      5  C   UNL A   1      30.655  27.183  22.792  1.00  0.00     0.315 C 
ATOM      6  O   UNL A   1      31.048  27.076  21.635  1.00  0.00    -0.252 OA
BRANCH   5   7
ATOM      7  C   UNL A   1      31.478  26.678  23.962  1.00  0.00     0.162 C 
ATOM      8  C   UNL A   1      30.896  24.804  25.557  1.00  0.00     0.076 C 
ATOM      9  C   UNL A   1      31.535  25.159  24.205  1.00  0.00     0.195 C 
ATOM     10  N   UNL A   1      32.959  24.795  24.293  1.00  0.00    -0.328 N 
ATOM     11  C   UNL A   1      32.921  27.126  23.797  1.00  0.00     0.083 C 
ATOM     12  C   UNL A   1      33.741  26.016  24.421  1.00  0.00     0.263 C 
ATOM     13  H   UNL A   1      33.094  24.238  25.137  1.00  0.00     0.348 HD
BRANCH  10  14
ATOM     14  C   UNL A   1      33.435  23.830  23.290  1.00  0.00     0.299 C 
BRANCH  14  15
ATOM     15  C   UNL A   1      33.351  22.359  23.636  1.00  0.00     0.006 A 
ATOM     16  C   UNL A   1      34.299  21.786  24.495  1.00  0.00     0.010 A 
ATOM     17  C   UNL A   1      32.354  21.533  23.102  1.00  0.00     0.010 A 
ATOM     18  C   UNL A   1      34.212  20.440  24.863  1.00  0.00     0.013 A 
ATOM     19  C   UNL A   1      32.251  20.193  23.487  1.00  0.00     0.013 A 
ATOM     20  C   UNL A   1      33.165  19.639  24.391  1.00  0.00     0.056 A 
BRANCH  20  21
ATOM     21  C   UNL A   1      33.033  18.211  24.857  1.00  0.00     0.416 C 
ATOM     22  F   UNL A   1      34.209  17.536  24.865  1.00  0.00    -0.166 F 
ATOM     23  F   UNL A   1      32.545  18.134  26.131  1.00  0.00    -0.166 F 
ATOM     24  F   UNL A   1      32.170  17.478  24.099  1.00  0.00    -0.166 F 
ENDBRANCH  20  21
ENDBRANCH  14  15
ENDBRANCH  10  14
ENDBRANCH   5   7
ENDBRANCH   4   5
ENDBRANCH   3   4
ENDBRANCH   2   3
ENDBRANCH   1   2
BRANCH   1  25
ATOM     25  C   UNL A   1      31.307  30.370  24.998  1.00  0.00     0.202 C 
BRANCH  25  26
ATOM     26  C   UNL A   1      31.396  31.411  26.121  1.00  0.00     0.261 C 
BRANCH  26  27
ATOM     27  O   UNL A   1      32.398  31.091  27.101  1.00  0.00    -0.460 OA
BRANCH  27  28
ATOM     28  C   UNL A   1      33.183  32.137  27.450  1.00  0.00     0.338 C 
ATOM     29  O   UNL A   1      32.841  33.311  27.550  1.00  0.00    -0.246 OA
BRANCH  28  30
ATOM     30  C   UNL A   1      34.524  31.681  27.856  1.00  0.00     0.060 A 
ATOM     31  C   UNL A   1      34.689  30.309  28.082  1.00  0.00     0.016 A 
ATOM     32  C   UNL A   1      35.569  32.571  28.117  1.00  0.00     0.016 A 
ATOM     33  C   UNL A   1      35.866  29.831  28.649  1.00  0.00     0.010 A 
ATOM     34  C   UNL A   1      36.758  32.087  28.678  1.00  0.00     0.010 A 
ATOM     35  C   UNL A   1      36.889  30.723  29.002  1.00  0.00    -0.014 A 
BRANCH  35  36
ATOM     36  C   UNL A   1      37.996  30.237  29.865  1.00  0.00     0.031 A 
ATOM     37  C   UNL A   1      38.972  29.236  29.305  1.00  0.00     0.074 A 
ATOM     38  C   UNL A   1      38.169  30.719  31.110  1.00  0.00     0.049 A 
ATOM     39  N   UNL A   1      40.053  28.741  29.849  1.00  0.00    -0.248 NA
ATOM     40  C   UNL A   1      38.695  28.724  27.952  1.00  0.00     0.031 C 
ATOM     41  C   UNL A   1      37.295  31.685  31.768  1.00  0.00     0.029 A 
ATOM     42  N   UNL A   1      39.140  30.453  32.043  1.00  0.00    -0.354 N 
ATOM     43  C   UNL A   1      40.573  27.849  28.919  1.00  0.00     0.074 A 
ATOM     44  C   UNL A   1      39.673  27.848  27.786  1.00  0.00     0.031 C 
ATOM     45  C   UNL A   1      37.756  31.920  33.008  1.00  0.00     0.029 A 
ATOM     46  C   UNL A   1      38.959  31.120  33.231  1.00  0.00     0.049 A 
ATOM     47  H   UNL A   1      39.894  29.843  31.876  1.00  0.00     0.167 HD
ATOM     48  C   UNL A   1      41.711  27.119  28.983  1.00  0.00     0.034 A 
ATOM     49  C   UNL A   1      39.684  31.093  34.368  1.00  0.00     0.034 A 
ATOM     50  C   UNL A   1      42.624  27.143  30.093  1.00  0.00     0.049 A 
ATOM     51  C   UNL A   1      40.951  30.278  34.412  1.00  0.00     0.074 A 
ATOM     52  C   UNL A   1      43.829  26.477  30.232  1.00  0.00     0.029 A 
ATOM     53  N   UNL A   1      42.433  27.869  31.258  1.00  0.00    -0.354 N 
ATOM     54  N   UNL A   1      41.499  29.549  33.469  1.00  0.00    -0.248 NA
ATOM     55  C   UNL A   1      41.727  30.323  35.661  1.00  0.00     0.031 C 
ATOM     56  C   UNL A   1      44.358  26.787  31.489  1.00  0.00     0.029 A 
ATOM     57  C   UNL A   1      43.492  27.663  32.125  1.00  0.00     0.049 A 
ATOM     58  H   UNL A   1      41.657  28.447  31.443  1.00  0.00     0.167 HD
ATOM     59  C   UNL A   1      42.697  29.079  33.996  1.00  0.00     0.074 A 
ATOM     60  C   UNL A   1      42.807  29.625  35.333  1.00  0.00     0.031 C 
ATOM     61  C   UNL A   1      43.617  28.258  33.430  1.00  0.00     0.034 A 
BRANCH  48  62
ATOM     62  C   UNL A   1      42.052  26.258  27.796  1.00  0.00     0.023 A 
ATOM     63  C   UNL A   1      42.801  26.805  26.734  1.00  0.00     0.012 A 
ATOM     64  C   UNL A   1      41.672  24.904  27.748  1.00  0.00     0.148 A 
ATOM     65  C   UNL A   1      43.138  26.028  25.628  1.00  0.00     0.002 A 
ATOM     66  C   UNL A   1      42.048  24.123  26.661  1.00  0.00     0.091 A 
ATOM     67  F   UNL A   1      40.937  24.409  28.754  1.00  0.00    -0.205 F 
ATOM     68  C   UNL A   1      42.771  24.685  25.596  1.00  0.00     0.022 A 
BRANCH  66  69
ATOM     69  S   UNL A   1      41.684  22.366  26.561  1.00  0.00     0.127 S 
ATOM     70  O   UNL A   1      40.225  22.373  26.468  1.00  0.00    -0.237 OA
ATOM     71  O   UNL A   1      42.372  21.977  25.330  1.00  0.00    -0.237 OA
ATOM     72  O   UNL A   1      42.231  21.775  27.775  1.00  0.00    -0.744 OA
ENDBRANCH  66  69
ENDBRANCH  48  62
BRANCH  49  73
ATOM     73  C   UNL A   1      39.265  31.917  35.537  1.00  0.00     0.023 A 
ATOM     74  C   UNL A   1      39.640  33.273  35.604  1.00  0.00     0.012 A 
ATOM     75  C   UNL A   1      38.488  31.367  36.575  1.00  0.00     0.148 A 
ATOM     76  C   UNL A   1      39.276  34.058  36.698  1.00  0.00     0.002 A 
ATOM     77  C   UNL A   1      38.084  32.169  37.638  1.00  0.00     0.091 A 
ATOM     78  F   UNL A   1      38.158  30.070  36.504  1.00  0.00    -0.205 F 
ATOM     79  C   UNL A   1      38.491  33.510  37.709  1.00  0.00     0.022 A 
BRANCH  77  80
ATOM     80  S   UNL A   1      36.977  31.578  38.922  1.00  0.00     0.127 S 
ATOM     81  O   UNL A   1      36.733  30.201  38.496  1.00  0.00    -0.237 OA
ATOM     82  O   UNL A   1      37.803  31.713  40.123  1.00  0.00    -0.237 OA
ATOM     83  O   UNL A   1      35.823  32.465  38.886  1.00  0.00    -0.744 OA
ENDBRANCH  77  80
ENDBRANCH  49  73
BRANCH  61  84
ATOM     84  C   UNL A   1      44.844  27.921  34.239  1.00  0.00     0.023 A 
ATOM     85  C   UNL A   1      45.982  28.748  34.162  1.00  0.00     0.012 A 
ATOM     86  C   UNL A   1      44.846  26.826  35.125  1.00  0.00     0.148 A 
ATOM     87  C   UNL A   1      47.116  28.469  34.924  1.00  0.00     0.002 A 
ATOM     88  C   UNL A   1      45.962  26.581  35.918  1.00  0.00     0.091 A 
ATOM     89  F   UNL A   1      43.763  26.037  35.173  1.00  0.00    -0.205 F 
ATOM     90  C   UNL A   1      47.101  27.394  35.810  1.00  0.00     0.022 A 
BRANCH  88  91
ATOM     91  S   UNL A   1      45.989  25.276  37.153  1.00  0.00     0.127 S 
ATOM     92  O   UNL A   1      45.063  25.796  38.157  1.00  0.00    -0.237 OA
ATOM     93  O   UNL A   1      45.491  24.122  36.402  1.00  0.00    -0.237 OA
ATOM     94  O   UNL A   1      47.379  25.161  37.576  1.00  0.00    -0.744 OA
ENDBRANCH  88  91
ENDBRANCH  61  84
ENDBRANCH  35  36
ENDBRANCH  28  30
ENDBRANCH  27  28
ENDBRANCH  26  27
ENDBRANCH  25  26
ENDBRANCH   1  25
TORSDOF 20
ENDMDL
MODEL 3
REMARK VINA RESULT:     -11.0      5.487     10.637
REMARK SMILES C[C@H]1[C@H](C(=O)OCCOCCOC(=O)c2ccc(-c3c4nc(c(-c5cccc(S(=O)(=O)[O-])c5F)c5ccc([nH]5)c(-c5cccc(S(=O)(=O)[O-])c5F)c5nc(c(-c6cccc(S(=O)(=O)[O-])c6F)c6ccc3[nH]6)C=C5)C=C4)cc2)CC[N@@H+]1Cc1ccc(C(F)(F)F)cc1
REMARK SMILES IDX 9 1 8 2 7 3 6 4 4 5 5 6 3 7 1 8 2 9 80 10 78 11 79 12 81 14
REMARK SMILES IDX 82 15 83 16 91 17 84 18 90 19 85 20 86 21 87 22 88 23 89 24
REMARK SMILES IDX 10 25 11 26 12 27 13 28 14 29 15 30 16 31 77 32 17 33 76 34
REMARK SMILES IDX 18 35 19 36 20 37 70 38 21 39 75 40 69 41 71 42 22 43 74 44
REMARK SMILES IDX 68 45 67 46 23 48 55 49 35 50 54 51 36 52 39 53 53 54 72 55
REMARK SMILES IDX 37 56 38 57 52 59 73 60 40 61 24 62 25 63 33 64 26 65 28 66
REMARK SMILES IDX 34 67 27 68 29 69 30 70 31 71 32 72 56 73 57 74 65 75 58 76
REMARK SMILES IDX 60 77 66 78 59 79 61 80 62 81 63 82 64 83 41 84 42 85 50 86
REMARK SMILES IDX 43 87 45 88 51 89 44 90 46 91 47 92 48 93 49 94
REMARK H PARENT 80 13 71 47 39 58
REMARK Flexibility Score: inf
ROOT
ATOM      1  O   UNL A   1      38.414  21.468  25.243  1.00  0.00    -0.374 OA
ENDROOT
BRANCH   1   2
ATOM      2  C   UNL A   1      37.216  22.019  24.687  1.00  0.00     0.202 C 
BRANCH   2   3
ATOM      3  C   UNL A   1      36.400  22.907  25.631  1.00  0.00     0.261 C 
BRANCH   3   4
ATOM      4  O   UNL A   1      35.924  24.069  24.929  1.00  0.00    -0.463 OA
BRANCH   4   5
ATOM      5  C   UNL A   1      34.584  24.248  24.883  1.00  0.00     0.315 C 
ATOM      6  O   UNL A   1      34.026  25.242  24.428  1.00  0.00    -0.252 OA
BRANCH   5   7
ATOM      7  C   UNL A   1      33.796  23.084  25.452  1.00  0.00     0.162 C 
ATOM      8  C   UNL A   1      33.461  22.497  27.889  1.00  0.00     0.076 C 
ATOM      9  C   UNL A   1      32.942  23.332  26.709  1.00  0.00     0.195 C 
ATOM     10  N   UNL A   1      31.585  22.849  26.404  1.00  0.00    -0.328 N 
ATOM     11  C   UNL A   1      32.837  22.557  24.397  1.00  0.00     0.083 C 
ATOM     12  C   UNL A   1      31.638  22.063  25.179  1.00  0.00     0.263 C 
ATOM     13  H   UNL A   1      31.286  22.237  27.163  1.00  0.00     0.348 HD
BRANCH  10  14
ATOM     14  C   UNL A   1      30.516  23.857  26.472  1.00  0.00     0.299 C 
BRANCH  14  15
ATOM     15  C   UNL A   1      30.790  25.213  25.857  1.00  0.00     0.006 A 
ATOM     16  C   UNL A   1      30.439  25.460  24.522  1.00  0.00     0.010 A 
ATOM     17  C   UNL A   1      31.410  26.239  26.581  1.00  0.00     0.010 A 
ATOM     18  C   UNL A   1      30.641  26.719  23.950  1.00  0.00     0.013 A 
ATOM     19  C   UNL A   1      31.592  27.505  26.019  1.00  0.00     0.013 A 
ATOM     20  C   UNL A   1      31.186  27.765  24.704  1.00  0.00     0.056 A 
BRANCH  20  21
ATOM     21  C   UNL A   1      31.326  29.141  24.103  1.00  0.00     0.416 C 
ATOM     22  F   UNL A   1      30.706  29.271  22.904  1.00  0.00    -0.166 F 
ATOM     23  F   UNL A   1      30.792  30.106  24.910  1.00  0.00    -0.166 F 
ATOM     24  F   UNL A   1      32.624  29.513  23.912  1.00  0.00    -0.166 F 
ENDBRANCH  20  21
ENDBRANCH  14  15
ENDBRANCH  10  14
ENDBRANCH   5   7
ENDBRANCH   4   5
ENDBRANCH   3   4
ENDBRANCH   2   3
ENDBRANCH   1   2
BRANCH   1  25
ATOM     25  C   UNL A   1      38.417  20.070  25.520  1.00  0.00     0.202 C 
BRANCH  25  26
ATOM     26  C   UNL A   1      39.790  19.391  25.602  1.00  0.00     0.261 C 
BRANCH  26  27
ATOM     27  O   UNL A   1      40.594  19.888  26.686  1.00  0.00    -0.460 OA
BRANCH  27  28
ATOM     28  C   UNL A   1      41.644  20.646  26.293  1.00  0.00     0.338 C 
ATOM     29  O   UNL A   1      42.490  20.351  25.456  1.00  0.00    -0.246 OA
BRANCH  28  30
ATOM     30  C   UNL A   1      41.585  21.988  26.901  1.00  0.00     0.060 A 
ATOM     31  C   UNL A   1      41.276  23.058  26.052  1.00  0.00     0.016 A 
ATOM     32  C   UNL A   1      41.927  22.219  28.235  1.00  0.00     0.016 A 
ATOM     33  C   UNL A   1      41.391  24.367  26.510  1.00  0.00     0.010 A 
ATOM     34  C   UNL A   1      42.031  23.538  28.697  1.00  0.00     0.010 A 
ATOM     35  C   UNL A   1      41.821  24.618  27.820  1.00  0.00    -0.014 A 
BRANCH  35  36
ATOM     36  C   UNL A   1      42.217  26.001  28.190  1.00  0.00     0.031 A 
ATOM     37  C   UNL A   1      43.608  26.475  27.857  1.00  0.00     0.074 A 
ATOM     38  C   UNL A   1      41.339  26.847  28.760  1.00  0.00     0.049 A 
ATOM     39  N   UNL A   1      44.138  27.660  28.013  1.00  0.00    -0.248 NA
ATOM     40  C   UNL A   1      44.525  25.482  27.271  1.00  0.00     0.031 C 
ATOM     41  C   UNL A   1      39.969  26.512  29.136  1.00  0.00     0.029 A 
ATOM     42  N   UNL A   1      41.477  28.162  29.129  1.00  0.00    -0.354 N 
ATOM     43  C   UNL A   1      45.448  27.553  27.565  1.00  0.00     0.074 A 
ATOM     44  C   UNL A   1      45.645  26.178  27.158  1.00  0.00     0.031 C 
ATOM     45  C   UNL A   1      39.394  27.587  29.700  1.00  0.00     0.029 A 
ATOM     46  C   UNL A   1      40.355  28.687  29.725  1.00  0.00     0.049 A 
ATOM     47  H   UNL A   1      42.301  28.680  28.980  1.00  0.00     0.167 HD
ATOM     48  C   UNL A   1      46.397  28.514  27.469  1.00  0.00     0.034 A 
ATOM     49  C   UNL A   1      40.128  29.917  30.229  1.00  0.00     0.034 A 
ATOM     50  C   UNL A   1      46.195  29.888  27.841  1.00  0.00     0.049 A 
ATOM     51  C   UNL A   1      41.197  30.972  30.103  1.00  0.00     0.074 A 
ATOM     52  C   UNL A   1      47.078  30.947  27.735  1.00  0.00     0.029 A 
ATOM     53  N   UNL A   1      45.029  30.393  28.394  1.00  0.00    -0.354 N 
ATOM     54  N   UNL A   1      42.383  30.886  29.550  1.00  0.00    -0.248 NA
ATOM     55  C   UNL A   1      40.877  32.308  30.628  1.00  0.00     0.031 C 
ATOM     56  C   UNL A   1      46.452  32.091  28.242  1.00  0.00     0.029 A 
ATOM     57  C   UNL A   1      45.171  31.747  28.643  1.00  0.00     0.049 A 
ATOM     58  H   UNL A   1      44.219  29.866  28.584  1.00  0.00     0.167 HD
ATOM     59  C   UNL A   1      42.934  32.160  29.625  1.00  0.00     0.074 A 
ATOM     60  C   UNL A   1      41.943  33.006  30.259  1.00  0.00     0.031 C 
ATOM     61  C   UNL A   1      44.156  32.589  29.222  1.00  0.00     0.034 A 
BRANCH  48  62
ATOM     62  C   UNL A   1      47.734  28.117  26.900  1.00  0.00     0.023 A 
ATOM     63  C   UNL A   1      48.830  27.929  27.768  1.00  0.00     0.012 A 
ATOM     64  C   UNL A   1      47.897  27.888  25.521  1.00  0.00     0.148 A 
ATOM     65  C   UNL A   1      50.075  27.553  27.268  1.00  0.00     0.002 A 
ATOM     66  C   UNL A   1      49.131  27.472  25.035  1.00  0.00     0.091 A 
ATOM     67  F   UNL A   1      46.851  28.097  24.710  1.00  0.00    -0.205 F 
ATOM     68  C   UNL A   1      50.223  27.314  25.904  1.00  0.00     0.022 A 
BRANCH  66  69
ATOM     69  S   UNL A   1      49.402  27.070  23.305  1.00  0.00     0.127 S 
ATOM     70  O   UNL A   1      48.452  25.976  23.104  1.00  0.00    -0.237 OA
ATOM     71  O   UNL A   1      49.042  28.321  22.637  1.00  0.00    -0.237 OA
ATOM     72  O   UNL A   1      50.808  26.706  23.194  1.00  0.00    -0.744 OA
ENDBRANCH  66  69
ENDBRANCH  48  62
BRANCH  49  73
ATOM     73  C   UNL A   1      38.806  30.238  30.839  1.00  0.00     0.023 A 
ATOM     74  C   UNL A   1      38.530  29.827  32.157  1.00  0.00     0.012 A 
ATOM     75  C   UNL A   1      37.829  30.959  30.125  1.00  0.00     0.148 A 
ATOM     76  C   UNL A   1      37.294  30.100  32.743  1.00  0.00     0.002 A 
ATOM     77  C   UNL A   1      36.618  31.273  30.733  1.00  0.00     0.091 A 
ATOM     78  F   UNL A   1      38.102  31.324  28.865  1.00  0.00    -0.205 F 
ATOM     79  C   UNL A   1      36.342  30.830  32.036  1.00  0.00     0.022 A 
BRANCH  77  80
ATOM     80  S   UNL A   1      35.383  32.308  29.939  1.00  0.00     0.127 S 
ATOM     81  O   UNL A   1      36.175  33.473  29.550  1.00  0.00    -0.237 OA
ATOM     82  O   UNL A   1      34.946  31.462  28.827  1.00  0.00    -0.237 OA
ATOM     83  O   UNL A   1      34.361  32.545  30.948  1.00  0.00    -0.744 OA
ENDBRANCH  77  80
ENDBRANCH  49  73
BRANCH  61  84
ATOM     84  C   UNL A   1      44.485  34.047  29.419  1.00  0.00     0.023 A 
ATOM     85  C   UNL A   1      44.956  34.496  30.668  1.00  0.00     0.012 A 
ATOM     86  C   UNL A   1      44.392  34.959  28.349  1.00  0.00     0.148 A 
ATOM     87  C   UNL A   1      45.294  35.835  30.861  1.00  0.00     0.002 A 
ATOM     88  C   UNL A   1      44.776  36.283  28.535  1.00  0.00     0.091 A 
ATOM     89  F   UNL A   1      43.924  34.521  27.171  1.00  0.00    -0.205 F 
ATOM     90  C   UNL A   1      45.215  36.725  29.792  1.00  0.00     0.022 A 
BRANCH  88  91
ATOM     91  S   UNL A   1      44.796  37.470  27.185  1.00  0.00     0.127 S 
ATOM     92  O   UNL A   1      43.397  37.466  26.763  1.00  0.00    -0.237 OA
ATOM     93  O   UNL A   1      45.230  38.698  27.853  1.00  0.00    -0.237 OA
ATOM     94  O   UNL A   1      45.750  36.947  26.214  1.00  0.00    -0.744 OA
ENDBRANCH  88  91
ENDBRANCH  61  84
ENDBRANCH  35  36
ENDBRANCH  28  30
ENDBRANCH  27  28
ENDBRANCH  26  27
ENDBRANCH  25  26
ENDBRANCH   1  25
TORSDOF 20
ENDMDL
