MODEL 1
REMARK VINA RESULT:     -12.2      0.000      0.000
REMARK SMILES Cc1ccc(-c2cc(Cl)cc3c2O[C@@H](C(F)(F)F)C(C(=O)OCCOCCOC(=O)c2ccc(-c4c5nc(c(-c6cccc(S(=O)(=O)[O-])c6F)c6ccc([nH]6)c(-c6cccc(S(=O)(=O)[O-])c6F)c6nc(c(-c7cccc(S(=O)(=O)[O-])c7F)c7ccc4[nH]7)C=C6)C=C5)cc2)=C3)cc1
REMARK SMILES IDX 26 1 25 2 24 3 23 4 22 5 20 6 21 7 19 8 6 9 7 10 12 11 8 12
REMARK SMILES IDX 11 13 13 14 9 15 10 16 94 17 14 18 5 19 1 20 2 21 3 22 96 23
REMARK SMILES IDX 4 24 95 25 15 26 16 27 17 28 18 29 27 30 28 31 29 32 30 33
REMARK SMILES IDX 31 34 32 35 93 36 33 37 92 38 34 39 35 40 36 41 86 42 37 43
REMARK SMILES IDX 91 44 85 45 87 46 38 47 90 48 84 49 83 50 39 52 71 53 51 54
REMARK SMILES IDX 70 55 52 56 55 57 69 58 88 59 53 60 54 61 68 63 89 64 56 65
REMARK SMILES IDX 40 66 41 67 49 68 42 69 44 70 50 71 43 72 45 73 46 74 47 75
REMARK SMILES IDX 48 76 72 77 73 78 81 79 74 80 76 81 82 82 75 83 77 84 78 85
REMARK SMILES IDX 79 86 80 87 57 88 58 89 66 90 59 91 61 92 67 93 60 94 62 95
REMARK SMILES IDX 63 96 64 97 65 98
REMARK H PARENT 87 51 55 62
REMARK Flexibility Score: inf
ROOT
ATOM      1  C   UNL A   1      36.293  21.774  25.239  1.00  0.00     0.202 C 
ENDROOT
BRANCH   1   2
ATOM      2  O   UNL A   1      35.567  22.365  26.308  1.00  0.00    -0.374 OA
BRANCH   2   3
ATOM      3  C   UNL A   1      34.165  22.104  26.303  1.00  0.00     0.202 C 
BRANCH   3   4
ATOM      4  C   UNL A   1      33.435  23.248  27.017  1.00  0.00     0.261 C 
BRANCH   4   5
ATOM      5  O   UNL A   1      32.302  23.799  26.329  1.00  0.00    -0.460 OA
BRANCH   5   6
ATOM      6  C   UNL A   1      32.601  24.477  25.169  1.00  0.00     0.338 C 
ATOM      7  O   UNL A   1      33.583  25.142  24.919  1.00  0.00    -0.246 OA
BRANCH   6   8
ATOM      8  C   UNL A   1      31.708  23.911  24.074  1.00  0.00     0.087 C 
ATOM      9  C   UNL A   1      31.350  27.899  23.736  1.00  0.00     0.026 A 
ATOM     10  C   UNL A   1      30.062  28.464  23.574  1.00  0.00     0.033 A 
ATOM     11  C   UNL A   1      31.441  26.502  23.489  1.00  0.00     0.135 A 
ATOM     12  C   UNL A   1      28.925  27.673  23.438  1.00  0.00     0.042 A 
ATOM     13  C   UNL A   1      30.272  25.716  23.684  1.00  0.00     0.019 A 
ATOM     14  O   UNL A   1      32.581  25.832  22.941  1.00  0.00    -0.475 OA
ATOM     15  Cl  UNL A   1      27.386  28.413  23.246  1.00  0.00    -0.084 Cl
ATOM     16  C   UNL A   1      29.015  26.297  23.585  1.00  0.00     0.032 A 
ATOM     17  C   UNL A   1      30.410  24.274  24.049  1.00  0.00     0.027 C 
ATOM     18  C   UNL A   1      32.356  24.351  22.778  1.00  0.00     0.316 C 
BRANCH   9  19
ATOM     19  C   UNL A   1      32.171  28.733  24.692  1.00  0.00    -0.015 A 
ATOM     20  C   UNL A   1      34.496  30.580  27.935  1.00  0.00     0.044 C 
ATOM     21  C   UNL A   1      33.644  29.869  26.915  1.00  0.00    -0.051 A 
ATOM     22  C   UNL A   1      32.373  30.338  26.558  1.00  0.00     0.004 A 
ATOM     23  C   UNL A   1      34.150  28.785  26.201  1.00  0.00     0.004 A 
ATOM     24  C   UNL A   1      31.644  29.769  25.478  1.00  0.00     0.009 A 
ATOM     25  C   UNL A   1      33.442  28.248  25.104  1.00  0.00     0.009 A 
ENDBRANCH   9  19
BRANCH  18  26
ATOM     26  C   UNL A   1      33.439  23.274  22.397  1.00  0.00     0.430 C 
ATOM     27  F   UNL A   1      33.425  22.980  21.063  1.00  0.00    -0.167 F 
ATOM     28  F   UNL A   1      34.683  23.790  22.617  1.00  0.00    -0.167 F 
ATOM     29  F   UNL A   1      33.420  22.102  23.043  1.00  0.00    -0.167 F 
ENDBRANCH  18  26
ENDBRANCH   6   8
ENDBRANCH   5   6
ENDBRANCH   4   5
ENDBRANCH   3   4
ENDBRANCH   2   3
ENDBRANCH   1   2
BRANCH   1  30
ATOM     30  C   UNL A   1      37.736  22.284  25.107  1.00  0.00     0.261 C 
BRANCH  30  31
ATOM     31  O   UNL A   1      38.414  22.128  26.368  1.00  0.00    -0.460 OA
BRANCH  31  32
ATOM     32  C   UNL A   1      39.689  22.619  26.397  1.00  0.00     0.338 C 
ATOM     33  O   UNL A   1      40.679  21.912  26.330  1.00  0.00    -0.246 OA
BRANCH  32  34
ATOM     34  C   UNL A   1      39.670  24.099  26.624  1.00  0.00     0.060 A 
ATOM     35  C   UNL A   1      40.428  24.999  25.870  1.00  0.00     0.016 A 
ATOM     36  C   UNL A   1      39.009  24.590  27.733  1.00  0.00     0.016 A 
ATOM     37  C   UNL A   1      40.667  26.314  26.338  1.00  0.00     0.010 A 
ATOM     38  C   UNL A   1      39.223  25.884  28.174  1.00  0.00     0.010 A 
ATOM     39  C   UNL A   1      40.128  26.733  27.546  1.00  0.00    -0.014 A 
BRANCH  39  40
ATOM     40  C   UNL A   1      40.475  27.921  28.347  1.00  0.00     0.031 A 
ATOM     41  C   UNL A   1      39.548  29.074  28.410  1.00  0.00     0.074 A 
ATOM     42  C   UNL A   1      41.363  27.783  29.364  1.00  0.00     0.049 A 
ATOM     43  N   UNL A   1      39.759  30.129  29.119  1.00  0.00    -0.248 NA
ATOM     44  C   UNL A   1      38.306  29.153  27.651  1.00  0.00     0.031 C 
ATOM     45  C   UNL A   1      41.377  28.488  30.646  1.00  0.00     0.029 A 
ATOM     46  N   UNL A   1      42.465  26.945  29.464  1.00  0.00    -0.354 N 
ATOM     47  C   UNL A   1      38.564  30.794  29.235  1.00  0.00     0.074 A 
ATOM     48  C   UNL A   1      37.753  30.257  28.171  1.00  0.00     0.031 C 
ATOM     49  C   UNL A   1      42.487  28.182  31.333  1.00  0.00     0.029 A 
ATOM     50  C   UNL A   1      43.339  27.438  30.432  1.00  0.00     0.049 A 
ATOM     51  H   UNL A   1      42.608  26.128  28.934  1.00  0.00     0.167 HD
ATOM     52  C   UNL A   1      38.372  31.616  30.307  1.00  0.00     0.034 A 
ATOM     53  C   UNL A   1      44.636  27.740  30.151  1.00  0.00     0.034 A 
ATOM     54  C   UNL A   1      39.631  31.804  31.068  1.00  0.00     0.049 A 
ATOM     55  C   UNL A   1      44.810  29.247  30.202  1.00  0.00     0.074 A 
ATOM     56  C   UNL A   1      40.056  31.474  32.344  1.00  0.00     0.029 A 
ATOM     57  N   UNL A   1      40.779  32.224  30.386  1.00  0.00    -0.354 N 
ATOM     58  N   UNL A   1      43.789  30.051  30.352  1.00  0.00    -0.248 NA
ATOM     59  C   UNL A   1      46.063  29.991  30.188  1.00  0.00     0.031 C 
ATOM     60  C   UNL A   1      41.484  31.573  32.371  1.00  0.00     0.029 A 
ATOM     61  C   UNL A   1      41.932  32.008  31.129  1.00  0.00     0.049 A 
ATOM     62  H   UNL A   1      40.772  32.626  29.486  1.00  0.00     0.167 HD
ATOM     63  C   UNL A   1      44.174  31.343  30.458  1.00  0.00     0.074 A 
ATOM     64  C   UNL A   1      45.623  31.260  30.339  1.00  0.00     0.031 C 
ATOM     65  C   UNL A   1      43.259  32.352  30.592  1.00  0.00     0.034 A 
BRANCH  52  66
ATOM     66  C   UNL A   1      37.027  32.181  30.762  1.00  0.00     0.023 A 
ATOM     67  C   UNL A   1      36.600  31.875  32.075  1.00  0.00     0.012 A 
ATOM     68  C   UNL A   1      36.116  32.953  29.990  1.00  0.00     0.148 A 
ATOM     69  C   UNL A   1      35.376  32.321  32.598  1.00  0.00     0.002 A 
ATOM     70  C   UNL A   1      34.933  33.468  30.537  1.00  0.00     0.091 A 
ATOM     71  F   UNL A   1      36.327  33.125  28.682  1.00  0.00    -0.205 F 
ATOM     72  C   UNL A   1      34.554  33.142  31.840  1.00  0.00     0.022 A 
BRANCH  70  73
ATOM     73  S   UNL A   1      33.848  34.597  29.636  1.00  0.00     0.127 S 
ATOM     74  O   UNL A   1      34.790  35.591  29.123  1.00  0.00    -0.237 OA
ATOM     75  O   UNL A   1      33.271  33.725  28.612  1.00  0.00    -0.237 OA
ATOM     76  O   UNL A   1      32.885  35.100  30.609  1.00  0.00    -0.744 OA
ENDBRANCH  70  73
ENDBRANCH  52  66
BRANCH  53  77
ATOM     77  C   UNL A   1      45.254  26.654  29.325  1.00  0.00     0.023 A 
ATOM     78  C   UNL A   1      45.222  25.384  29.969  1.00  0.00     0.012 A 
ATOM     79  C   UNL A   1      45.230  26.685  27.916  1.00  0.00     0.148 A 
ATOM     80  C   UNL A   1      44.950  24.214  29.256  1.00  0.00     0.002 A 
ATOM     81  C   UNL A   1      44.977  25.501  27.209  1.00  0.00     0.091 A 
ATOM     82  F   UNL A   1      45.272  27.875  27.305  1.00  0.00    -0.205 F 
ATOM     83  C   UNL A   1      44.782  24.282  27.881  1.00  0.00     0.022 A 
BRANCH  81  84
ATOM     84  S   UNL A   1      44.698  25.490  25.429  1.00  0.00     0.127 S 
ATOM     85  O   UNL A   1      43.873  24.298  25.265  1.00  0.00    -0.237 OA
ATOM     86  O   UNL A   1      43.996  26.754  25.212  1.00  0.00    -0.237 OA
ATOM     87  O   UNL A   1      46.029  25.434  24.841  1.00  0.00    -0.744 OA
ENDBRANCH  81  84
ENDBRANCH  53  77
BRANCH  65  88
ATOM     88  C   UNL A   1      43.554  33.774  30.180  1.00  0.00     0.023 A 
ATOM     89  C   UNL A   1      43.848  34.764  31.140  1.00  0.00     0.012 A 
ATOM     90  C   UNL A   1      43.771  34.112  28.823  1.00  0.00     0.148 A 
ATOM     91  C   UNL A   1      44.283  36.039  30.779  1.00  0.00     0.002 A 
ATOM     92  C   UNL A   1      44.326  35.338  28.478  1.00  0.00     0.091 A 
ATOM     93  F   UNL A   1      43.440  33.244  27.854  1.00  0.00    -0.205 F 
ATOM     94  C   UNL A   1      44.550  36.318  29.449  1.00  0.00     0.022 A 
BRANCH  92  95
ATOM     95  S   UNL A   1      44.960  35.632  26.822  1.00  0.00     0.127 S 
ATOM     96  O   UNL A   1      45.930  34.549  26.675  1.00  0.00    -0.237 OA
ATOM     97  O   UNL A   1      43.759  35.493  25.998  1.00  0.00    -0.237 OA
ATOM     98  O   UNL A   1      45.503  36.984  26.858  1.00  0.00    -0.744 OA
ENDBRANCH  92  95
ENDBRANCH  65  88
ENDBRANCH  39  40
ENDBRANCH  32  34
ENDBRANCH  31  32
ENDBRANCH  30  31
ENDBRANCH   1  30
TORSDOF 19
ENDMDL
MODEL 2
REMARK VINA RESULT:     -11.9      5.114      9.383
REMARK SMILES Cc1ccc(-c2cc(Cl)cc3c2O[C@@H](C(F)(F)F)C(C(=O)OCCOCCOC(=O)c2ccc(-c4c5nc(c(-c6cccc(S(=O)(=O)[O-])c6F)c6ccc([nH]6)c(-c6cccc(S(=O)(=O)[O-])c6F)c6nc(c(-c7cccc(S(=O)(=O)[O-])c7F)c7ccc4[nH]7)C=C6)C=C5)cc2)=C3)cc1
REMARK SMILES IDX 26 1 25 2 24 3 23 4 22 5 20 6 21 7 19 8 6 9 7 10 12 11 8 12
REMARK SMILES IDX 11 13 13 14 9 15 10 16 94 17 14 18 5 19 1 20 2 21 3 22 96 23
REMARK SMILES IDX 4 24 95 25 15 26 16 27 17 28 18 29 27 30 28 31 29 32 30 33
REMARK SMILES IDX 31 34 32 35 93 36 33 37 92 38 34 39 35 40 36 41 86 42 37 43
REMARK SMILES IDX 91 44 85 45 87 46 38 47 90 48 84 49 83 50 39 52 71 53 51 54
REMARK SMILES IDX 70 55 52 56 55 57 69 58 88 59 53 60 54 61 68 63 89 64 56 65
REMARK SMILES IDX 40 66 41 67 49 68 42 69 44 70 50 71 43 72 45 73 46 74 47 75
REMARK SMILES IDX 48 76 72 77 73 78 81 79 74 80 76 81 82 82 75 83 77 84 78 85
REMARK SMILES IDX 79 86 80 87 57 88 58 89 66 90 59 91 61 92 67 93 60 94 62 95
REMARK SMILES IDX 63 96 64 97 65 98
REMARK H PARENT 87 51 55 62
REMARK Flexibility Score: inf
ROOT
ATOM      1  C   UNL A   1      36.802  22.700  25.772  1.00  0.00     0.202 C 
ENDROOT
BRANCH   1   2
ATOM      2  O   UNL A   1      35.621  22.007  25.394  1.00  0.00    -0.374 OA
BRANCH   2   3
ATOM      3  C   UNL A   1      34.651  21.860  26.428  1.00  0.00     0.202 C 
BRANCH   3   4
ATOM      4  C   UNL A   1      34.164  23.246  26.867  1.00  0.00     0.261 C 
BRANCH   4   5
ATOM      5  O   UNL A   1      32.870  23.642  26.387  1.00  0.00    -0.460 OA
BRANCH   5   6
ATOM      6  C   UNL A   1      32.887  24.453  25.275  1.00  0.00     0.338 C 
ATOM      7  O   UNL A   1      33.692  25.312  24.983  1.00  0.00    -0.246 OA
BRANCH   6   8
ATOM      8  C   UNL A   1      31.975  23.815  24.237  1.00  0.00     0.087 C 
ATOM      9  C   UNL A   1      31.436  27.772  23.789  1.00  0.00     0.026 A 
ATOM     10  C   UNL A   1      30.120  28.278  23.664  1.00  0.00     0.033 A 
ATOM     11  C   UNL A   1      31.576  26.372  23.582  1.00  0.00     0.135 A 
ATOM     12  C   UNL A   1      29.012  27.437  23.601  1.00  0.00     0.042 A 
ATOM     13  C   UNL A   1      30.450  25.546  23.852  1.00  0.00     0.019 A 
ATOM     14  O   UNL A   1      32.719  25.732  23.008  1.00  0.00    -0.475 OA
ATOM     15  Cl  UNL A   1      27.438  28.108  23.451  1.00  0.00    -0.084 Cl
ATOM     16  C   UNL A   1      29.166  26.072  23.788  1.00  0.00     0.032 A 
ATOM     17  C   UNL A   1      30.663  24.124  24.257  1.00  0.00     0.027 C 
ATOM     18  C   UNL A   1      32.550  24.238  22.902  1.00  0.00     0.316 C 
BRANCH   9  19
ATOM     19  C   UNL A   1      32.260  28.670  24.682  1.00  0.00    -0.015 A 
ATOM     20  C   UNL A   1      34.607  30.732  27.777  1.00  0.00     0.044 C 
ATOM     21  C   UNL A   1      33.749  29.952  26.813  1.00  0.00    -0.051 A 
ATOM     22  C   UNL A   1      32.468  30.385  26.447  1.00  0.00     0.004 A 
ATOM     23  C   UNL A   1      34.259  28.833  26.157  1.00  0.00     0.004 A 
ATOM     24  C   UNL A   1      31.731  29.745  25.413  1.00  0.00     0.009 A 
ATOM     25  C   UNL A   1      33.542  28.225  25.104  1.00  0.00     0.009 A 
ENDBRANCH   9  19
BRANCH  18  26
ATOM     26  C   UNL A   1      33.660  23.194  22.510  1.00  0.00     0.430 C 
ATOM     27  F   UNL A   1      33.452  21.978  23.095  1.00  0.00    -0.167 F 
ATOM     28  F   UNL A   1      33.588  22.942  21.170  1.00  0.00    -0.167 F 
ATOM     29  F   UNL A   1      34.939  23.512  22.743  1.00  0.00    -0.167 F 
ENDBRANCH  18  26
ENDBRANCH   6   8
ENDBRANCH   5   6
ENDBRANCH   4   5
ENDBRANCH   3   4
ENDBRANCH   2   3
ENDBRANCH   1   2
BRANCH   1  30
ATOM     30  C   UNL A   1      38.069  21.830  25.754  1.00  0.00     0.261 C 
BRANCH  30  31
ATOM     31  O   UNL A   1      39.200  22.627  26.153  1.00  0.00    -0.460 OA
BRANCH  31  32
ATOM     32  C   UNL A   1      40.280  21.909  26.586  1.00  0.00     0.338 C 
ATOM     33  O   UNL A   1      40.418  20.717  26.378  1.00  0.00    -0.246 OA
BRANCH  32  34
ATOM     34  C   UNL A   1      41.176  22.773  27.420  1.00  0.00     0.060 A 
ATOM     35  C   UNL A   1      41.279  24.156  27.249  1.00  0.00     0.016 A 
ATOM     36  C   UNL A   1      42.067  22.165  28.282  1.00  0.00     0.016 A 
ATOM     37  C   UNL A   1      42.378  24.871  27.786  1.00  0.00     0.010 A 
ATOM     38  C   UNL A   1      43.126  22.872  28.826  1.00  0.00     0.010 A 
ATOM     39  C   UNL A   1      43.357  24.206  28.510  1.00  0.00    -0.014 A 
BRANCH  39  40
ATOM     40  C   UNL A   1      44.698  24.680  28.898  1.00  0.00     0.031 A 
ATOM     41  C   UNL A   1      45.831  24.565  27.951  1.00  0.00     0.074 A 
ATOM     42  C   UNL A   1      44.800  25.614  29.876  1.00  0.00     0.049 A 
ATOM     43  N   UNL A   1      47.021  24.993  28.197  1.00  0.00    -0.248 NA
ATOM     44  C   UNL A   1      45.729  23.927  26.644  1.00  0.00     0.031 C 
ATOM     45  C   UNL A   1      45.779  26.696  29.987  1.00  0.00     0.029 A 
ATOM     46  N   UNL A   1      44.012  25.800  31.004  1.00  0.00    -0.354 N 
ATOM     47  C   UNL A   1      47.689  25.066  27.000  1.00  0.00     0.074 A 
ATOM     48  C   UNL A   1      46.919  24.232  26.111  1.00  0.00     0.031 C 
ATOM     49  C   UNL A   1      45.644  27.329  31.161  1.00  0.00     0.029 A 
ATOM     50  C   UNL A   1      44.717  26.545  31.948  1.00  0.00     0.049 A 
ATOM     51  H   UNL A   1      43.096  25.458  31.119  1.00  0.00     0.167 HD
ATOM     52  C   UNL A   1      48.733  25.936  26.885  1.00  0.00     0.034 A 
ATOM     53  C   UNL A   1      44.952  26.083  33.206  1.00  0.00     0.034 A 
ATOM     54  C   UNL A   1      49.096  26.514  28.202  1.00  0.00     0.049 A 
ATOM     55  C   UNL A   1      46.432  25.774  33.346  1.00  0.00     0.074 A 
ATOM     56  C   UNL A   1      49.068  27.787  28.747  1.00  0.00     0.029 A 
ATOM     57  N   UNL A   1      49.354  25.651  29.273  1.00  0.00    -0.354 N 
ATOM     58  N   UNL A   1      47.245  25.832  32.322  1.00  0.00    -0.248 NA
ATOM     59  C   UNL A   1      47.159  25.475  34.573  1.00  0.00     0.031 C 
ATOM     60  C   UNL A   1      49.177  27.657  30.170  1.00  0.00     0.029 A 
ATOM     61  C   UNL A   1      49.319  26.313  30.492  1.00  0.00     0.049 A 
ATOM     62  H   UNL A   1      49.539  24.688  29.175  1.00  0.00     0.167 HD
ATOM     63  C   UNL A   1      48.528  25.605  32.682  1.00  0.00     0.074 A 
ATOM     64  C   UNL A   1      48.427  25.373  34.116  1.00  0.00     0.031 C 
ATOM     65  C   UNL A   1      49.537  25.591  31.757  1.00  0.00     0.034 A 
BRANCH  52  66
ATOM     66  C   UNL A   1      49.382  26.374  25.571  1.00  0.00     0.023 A 
ATOM     67  C   UNL A   1      50.786  26.249  25.464  1.00  0.00     0.012 A 
ATOM     68  C   UNL A   1      48.733  26.948  24.445  1.00  0.00     0.148 A 
ATOM     69  C   UNL A   1      51.496  26.635  24.316  1.00  0.00     0.002 A 
ATOM     70  C   UNL A   1      49.429  27.257  23.268  1.00  0.00     0.091 A 
ATOM     71  F   UNL A   1      47.446  27.296  24.519  1.00  0.00    -0.205 F 
ATOM     72  C   UNL A   1      50.816  27.113  23.206  1.00  0.00     0.022 A 
BRANCH  70  73
ATOM     73  S   UNL A   1      48.604  27.818  21.762  1.00  0.00     0.127 S 
ATOM     74  O   UNL A   1      49.542  28.815  21.246  1.00  0.00    -0.237 OA
ATOM     75  O   UNL A   1      48.530  26.590  20.970  1.00  0.00    -0.237 OA
ATOM     76  O   UNL A   1      47.309  28.344  22.178  1.00  0.00    -0.744 OA
ENDBRANCH  70  73
ENDBRANCH  52  66
BRANCH  53  77
ATOM     77  C   UNL A   1      43.709  25.472  33.775  1.00  0.00     0.023 A 
ATOM     78  C   UNL A   1      43.796  24.056  33.902  1.00  0.00     0.012 A 
ATOM     79  C   UNL A   1      42.884  26.169  34.681  1.00  0.00     0.148 A 
ATOM     80  C   UNL A   1      43.272  23.392  35.012  1.00  0.00     0.002 A 
ATOM     81  C   UNL A   1      42.344  25.488  35.781  1.00  0.00     0.091 A 
ATOM     82  F   UNL A   1      42.788  27.499  34.560  1.00  0.00    -0.205 F 
ATOM     83  C   UNL A   1      42.586  24.116  35.975  1.00  0.00     0.022 A 
BRANCH  81  84
ATOM     84  S   UNL A   1      41.476  26.345  37.107  1.00  0.00     0.127 S 
ATOM     85  O   UNL A   1      40.401  25.409  37.413  1.00  0.00    -0.237 OA
ATOM     86  O   UNL A   1      42.506  26.452  38.140  1.00  0.00    -0.237 OA
ATOM     87  O   UNL A   1      41.073  27.619  36.529  1.00  0.00    -0.744 OA
ENDBRANCH  81  84
ENDBRANCH  53  77
BRANCH  65  88
ATOM     88  C   UNL A   1      50.829  24.840  31.978  1.00  0.00     0.023 A 
ATOM     89  C   UNL A   1      52.076  25.453  31.739  1.00  0.00     0.012 A 
ATOM     90  C   UNL A   1      50.843  23.591  32.641  1.00  0.00     0.148 A 
ATOM     91  C   UNL A   1      53.279  24.842  32.089  1.00  0.00     0.002 A 
ATOM     92  C   UNL A   1      52.037  23.048  33.102  1.00  0.00     0.091 A 
ATOM     93  F   UNL A   1      49.698  22.918  32.831  1.00  0.00    -0.205 F 
ATOM     94  C   UNL A   1      53.260  23.651  32.797  1.00  0.00     0.022 A 
BRANCH  92  95
ATOM     95  S   UNL A   1      52.040  21.679  34.267  1.00  0.00     0.127 S 
ATOM     96  O   UNL A   1      51.537  20.582  33.443  1.00  0.00    -0.237 OA
ATOM     97  O   UNL A   1      53.455  21.576  34.625  1.00  0.00    -0.237 OA
ATOM     98  O   UNL A   1      51.180  22.110  35.362  1.00  0.00    -0.744 OA
ENDBRANCH  92  95
ENDBRANCH  65  88
ENDBRANCH  39  40
ENDBRANCH  32  34
ENDBRANCH  31  32
ENDBRANCH  30  31
ENDBRANCH   1  30
TORSDOF 19
ENDMDL
MODEL 3
REMARK VINA RESULT:     -11.3      5.386      8.612
REMARK SMILES Cc1ccc(-c2cc(Cl)cc3c2O[C@@H](C(F)(F)F)C(C(=O)OCCOCCOC(=O)c2ccc(-c4c5nc(c(-c6cccc(S(=O)(=O)[O-])c6F)c6ccc([nH]6)c(-c6cccc(S(=O)(=O)[O-])c6F)c6nc(c(-c7cccc(S(=O)(=O)[O-])c7F)c7ccc4[nH]7)C=C6)C=C5)cc2)=C3)cc1
REMARK SMILES IDX 26 1 25 2 24 3 23 4 22 5 20 6 21 7 19 8 6 9 7 10 12 11 8 12
REMARK SMILES IDX 11 13 13 14 9 15 10 16 94 17 14 18 5 19 1 20 2 21 3 22 96 23
REMARK SMILES IDX 4 24 95 25 15 26 16 27 17 28 18 29 27 30 28 31 29 32 30 33
REMARK SMILES IDX 31 34 32 35 93 36 33 37 92 38 34 39 35 40 36 41 86 42 37 43
REMARK SMILES IDX 91 44 85 45 87 46 38 47 90 48 84 49 83 50 39 52 71 53 51 54
REMARK SMILES IDX 70 55 52 56 55 57 69 58 88 59 53 60 54 61 68 63 89 64 56 65
REMARK SMILES IDX 40 66 41 67 49 68 42 69 44 70 50 71 43 72 45 73 46 74 47 75
REMARK SMILES IDX 48 76 72 77 73 78 81 79 74 80 76 81 82 82 75 83 77 84 78 85
REMARK SMILES IDX 79 86 80 87 57 88 58 89 66 90 59 91 61 92 67 93 60 94 62 95
REMARK SMILES IDX 63 96 64 97 65 98
REMARK H PARENT 87 51 55 62
REMARK Flexibility Score: inf
ROOT
ATOM      1  C   UNL A   1      43.516  23.818  29.584  1.00  0.00     0.202 C 
ENDROOT
BRANCH   1   2
ATOM      2  O   UNL A   1      44.129  23.268  30.741  1.00  0.00    -0.374 OA
BRANCH   2   3
ATOM      3  C   UNL A   1      44.553  24.223  31.712  1.00  0.00     0.202 C 
BRANCH   3   4
ATOM      4  C   UNL A   1      43.788  25.534  31.498  1.00  0.00     0.261 C 
BRANCH   4   5
ATOM      5  O   UNL A   1      43.993  26.553  32.489  1.00  0.00    -0.460 OA
BRANCH   5   6
ATOM      6  C   UNL A   1      43.804  26.143  33.789  1.00  0.00     0.338 C 
ATOM      7  O   UNL A   1      43.062  25.279  34.205  1.00  0.00    -0.246 OA
BRANCH   6   8
ATOM      8  C   UNL A   1      44.992  26.645  34.597  1.00  0.00     0.087 C 
ATOM      9  C   UNL A   1      42.258  29.578  34.855  1.00  0.00     0.026 A 
ATOM     10  C   UNL A   1      42.667  30.921  34.666  1.00  0.00     0.033 A 
ATOM     11  C   UNL A   1      43.304  28.649  35.108  1.00  0.00     0.135 A 
ATOM     12  C   UNL A   1      44.004  31.262  34.483  1.00  0.00     0.042 A 
ATOM     13  C   UNL A   1      44.596  28.950  34.597  1.00  0.00     0.019 A 
ATOM     14  O   UNL A   1      43.196  27.490  35.939  1.00  0.00    -0.475 OA
ATOM     15  Cl  UNL A   1      44.443  32.908  34.256  1.00  0.00    -0.084 Cl
ATOM     16  C   UNL A   1      44.963  30.268  34.355  1.00  0.00     0.032 A 
ATOM     17  C   UNL A   1      45.535  27.835  34.271  1.00  0.00     0.027 C 
ATOM     18  C   UNL A   1      44.489  26.720  36.023  1.00  0.00     0.316 C 
BRANCH   9  19
ATOM     19  C   UNL A   1      40.937  29.332  34.164  1.00  0.00    -0.015 A 
ATOM     20  C   UNL A   1      37.480  28.700  31.522  1.00  0.00     0.044 C 
ATOM     21  C   UNL A   1      38.722  28.981  32.327  1.00  0.00    -0.051 A 
ATOM     22  C   UNL A   1      38.844  30.128  33.123  1.00  0.00     0.004 A 
ATOM     23  C   UNL A   1      39.746  28.039  32.401  1.00  0.00     0.004 A 
ATOM     24  C   UNL A   1      39.939  30.307  34.011  1.00  0.00     0.009 A 
ATOM     25  C   UNL A   1      40.812  28.200  33.313  1.00  0.00     0.009 A 
ENDBRANCH   9  19
BRANCH  18  26
ATOM     26  C   UNL A   1      44.695  25.302  36.675  1.00  0.00     0.430 C 
ATOM     27  F   UNL A   1      45.473  25.360  37.796  1.00  0.00    -0.167 F 
ATOM     28  F   UNL A   1      43.494  24.833  37.121  1.00  0.00    -0.167 F 
ATOM     29  F   UNL A   1      45.199  24.323  35.915  1.00  0.00    -0.167 F 
ENDBRANCH  18  26
ENDBRANCH   6   8
ENDBRANCH   5   6
ENDBRANCH   4   5
ENDBRANCH   3   4
ENDBRANCH   2   3
ENDBRANCH   1   2
BRANCH   1  30
ATOM     30  C   UNL A   1      42.439  22.918  28.960  1.00  0.00     0.261 C 
BRANCH  30  31
ATOM     31  O   UNL A   1      42.039  23.463  27.688  1.00  0.00    -0.460 OA
BRANCH  31  32
ATOM     32  C   UNL A   1      40.693  23.661  27.549  1.00  0.00     0.338 C 
ATOM     33  O   UNL A   1      39.906  22.760  27.324  1.00  0.00    -0.246 OA
BRANCH  32  34
ATOM     34  C   UNL A   1      40.376  25.123  27.607  1.00  0.00     0.060 A 
ATOM     35  C   UNL A   1      40.709  26.020  26.589  1.00  0.00     0.016 A 
ATOM     36  C   UNL A   1      39.884  25.647  28.787  1.00  0.00     0.016 A 
ATOM     37  C   UNL A   1      40.729  27.415  26.831  1.00  0.00     0.010 A 
ATOM     38  C   UNL A   1      39.879  27.013  29.012  1.00  0.00     0.010 A 
ATOM     39  C   UNL A   1      40.392  27.911  28.082  1.00  0.00    -0.014 A 
BRANCH  39  40
ATOM     40  C   UNL A   1      40.619  29.261  28.630  1.00  0.00     0.031 A 
ATOM     41  C   UNL A   1      39.499  30.225  28.725  1.00  0.00     0.074 A 
ATOM     42  C   UNL A   1      41.678  29.459  29.455  1.00  0.00     0.049 A 
ATOM     43  N   UNL A   1      39.606  31.406  29.229  1.00  0.00    -0.248 NA
ATOM     44  C   UNL A   1      38.155  29.952  28.230  1.00  0.00     0.031 C 
ATOM     45  C   UNL A   1      41.767  30.363  30.602  1.00  0.00     0.029 A 
ATOM     46  N   UNL A   1      42.930  28.859  29.442  1.00  0.00    -0.354 N 
ATOM     47  C   UNL A   1      38.337  31.857  29.494  1.00  0.00     0.074 A 
ATOM     48  C   UNL A   1      37.484  31.011  28.699  1.00  0.00     0.031 C 
ATOM     49  C   UNL A   1      43.017  30.381  31.085  1.00  0.00     0.029 A 
ATOM     50  C   UNL A   1      43.836  29.657  30.138  1.00  0.00     0.049 A 
ATOM     51  H   UNL A   1      43.145  28.002  29.007  1.00  0.00     0.167 HD
ATOM     52  C   UNL A   1      38.168  32.803  30.463  1.00  0.00     0.034 A 
ATOM     53  C   UNL A   1      44.975  30.132  29.562  1.00  0.00     0.034 A 
ATOM     54  C   UNL A   1      39.473  33.339  30.921  1.00  0.00     0.049 A 
ATOM     55  C   UNL A   1      44.840  31.632  29.375  1.00  0.00     0.074 A 
ATOM     56  C   UNL A   1      40.171  33.312  32.117  1.00  0.00     0.029 A 
ATOM     57  N   UNL A   1      40.374  33.834  29.971  1.00  0.00    -0.354 N 
ATOM     58  N   UNL A   1      43.716  32.256  29.619  1.00  0.00    -0.248 NA
ATOM     59  C   UNL A   1      45.890  32.573  29.007  1.00  0.00     0.031 C 
ATOM     60  C   UNL A   1      41.530  33.666  31.841  1.00  0.00     0.029 A 
ATOM     61  C   UNL A   1      41.657  33.956  30.488  1.00  0.00     0.049 A 
ATOM     62  H   UNL A   1      40.129  34.068  29.046  1.00  0.00     0.167 HD
ATOM     63  C   UNL A   1      43.838  33.594  29.471  1.00  0.00     0.074 A 
ATOM     64  C   UNL A   1      45.230  33.751  29.073  1.00  0.00     0.031 C 
ATOM     65  C   UNL A   1      42.771  34.432  29.652  1.00  0.00     0.034 A 
BRANCH  52  66
ATOM     66  C   UNL A   1      36.834  33.190  31.102  1.00  0.00     0.023 A 
ATOM     67  C   UNL A   1      36.611  32.793  32.440  1.00  0.00     0.012 A 
ATOM     68  C   UNL A   1      35.753  33.873  30.480  1.00  0.00     0.148 A 
ATOM     69  C   UNL A   1      35.419  33.074  33.126  1.00  0.00     0.002 A 
ATOM     70  C   UNL A   1      34.596  34.226  31.188  1.00  0.00     0.091 A 
ATOM     71  F   UNL A   1      35.779  34.111  29.166  1.00  0.00    -0.205 F 
ATOM     72  C   UNL A   1      34.421  33.816  32.511  1.00  0.00     0.022 A 
BRANCH  70  73
ATOM     73  S   UNL A   1      33.287  35.247  30.477  1.00  0.00     0.127 S 
ATOM     74  O   UNL A   1      32.377  35.420  31.608  1.00  0.00    -0.237 OA
ATOM     75  O   UNL A   1      34.010  36.459  30.090  1.00  0.00    -0.237 OA
ATOM     76  O   UNL A   1      32.742  34.489  29.355  1.00  0.00    -0.744 OA
ENDBRANCH  70  73
ENDBRANCH  52  66
BRANCH  53  77
ATOM     77  C   UNL A   1      45.652  29.048  28.781  1.00  0.00     0.023 A 
ATOM     78  C   UNL A   1      45.976  27.912  29.577  1.00  0.00     0.012 A 
ATOM     79  C   UNL A   1      45.395  28.846  27.410  1.00  0.00     0.148 A 
ATOM     80  C   UNL A   1      45.826  26.614  29.085  1.00  0.00     0.002 A 
ATOM     81  C   UNL A   1      45.268  27.537  26.921  1.00  0.00     0.091 A 
ATOM     82  F   UNL A   1      45.102  29.911  26.653  1.00  0.00    -0.205 F 
ATOM     83  C   UNL A   1      45.428  26.428  27.770  1.00  0.00     0.022 A 
BRANCH  81  84
ATOM     84  S   UNL A   1      44.712  27.191  25.243  1.00  0.00     0.127 S 
ATOM     85  O   UNL A   1      45.829  27.690  24.450  1.00  0.00    -0.237 OA
ATOM     86  O   UNL A   1      44.571  25.736  25.252  1.00  0.00    -0.237 OA
ATOM     87  O   UNL A   1      43.456  27.914  25.108  1.00  0.00    -0.744 OA
ENDBRANCH  81  84
ENDBRANCH  53  77
BRANCH  65  88
ATOM     88  C   UNL A   1      42.690  35.793  29.001  1.00  0.00     0.023 A 
ATOM     89  C   UNL A   1      41.738  36.064  27.997  1.00  0.00     0.012 A 
ATOM     90  C   UNL A   1      43.402  36.898  29.527  1.00  0.00     0.148 A 
ATOM     91  C   UNL A   1      41.534  37.350  27.499  1.00  0.00     0.002 A 
ATOM     92  C   UNL A   1      43.102  38.192  29.118  1.00  0.00     0.091 A 
ATOM     93  F   UNL A   1      44.375  36.702  30.429  1.00  0.00    -0.205 F 
ATOM     94  C   UNL A   1      42.196  38.420  28.079  1.00  0.00     0.022 A 
BRANCH  92  95
ATOM     95  S   UNL A   1      43.708  39.614  30.036  1.00  0.00     0.127 S 
ATOM     96  O   UNL A   1      43.427  39.223  31.415  1.00  0.00    -0.237 OA
ATOM     97  O   UNL A   1      45.128  39.632  29.683  1.00  0.00    -0.237 OA
ATOM     98  O   UNL A   1      42.953  40.748  29.520  1.00  0.00    -0.744 OA
ENDBRANCH  92  95
ENDBRANCH  65  88
ENDBRANCH  39  40
ENDBRANCH  32  34
ENDBRANCH  31  32
ENDBRANCH  30  31
ENDBRANCH   1  30
TORSDOF 19
ENDMDL
