MODEL 1
REMARK VINA RESULT:     -11.5      0.000      0.000
REMARK SMILES Cc1nn(C)c(C)c1CN(C)C(=O)[C@@H]1CC=CC[C@@H]1C(=O)OCCOCCOC(=O)c1ccc(-c2c3nc(c(-c4cccc(S(=O)(=O)[O-])c4F)c4ccc([nH]4)c(-c4cccc(S(=O)(=O)[O-])c4F)c4nc(c(-c5cccc(S(=O)(=O)[O-])c5F)c5ccc2[nH]5)C=C4)C=C3)cc1
REMARK SMILES IDX 24 1 23 2 22 3 20 4 21 5 19 6 14 7 15 8 16 9 18 10 17 11
REMARK SMILES IDX 12 12 13 13 10 14 11 15 9 16 8 17 1 18 2 19 3 20 4 21 6 22
REMARK SMILES IDX 5 23 7 24 25 25 26 26 27 27 28 28 29 29 30 30 31 31 32 32
REMARK SMILES IDX 93 33 33 34 92 35 34 36 35 37 36 38 86 39 37 40 91 41 85 42
REMARK SMILES IDX 87 43 38 44 90 45 84 46 83 47 39 49 71 50 51 51 70 52 52 53
REMARK SMILES IDX 55 54 69 55 88 56 53 57 54 58 68 60 89 61 56 62 40 63 41 64
REMARK SMILES IDX 49 65 42 66 44 67 50 68 43 69 45 70 46 71 47 72 48 73 72 74
REMARK SMILES IDX 73 75 81 76 74 77 76 78 82 79 75 80 77 81 78 82 79 83 80 84
REMARK SMILES IDX 57 85 58 86 66 87 59 88 61 89 67 90 60 91 62 92 63 93 64 94
REMARK SMILES IDX 65 95
REMARK H PARENT 87 48 55 59
REMARK Flexibility Score: inf
ROOT
ATOM      1  C   UNL A   1      31.941  29.789  25.710  1.00  0.00     0.202 C 
ENDROOT
BRANCH   1   2
ATOM      2  C   UNL A   1      33.046  28.735  25.607  1.00  0.00     0.261 C 
BRANCH   2   3
ATOM      3  O   UNL A   1      32.528  27.395  25.616  1.00  0.00    -0.463 OA
BRANCH   3   4
ATOM      4  C   UNL A   1      32.882  26.643  24.531  1.00  0.00     0.310 C 
ATOM      5  O   UNL A   1      33.934  26.775  23.925  1.00  0.00    -0.252 OA
BRANCH   4   6
ATOM      6  C   UNL A   1      31.798  25.600  24.240  1.00  0.00     0.115 C 
ATOM      7  C   UNL A   1      31.609  25.300  22.730  1.00  0.00     0.097 C 
ATOM      8  C   UNL A   1      31.276  26.589  21.955  1.00  0.00     0.041 C 
ATOM      9  C   UNL A   1      30.309  27.474  22.716  1.00  0.00    -0.030 C 
ATOM     10  C   UNL A   1      30.481  26.125  24.819  1.00  0.00     0.043 C 
ATOM     11  C   UNL A   1      29.929  27.249  23.986  1.00  0.00    -0.030 C 
BRANCH   7  12
ATOM     12  C   UNL A   1      32.801  24.498  22.171  1.00  0.00     0.226 C 
ATOM     13  O   UNL A   1      33.521  24.970  21.292  1.00  0.00    -0.275 OA
BRANCH  12  14
ATOM     14  N   UNL A   1      33.101  23.268  22.773  1.00  0.00    -0.341 N 
ATOM     15  C   UNL A   1      34.434  22.918  23.244  1.00  0.00     0.147 C 
BRANCH  14  16
ATOM     16  C   UNL A   1      32.087  22.205  22.806  1.00  0.00     0.158 C 
BRANCH  16  17
ATOM     17  C   UNL A   1      32.277  21.114  23.799  1.00  0.00     0.015 A 
ATOM     18  C   UNL A   1      31.882  22.442  26.053  1.00  0.00     0.069 C 
ATOM     19  C   UNL A   1      32.172  21.242  25.222  1.00  0.00     0.065 A 
ATOM     20  N   UNL A   1      32.314  20.064  25.835  1.00  0.00    -0.178 NA
ATOM     21  N   UNL A   1      32.506  19.192  24.838  1.00  0.00    -0.272 N 
ATOM     22  C   UNL A   1      32.415  19.751  23.590  1.00  0.00     0.040 A 
ATOM     23  C   UNL A   1      32.726  17.813  25.197  1.00  0.00     0.174 C 
ATOM     24  C   UNL A   1      32.436  18.962  22.337  1.00  0.00     0.067 C 
ENDBRANCH  16  17
ENDBRANCH  14  16
ENDBRANCH  12  14
ENDBRANCH   7  12
ENDBRANCH   4   6
ENDBRANCH   3   4
ENDBRANCH   2   3
ENDBRANCH   1   2
BRANCH   1  25
ATOM     25  O   UNL A   1      31.965  30.727  26.779  1.00  0.00    -0.374 OA
BRANCH  25  26
ATOM     26  C   UNL A   1      31.332  31.982  26.588  1.00  0.00     0.202 C 
BRANCH  26  27
ATOM     27  C   UNL A   1      32.036  33.267  27.041  1.00  0.00     0.261 C 
BRANCH  27  28
ATOM     28  O   UNL A   1      32.960  33.081  28.099  1.00  0.00    -0.460 OA
BRANCH  28  29
ATOM     29  C   UNL A   1      34.062  33.854  27.998  1.00  0.00     0.338 C 
ATOM     30  O   UNL A   1      34.133  35.046  27.753  1.00  0.00    -0.246 OA
BRANCH  29  31
ATOM     31  C   UNL A   1      35.184  33.021  28.423  1.00  0.00     0.060 A 
ATOM     32  C   UNL A   1      34.915  31.698  28.786  1.00  0.00     0.016 A 
ATOM     33  C   UNL A   1      36.480  33.540  28.423  1.00  0.00     0.016 A 
ATOM     34  C   UNL A   1      35.956  30.881  29.194  1.00  0.00     0.010 A 
ATOM     35  C   UNL A   1      37.519  32.727  28.847  1.00  0.00     0.010 A 
ATOM     36  C   UNL A   1      37.249  31.412  29.267  1.00  0.00    -0.014 A 
BRANCH  36  37
ATOM     37  C   UNL A   1      38.299  30.666  29.976  1.00  0.00     0.031 A 
ATOM     38  C   UNL A   1      38.562  31.030  31.407  1.00  0.00     0.074 A 
ATOM     39  C   UNL A   1      39.005  29.720  29.339  1.00  0.00     0.049 A 
ATOM     40  N   UNL A   1      39.514  30.626  32.198  1.00  0.00    -0.248 NA
ATOM     41  C   UNL A   1      37.631  31.997  32.021  1.00  0.00     0.031 C 
ATOM     42  C   UNL A   1      38.800  29.298  27.953  1.00  0.00     0.029 A 
ATOM     43  N   UNL A   1      40.069  28.973  29.768  1.00  0.00    -0.354 N 
ATOM     44  C   UNL A   1      39.318  31.304  33.394  1.00  0.00     0.074 A 
ATOM     45  C   UNL A   1      38.170  32.165  33.219  1.00  0.00     0.031 C 
ATOM     46  C   UNL A   1      39.741  28.396  27.631  1.00  0.00     0.029 A 
ATOM     47  C   UNL A   1      40.630  28.210  28.774  1.00  0.00     0.049 A 
ATOM     48  H   UNL A   1      40.396  28.981  30.697  1.00  0.00     0.167 HD
ATOM     49  C   UNL A   1      40.025  31.200  34.540  1.00  0.00     0.034 A 
ATOM     50  C   UNL A   1      41.764  27.484  28.787  1.00  0.00     0.034 A 
ATOM     51  C   UNL A   1      41.158  30.332  34.689  1.00  0.00     0.049 A 
ATOM     52  C   UNL A   1      42.562  27.423  30.064  1.00  0.00     0.074 A 
ATOM     53  C   UNL A   1      41.947  30.130  35.805  1.00  0.00     0.029 A 
ATOM     54  N   UNL A   1      41.668  29.527  33.681  1.00  0.00    -0.354 N 
ATOM     55  N   UNL A   1      42.325  28.005  31.216  1.00  0.00    -0.248 NA
ATOM     56  C   UNL A   1      43.767  26.583  30.054  1.00  0.00     0.031 C 
ATOM     57  C   UNL A   1      42.952  29.220  35.463  1.00  0.00     0.029 A 
ATOM     58  C   UNL A   1      42.761  28.825  34.147  1.00  0.00     0.049 A 
ATOM     59  H   UNL A   1      41.303  29.465  32.768  1.00  0.00     0.167 HD
ATOM     60  C   UNL A   1      43.318  27.562  32.080  1.00  0.00     0.074 A 
ATOM     61  C   UNL A   1      44.156  26.656  31.320  1.00  0.00     0.031 C 
ATOM     62  C   UNL A   1      43.531  27.878  33.381  1.00  0.00     0.034 A 
BRANCH  49  63
ATOM     63  C   UNL A   1      39.578  32.024  35.717  1.00  0.00     0.023 A 
ATOM     64  C   UNL A   1      39.990  33.368  35.825  1.00  0.00     0.012 A 
ATOM     65  C   UNL A   1      38.712  31.486  36.688  1.00  0.00     0.148 A 
ATOM     66  C   UNL A   1      39.572  34.156  36.896  1.00  0.00     0.002 A 
ATOM     67  C   UNL A   1      38.261  32.291  37.726  1.00  0.00     0.091 A 
ATOM     68  F   UNL A   1      38.353  30.199  36.581  1.00  0.00    -0.205 F 
ATOM     69  C   UNL A   1      38.698  33.621  37.839  1.00  0.00     0.022 A 
BRANCH  67  70
ATOM     70  S   UNL A   1      37.075  31.723  38.950  1.00  0.00     0.127 S 
ATOM     71  O   UNL A   1      36.773  30.376  38.466  1.00  0.00    -0.237 OA
ATOM     72  O   UNL A   1      37.863  31.767  40.181  1.00  0.00    -0.237 OA
ATOM     73  O   UNL A   1      35.964  32.663  38.901  1.00  0.00    -0.744 OA
ENDBRANCH  67  70
ENDBRANCH  49  63
BRANCH  50  74
ATOM     74  C   UNL A   1      42.208  26.758  27.565  1.00  0.00     0.023 A 
ATOM     75  C   UNL A   1      42.848  27.463  26.528  1.00  0.00     0.012 A 
ATOM     76  C   UNL A   1      41.992  25.373  27.422  1.00  0.00     0.148 A 
ATOM     77  C   UNL A   1      43.220  26.813  25.351  1.00  0.00     0.002 A 
ATOM     78  C   UNL A   1      42.417  24.721  26.272  1.00  0.00     0.091 A 
ATOM     79  F   UNL A   1      41.373  24.720  28.415  1.00  0.00    -0.205 F 
ATOM     80  C   UNL A   1      43.011  25.442  25.225  1.00  0.00     0.022 A 
BRANCH  78  81
ATOM     81  S   UNL A   1      42.303  22.938  26.080  1.00  0.00     0.127 S 
ATOM     82  O   UNL A   1      42.827  22.748  24.730  1.00  0.00    -0.237 OA
ATOM     83  O   UNL A   1      43.175  22.462  27.154  1.00  0.00    -0.237 OA
ATOM     84  O   UNL A   1      40.894  22.614  26.266  1.00  0.00    -0.744 OA
ENDBRANCH  78  81
ENDBRANCH  50  74
BRANCH  62  85
ATOM     85  C   UNL A   1      44.661  27.188  34.094  1.00  0.00     0.023 A 
ATOM     86  C   UNL A   1      45.913  27.819  34.220  1.00  0.00     0.012 A 
ATOM     87  C   UNL A   1      44.439  25.949  34.728  1.00  0.00     0.148 A 
ATOM     88  C   UNL A   1      46.938  27.215  34.945  1.00  0.00     0.002 A 
ATOM     89  C   UNL A   1      45.447  25.380  35.496  1.00  0.00     0.091 A 
ATOM     90  F   UNL A   1      43.243  25.361  34.583  1.00  0.00    -0.205 F 
ATOM     91  C   UNL A   1      46.701  26.004  35.594  1.00  0.00     0.022 A 
BRANCH  89  92
ATOM     92  S   UNL A   1      45.199  23.881  36.453  1.00  0.00     0.127 S 
ATOM     93  O   UNL A   1      44.341  24.359  37.536  1.00  0.00    -0.237 OA
ATOM     94  O   UNL A   1      44.534  23.007  35.487  1.00  0.00    -0.237 OA
ATOM     95  O   UNL A   1      46.525  23.438  36.863  1.00  0.00    -0.744 OA
ENDBRANCH  89  92
ENDBRANCH  62  85
ENDBRANCH  36  37
ENDBRANCH  29  31
ENDBRANCH  28  29
ENDBRANCH  27  28
ENDBRANCH  26  27
ENDBRANCH  25  26
ENDBRANCH   1  25
TORSDOF 21
ENDMDL
MODEL 2
REMARK VINA RESULT:     -11.2      1.525      1.985
REMARK SMILES Cc1nn(C)c(C)c1CN(C)C(=O)[C@@H]1CC=CC[C@@H]1C(=O)OCCOCCOC(=O)c1ccc(-c2c3nc(c(-c4cccc(S(=O)(=O)[O-])c4F)c4ccc([nH]4)c(-c4cccc(S(=O)(=O)[O-])c4F)c4nc(c(-c5cccc(S(=O)(=O)[O-])c5F)c5ccc2[nH]5)C=C4)C=C3)cc1
REMARK SMILES IDX 24 1 23 2 22 3 20 4 21 5 19 6 14 7 15 8 16 9 18 10 17 11
REMARK SMILES IDX 12 12 13 13 10 14 11 15 9 16 8 17 1 18 2 19 3 20 4 21 6 22
REMARK SMILES IDX 5 23 7 24 25 25 26 26 27 27 28 28 29 29 30 30 31 31 32 32
REMARK SMILES IDX 93 33 33 34 92 35 34 36 35 37 36 38 86 39 37 40 91 41 85 42
REMARK SMILES IDX 87 43 38 44 90 45 84 46 83 47 39 49 71 50 51 51 70 52 52 53
REMARK SMILES IDX 55 54 69 55 88 56 53 57 54 58 68 60 89 61 56 62 40 63 41 64
REMARK SMILES IDX 49 65 42 66 44 67 50 68 43 69 45 70 46 71 47 72 48 73 72 74
REMARK SMILES IDX 73 75 81 76 74 77 76 78 82 79 75 80 77 81 78 82 79 83 80 84
REMARK SMILES IDX 57 85 58 86 66 87 59 88 61 89 67 90 60 91 62 92 63 93 64 94
REMARK SMILES IDX 65 95
REMARK H PARENT 87 48 55 59
REMARK Flexibility Score: inf
ROOT
ATOM      1  C   UNL A   1      32.279  29.590  26.919  1.00  0.00     0.202 C 
ENDROOT
BRANCH   1   2
ATOM      2  C   UNL A   1      33.444  28.635  26.648  1.00  0.00     0.261 C 
BRANCH   2   3
ATOM      3  O   UNL A   1      33.005  27.371  26.123  1.00  0.00    -0.463 OA
BRANCH   3   4
ATOM      4  C   UNL A   1      32.942  27.315  24.760  1.00  0.00     0.310 C 
ATOM      5  O   UNL A   1      33.826  27.718  24.019  1.00  0.00    -0.252 OA
BRANCH   4   6
ATOM      6  C   UNL A   1      31.642  26.632  24.322  1.00  0.00     0.115 C 
ATOM      7  C   UNL A   1      31.582  26.314  22.805  1.00  0.00     0.097 C 
ATOM      8  C   UNL A   1      31.774  27.594  21.971  1.00  0.00     0.041 C 
ATOM      9  C   UNL A   1      31.029  28.773  22.566  1.00  0.00    -0.030 C 
ATOM     10  C   UNL A   1      30.483  27.563  24.689  1.00  0.00     0.043 C 
ATOM     11  C   UNL A   1      30.425  28.750  23.766  1.00  0.00    -0.030 C 
BRANCH   7  12
ATOM     12  C   UNL A   1      32.536  25.157  22.444  1.00  0.00     0.226 C 
ATOM     13  O   UNL A   1      33.640  25.382  21.950  1.00  0.00    -0.275 OA
BRANCH  12  14
ATOM     14  N   UNL A   1      32.150  23.857  22.799  1.00  0.00    -0.341 N 
ATOM     15  C   UNL A   1      30.794  23.513  23.204  1.00  0.00     0.147 C 
BRANCH  14  16
ATOM     16  C   UNL A   1      33.167  22.805  22.930  1.00  0.00     0.158 C 
BRANCH  16  17
ATOM     17  C   UNL A   1      33.319  22.168  24.266  1.00  0.00     0.015 A 
ATOM     18  C   UNL A   1      32.609  19.684  23.697  1.00  0.00     0.069 C 
ATOM     19  C   UNL A   1      33.077  20.791  24.575  1.00  0.00     0.065 A 
ATOM     20  N   UNL A   1      33.384  20.508  25.843  1.00  0.00    -0.178 NA
ATOM     21  N   UNL A   1      33.816  21.671  26.347  1.00  0.00    -0.272 N 
ATOM     22  C   UNL A   1      33.875  22.683  25.426  1.00  0.00     0.040 A 
ATOM     23  C   UNL A   1      34.199  21.689  27.737  1.00  0.00     0.174 C 
ATOM     24  C   UNL A   1      34.464  24.012  25.709  1.00  0.00     0.067 C 
ENDBRANCH  16  17
ENDBRANCH  14  16
ENDBRANCH  12  14
ENDBRANCH   7  12
ENDBRANCH   4   6
ENDBRANCH   3   4
ENDBRANCH   2   3
ENDBRANCH   1   2
BRANCH   1  25
ATOM     25  O   UNL A   1      32.027  30.661  26.016  1.00  0.00    -0.374 OA
BRANCH  25  26
ATOM     26  C   UNL A   1      31.184  31.718  26.445  1.00  0.00     0.202 C 
BRANCH  26  27
ATOM     27  C   UNL A   1      31.802  33.031  26.942  1.00  0.00     0.261 C 
BRANCH  27  28
ATOM     28  O   UNL A   1      33.218  33.051  26.919  1.00  0.00    -0.460 OA
BRANCH  28  29
ATOM     29  C   UNL A   1      33.767  33.719  27.956  1.00  0.00     0.338 C 
ATOM     30  O   UNL A   1      33.342  34.705  28.535  1.00  0.00    -0.246 OA
BRANCH  29  31
ATOM     31  C   UNL A   1      34.910  32.923  28.394  1.00  0.00     0.060 A 
ATOM     32  C   UNL A   1      34.679  31.592  28.756  1.00  0.00     0.016 A 
ATOM     33  C   UNL A   1      36.189  33.484  28.406  1.00  0.00     0.016 A 
ATOM     34  C   UNL A   1      35.742  30.810  29.175  1.00  0.00     0.010 A 
ATOM     35  C   UNL A   1      37.249  32.705  28.841  1.00  0.00     0.010 A 
ATOM     36  C   UNL A   1      37.017  31.382  29.261  1.00  0.00    -0.014 A 
BRANCH  36  37
ATOM     37  C   UNL A   1      38.082  30.671  29.981  1.00  0.00     0.031 A 
ATOM     38  C   UNL A   1      38.359  31.085  31.396  1.00  0.00     0.074 A 
ATOM     39  C   UNL A   1      38.791  29.711  29.368  1.00  0.00     0.049 A 
ATOM     40  N   UNL A   1      39.325  30.717  32.189  1.00  0.00    -0.248 NA
ATOM     41  C   UNL A   1      37.425  32.063  31.990  1.00  0.00     0.031 C 
ATOM     42  C   UNL A   1      38.574  29.241  27.999  1.00  0.00     0.029 A 
ATOM     43  N   UNL A   1      39.868  28.990  29.809  1.00  0.00    -0.354 N 
ATOM     44  C   UNL A   1      39.135  31.433  33.364  1.00  0.00     0.074 A 
ATOM     45  C   UNL A   1      37.976  32.276  33.174  1.00  0.00     0.031 C 
ATOM     46  C   UNL A   1      39.521  28.338  27.696  1.00  0.00     0.029 A 
ATOM     47  C   UNL A   1      40.425  28.199  28.834  1.00  0.00     0.049 A 
ATOM     48  H   UNL A   1      40.206  29.032  30.733  1.00  0.00     0.167 HD
ATOM     49  C   UNL A   1      39.857  31.374  34.504  1.00  0.00     0.034 A 
ATOM     50  C   UNL A   1      41.567  27.486  28.857  1.00  0.00     0.034 A 
ATOM     51  C   UNL A   1      41.000  30.524  34.668  1.00  0.00     0.049 A 
ATOM     52  C   UNL A   1      42.381  27.475  30.126  1.00  0.00     0.074 A 
ATOM     53  C   UNL A   1      41.804  30.366  35.780  1.00  0.00     0.029 A 
ATOM     54  N   UNL A   1      41.506  29.690  33.681  1.00  0.00    -0.354 N 
ATOM     55  N   UNL A   1      42.150  28.094  31.260  1.00  0.00    -0.248 NA
ATOM     56  C   UNL A   1      43.594  26.648  30.129  1.00  0.00     0.031 C 
ATOM     57  C   UNL A   1      42.814  29.456  35.457  1.00  0.00     0.029 A 
ATOM     58  C   UNL A   1      42.612  29.015  34.158  1.00  0.00     0.049 A 
ATOM     59  H   UNL A   1      41.132  29.594  32.776  1.00  0.00     0.167 HD
ATOM     60  C   UNL A   1      43.159  27.689  32.127  1.00  0.00     0.074 A 
ATOM     61  C   UNL A   1      43.997  26.767  31.387  1.00  0.00     0.031 C 
ATOM     62  C   UNL A   1      43.383  28.051  33.414  1.00  0.00     0.034 A 
BRANCH  49  63
ATOM     63  C   UNL A   1      39.415  32.233  35.658  1.00  0.00     0.023 A 
ATOM     64  C   UNL A   1      38.550  31.698  36.634  1.00  0.00     0.012 A 
ATOM     65  C   UNL A   1      39.895  33.547  35.805  1.00  0.00     0.148 A 
ATOM     66  C   UNL A   1      38.144  32.468  37.723  1.00  0.00     0.002 A 
ATOM     67  C   UNL A   1      39.525  34.294  36.917  1.00  0.00     0.091 A 
ATOM     68  F   UNL A   1      40.697  34.046  34.853  1.00  0.00    -0.205 F 
ATOM     69  C   UNL A   1      38.641  33.760  37.871  1.00  0.00     0.022 A 
BRANCH  67  70
ATOM     70  S   UNL A   1      40.168  35.939  37.242  1.00  0.00     0.127 S 
ATOM     71  O   UNL A   1      39.708  36.673  36.063  1.00  0.00    -0.237 OA
ATOM     72  O   UNL A   1      39.487  36.293  38.486  1.00  0.00    -0.237 OA
ATOM     73  O   UNL A   1      41.613  35.793  37.355  1.00  0.00    -0.744 OA
ENDBRANCH  67  70
ENDBRANCH  49  63
BRANCH  50  74
ATOM     74  C   UNL A   1      42.004  26.724  27.655  1.00  0.00     0.023 A 
ATOM     75  C   UNL A   1      42.641  27.397  26.595  1.00  0.00     0.012 A 
ATOM     76  C   UNL A   1      41.784  25.336  27.552  1.00  0.00     0.148 A 
ATOM     77  C   UNL A   1      43.007  26.713  25.436  1.00  0.00     0.002 A 
ATOM     78  C   UNL A   1      42.203  24.650  26.420  1.00  0.00     0.091 A 
ATOM     79  F   UNL A   1      41.168  24.713  28.567  1.00  0.00    -0.205 F 
ATOM     80  C   UNL A   1      42.794  25.339  25.350  1.00  0.00     0.022 A 
BRANCH  78  81
ATOM     81  S   UNL A   1      42.084  22.863  26.280  1.00  0.00     0.127 S 
ATOM     82  O   UNL A   1      42.708  22.622  24.982  1.00  0.00    -0.237 OA
ATOM     83  O   UNL A   1      42.867  22.417  27.433  1.00  0.00    -0.237 OA
ATOM     84  O   UNL A   1      40.662  22.556  26.369  1.00  0.00    -0.744 OA
ENDBRANCH  78  81
ENDBRANCH  50  74
BRANCH  62  85
ATOM     85  C   UNL A   1      44.529  27.396  34.136  1.00  0.00     0.023 A 
ATOM     86  C   UNL A   1      45.799  28.003  34.150  1.00  0.00     0.012 A 
ATOM     87  C   UNL A   1      44.308  26.225  34.887  1.00  0.00     0.148 A 
ATOM     88  C   UNL A   1      46.842  27.437  34.881  1.00  0.00     0.002 A 
ATOM     89  C   UNL A   1      45.336  25.699  35.658  1.00  0.00     0.091 A 
ATOM     90  F   UNL A   1      43.093  25.659  34.847  1.00  0.00    -0.205 F 
ATOM     91  C   UNL A   1      46.607  26.295  35.645  1.00  0.00     0.022 A 
BRANCH  89  92
ATOM     92  S   UNL A   1      45.099  24.297  36.755  1.00  0.00     0.127 S 
ATOM     93  O   UNL A   1      46.443  24.119  37.303  1.00  0.00    -0.237 OA
ATOM     94  O   UNL A   1      44.115  24.815  37.705  1.00  0.00    -0.237 OA
ATOM     95  O   UNL A   1      44.621  23.204  35.919  1.00  0.00    -0.744 OA
ENDBRANCH  89  92
ENDBRANCH  62  85
ENDBRANCH  36  37
ENDBRANCH  29  31
ENDBRANCH  28  29
ENDBRANCH  27  28
ENDBRANCH  26  27
ENDBRANCH  25  26
ENDBRANCH   1  25
TORSDOF 21
ENDMDL
MODEL 3
REMARK VINA RESULT:     -11.2      4.902      7.701
REMARK SMILES Cc1nn(C)c(C)c1CN(C)C(=O)[C@@H]1CC=CC[C@@H]1C(=O)OCCOCCOC(=O)c1ccc(-c2c3nc(c(-c4cccc(S(=O)(=O)[O-])c4F)c4ccc([nH]4)c(-c4cccc(S(=O)(=O)[O-])c4F)c4nc(c(-c5cccc(S(=O)(=O)[O-])c5F)c5ccc2[nH]5)C=C4)C=C3)cc1
REMARK SMILES IDX 24 1 23 2 22 3 20 4 21 5 19 6 14 7 15 8 16 9 18 10 17 11
REMARK SMILES IDX 12 12 13 13 10 14 11 15 9 16 8 17 1 18 2 19 3 20 4 21 6 22
REMARK SMILES IDX 5 23 7 24 25 25 26 26 27 27 28 28 29 29 30 30 31 31 32 32
REMARK SMILES IDX 93 33 33 34 92 35 34 36 35 37 36 38 86 39 37 40 91 41 85 42
REMARK SMILES IDX 87 43 38 44 90 45 84 46 83 47 39 49 71 50 51 51 70 52 52 53
REMARK SMILES IDX 55 54 69 55 88 56 53 57 54 58 68 60 89 61 56 62 40 63 41 64
REMARK SMILES IDX 49 65 42 66 44 67 50 68 43 69 45 70 46 71 47 72 48 73 72 74
REMARK SMILES IDX 73 75 81 76 74 77 76 78 82 79 75 80 77 81 78 82 79 83 80 84
REMARK SMILES IDX 57 85 58 86 66 87 59 88 61 89 67 90 60 91 62 92 63 93 64 94
REMARK SMILES IDX 65 95
REMARK H PARENT 87 48 55 59
REMARK Flexibility Score: inf
ROOT
ATOM      1  C   UNL A   1      35.142  23.935  25.086  1.00  0.00     0.202 C 
ENDROOT
BRANCH   1   2
ATOM      2  C   UNL A   1      34.933  25.353  25.624  1.00  0.00     0.261 C 
BRANCH   2   3
ATOM      3  O   UNL A   1      33.556  25.626  25.930  1.00  0.00    -0.463 OA
BRANCH   3   4
ATOM      4  C   UNL A   1      33.299  26.921  26.279  1.00  0.00     0.310 C 
ATOM      5  O   UNL A   1      34.166  27.752  26.501  1.00  0.00    -0.252 OA
BRANCH   4   6
ATOM      6  C   UNL A   1      31.788  27.170  26.295  1.00  0.00     0.115 C 
ATOM      7  C   UNL A   1      31.240  27.778  24.977  1.00  0.00     0.097 C 
ATOM      8  C   UNL A   1      31.956  29.102  24.648  1.00  0.00     0.041 C 
ATOM      9  C   UNL A   1      32.173  29.950  25.885  1.00  0.00    -0.030 C 
ATOM     10  C   UNL A   1      31.487  28.124  27.454  1.00  0.00     0.043 C 
ATOM     11  C   UNL A   1      31.933  29.525  27.138  1.00  0.00    -0.030 C 
BRANCH   7  12
ATOM     12  C   UNL A   1      31.250  26.737  23.840  1.00  0.00     0.226 C 
ATOM     13  O   UNL A   1      32.255  26.566  23.151  1.00  0.00    -0.275 OA
BRANCH  12  14
ATOM     14  N   UNL A   1      30.121  25.919  23.693  1.00  0.00    -0.341 N 
ATOM     15  C   UNL A   1      28.774  26.354  24.037  1.00  0.00     0.147 C 
BRANCH  14  16
ATOM     16  C   UNL A   1      30.286  24.506  23.327  1.00  0.00     0.158 C 
BRANCH  16  17
ATOM     17  C   UNL A   1      31.004  23.632  24.292  1.00  0.00     0.015 A 
ATOM     18  C   UNL A   1      29.774  24.288  26.541  1.00  0.00     0.069 C 
ATOM     19  C   UNL A   1      30.754  23.547  25.700  1.00  0.00     0.065 A 
ATOM     20  N   UNL A   1      31.507  22.610  26.280  1.00  0.00    -0.178 NA
ATOM     21  N   UNL A   1      32.229  22.096  25.276  1.00  0.00    -0.272 N 
ATOM     22  C   UNL A   1      31.913  22.615  24.047  1.00  0.00     0.040 A 
ATOM     23  C   UNL A   1      33.177  21.061  25.604  1.00  0.00     0.174 C 
ATOM     24  C   UNL A   1      32.465  22.096  22.775  1.00  0.00     0.067 C 
ENDBRANCH  16  17
ENDBRANCH  14  16
ENDBRANCH  12  14
ENDBRANCH   7  12
ENDBRANCH   4   6
ENDBRANCH   3   4
ENDBRANCH   2   3
ENDBRANCH   1   2
BRANCH   1  25
ATOM     25  O   UNL A   1      36.243  23.668  24.226  1.00  0.00    -0.374 OA
BRANCH  25  26
ATOM     26  C   UNL A   1      36.370  22.364  23.681  1.00  0.00     0.202 C 
BRANCH  26  27
ATOM     27  C   UNL A   1      37.131  21.283  24.458  1.00  0.00     0.261 C 
BRANCH  27  28
ATOM     28  O   UNL A   1      37.544  21.683  25.753  1.00  0.00    -0.460 OA
BRANCH  28  29
ATOM     29  C   UNL A   1      38.832  21.382  26.027  1.00  0.00     0.338 C 
ATOM     30  O   UNL A   1      39.458  20.380  25.726  1.00  0.00    -0.246 OA
BRANCH  29  31
ATOM     31  C   UNL A   1      39.415  22.586  26.613  1.00  0.00     0.060 A 
ATOM     32  C   UNL A   1      38.886  23.822  26.228  1.00  0.00     0.016 A 
ATOM     33  C   UNL A   1      40.442  22.479  27.552  1.00  0.00     0.016 A 
ATOM     34  C   UNL A   1      39.417  24.983  26.766  1.00  0.00     0.010 A 
ATOM     35  C   UNL A   1      40.983  23.642  28.077  1.00  0.00     0.010 A 
ATOM     36  C   UNL A   1      40.494  24.892  27.654  1.00  0.00    -0.014 A 
BRANCH  36  37
ATOM     37  C   UNL A   1      41.257  26.101  27.993  1.00  0.00     0.031 A 
ATOM     38  C   UNL A   1      40.529  27.206  28.698  1.00  0.00     0.074 A 
ATOM     39  C   UNL A   1      42.550  26.206  27.647  1.00  0.00     0.049 A 
ATOM     40  N   UNL A   1      40.933  28.412  28.978  1.00  0.00    -0.248 NA
ATOM     41  C   UNL A   1      39.149  26.912  29.131  1.00  0.00     0.031 C 
ATOM     42  C   UNL A   1      43.333  25.171  26.972  1.00  0.00     0.029 A 
ATOM     43  N   UNL A   1      43.417  27.257  27.782  1.00  0.00    -0.354 N 
ATOM     44  C   UNL A   1      39.853  29.032  29.595  1.00  0.00     0.074 A 
ATOM     45  C   UNL A   1      38.767  28.078  29.628  1.00  0.00     0.031 C 
ATOM     46  C   UNL A   1      44.558  25.656  26.711  1.00  0.00     0.029 A 
ATOM     47  C   UNL A   1      44.626  27.042  27.166  1.00  0.00     0.049 A 
ATOM     48  H   UNL A   1      43.197  28.082  28.273  1.00  0.00     0.167 HD
ATOM     49  C   UNL A   1      39.786  30.282  30.104  1.00  0.00     0.034 A 
ATOM     50  C   UNL A   1      45.646  27.896  26.958  1.00  0.00     0.034 A 
ATOM     51  C   UNL A   1      40.881  31.208  30.063  1.00  0.00     0.049 A 
ATOM     52  C   UNL A   1      45.527  29.300  27.493  1.00  0.00     0.074 A 
ATOM     53  C   UNL A   1      40.938  32.496  30.557  1.00  0.00     0.029 A 
ATOM     54  N   UNL A   1      42.113  30.941  29.484  1.00  0.00    -0.354 N 
ATOM     55  N   UNL A   1      44.532  29.853  28.146  1.00  0.00    -0.248 NA
ATOM     56  C   UNL A   1      46.679  30.188  27.289  1.00  0.00     0.031 C 
ATOM     57  C   UNL A   1      42.198  33.019  30.253  1.00  0.00     0.029 A 
ATOM     58  C   UNL A   1      42.939  32.040  29.608  1.00  0.00     0.049 A 
ATOM     59  H   UNL A   1      42.362  30.093  29.050  1.00  0.00     0.167 HD
ATOM     60  C   UNL A   1      44.958  31.134  28.476  1.00  0.00     0.074 A 
ATOM     61  C   UNL A   1      46.305  31.271  27.956  1.00  0.00     0.031 C 
ATOM     62  C   UNL A   1      44.299  32.117  29.138  1.00  0.00     0.034 A 
BRANCH  49  63
ATOM     63  C   UNL A   1      38.500  30.703  30.762  1.00  0.00     0.023 A 
ATOM     64  C   UNL A   1      38.301  30.444  32.133  1.00  0.00     0.012 A 
ATOM     65  C   UNL A   1      37.512  31.397  30.039  1.00  0.00     0.148 A 
ATOM     66  C   UNL A   1      37.126  30.843  32.769  1.00  0.00     0.002 A 
ATOM     67  C   UNL A   1      36.364  31.834  30.688  1.00  0.00     0.091 A 
ATOM     68  F   UNL A   1      37.709  31.610  28.729  1.00  0.00    -0.205 F 
ATOM     69  C   UNL A   1      36.164  31.548  32.050  1.00  0.00     0.022 A 
BRANCH  67  70
ATOM     70  S   UNL A   1      35.100  32.814  29.874  1.00  0.00     0.127 S 
ATOM     71  O   UNL A   1      34.296  33.264  31.011  1.00  0.00    -0.237 OA
ATOM     72  O   UNL A   1      35.892  33.863  29.233  1.00  0.00    -0.237 OA
ATOM     73  O   UNL A   1      34.420  31.913  28.954  1.00  0.00    -0.744 OA
ENDBRANCH  67  70
ENDBRANCH  49  63
BRANCH  50  74
ATOM     74  C   UNL A   1      46.862  27.452  26.222  1.00  0.00     0.023 A 
ATOM     75  C   UNL A   1      46.947  27.652  24.830  1.00  0.00     0.012 A 
ATOM     76  C   UNL A   1      47.931  26.826  26.891  1.00  0.00     0.148 A 
ATOM     77  C   UNL A   1      48.052  27.193  24.113  1.00  0.00     0.002 A 
ATOM     78  C   UNL A   1      49.054  26.423  26.180  1.00  0.00     0.091 A 
ATOM     79  F   UNL A   1      47.829  26.635  28.214  1.00  0.00    -0.205 F 
ATOM     80  C   UNL A   1      49.107  26.585  24.787  1.00  0.00     0.022 A 
BRANCH  78  81
ATOM     81  S   UNL A   1      50.511  25.747  26.985  1.00  0.00     0.127 S 
ATOM     82  O   UNL A   1      51.467  25.700  25.882  1.00  0.00    -0.237 OA
ATOM     83  O   UNL A   1      50.791  26.761  28.002  1.00  0.00    -0.237 OA
ATOM     84  O   UNL A   1      50.099  24.458  27.524  1.00  0.00    -0.744 OA
ENDBRANCH  78  81
ENDBRANCH  50  74
BRANCH  62  85
ATOM     85  C   UNL A   1      45.041  33.396  29.413  1.00  0.00     0.023 A 
ATOM     86  C   UNL A   1      45.813  33.532  30.582  1.00  0.00     0.012 A 
ATOM     87  C   UNL A   1      45.047  34.425  28.451  1.00  0.00     0.148 A 
ATOM     88  C   UNL A   1      46.562  34.687  30.802  1.00  0.00     0.002 A 
ATOM     89  C   UNL A   1      45.839  35.548  28.651  1.00  0.00     0.091 A 
ATOM     90  F   UNL A   1      44.292  34.278  27.352  1.00  0.00    -0.205 F 
ATOM     91  C   UNL A   1      46.586  35.687  29.832  1.00  0.00     0.022 A 
BRANCH  89  92
ATOM     92  S   UNL A   1      46.017  36.835  27.412  1.00  0.00     0.127 S 
ATOM     93  O   UNL A   1      46.946  37.753  28.069  1.00  0.00    -0.237 OA
ATOM     94  O   UNL A   1      46.583  36.097  26.283  1.00  0.00    -0.237 OA
ATOM     95  O   UNL A   1      44.680  37.365  27.182  1.00  0.00    -0.744 OA
ENDBRANCH  89  92
ENDBRANCH  62  85
ENDBRANCH  36  37
ENDBRANCH  29  31
ENDBRANCH  28  29
ENDBRANCH  27  28
ENDBRANCH  26  27
ENDBRANCH  25  26
ENDBRANCH   1  25
TORSDOF 21
ENDMDL
