MODEL 1
REMARK VINA RESULT:     -10.6      0.000      0.000
REMARK SMILES C[C@H]1C[NH+](CC[C@@H]2CCC[C@]2([NH3+])C(=O)OCCOCCOC(=O)c2ccc(-c3c4nc(c(-c5cccc(S(=O)(=O)[O-])c5F)c5ccc([nH]5)c(-c5cccc(S(=O)(=O)[O-])c5F)c5nc(c(-c6cccc(S(=O)(=O)[O-])c6F)c6ccc3[nH]6)C=C5)C=C4)cc2)C[C@H](C)O1
REMARK SMILES IDX 18 1 17 2 16 3 15 4 13 5 14 6 11 7 7 8 8 9 9 10 10 11 6 12
REMARK SMILES IDX 5 13 4 14 1 15 2 16 3 17 90 18 88 19 87 20 89 22 12 23 19 27
REMARK SMILES IDX 20 28 21 29 22 30 23 31 24 32 25 33 86 34 26 35 85 36 27 37
REMARK SMILES IDX 28 38 29 39 79 40 30 41 84 42 78 43 80 44 31 45 83 46 77 47
REMARK SMILES IDX 76 48 32 50 64 51 44 52 63 53 45 54 48 55 62 56 81 57 46 58
REMARK SMILES IDX 47 59 61 61 82 62 49 63 33 64 34 65 42 66 35 67 37 68 43 69
REMARK SMILES IDX 36 70 38 71 39 72 40 73 41 74 65 75 66 76 74 77 67 78 69 79
REMARK SMILES IDX 75 80 68 81 70 82 71 83 72 84 73 85 50 86 51 87 59 88 52 89
REMARK SMILES IDX 54 90 60 91 53 92 55 93 56 94 57 95 58 96
REMARK H PARENT 4 21 12 24 12 25 12 26 80 49 48 60
REMARK Flexibility Score: inf
ROOT
ATOM      1  O   UNL A   1      35.344  22.239  25.373  1.00  0.00    -0.374 OA
ENDROOT
BRANCH   1   2
ATOM      2  C   UNL A   1      34.772  22.535  26.652  1.00  0.00     0.202 C 
BRANCH   2   3
ATOM      3  C   UNL A   1      33.310  22.125  26.818  1.00  0.00     0.261 C 
BRANCH   3   4
ATOM      4  O   UNL A   1      32.501  22.801  25.831  1.00  0.00    -0.459 OA
BRANCH   4   5
ATOM      5  C   UNL A   1      32.060  24.028  26.175  1.00  0.00     0.368 C 
ATOM      6  O   UNL A   1      31.586  24.303  27.275  1.00  0.00    -0.245 OA
BRANCH   5   7
ATOM      7  C   UNL A   1      32.121  25.057  25.012  1.00  0.00     0.195 C 
ATOM      8  C   UNL A   1      32.277  26.595  25.293  1.00  0.00     0.068 C 
ATOM      9  C   UNL A   1      30.849  27.188  25.068  1.00  0.00     0.011 C 
ATOM     10  C   UNL A   1      29.905  26.034  24.790  1.00  0.00     0.008 C 
ATOM     11  C   UNL A   1      30.793  24.953  24.226  1.00  0.00     0.081 C 
BRANCH   8  12
ATOM     12  C   UNL A   1      32.971  27.364  26.476  1.00  0.00     0.072 C 
BRANCH  12  13
ATOM     13  C   UNL A   1      32.672  28.756  27.083  1.00  0.00     0.262 C 
BRANCH  13  14
ATOM     14  N   UNL A   1      33.666  29.585  27.761  1.00  0.00    -0.331 N 
ATOM     15  C   UNL A   1      34.550  33.331  27.904  1.00  0.00     0.045 C 
ATOM     16  C   UNL A   1      34.606  31.855  28.292  1.00  0.00     0.170 C 
ATOM     17  C   UNL A   1      33.494  31.037  27.566  1.00  0.00     0.294 C 
ATOM     18  O   UNL A   1      35.936  31.397  27.964  1.00  0.00    -0.364 OA
ATOM     19  C   UNL A   1      36.107  29.995  28.172  1.00  0.00     0.170 C 
ATOM     20  C   UNL A   1      35.029  29.229  27.414  1.00  0.00     0.294 C 
ATOM     21  H   UNL A   1      33.498  29.382  28.746  1.00  0.00     0.348 HD
ATOM     22  C   UNL A   1      36.188  29.589  29.640  1.00  0.00     0.045 C 
ENDBRANCH  13  14
ENDBRANCH  12  13
ENDBRANCH   8  12
BRANCH   7  23
ATOM     23  N   UNL A   1      33.097  24.543  24.003  1.00  0.00    -0.343 N 
ATOM     24  H   UNL A   1      33.334  23.574  24.223  1.00  0.00     0.345 HD
ATOM     25  H   UNL A   1      33.943  25.112  24.028  1.00  0.00     0.345 HD
ATOM     26  H   UNL A   1      32.682  24.590  23.073  1.00  0.00     0.345 HD
ENDBRANCH   7  23
ENDBRANCH   5   7
ENDBRANCH   4   5
ENDBRANCH   3   4
ENDBRANCH   2   3
ENDBRANCH   1   2
BRANCH   1  27
ATOM     27  C   UNL A   1      35.914  20.946  25.201  1.00  0.00     0.202 C 
BRANCH  27  28
ATOM     28  C   UNL A   1      37.440  20.851  25.067  1.00  0.00     0.261 C 
BRANCH  28  29
ATOM     29  O   UNL A   1      38.151  22.037  25.436  1.00  0.00    -0.460 OA
BRANCH  29  30
ATOM     30  C   UNL A   1      39.247  21.784  26.192  1.00  0.00     0.338 C 
ATOM     31  O   UNL A   1      39.845  20.716  26.285  1.00  0.00    -0.246 OA
BRANCH  30  32
ATOM     32  C   UNL A   1      39.729  23.008  26.851  1.00  0.00     0.060 A 
ATOM     33  C   UNL A   1      39.179  24.225  26.432  1.00  0.00     0.016 A 
ATOM     34  C   UNL A   1      40.790  22.981  27.760  1.00  0.00     0.016 A 
ATOM     35  C   UNL A   1      39.742  25.424  26.859  1.00  0.00     0.010 A 
ATOM     36  C   UNL A   1      41.352  24.187  28.189  1.00  0.00     0.010 A 
ATOM     37  C   UNL A   1      40.863  25.412  27.699  1.00  0.00    -0.014 A 
BRANCH  37  38
ATOM     38  C   UNL A   1      41.605  26.674  27.939  1.00  0.00     0.031 A 
ATOM     39  C   UNL A   1      43.025  26.796  27.451  1.00  0.00     0.074 A 
ATOM     40  C   UNL A   1      41.012  27.706  28.562  1.00  0.00     0.049 A 
ATOM     41  N   UNL A   1      43.847  27.808  27.544  1.00  0.00    -0.248 NA
ATOM     42  C   UNL A   1      43.595  25.622  26.770  1.00  0.00     0.031 C 
ATOM     43  C   UNL A   1      39.645  27.705  29.081  1.00  0.00     0.029 A 
ATOM     44  N   UNL A   1      41.493  28.951  28.881  1.00  0.00    -0.354 N 
ATOM     45  C   UNL A   1      45.038  27.387  26.962  1.00  0.00     0.074 A 
ATOM     46  C   UNL A   1      44.837  26.021  26.531  1.00  0.00     0.031 C 
ATOM     47  C   UNL A   1      39.405  28.886  29.677  1.00  0.00     0.029 A 
ATOM     48  C   UNL A   1      40.605  29.717  29.598  1.00  0.00     0.049 A 
ATOM     49  H   UNL A   1      42.390  29.266  28.623  1.00  0.00     0.167 HD
ATOM     50  C   UNL A   1      46.187  28.080  26.785  1.00  0.00     0.034 A 
ATOM     51  C   UNL A   1      40.750  30.941  30.142  1.00  0.00     0.034 A 
ATOM     52  C   UNL A   1      46.374  29.447  27.189  1.00  0.00     0.049 A 
ATOM     53  C   UNL A   1      42.042  31.688  29.936  1.00  0.00     0.074 A 
ATOM     54  C   UNL A   1      47.482  30.255  27.004  1.00  0.00     0.029 A 
ATOM     55  N   UNL A   1      45.434  30.207  27.868  1.00  0.00    -0.354 N 
ATOM     56  N   UNL A   1      43.112  31.322  29.272  1.00  0.00    -0.248 NA
ATOM     57  C   UNL A   1      42.134  33.034  30.523  1.00  0.00     0.031 C 
ATOM     58  C   UNL A   1      47.221  31.495  27.596  1.00  0.00     0.029 A 
ATOM     59  C   UNL A   1      45.940  31.470  28.122  1.00  0.00     0.049 A 
ATOM     60  H   UNL A   1      44.538  29.894  28.131  1.00  0.00     0.167 HD
ATOM     61  C   UNL A   1      43.986  32.401  29.328  1.00  0.00     0.074 A 
ATOM     62  C   UNL A   1      43.313  33.444  30.075  1.00  0.00     0.031 C 
ATOM     63  C   UNL A   1      45.237  32.517  28.817  1.00  0.00     0.034 A 
BRANCH  50  64
ATOM     64  C   UNL A   1      47.331  27.382  26.098  1.00  0.00     0.023 A 
ATOM     65  C   UNL A   1      47.467  27.476  24.698  1.00  0.00     0.012 A 
ATOM     66  C   UNL A   1      48.308  26.692  26.842  1.00  0.00     0.148 A 
ATOM     67  C   UNL A   1      48.541  26.871  24.047  1.00  0.00     0.002 A 
ATOM     68  C   UNL A   1      49.398  26.128  26.191  1.00  0.00     0.091 A 
ATOM     69  F   UNL A   1      48.149  26.595  28.170  1.00  0.00    -0.205 F 
ATOM     70  C   UNL A   1      49.512  26.208  24.793  1.00  0.00     0.022 A 
BRANCH  68  71
ATOM     71  S   UNL A   1      50.741  25.318  27.070  1.00  0.00     0.127 S 
ATOM     72  O   UNL A   1      51.225  26.400  27.928  1.00  0.00    -0.237 OA
ATOM     73  O   UNL A   1      50.043  24.245  27.777  1.00  0.00    -0.237 OA
ATOM     74  O   UNL A   1      51.675  24.867  26.049  1.00  0.00    -0.744 OA
ENDBRANCH  68  71
ENDBRANCH  50  64
BRANCH  51  75
ATOM     75  C   UNL A   1      39.626  31.552  30.906  1.00  0.00     0.023 A 
ATOM     76  C   UNL A   1      38.610  32.244  30.220  1.00  0.00     0.012 A 
ATOM     77  C   UNL A   1      39.550  31.432  32.307  1.00  0.00     0.148 A 
ATOM     78  C   UNL A   1      37.555  32.833  30.919  1.00  0.00     0.002 A 
ATOM     79  C   UNL A   1      38.468  31.971  32.991  1.00  0.00     0.091 A 
ATOM     80  F   UNL A   1      40.538  30.786  32.945  1.00  0.00    -0.205 F 
ATOM     81  C   UNL A   1      37.478  32.687  32.302  1.00  0.00     0.022 A 
BRANCH  79  82
ATOM     82  S   UNL A   1      38.223  31.712  34.752  1.00  0.00     0.127 S 
ATOM     83  O   UNL A   1      38.235  30.256  34.845  1.00  0.00    -0.237 OA
ATOM     84  O   UNL A   1      39.396  32.377  35.322  1.00  0.00    -0.237 OA
ATOM     85  O   UNL A   1      36.957  32.361  35.071  1.00  0.00    -0.744 OA
ENDBRANCH  79  82
ENDBRANCH  51  75
BRANCH  63  86
ATOM     86  C   UNL A   1      45.955  33.828  29.008  1.00  0.00     0.023 A 
ATOM     87  C   UNL A   1      46.833  33.996  30.098  1.00  0.00     0.012 A 
ATOM     88  C   UNL A   1      45.826  34.860  28.059  1.00  0.00     0.148 A 
ATOM     89  C   UNL A   1      47.543  35.185  30.258  1.00  0.00     0.002 A 
ATOM     90  C   UNL A   1      46.575  36.023  28.197  1.00  0.00     0.091 A 
ATOM     91  F   UNL A   1      44.974  34.688  27.037  1.00  0.00    -0.205 F 
ATOM     92  C   UNL A   1      47.425  36.192  29.302  1.00  0.00     0.022 A 
BRANCH  90  93
ATOM     93  S   UNL A   1      46.560  37.330  26.965  1.00  0.00     0.127 S 
ATOM     94  O   UNL A   1      47.052  36.629  25.780  1.00  0.00    -0.237 OA
ATOM     95  O   UNL A   1      45.143  37.693  26.915  1.00  0.00    -0.237 OA
ATOM     96  O   UNL A   1      47.433  38.376  27.479  1.00  0.00    -0.744 OA
ENDBRANCH  90  93
ENDBRANCH  63  86
ENDBRANCH  37  38
ENDBRANCH  30  32
ENDBRANCH  29  30
ENDBRANCH  28  29
ENDBRANCH  27  28
ENDBRANCH   1  27
TORSDOF 21
ENDMDL
MODEL 2
REMARK VINA RESULT:     -10.6      1.721      2.096
REMARK SMILES C[C@H]1C[NH+](CC[C@@H]2CCC[C@]2([NH3+])C(=O)OCCOCCOC(=O)c2ccc(-c3c4nc(c(-c5cccc(S(=O)(=O)[O-])c5F)c5ccc([nH]5)c(-c5cccc(S(=O)(=O)[O-])c5F)c5nc(c(-c6cccc(S(=O)(=O)[O-])c6F)c6ccc3[nH]6)C=C5)C=C4)cc2)C[C@H](C)O1
REMARK SMILES IDX 18 1 17 2 16 3 15 4 13 5 14 6 11 7 7 8 8 9 9 10 10 11 6 12
REMARK SMILES IDX 5 13 4 14 1 15 2 16 3 17 90 18 88 19 87 20 89 22 12 23 19 27
REMARK SMILES IDX 20 28 21 29 22 30 23 31 24 32 25 33 86 34 26 35 85 36 27 37
REMARK SMILES IDX 28 38 29 39 79 40 30 41 84 42 78 43 80 44 31 45 83 46 77 47
REMARK SMILES IDX 76 48 32 50 64 51 44 52 63 53 45 54 48 55 62 56 81 57 46 58
REMARK SMILES IDX 47 59 61 61 82 62 49 63 33 64 34 65 42 66 35 67 37 68 43 69
REMARK SMILES IDX 36 70 38 71 39 72 40 73 41 74 65 75 66 76 74 77 67 78 69 79
REMARK SMILES IDX 75 80 68 81 70 82 71 83 72 84 73 85 50 86 51 87 59 88 52 89
REMARK SMILES IDX 54 90 60 91 53 92 55 93 56 94 57 95 58 96
REMARK H PARENT 4 21 12 24 12 25 12 26 80 49 48 60
REMARK Flexibility Score: inf
ROOT
ATOM      1  O   UNL A   1      35.493  21.439  25.207  1.00  0.00    -0.374 OA
ENDROOT
BRANCH   1   2
ATOM      2  C   UNL A   1      34.257  21.449  25.928  1.00  0.00     0.202 C 
BRANCH   2   3
ATOM      3  C   UNL A   1      33.049  20.929  25.151  1.00  0.00     0.261 C 
BRANCH   3   4
ATOM      4  O   UNL A   1      32.946  21.625  23.890  1.00  0.00    -0.459 OA
BRANCH   4   5
ATOM      5  C   UNL A   1      32.537  22.908  23.961  1.00  0.00     0.368 C 
ATOM      6  O   UNL A   1      31.448  23.257  24.411  1.00  0.00    -0.245 OA
BRANCH   5   7
ATOM      7  C   UNL A   1      33.541  23.914  23.330  1.00  0.00     0.195 C 
ATOM      8  C   UNL A   1      33.862  25.288  24.024  1.00  0.00     0.068 C 
ATOM      9  C   UNL A   1      33.063  26.347  23.199  1.00  0.00     0.011 C 
ATOM     10  C   UNL A   1      32.237  25.606  22.166  1.00  0.00     0.008 C 
ATOM     11  C   UNL A   1      32.988  24.317  21.942  1.00  0.00     0.081 C 
BRANCH   8  12
ATOM     12  C   UNL A   1      33.854  25.705  25.540  1.00  0.00     0.072 C 
BRANCH  12  13
ATOM     13  C   UNL A   1      32.871  26.600  26.331  1.00  0.00     0.262 C 
BRANCH  13  14
ATOM     14  N   UNL A   1      33.209  27.919  26.862  1.00  0.00    -0.331 N 
ATOM     15  C   UNL A   1      31.646  31.438  26.802  1.00  0.00     0.045 C 
ATOM     16  C   UNL A   1      32.617  30.337  27.217  1.00  0.00     0.170 C 
ATOM     17  C   UNL A   1      32.176  28.951  26.652  1.00  0.00     0.294 C 
ATOM     18  O   UNL A   1      33.920  30.740  26.741  1.00  0.00    -0.364 OA
ATOM     19  C   UNL A   1      34.923  29.749  26.962  1.00  0.00     0.170 C 
ATOM     20  C   UNL A   1      34.474  28.422  26.360  1.00  0.00     0.294 C 
ATOM     21  H   UNL A   1      33.280  27.750  27.865  1.00  0.00     0.348 HD
ATOM     22  C   UNL A   1      35.354  29.612  28.418  1.00  0.00     0.045 C 
ENDBRANCH  13  14
ENDBRANCH  12  13
ENDBRANCH   8  12
BRANCH   7  23
ATOM     23  N   UNL A   1      34.766  23.150  22.945  1.00  0.00    -0.343 N 
ATOM     24  H   UNL A   1      34.734  22.937  21.947  1.00  0.00     0.345 HD
ATOM     25  H   UNL A   1      34.805  22.280  23.477  1.00  0.00     0.345 HD
ATOM     26  H   UNL A   1      35.594  23.710  23.147  1.00  0.00     0.345 HD
ENDBRANCH   7  23
ENDBRANCH   5   7
ENDBRANCH   4   5
ENDBRANCH   3   4
ENDBRANCH   2   3
ENDBRANCH   1   2
BRANCH   1  27
ATOM     27  C   UNL A   1      36.082  20.168  24.946  1.00  0.00     0.202 C 
BRANCH  27  28
ATOM     28  C   UNL A   1      37.615  20.085  24.918  1.00  0.00     0.261 C 
BRANCH  28  29
ATOM     29  O   UNL A   1      38.289  21.309  25.225  1.00  0.00    -0.460 OA
BRANCH  29  30
ATOM     30  C   UNL A   1      39.360  21.136  26.038  1.00  0.00     0.338 C 
ATOM     31  O   UNL A   1      40.030  20.115  26.161  1.00  0.00    -0.246 OA
BRANCH  30  32
ATOM     32  C   UNL A   1      39.713  22.389  26.723  1.00  0.00     0.060 A 
ATOM     33  C   UNL A   1      39.110  23.566  26.264  1.00  0.00     0.016 A 
ATOM     34  C   UNL A   1      40.712  22.433  27.698  1.00  0.00     0.016 A 
ATOM     35  C   UNL A   1      39.560  24.801  26.723  1.00  0.00     0.010 A 
ATOM     36  C   UNL A   1      41.161  23.675  28.159  1.00  0.00     0.010 A 
ATOM     37  C   UNL A   1      40.622  24.864  27.634  1.00  0.00    -0.014 A 
BRANCH  37  38
ATOM     38  C   UNL A   1      41.259  26.174  27.917  1.00  0.00     0.031 A 
ATOM     39  C   UNL A   1      42.671  26.421  27.454  1.00  0.00     0.074 A 
ATOM     40  C   UNL A   1      40.578  27.139  28.558  1.00  0.00     0.049 A 
ATOM     41  N   UNL A   1      43.409  27.491  27.585  1.00  0.00    -0.248 NA
ATOM     42  C   UNL A   1      43.341  25.313  26.752  1.00  0.00     0.031 C 
ATOM     43  C   UNL A   1      39.209  27.016  29.056  1.00  0.00     0.029 A 
ATOM     44  N   UNL A   1      40.956  28.409  28.916  1.00  0.00    -0.354 N 
ATOM     45  C   UNL A   1      44.637  27.181  27.010  1.00  0.00     0.074 A 
ATOM     46  C   UNL A   1      44.550  25.815  26.542  1.00  0.00     0.031 C 
ATOM     47  C   UNL A   1      38.868  28.158  29.678  1.00  0.00     0.029 A 
ATOM     48  C   UNL A   1      40.001  29.083  29.638  1.00  0.00     0.049 A 
ATOM     49  H   UNL A   1      41.827  28.800  28.679  1.00  0.00     0.167 HD
ATOM     50  C   UNL A   1      45.730  27.966  26.868  1.00  0.00     0.034 A 
ATOM     51  C   UNL A   1      40.041  30.300  30.216  1.00  0.00     0.034 A 
ATOM     52  C   UNL A   1      45.803  29.333  27.310  1.00  0.00     0.049 A 
ATOM     53  C   UNL A   1      41.272  31.151  30.049  1.00  0.00     0.074 A 
ATOM     54  C   UNL A   1      46.846  30.230  27.163  1.00  0.00     0.029 A 
ATOM     55  N   UNL A   1      44.797  29.998  27.994  1.00  0.00    -0.354 N 
ATOM     56  N   UNL A   1      42.376  30.888  29.391  1.00  0.00    -0.248 NA
ATOM     57  C   UNL A   1      41.250  32.485  30.671  1.00  0.00     0.031 C 
ATOM     58  C   UNL A   1      46.481  31.429  27.782  1.00  0.00     0.029 A 
ATOM     59  C   UNL A   1      45.199  31.289  28.288  1.00  0.00     0.049 A 
ATOM     60  H   UNL A   1      43.925  29.608  28.236  1.00  0.00     0.167 HD
ATOM     61  C   UNL A   1      43.161  32.031  29.488  1.00  0.00     0.074 A 
ATOM     62  C   UNL A   1      42.399  32.998  30.251  1.00  0.00     0.031 C 
ATOM     63  C   UNL A   1      44.406  32.259  28.999  1.00  0.00     0.034 A 
BRANCH  50  64
ATOM     64  C   UNL A   1      46.935  27.379  26.181  1.00  0.00     0.023 A 
ATOM     65  C   UNL A   1      47.101  27.556  24.792  1.00  0.00     0.012 A 
ATOM     66  C   UNL A   1      47.934  26.713  26.917  1.00  0.00     0.148 A 
ATOM     67  C   UNL A   1      48.229  27.056  24.144  1.00  0.00     0.002 A 
ATOM     68  C   UNL A   1      49.075  26.254  26.271  1.00  0.00     0.091 A 
ATOM     69  F   UNL A   1      47.746  26.535  28.233  1.00  0.00    -0.205 F 
ATOM     70  C   UNL A   1      49.220  26.415  24.884  1.00  0.00     0.022 A 
BRANCH  68  71
ATOM     71  S   UNL A   1      50.442  25.484  27.147  1.00  0.00     0.127 S 
ATOM     72  O   UNL A   1      49.813  24.270  27.667  1.00  0.00    -0.237 OA
ATOM     73  O   UNL A   1      51.408  25.258  26.073  1.00  0.00    -0.237 OA
ATOM     74  O   UNL A   1      50.866  26.446  28.154  1.00  0.00    -0.744 OA
ENDBRANCH  68  71
ENDBRANCH  50  64
BRANCH  51  75
ATOM     75  C   UNL A   1      38.862  30.800  30.978  1.00  0.00     0.023 A 
ATOM     76  C   UNL A   1      38.702  30.441  32.330  1.00  0.00     0.012 A 
ATOM     77  C   UNL A   1      37.911  31.643  30.374  1.00  0.00     0.148 A 
ATOM     78  C   UNL A   1      37.598  30.890  33.058  1.00  0.00     0.002 A 
ATOM     79  C   UNL A   1      36.845  32.133  31.120  1.00  0.00     0.091 A 
ATOM     80  F   UNL A   1      38.070  31.958  29.080  1.00  0.00    -0.205 F 
ATOM     81  C   UNL A   1      36.677  31.744  32.457  1.00  0.00     0.022 A 
BRANCH  79  82
ATOM     82  S   UNL A   1      35.691  33.343  30.461  1.00  0.00     0.127 S 
ATOM     83  O   UNL A   1      34.548  32.506  30.111  1.00  0.00    -0.237 OA
ATOM     84  O   UNL A   1      35.484  34.222  31.613  1.00  0.00    -0.237 OA
ATOM     85  O   UNL A   1      36.384  33.976  29.346  1.00  0.00    -0.744 OA
ENDBRANCH  79  82
ENDBRANCH  51  75
BRANCH  63  86
ATOM     86  C   UNL A   1      45.016  33.616  29.234  1.00  0.00     0.023 A 
ATOM     87  C   UNL A   1      45.823  33.838  30.368  1.00  0.00     0.012 A 
ATOM     88  C   UNL A   1      44.858  34.646  28.286  1.00  0.00     0.148 A 
ATOM     89  C   UNL A   1      46.436  35.073  30.571  1.00  0.00     0.002 A 
ATOM     90  C   UNL A   1      45.513  35.859  28.469  1.00  0.00     0.091 A 
ATOM     91  F   UNL A   1      44.074  34.422  27.222  1.00  0.00    -0.205 F 
ATOM     92  C   UNL A   1      46.292  36.079  29.617  1.00  0.00     0.022 A 
BRANCH  90  93
ATOM     93  S   UNL A   1      45.463  37.174  27.246  1.00  0.00     0.127 S 
ATOM     94  O   UNL A   1      46.166  38.252  27.940  1.00  0.00    -0.237 OA
ATOM     95  O   UNL A   1      46.201  36.585  26.128  1.00  0.00    -0.237 OA
ATOM     96  O   UNL A   1      44.053  37.419  26.977  1.00  0.00    -0.744 OA
ENDBRANCH  90  93
ENDBRANCH  63  86
ENDBRANCH  37  38
ENDBRANCH  30  32
ENDBRANCH  29  30
ENDBRANCH  28  29
ENDBRANCH  27  28
ENDBRANCH   1  27
TORSDOF 21
ENDMDL
MODEL 3
REMARK VINA RESULT:     -10.5      2.603      5.186
REMARK SMILES C[C@H]1C[NH+](CC[C@@H]2CCC[C@]2([NH3+])C(=O)OCCOCCOC(=O)c2ccc(-c3c4nc(c(-c5cccc(S(=O)(=O)[O-])c5F)c5ccc([nH]5)c(-c5cccc(S(=O)(=O)[O-])c5F)c5nc(c(-c6cccc(S(=O)(=O)[O-])c6F)c6ccc3[nH]6)C=C5)C=C4)cc2)C[C@H](C)O1
REMARK SMILES IDX 18 1 17 2 16 3 15 4 13 5 14 6 11 7 7 8 8 9 9 10 10 11 6 12
REMARK SMILES IDX 5 13 4 14 1 15 2 16 3 17 90 18 88 19 87 20 89 22 12 23 19 27
REMARK SMILES IDX 20 28 21 29 22 30 23 31 24 32 25 33 86 34 26 35 85 36 27 37
REMARK SMILES IDX 28 38 29 39 79 40 30 41 84 42 78 43 80 44 31 45 83 46 77 47
REMARK SMILES IDX 76 48 32 50 64 51 44 52 63 53 45 54 48 55 62 56 81 57 46 58
REMARK SMILES IDX 47 59 61 61 82 62 49 63 33 64 34 65 42 66 35 67 37 68 43 69
REMARK SMILES IDX 36 70 38 71 39 72 40 73 41 74 65 75 66 76 74 77 67 78 69 79
REMARK SMILES IDX 75 80 68 81 70 82 71 83 72 84 73 85 50 86 51 87 59 88 52 89
REMARK SMILES IDX 54 90 60 91 53 92 55 93 56 94 57 95 58 96
REMARK H PARENT 4 21 12 24 12 25 12 26 80 49 48 60
REMARK Flexibility Score: inf
ROOT
ATOM      1  O   UNL A   1      36.553  22.229  23.819  1.00  0.00    -0.374 OA
ENDROOT
BRANCH   1   2
ATOM      2  C   UNL A   1      35.659  23.328  24.030  1.00  0.00     0.202 C 
BRANCH   2   3
ATOM      3  C   UNL A   1      35.810  24.037  25.374  1.00  0.00     0.261 C 
BRANCH   3   4
ATOM      4  O   UNL A   1      34.582  23.924  26.124  1.00  0.00    -0.459 OA
BRANCH   4   5
ATOM      5  C   UNL A   1      33.513  24.555  25.597  1.00  0.00     0.368 C 
ATOM      6  O   UNL A   1      33.521  25.728  25.231  1.00  0.00    -0.245 OA
BRANCH   5   7
ATOM      7  C   UNL A   1      32.226  23.683  25.576  1.00  0.00     0.195 C 
ATOM      8  C   UNL A   1      32.307  22.114  25.525  1.00  0.00     0.068 C 
ATOM      9  C   UNL A   1      31.971  21.745  24.044  1.00  0.00     0.011 C 
ATOM     10  C   UNL A   1      31.825  23.038  23.265  1.00  0.00     0.008 C 
ATOM     11  C   UNL A   1      31.429  24.058  24.304  1.00  0.00     0.081 C 
BRANCH   8  12
ATOM     12  C   UNL A   1      33.396  21.118  26.069  1.00  0.00     0.072 C 
BRANCH  12  13
ATOM     13  C   UNL A   1      33.297  19.613  26.415  1.00  0.00     0.262 C 
BRANCH  13  14
ATOM     14  N   UNL A   1      33.018  18.564  25.438  1.00  0.00    -0.331 N 
ATOM     15  C   UNL A   1      32.622  14.733  25.488  1.00  0.00     0.045 C 
ATOM     16  C   UNL A   1      32.579  16.145  24.909  1.00  0.00     0.170 C 
ATOM     17  C   UNL A   1      32.844  17.215  26.012  1.00  0.00     0.294 C 
ATOM     18  O   UNL A   1      33.562  16.183  23.852  1.00  0.00    -0.364 OA
ATOM     19  C   UNL A   1      33.716  17.483  23.283  1.00  0.00     0.170 C 
ATOM     20  C   UNL A   1      34.014  18.493  24.385  1.00  0.00     0.294 C 
ATOM     21  H   UNL A   1      32.123  18.851  25.044  1.00  0.00     0.348 HD
ATOM     22  C   UNL A   1      32.554  17.916  22.396  1.00  0.00     0.045 C 
ENDBRANCH  13  14
ENDBRANCH  12  13
ENDBRANCH   8  12
BRANCH   7  23
ATOM     23  N   UNL A   1      31.318  24.190  26.649  1.00  0.00    -0.343 N 
ATOM     24  H   UNL A   1      31.655  25.094  26.980  1.00  0.00     0.345 HD
ATOM     25  H   UNL A   1      31.305  23.527  27.425  1.00  0.00     0.345 HD
ATOM     26  H   UNL A   1      30.375  24.294  26.275  1.00  0.00     0.345 HD
ENDBRANCH   7  23
ENDBRANCH   5   7
ENDBRANCH   4   5
ENDBRANCH   3   4
ENDBRANCH   2   3
ENDBRANCH   1   2
BRANCH   1  27
ATOM     27  C   UNL A   1      36.411  21.103  24.680  1.00  0.00     0.202 C 
BRANCH  27  28
ATOM     28  C   UNL A   1      37.692  20.413  25.168  1.00  0.00     0.261 C 
BRANCH  28  29
ATOM     29  O   UNL A   1      38.867  21.231  25.133  1.00  0.00    -0.460 OA
BRANCH  29  30
ATOM     30  C   UNL A   1      39.683  21.031  26.196  1.00  0.00     0.338 C 
ATOM     31  O   UNL A   1      40.202  19.972  26.535  1.00  0.00    -0.246 OA
BRANCH  30  32
ATOM     32  C   UNL A   1      39.976  22.298  26.884  1.00  0.00     0.060 A 
ATOM     33  C   UNL A   1      39.297  23.441  26.445  1.00  0.00     0.016 A 
ATOM     34  C   UNL A   1      40.989  22.395  27.841  1.00  0.00     0.016 A 
ATOM     35  C   UNL A   1      39.684  24.697  26.905  1.00  0.00     0.010 A 
ATOM     36  C   UNL A   1      41.374  23.657  28.302  1.00  0.00     0.010 A 
ATOM     37  C   UNL A   1      40.758  24.816  27.796  1.00  0.00    -0.014 A 
BRANCH  37  38
ATOM     38  C   UNL A   1      41.323  26.159  28.077  1.00  0.00     0.031 A 
ATOM     39  C   UNL A   1      42.721  26.480  27.616  1.00  0.00     0.074 A 
ATOM     40  C   UNL A   1      40.590  27.088  28.715  1.00  0.00     0.049 A 
ATOM     41  N   UNL A   1      43.400  27.589  27.746  1.00  0.00    -0.248 NA
ATOM     42  C   UNL A   1      43.450  25.408  26.918  1.00  0.00     0.031 C 
ATOM     43  C   UNL A   1      39.229  26.893  29.211  1.00  0.00     0.029 A 
ATOM     44  N   UNL A   1      40.898  28.377  29.070  1.00  0.00    -0.354 N 
ATOM     45  C   UNL A   1      44.643  27.344  27.174  1.00  0.00     0.074 A 
ATOM     46  C   UNL A   1      44.631  25.974  26.709  1.00  0.00     0.031 C 
ATOM     47  C   UNL A   1      38.826  28.016  29.830  1.00  0.00     0.029 A 
ATOM     48  C   UNL A   1      39.907  29.000  29.790  1.00  0.00     0.049 A 
ATOM     49  H   UNL A   1      41.748  28.814  28.834  1.00  0.00     0.167 HD
ATOM     50  C   UNL A   1      45.693  28.186  27.032  1.00  0.00     0.034 A 
ATOM     51  C   UNL A   1      39.881  30.219  30.364  1.00  0.00     0.034 A 
ATOM     52  C   UNL A   1      45.692  29.556  27.471  1.00  0.00     0.049 A 
ATOM     53  C   UNL A   1      41.065  31.135  30.197  1.00  0.00     0.074 A 
ATOM     54  C   UNL A   1      46.685  30.507  27.323  1.00  0.00     0.029 A 
ATOM     55  N   UNL A   1      44.650  30.168  28.152  1.00  0.00    -0.354 N 
ATOM     56  N   UNL A   1      42.183  30.930  29.543  1.00  0.00    -0.248 NA
ATOM     57  C   UNL A   1      40.970  32.466  30.816  1.00  0.00     0.031 C 
ATOM     58  C   UNL A   1      46.255  31.687  27.939  1.00  0.00     0.029 A 
ATOM     59  C   UNL A   1      44.982  31.479  28.443  1.00  0.00     0.049 A 
ATOM     60  H   UNL A   1      43.800  29.732  28.392  1.00  0.00     0.167 HD
ATOM     61  C   UNL A   1      42.905  32.114  29.638  1.00  0.00     0.074 A 
ATOM     62  C   UNL A   1      42.091  33.039  30.397  1.00  0.00     0.031 C 
ATOM     63  C   UNL A   1      44.136  32.407  29.151  1.00  0.00     0.034 A 
BRANCH  50  64
ATOM     64  C   UNL A   1      46.929  27.663  26.349  1.00  0.00     0.023 A 
ATOM     65  C   UNL A   1      47.834  26.854  27.067  1.00  0.00     0.012 A 
ATOM     66  C   UNL A   1      47.160  27.913  24.982  1.00  0.00     0.148 A 
ATOM     67  C   UNL A   1      48.962  26.326  26.442  1.00  0.00     0.002 A 
ATOM     68  C   UNL A   1      48.265  27.349  24.356  1.00  0.00     0.091 A 
ATOM     69  F   UNL A   1      46.300  28.703  24.323  1.00  0.00    -0.205 F 
ATOM     70  C   UNL A   1      49.172  26.563  25.086  1.00  0.00     0.022 A 
BRANCH  68  71
ATOM     71  S   UNL A   1      48.581  27.533  22.597  1.00  0.00     0.127 S 
ATOM     72  O   UNL A   1      48.635  26.138  22.160  1.00  0.00    -0.237 OA
ATOM     73  O   UNL A   1      47.401  28.268  22.146  1.00  0.00    -0.237 OA
ATOM     74  O   UNL A   1      49.833  28.268  22.489  1.00  0.00    -0.744 OA
ENDBRANCH  68  71
ENDBRANCH  50  64
BRANCH  51  75
ATOM     75  C   UNL A   1      38.675  30.657  31.124  1.00  0.00     0.023 A 
ATOM     76  C   UNL A   1      38.607  30.437  32.512  1.00  0.00     0.012 A 
ATOM     77  C   UNL A   1      37.606  31.306  30.478  1.00  0.00     0.148 A 
ATOM     78  C   UNL A   1      37.482  30.829  33.239  1.00  0.00     0.002 A 
ATOM     79  C   UNL A   1      36.514  31.745  31.216  1.00  0.00     0.091 A 
ATOM     80  F   UNL A   1      37.681  31.489  29.151  1.00  0.00    -0.205 F 
ATOM     81  C   UNL A   1      36.441  31.492  32.594  1.00  0.00     0.022 A 
BRANCH  79  82
ATOM     82  S   UNL A   1      35.197  32.726  30.487  1.00  0.00     0.127 S 
ATOM     83  O   UNL A   1      34.767  31.875  29.381  1.00  0.00    -0.237 OA
ATOM     84  O   UNL A   1      34.246  32.827  31.595  1.00  0.00    -0.237 OA
ATOM     85  O   UNL A   1      35.814  33.992  30.113  1.00  0.00    -0.744 OA
ENDBRANCH  79  82
ENDBRANCH  51  75
BRANCH  63  86
ATOM     86  C   UNL A   1      44.673  33.795  29.383  1.00  0.00     0.023 A 
ATOM     87  C   UNL A   1      45.351  34.095  30.582  1.00  0.00     0.012 A 
ATOM     88  C   UNL A   1      44.578  34.777  28.378  1.00  0.00     0.148 A 
ATOM     89  C   UNL A   1      45.897  35.362  30.789  1.00  0.00     0.002 A 
ATOM     90  C   UNL A   1      45.168  36.021  28.570  1.00  0.00     0.091 A 
ATOM     91  F   UNL A   1      43.915  34.478  27.251  1.00  0.00    -0.205 F 
ATOM     92  C   UNL A   1      45.817  36.319  29.779  1.00  0.00     0.022 A 
BRANCH  90  93
ATOM     93  S   UNL A   1      45.200  37.280  27.289  1.00  0.00     0.127 S 
ATOM     94  O   UNL A   1      43.777  37.444  26.997  1.00  0.00    -0.237 OA
ATOM     95  O   UNL A   1      45.814  38.413  27.983  1.00  0.00    -0.237 OA
ATOM     96  O   UNL A   1      46.002  36.730  26.206  1.00  0.00    -0.744 OA
ENDBRANCH  90  93
ENDBRANCH  63  86
ENDBRANCH  37  38
ENDBRANCH  30  32
ENDBRANCH  29  30
ENDBRANCH  28  29
ENDBRANCH  27  28
ENDBRANCH   1  27
TORSDOF 21
ENDMDL
