MODEL 1
REMARK VINA RESULT:     -10.6      0.000      0.000
REMARK SMILES CC1=C(C(=O)OCCOCCOC(=O)c2ccc(-c3c4nc(c(-c5cccc(S(=O)(=O)[O-])c5F)c5ccc([nH]5)c(-c5cccc(S(=O)(=O)[O-])c5F)c5nc(c(-c6cccc(S(=O)(=O)[O-])c6F)c6ccc3[nH]6)C=C5)C=C4)cc2)N2C(=O)[C@H](NC(=O)c3c(Cl)c(C(F)(F)F)nn3C)[C@@H]2SC1
REMARK SMILES IDX 9 1 8 2 7 3 6 4 4 5 5 6 3 7 1 8 2 9 98 10 78 11 97 12 79 13
REMARK SMILES IDX 96 14 80 15 81 16 82 17 83 18 84 20 85 21 86 22 94 23 87 24
REMARK SMILES IDX 88 25 93 26 95 27 89 28 90 29 91 30 92 31 10 32 11 33 12 34
REMARK SMILES IDX 13 35 14 36 15 37 16 38 77 39 17 40 76 41 18 42 19 43 20 44
REMARK SMILES IDX 70 45 21 46 75 47 69 48 71 49 22 50 74 51 68 52 67 53 23 55
REMARK SMILES IDX 55 56 35 57 54 58 36 59 39 60 53 61 72 62 37 63 38 64 52 66
REMARK SMILES IDX 73 67 40 68 24 69 25 70 33 71 26 72 28 73 34 74 27 75 29 76
REMARK SMILES IDX 30 77 31 78 32 79 56 80 57 81 65 82 58 83 60 84 66 85 59 86
REMARK SMILES IDX 61 87 62 88 63 89 64 90 41 91 42 92 50 93 43 94 45 95 51 96
REMARK SMILES IDX 44 97 46 98 47 99 48 100 49 101
REMARK H PARENT 82 19 71 54 39 65
REMARK Flexibility Score: inf
ROOT
ATOM      1  O   UNL A   1      38.707  21.553  25.564  1.00  0.00    -0.374 OA
ENDROOT
BRANCH   1   2
ATOM      2  C   UNL A   1      38.628  22.867  26.126  1.00  0.00     0.202 C 
BRANCH   2   3
ATOM      3  C   UNL A   1      37.362  23.653  25.779  1.00  0.00     0.261 C 
BRANCH   3   4
ATOM      4  O   UNL A   1      36.274  22.733  25.624  1.00  0.00    -0.459 OA
BRANCH   4   5
ATOM      5  C   UNL A   1      35.722  22.688  24.390  1.00  0.00     0.355 C 
ATOM      6  O   UNL A   1      36.309  22.745  23.322  1.00  0.00    -0.244 OA
BRANCH   5   7
ATOM      7  C   UNL A   1      34.258  22.400  24.522  1.00  0.00     0.131 C 
ATOM      8  C   UNL A   1      34.606  19.892  24.700  1.00  0.00     0.043 C 
ATOM      9  C   UNL A   1      33.772  21.153  24.736  1.00  0.00    -0.032 C 
ATOM     10  C   UNL A   1      32.318  20.860  25.072  1.00  0.00     0.105 C 
ATOM     11  N   UNL A   1      33.419  23.471  24.464  1.00  0.00    -0.289 N 
ATOM     12  S   UNL A   1      31.387  22.309  25.677  1.00  0.00    -0.129 SA
ATOM     13  C   UNL A   1      33.494  24.804  24.294  1.00  0.00     0.253 C 
ATOM     14  C   UNL A   1      31.984  23.369  24.346  1.00  0.00     0.181 C 
ATOM     15  O   UNL A   1      34.400  25.570  24.059  1.00  0.00    -0.272 OA
ATOM     16  C   UNL A   1      31.942  24.917  24.541  1.00  0.00     0.206 C 
BRANCH  16  17
ATOM     17  N   UNL A   1      31.567  25.435  25.884  1.00  0.00    -0.336 N 
ATOM     18  C   UNL A   1      31.237  26.709  26.270  1.00  0.00     0.271 C 
ATOM     19  H   UNL A   1      31.554  24.762  26.603  1.00  0.00     0.164 HD
ATOM     20  O   UNL A   1      31.093  26.936  27.468  1.00  0.00    -0.267 OA
BRANCH  18  21
ATOM     21  C   UNL A   1      31.072  27.724  25.268  1.00  0.00     0.145 A 
ATOM     22  C   UNL A   1      30.073  27.837  24.318  1.00  0.00     0.104 A 
ATOM     23  N   UNL A   1      31.966  28.712  24.949  1.00  0.00    -0.261 N 
ATOM     24  Cl  UNL A   1      28.715  26.838  24.109  1.00  0.00    -0.079 Cl
ATOM     25  C   UNL A   1      30.395  28.975  23.537  1.00  0.00     0.185 A 
ATOM     26  N   UNL A   1      31.544  29.534  23.969  1.00  0.00    -0.166 NA
ATOM     27  C   UNL A   1      33.288  28.928  25.493  1.00  0.00     0.174 C 
BRANCH  25  28
ATOM     28  C   UNL A   1      29.609  29.507  22.373  1.00  0.00     0.436 C 
ATOM     29  F   UNL A   1      29.810  28.769  21.247  1.00  0.00    -0.164 F 
ATOM     30  F   UNL A   1      28.269  29.494  22.611  1.00  0.00    -0.164 F 
ATOM     31  F   UNL A   1      29.926  30.791  22.051  1.00  0.00    -0.164 F 
ENDBRANCH  25  28
ENDBRANCH  18  21
ENDBRANCH  16  17
ENDBRANCH   5   7
ENDBRANCH   4   5
ENDBRANCH   3   4
ENDBRANCH   2   3
ENDBRANCH   1   2
BRANCH   1  32
ATOM     32  C   UNL A   1      39.197  20.506  26.399  1.00  0.00     0.202 C 
BRANCH  32  33
ATOM     33  C   UNL A   1      40.183  19.523  25.755  1.00  0.00     0.261 C 
BRANCH  33  34
ATOM     34  O   UNL A   1      41.334  19.261  26.573  1.00  0.00    -0.460 OA
BRANCH  34  35
ATOM     35  C   UNL A   1      42.461  19.906  26.178  1.00  0.00     0.338 C 
ATOM     36  O   UNL A   1      43.354  19.463  25.476  1.00  0.00    -0.246 OA
BRANCH  35  37
ATOM     37  C   UNL A   1      42.410  21.321  26.591  1.00  0.00     0.060 A 
ATOM     38  C   UNL A   1      42.363  22.290  25.580  1.00  0.00     0.016 A 
ATOM     39  C   UNL A   1      42.494  21.698  27.933  1.00  0.00     0.016 A 
ATOM     40  C   UNL A   1      42.442  23.643  25.906  1.00  0.00     0.010 A 
ATOM     41  C   UNL A   1      42.581  23.057  28.256  1.00  0.00     0.010 A 
ATOM     42  C   UNL A   1      42.588  24.033  27.243  1.00  0.00    -0.014 A 
BRANCH  42  43
ATOM     43  C   UNL A   1      42.870  25.452  27.571  1.00  0.00     0.031 A 
ATOM     44  C   UNL A   1      44.262  25.989  27.379  1.00  0.00     0.074 A 
ATOM     45  C   UNL A   1      41.896  26.252  28.041  1.00  0.00     0.049 A 
ATOM     46  N   UNL A   1      44.729  27.185  27.630  1.00  0.00    -0.248 NA
ATOM     47  C   UNL A   1      45.260  25.055  26.834  1.00  0.00     0.031 C 
ATOM     48  C   UNL A   1      40.510  25.848  28.268  1.00  0.00     0.029 A 
ATOM     49  N   UNL A   1      41.934  27.566  28.434  1.00  0.00    -0.354 N 
ATOM     50  C   UNL A   1      46.077  27.142  27.298  1.00  0.00     0.074 A 
ATOM     51  C   UNL A   1      46.358  25.798  26.842  1.00  0.00     0.031 C 
ATOM     52  C   UNL A   1      39.834  26.888  28.788  1.00  0.00     0.029 A 
ATOM     53  C   UNL A   1      40.744  28.020  28.950  1.00  0.00     0.049 A 
ATOM     54  H   UNL A   1      42.738  28.129  28.355  1.00  0.00     0.167 HD
ATOM     55  C   UNL A   1      46.996  28.136  27.351  1.00  0.00     0.034 A 
ATOM     56  C   UNL A   1      40.430  29.208  29.506  1.00  0.00     0.034 A 
ATOM     57  C   UNL A   1      46.711  29.477  27.783  1.00  0.00     0.049 A 
ATOM     58  C   UNL A   1      41.476  30.289  29.577  1.00  0.00     0.074 A 
ATOM     59  C   UNL A   1      47.564  30.566  27.826  1.00  0.00     0.029 A 
ATOM     60  N   UNL A   1      45.485  29.912  28.259  1.00  0.00    -0.354 N 
ATOM     61  N   UNL A   1      42.715  30.269  29.147  1.00  0.00    -0.248 NA
ATOM     62  C   UNL A   1      41.073  31.568  30.181  1.00  0.00     0.031 C 
ATOM     63  C   UNL A   1      46.858  31.655  28.350  1.00  0.00     0.029 A 
ATOM     64  C   UNL A   1      45.558  31.249  28.610  1.00  0.00     0.049 A 
ATOM     65  H   UNL A   1      44.678  29.352  28.336  1.00  0.00     0.167 HD
ATOM     66  C   UNL A   1      43.226  31.540  29.394  1.00  0.00     0.074 A 
ATOM     67  C   UNL A   1      42.157  32.309  29.996  1.00  0.00     0.031 C 
ATOM     68  C   UNL A   1      44.472  32.021  29.157  1.00  0.00     0.034 A 
BRANCH  55  69
ATOM     69  C   UNL A   1      48.396  27.816  26.897  1.00  0.00     0.023 A 
ATOM     70  C   UNL A   1      49.360  27.421  27.845  1.00  0.00     0.012 A 
ATOM     71  C   UNL A   1      48.742  27.855  25.533  1.00  0.00     0.148 A 
ATOM     72  C   UNL A   1      50.657  27.098  27.447  1.00  0.00     0.002 A 
ATOM     73  C   UNL A   1      50.026  27.493  25.138  1.00  0.00     0.091 A 
ATOM     74  F   UNL A   1      47.818  28.258  24.649  1.00  0.00    -0.205 F 
ATOM     75  C   UNL A   1      50.986  27.124  26.094  1.00  0.00     0.022 A 
BRANCH  73  76
ATOM     76  S   UNL A   1      50.523  27.428  23.413  1.00  0.00     0.127 S 
ATOM     77  O   UNL A   1      51.797  26.717  23.501  1.00  0.00    -0.237 OA
ATOM     78  O   UNL A   1      49.437  26.659  22.806  1.00  0.00    -0.237 OA
ATOM     79  O   UNL A   1      50.606  28.812  22.969  1.00  0.00    -0.744 OA
ENDBRANCH  73  76
ENDBRANCH  55  69
BRANCH  56  80
ATOM     80  C   UNL A   1      39.047  29.450  30.007  1.00  0.00     0.023 A 
ATOM     81  C   UNL A   1      38.678  28.978  31.280  1.00  0.00     0.012 A 
ATOM     82  C   UNL A   1      38.108  30.164  29.239  1.00  0.00     0.148 A 
ATOM     83  C   UNL A   1      37.388  29.189  31.769  1.00  0.00     0.002 A 
ATOM     84  C   UNL A   1      36.842  30.419  29.754  1.00  0.00     0.091 A 
ATOM     85  F   UNL A   1      38.473  30.589  28.020  1.00  0.00    -0.205 F 
ATOM     86  C   UNL A   1      36.474  29.918  31.013  1.00  0.00     0.022 A 
BRANCH  84  87
ATOM     87  S   UNL A   1      35.651  31.460  28.903  1.00  0.00     0.127 S 
ATOM     88  O   UNL A   1      35.063  30.524  27.949  1.00  0.00    -0.237 OA
ATOM     89  O   UNL A   1      34.767  31.864  29.998  1.00  0.00    -0.237 OA
ATOM     90  O   UNL A   1      36.426  32.552  28.328  1.00  0.00    -0.744 OA
ENDBRANCH  84  87
ENDBRANCH  56  80
BRANCH  68  91
ATOM     91  C   UNL A   1      44.749  33.459  29.514  1.00  0.00     0.023 A 
ATOM     92  C   UNL A   1      45.194  33.784  30.810  1.00  0.00     0.012 A 
ATOM     93  C   UNL A   1      44.648  34.474  28.542  1.00  0.00     0.148 A 
ATOM     94  C   UNL A   1      45.505  35.102  31.143  1.00  0.00     0.002 A 
ATOM     95  C   UNL A   1      45.004  35.778  28.867  1.00  0.00     0.091 A 
ATOM     96  F   UNL A   1      44.205  34.147  27.318  1.00  0.00    -0.205 F 
ATOM     97  C   UNL A   1      45.423  36.096  30.169  1.00  0.00     0.022 A 
BRANCH  95  98
ATOM     98  S   UNL A   1      45.019  37.103  27.653  1.00  0.00     0.127 S 
ATOM     99  O   UNL A   1      45.582  38.208  28.427  1.00  0.00    -0.237 OA
ATOM    100  O   UNL A   1      45.906  36.567  26.619  1.00  0.00    -0.237 OA
ATOM    101  O   UNL A   1      43.636  37.274  27.231  1.00  0.00    -0.744 OA
ENDBRANCH  95  98
ENDBRANCH  68  91
ENDBRANCH  42  43
ENDBRANCH  35  37
ENDBRANCH  34  35
ENDBRANCH  33  34
ENDBRANCH  32  33
ENDBRANCH   1  32
TORSDOF 20
ENDMDL
MODEL 2
REMARK VINA RESULT:     -10.4      5.666     10.986
REMARK SMILES CC1=C(C(=O)OCCOCCOC(=O)c2ccc(-c3c4nc(c(-c5cccc(S(=O)(=O)[O-])c5F)c5ccc([nH]5)c(-c5cccc(S(=O)(=O)[O-])c5F)c5nc(c(-c6cccc(S(=O)(=O)[O-])c6F)c6ccc3[nH]6)C=C5)C=C4)cc2)N2C(=O)[C@H](NC(=O)c3c(Cl)c(C(F)(F)F)nn3C)[C@@H]2SC1
REMARK SMILES IDX 9 1 8 2 7 3 6 4 4 5 5 6 3 7 1 8 2 9 98 10 78 11 97 12 79 13
REMARK SMILES IDX 96 14 80 15 81 16 82 17 83 18 84 20 85 21 86 22 94 23 87 24
REMARK SMILES IDX 88 25 93 26 95 27 89 28 90 29 91 30 92 31 10 32 11 33 12 34
REMARK SMILES IDX 13 35 14 36 15 37 16 38 77 39 17 40 76 41 18 42 19 43 20 44
REMARK SMILES IDX 70 45 21 46 75 47 69 48 71 49 22 50 74 51 68 52 67 53 23 55
REMARK SMILES IDX 55 56 35 57 54 58 36 59 39 60 53 61 72 62 37 63 38 64 52 66
REMARK SMILES IDX 73 67 40 68 24 69 25 70 33 71 26 72 28 73 34 74 27 75 29 76
REMARK SMILES IDX 30 77 31 78 32 79 56 80 57 81 65 82 58 83 60 84 66 85 59 86
REMARK SMILES IDX 61 87 62 88 63 89 64 90 41 91 42 92 50 93 43 94 45 95 51 96
REMARK SMILES IDX 44 97 46 98 47 99 48 100 49 101
REMARK H PARENT 82 19 71 54 39 65
REMARK Flexibility Score: inf
ROOT
ATOM      1  O   UNL A   1      31.533  30.943  26.734  1.00  0.00    -0.374 OA
ENDROOT
BRANCH   1   2
ATOM      2  C   UNL A   1      31.629  30.113  25.573  1.00  0.00     0.202 C 
BRANCH   2   3
ATOM      3  C   UNL A   1      30.518  30.302  24.538  1.00  0.00     0.261 C 
BRANCH   3   4
ATOM      4  O   UNL A   1      31.059  30.072  23.231  1.00  0.00    -0.459 OA
BRANCH   4   5
ATOM      5  C   UNL A   1      30.297  29.311  22.412  1.00  0.00     0.355 C 
ATOM      6  O   UNL A   1      29.842  29.632  21.327  1.00  0.00    -0.244 OA
BRANCH   5   7
ATOM      7  C   UNL A   1      30.212  27.926  22.975  1.00  0.00     0.131 C 
ATOM      8  C   UNL A   1      27.754  28.146  23.568  1.00  0.00     0.043 C 
ATOM      9  C   UNL A   1      29.052  27.386  23.422  1.00  0.00    -0.032 C 
ATOM     10  C   UNL A   1      28.898  25.923  23.811  1.00  0.00     0.105 C 
ATOM     11  N   UNL A   1      31.363  27.198  22.979  1.00  0.00    -0.289 N 
ATOM     12  S   UNL A   1      30.208  24.835  23.153  1.00  0.00    -0.129 SA
ATOM     13  C   UNL A   1      32.654  27.349  22.626  1.00  0.00     0.253 C 
ATOM     14  C   UNL A   1      31.527  25.947  23.679  1.00  0.00     0.181 C 
ATOM     15  O   UNL A   1      33.304  28.276  22.201  1.00  0.00    -0.272 OA
ATOM     16  C   UNL A   1      32.922  25.839  22.986  1.00  0.00     0.206 C 
BRANCH  16  17
ATOM     17  N   UNL A   1      33.042  24.936  21.810  1.00  0.00    -0.336 N 
ATOM     18  C   UNL A   1      33.460  23.632  21.746  1.00  0.00     0.271 C 
ATOM     19  H   UNL A   1      32.783  25.336  20.948  1.00  0.00     0.164 HD
ATOM     20  O   UNL A   1      33.610  23.120  20.640  1.00  0.00    -0.267 OA
BRANCH  18  21
ATOM     21  C   UNL A   1      33.706  22.915  22.966  1.00  0.00     0.145 A 
ATOM     22  C   UNL A   1      34.832  22.945  23.766  1.00  0.00     0.104 A 
ATOM     23  N   UNL A   1      32.923  21.929  23.508  1.00  0.00    -0.261 N 
ATOM     24  Cl  UNL A   1      36.228  23.894  23.567  1.00  0.00    -0.079 Cl
ATOM     25  C   UNL A   1      34.600  22.022  24.816  1.00  0.00     0.185 A 
ATOM     26  N   UNL A   1      33.394  21.435  24.669  1.00  0.00    -0.166 NA
ATOM     27  C   UNL A   1      31.720  21.344  22.960  1.00  0.00     0.174 C 
BRANCH  25  28
ATOM     28  C   UNL A   1      35.540  21.697  25.941  1.00  0.00     0.436 C 
ATOM     29  F   UNL A   1      36.348  20.644  25.637  1.00  0.00    -0.164 F 
ATOM     30  F   UNL A   1      36.360  22.740  26.241  1.00  0.00    -0.164 F 
ATOM     31  F   UNL A   1      34.903  21.368  27.098  1.00  0.00    -0.164 F 
ENDBRANCH  25  28
ENDBRANCH  18  21
ENDBRANCH  16  17
ENDBRANCH   5   7
ENDBRANCH   4   5
ENDBRANCH   3   4
ENDBRANCH   2   3
ENDBRANCH   1   2
BRANCH   1  32
ATOM     32  C   UNL A   1      32.587  31.875  26.968  1.00  0.00     0.202 C 
BRANCH  32  33
ATOM     33  C   UNL A   1      32.167  33.309  27.315  1.00  0.00     0.261 C 
BRANCH  33  34
ATOM     34  O   UNL A   1      33.283  34.178  27.567  1.00  0.00    -0.460 OA
BRANCH  34  35
ATOM     35  C   UNL A   1      33.630  34.279  28.876  1.00  0.00     0.338 C 
ATOM     36  O   UNL A   1      33.030  34.879  29.752  1.00  0.00    -0.246 OA
BRANCH  35  37
ATOM     37  C   UNL A   1      34.791  33.416  29.164  1.00  0.00     0.060 A 
ATOM     38  C   UNL A   1      34.566  32.257  29.917  1.00  0.00     0.016 A 
ATOM     39  C   UNL A   1      36.086  33.776  28.782  1.00  0.00     0.016 A 
ATOM     40  C   UNL A   1      35.643  31.472  30.328  1.00  0.00     0.010 A 
ATOM     41  C   UNL A   1      37.164  32.989  29.203  1.00  0.00     0.010 A 
ATOM     42  C   UNL A   1      36.950  31.853  30.004  1.00  0.00    -0.014 A 
BRANCH  42  43
ATOM     43  C   UNL A   1      38.099  31.132  30.605  1.00  0.00     0.031 A 
ATOM     44  C   UNL A   1      38.533  31.475  32.003  1.00  0.00     0.074 A 
ATOM     45  C   UNL A   1      38.752  30.185  29.909  1.00  0.00     0.049 A 
ATOM     46  N   UNL A   1      39.526  30.990  32.704  1.00  0.00    -0.248 NA
ATOM     47  C   UNL A   1      37.747  32.503  32.705  1.00  0.00     0.031 C 
ATOM     48  C   UNL A   1      38.425  29.763  28.548  1.00  0.00     0.029 A 
ATOM     49  N   UNL A   1      39.843  29.424  30.245  1.00  0.00    -0.354 N 
ATOM     50  C   UNL A   1      39.500  31.667  33.917  1.00  0.00     0.074 A 
ATOM     51  C   UNL A   1      38.403  32.609  33.852  1.00  0.00     0.031 C 
ATOM     52  C   UNL A   1      39.316  28.836  28.154  1.00  0.00     0.029 A 
ATOM     53  C   UNL A   1      40.287  28.616  29.225  1.00  0.00     0.049 A 
ATOM     54  H   UNL A   1      40.268  29.454  31.133  1.00  0.00     0.167 HD
ATOM     55  C   UNL A   1      40.304  31.509  34.995  1.00  0.00     0.034 A 
ATOM     56  C   UNL A   1      41.363  27.807  29.157  1.00  0.00     0.034 A 
ATOM     57  C   UNL A   1      41.380  30.557  35.067  1.00  0.00     0.049 A 
ATOM     58  C   UNL A   1      42.258  27.667  30.360  1.00  0.00     0.074 A 
ATOM     59  C   UNL A   1      42.221  30.289  36.133  1.00  0.00     0.029 A 
ATOM     60  N   UNL A   1      41.774  29.727  34.029  1.00  0.00    -0.354 N 
ATOM     61  N   UNL A   1      42.148  28.226  31.541  1.00  0.00    -0.248 NA
ATOM     62  C   UNL A   1      43.409  26.760  30.232  1.00  0.00     0.031 C 
ATOM     63  C   UNL A   1      43.138  29.311  35.732  1.00  0.00     0.029 A 
ATOM     64  C   UNL A   1      42.852  28.954  34.423  1.00  0.00     0.049 A 
ATOM     65  H   UNL A   1      41.348  29.692  33.142  1.00  0.00     0.167 HD
ATOM     66  C   UNL A   1      43.189  27.711  32.306  1.00  0.00     0.074 A 
ATOM     67  C   UNL A   1      43.910  26.783  31.460  1.00  0.00     0.031 C 
ATOM     68  C   UNL A   1      43.527  27.992  33.590  1.00  0.00     0.034 A 
BRANCH  55  69
ATOM     69  C   UNL A   1      40.029  32.365  36.202  1.00  0.00     0.023 A 
ATOM     70  C   UNL A   1      40.774  33.544  36.402  1.00  0.00     0.012 A 
ATOM     71  C   UNL A   1      39.003  32.033  37.108  1.00  0.00     0.148 A 
ATOM     72  C   UNL A   1      40.523  34.365  37.501  1.00  0.00     0.002 A 
ATOM     73  C   UNL A   1      38.731  32.877  38.179  1.00  0.00     0.091 A 
ATOM     74  F   UNL A   1      38.322  30.895  36.915  1.00  0.00    -0.205 F 
ATOM     75  C   UNL A   1      39.495  34.038  38.383  1.00  0.00     0.022 A 
BRANCH  73  76
ATOM     76  S   UNL A   1      37.382  32.577  39.326  1.00  0.00     0.127 S 
ATOM     77  O   UNL A   1      37.573  33.655  40.295  1.00  0.00    -0.237 OA
ATOM     78  O   UNL A   1      36.206  32.729  38.470  1.00  0.00    -0.237 OA
ATOM     79  O   UNL A   1      37.587  31.230  39.839  1.00  0.00    -0.744 OA
ENDBRANCH  73  76
ENDBRANCH  55  69
BRANCH  56  80
ATOM     80  C   UNL A   1      41.633  27.035  27.911  1.00  0.00     0.023 A 
ATOM     81  C   UNL A   1      42.190  27.688  26.796  1.00  0.00     0.012 A 
ATOM     82  C   UNL A   1      41.361  25.655  27.834  1.00  0.00     0.148 A 
ATOM     83  C   UNL A   1      42.448  26.987  25.617  1.00  0.00     0.002 A 
ATOM     84  C   UNL A   1      41.671  24.951  26.677  1.00  0.00     0.091 A 
ATOM     85  F   UNL A   1      40.812  25.055  28.901  1.00  0.00    -0.205 F 
ATOM     86  C   UNL A   1      42.200  25.618  25.561  1.00  0.00     0.022 A 
BRANCH  84  87
ATOM     87  S   UNL A   1      41.506  23.166  26.566  1.00  0.00     0.127 S 
ATOM     88  O   UNL A   1      42.017  22.737  27.865  1.00  0.00    -0.237 OA
ATOM     89  O   UNL A   1      40.063  23.006  26.385  1.00  0.00    -0.237 OA
ATOM     90  O   UNL A   1      42.299  22.771  25.409  1.00  0.00    -0.744 OA
ENDBRANCH  84  87
ENDBRANCH  56  80
BRANCH  68  91
ATOM     91  C   UNL A   1      44.709  27.267  34.180  1.00  0.00     0.023 A 
ATOM     92  C   UNL A   1      45.996  27.832  34.084  1.00  0.00     0.012 A 
ATOM     93  C   UNL A   1      44.531  26.068  34.900  1.00  0.00     0.148 A 
ATOM     94  C   UNL A   1      47.093  27.200  34.669  1.00  0.00     0.002 A 
ATOM     95  C   UNL A   1      45.621  25.469  35.520  1.00  0.00     0.091 A 
ATOM     96  F   UNL A   1      43.302  25.537  34.965  1.00  0.00    -0.205 F 
ATOM     97  C   UNL A   1      46.904  26.027  35.397  1.00  0.00     0.022 A 
BRANCH  95  98
ATOM     98  S   UNL A   1      45.457  24.009  36.556  1.00  0.00     0.127 S 
ATOM     99  O   UNL A   1      44.654  24.520  37.664  1.00  0.00    -0.237 OA
ATOM    100  O   UNL A   1      44.756  23.078  35.671  1.00  0.00    -0.237 OA
ATOM    101  O   UNL A   1      46.815  23.608  36.899  1.00  0.00    -0.744 OA
ENDBRANCH  95  98
ENDBRANCH  68  91
ENDBRANCH  42  43
ENDBRANCH  35  37
ENDBRANCH  34  35
ENDBRANCH  33  34
ENDBRANCH  32  33
ENDBRANCH   1  32
TORSDOF 20
ENDMDL
MODEL 3
REMARK VINA RESULT:     -10.3      5.246      9.072
REMARK SMILES CC1=C(C(=O)OCCOCCOC(=O)c2ccc(-c3c4nc(c(-c5cccc(S(=O)(=O)[O-])c5F)c5ccc([nH]5)c(-c5cccc(S(=O)(=O)[O-])c5F)c5nc(c(-c6cccc(S(=O)(=O)[O-])c6F)c6ccc3[nH]6)C=C5)C=C4)cc2)N2C(=O)[C@H](NC(=O)c3c(Cl)c(C(F)(F)F)nn3C)[C@@H]2SC1
REMARK SMILES IDX 9 1 8 2 7 3 6 4 4 5 5 6 3 7 1 8 2 9 98 10 78 11 97 12 79 13
REMARK SMILES IDX 96 14 80 15 81 16 82 17 83 18 84 20 85 21 86 22 94 23 87 24
REMARK SMILES IDX 88 25 93 26 95 27 89 28 90 29 91 30 92 31 10 32 11 33 12 34
REMARK SMILES IDX 13 35 14 36 15 37 16 38 77 39 17 40 76 41 18 42 19 43 20 44
REMARK SMILES IDX 70 45 21 46 75 47 69 48 71 49 22 50 74 51 68 52 67 53 23 55
REMARK SMILES IDX 55 56 35 57 54 58 36 59 39 60 53 61 72 62 37 63 38 64 52 66
REMARK SMILES IDX 73 67 40 68 24 69 25 70 33 71 26 72 28 73 34 74 27 75 29 76
REMARK SMILES IDX 30 77 31 78 32 79 56 80 57 81 65 82 58 83 60 84 66 85 59 86
REMARK SMILES IDX 61 87 62 88 63 89 64 90 41 91 42 92 50 93 43 94 45 95 51 96
REMARK SMILES IDX 44 97 46 98 47 99 48 100 49 101
REMARK H PARENT 82 19 71 54 39 65
REMARK Flexibility Score: inf
ROOT
ATOM      1  O   UNL A   1      40.897  22.546  26.577  1.00  0.00    -0.374 OA
ENDROOT
BRANCH   1   2
ATOM      2  C   UNL A   1      39.533  22.194  26.326  1.00  0.00     0.202 C 
BRANCH   2   3
ATOM      3  C   UNL A   1      38.543  23.361  26.332  1.00  0.00     0.261 C 
BRANCH   3   4
ATOM      4  O   UNL A   1      37.225  22.850  26.097  1.00  0.00    -0.459 OA
BRANCH   4   5
ATOM      5  C   UNL A   1      36.820  22.855  24.806  1.00  0.00     0.355 C 
ATOM      6  O   UNL A   1      37.362  23.421  23.871  1.00  0.00    -0.244 OA
BRANCH   5   7
ATOM      7  C   UNL A   1      35.662  21.918  24.655  1.00  0.00     0.131 C 
ATOM      8  C   UNL A   1      37.107  19.844  24.878  1.00  0.00     0.043 C 
ATOM      9  C   UNL A   1      35.788  20.573  24.764  1.00  0.00    -0.032 C 
ATOM     10  C   UNL A   1      34.606  19.616  24.815  1.00  0.00     0.105 C 
ATOM     11  N   UNL A   1      34.442  22.486  24.447  1.00  0.00    -0.289 N 
ATOM     12  S   UNL A   1      33.021  20.413  25.242  1.00  0.00    -0.129 SA
ATOM     13  C   UNL A   1      33.912  23.715  24.304  1.00  0.00     0.253 C 
ATOM     14  C   UNL A   1      33.263  21.750  24.057  1.00  0.00     0.181 C 
ATOM     15  O   UNL A   1      34.380  24.829  24.252  1.00  0.00    -0.272 OA
ATOM     16  C   UNL A   1      32.471  23.081  24.252  1.00  0.00     0.206 C 
BRANCH  16  17
ATOM     17  N   UNL A   1      31.682  23.239  25.503  1.00  0.00    -0.336 N 
ATOM     18  C   UNL A   1      31.131  24.367  26.054  1.00  0.00     0.271 C 
ATOM     19  H   UNL A   1      31.533  22.409  26.011  1.00  0.00     0.164 HD
ATOM     20  O   UNL A   1      30.632  24.287  27.173  1.00  0.00    -0.267 OA
BRANCH  18  21
ATOM     21  C   UNL A   1      31.156  25.595  25.308  1.00  0.00     0.145 A 
ATOM     22  C   UNL A   1      31.551  26.849  25.734  1.00  0.00     0.104 A 
ATOM     23  N   UNL A   1      30.643  25.801  24.054  1.00  0.00    -0.261 N 
ATOM     24  Cl  UNL A   1      32.185  27.284  27.249  1.00  0.00    -0.079 Cl
ATOM     25  C   UNL A   1      31.334  27.727  24.643  1.00  0.00     0.185 A 
ATOM     26  N   UNL A   1      30.816  27.056  23.594  1.00  0.00    -0.166 NA
ATOM     27  C   UNL A   1      29.915  24.869  23.224  1.00  0.00     0.174 C 
BRANCH  25  28
ATOM     28  C   UNL A   1      31.609  29.203  24.619  1.00  0.00     0.436 C 
ATOM     29  F   UNL A   1      30.893  29.835  23.649  1.00  0.00    -0.164 F 
ATOM     30  F   UNL A   1      31.282  29.804  25.795  1.00  0.00    -0.164 F 
ATOM     31  F   UNL A   1      32.916  29.504  24.387  1.00  0.00    -0.164 F 
ENDBRANCH  25  28
ENDBRANCH  18  21
ENDBRANCH  16  17
ENDBRANCH   5   7
ENDBRANCH   4   5
ENDBRANCH   3   4
ENDBRANCH   2   3
ENDBRANCH   1   2
BRANCH   1  32
ATOM     32  C   UNL A   1      41.908  21.753  25.958  1.00  0.00     0.202 C 
BRANCH  32  33
ATOM     33  C   UNL A   1      43.021  22.513  25.227  1.00  0.00     0.261 C 
BRANCH  33  34
ATOM     34  O   UNL A   1      42.727  23.908  25.047  1.00  0.00    -0.460 OA
BRANCH  34  35
ATOM     35  C   UNL A   1      43.767  24.739  25.314  1.00  0.00     0.338 C 
ATOM     36  O   UNL A   1      44.743  24.945  24.613  1.00  0.00    -0.246 OA
BRANCH  35  37
ATOM     37  C   UNL A   1      43.498  25.515  26.539  1.00  0.00     0.060 A 
ATOM     38  C   UNL A   1      43.039  24.816  27.662  1.00  0.00     0.016 A 
ATOM     39  C   UNL A   1      43.608  26.908  26.565  1.00  0.00     0.016 A 
ATOM     40  C   UNL A   1      42.648  25.511  28.806  1.00  0.00     0.010 A 
ATOM     41  C   UNL A   1      43.207  27.602  27.712  1.00  0.00     0.010 A 
ATOM     42  C   UNL A   1      42.695  26.910  28.824  1.00  0.00    -0.014 A 
BRANCH  42  43
ATOM     43  C   UNL A   1      42.097  27.654  29.960  1.00  0.00     0.031 A 
ATOM     44  C   UNL A   1      40.756  28.312  29.783  1.00  0.00     0.074 A 
ATOM     45  C   UNL A   1      42.744  27.745  31.135  1.00  0.00     0.049 A 
ATOM     46  N   UNL A   1      40.070  29.032  30.633  1.00  0.00    -0.248 NA
ATOM     47  C   UNL A   1      40.103  28.139  28.476  1.00  0.00     0.031 C 
ATOM     48  C   UNL A   1      44.047  27.150  31.429  1.00  0.00     0.029 A 
ATOM     49  N   UNL A   1      42.402  28.397  32.293  1.00  0.00    -0.354 N 
ATOM     50  C   UNL A   1      38.918  29.418  29.958  1.00  0.00     0.074 A 
ATOM     51  C   UNL A   1      39.005  28.865  28.624  1.00  0.00     0.031 C 
ATOM     52  C   UNL A   1      44.407  27.487  32.679  1.00  0.00     0.029 A 
ATOM     53  C   UNL A   1      43.374  28.339  33.264  1.00  0.00     0.049 A 
ATOM     54  H   UNL A   1      41.544  28.863  32.416  1.00  0.00     0.167 HD
ATOM     55  C   UNL A   1      37.873  30.151  30.413  1.00  0.00     0.034 A 
ATOM     56  C   UNL A   1      43.429  28.922  34.478  1.00  0.00     0.034 A 
ATOM     57  C   UNL A   1      37.778  30.681  31.746  1.00  0.00     0.049 A 
ATOM     58  C   UNL A   1      42.267  29.754  34.952  1.00  0.00     0.074 A 
ATOM     59  C   UNL A   1      36.739  31.395  32.315  1.00  0.00     0.029 A 
ATOM     60  N   UNL A   1      38.762  30.567  32.716  1.00  0.00    -0.354 N 
ATOM     61  N   UNL A   1      41.133  30.009  34.346  1.00  0.00    -0.248 NA
ATOM     62  C   UNL A   1      42.378  30.354  36.290  1.00  0.00     0.031 C 
ATOM     63  C   UNL A   1      37.103  31.732  33.623  1.00  0.00     0.029 A 
ATOM     64  C   UNL A   1      38.361  31.206  33.876  1.00  0.00     0.049 A 
ATOM     65  H   UNL A   1      39.620  30.099  32.597  1.00  0.00     0.167 HD
ATOM     66  C   UNL A   1      40.382  30.765  35.241  1.00  0.00     0.074 A 
ATOM     67  C   UNL A   1      41.183  30.912  36.437  1.00  0.00     0.031 C 
ATOM     68  C   UNL A   1      39.145  31.300  35.081  1.00  0.00     0.034 A 
BRANCH  55  69
ATOM     69  C   UNL A   1      36.729  30.396  29.465  1.00  0.00     0.023 A 
ATOM     70  C   UNL A   1      36.142  29.308  28.788  1.00  0.00     0.012 A 
ATOM     71  C   UNL A   1      36.203  31.689  29.284  1.00  0.00     0.148 A 
ATOM     72  C   UNL A   1      35.067  29.507  27.923  1.00  0.00     0.002 A 
ATOM     73  C   UNL A   1      35.105  31.875  28.451  1.00  0.00     0.091 A 
ATOM     74  F   UNL A   1      36.791  32.715  29.917  1.00  0.00    -0.205 F 
ATOM     75  C   UNL A   1      34.543  30.787  27.762  1.00  0.00     0.022 A 
BRANCH  73  76
ATOM     76  S   UNL A   1      34.315  33.473  28.236  1.00  0.00     0.127 S 
ATOM     77  O   UNL A   1      35.280  34.166  27.384  1.00  0.00    -0.237 OA
ATOM     78  O   UNL A   1      33.063  33.114  27.571  1.00  0.00    -0.237 OA
ATOM     79  O   UNL A   1      34.154  34.022  29.575  1.00  0.00    -0.744 OA
ENDBRANCH  73  76
ENDBRANCH  55  69
BRANCH  56  80
ATOM     80  C   UNL A   1      44.619  28.707  35.351  1.00  0.00     0.023 A 
ATOM     81  C   UNL A   1      45.732  29.558  35.229  1.00  0.00     0.012 A 
ATOM     82  C   UNL A   1      44.641  27.679  36.313  1.00  0.00     0.148 A 
ATOM     83  C   UNL A   1      46.859  29.374  36.032  1.00  0.00     0.002 A 
ATOM     84  C   UNL A   1      45.744  27.535  37.147  1.00  0.00     0.091 A 
ATOM     85  F   UNL A   1      43.578  26.866  36.401  1.00  0.00    -0.205 F 
ATOM     86  C   UNL A   1      46.861  28.371  36.997  1.00  0.00     0.022 A 
BRANCH  84  87
ATOM     87  S   UNL A   1      45.775  26.357  38.503  1.00  0.00     0.127 S 
ATOM     88  O   UNL A   1      47.070  26.639  39.115  1.00  0.00    -0.237 OA
ATOM     89  O   UNL A   1      44.615  26.773  39.292  1.00  0.00    -0.237 OA
ATOM     90  O   UNL A   1      45.636  25.045  37.885  1.00  0.00    -0.744 OA
ENDBRANCH  84  87
ENDBRANCH  56  80
BRANCH  68  91
ATOM     91  C   UNL A   1      38.558  32.070  36.236  1.00  0.00     0.023 A 
ATOM     92  C   UNL A   1      38.675  33.473  36.273  1.00  0.00     0.012 A 
ATOM     93  C   UNL A   1      37.822  31.410  37.240  1.00  0.00     0.148 A 
ATOM     94  C   UNL A   1      38.094  34.206  37.307  1.00  0.00     0.002 A 
ATOM     95  C   UNL A   1      37.205  32.151  38.242  1.00  0.00     0.091 A 
ATOM     96  F   UNL A   1      37.737  30.072  37.198  1.00  0.00    -0.205 F 
ATOM     97  C   UNL A   1      37.349  33.548  38.283  1.00  0.00     0.022 A 
BRANCH  95  98
ATOM     98  S   UNL A   1      36.149  31.397  39.486  1.00  0.00     0.127 S 
ATOM     99  O   UNL A   1      35.838  30.109  38.870  1.00  0.00    -0.237 OA
ATOM    100  O   UNL A   1      37.040  31.322  40.645  1.00  0.00    -0.237 OA
ATOM    101  O   UNL A   1      35.020  32.302  39.652  1.00  0.00    -0.744 OA
ENDBRANCH  95  98
ENDBRANCH  68  91
ENDBRANCH  42  43
ENDBRANCH  35  37
ENDBRANCH  34  35
ENDBRANCH  33  34
ENDBRANCH  32  33
ENDBRANCH   1  32
TORSDOF 20
ENDMDL
