MODEL 1
REMARK VINA RESULT:     -11.6      0.000      0.000
REMARK SMILES Cc1cccc(NC(=O)C[C@@H]2CCCCO2)c1C(=O)OCCOCCOC(=O)c1ccc(-c2c3nc(c(-c4cccc(S(=O)(=O)[O-])c4F)c4ccc([nH]4)c(-c4cccc(S(=O)(=O)[O-])c4F)c4nc(c(-c5cccc(S(=O)(=O)[O-])c5F)c5ccc2[nH]5)C=C4)C=C3)cc1
REMARK SMILES IDX 23 1 22 2 21 3 20 4 18 5 19 6 17 7 1 8 2 9 3 10 4 11 6 12
REMARK SMILES IDX 5 13 7 14 8 15 9 17 10 18 11 19 12 20 16 21 13 22 15 23
REMARK SMILES IDX 14 24 24 25 25 26 26 27 27 28 28 29 29 30 30 31 91 32 31 33
REMARK SMILES IDX 90 34 32 35 33 36 34 37 84 38 35 39 89 40 83 41 85 42 36 43
REMARK SMILES IDX 88 44 82 45 81 46 37 48 69 49 49 50 68 51 50 52 53 53 67 54
REMARK SMILES IDX 86 55 51 56 52 57 66 59 87 60 54 61 38 62 39 63 47 64 40 65
REMARK SMILES IDX 42 66 48 67 41 68 43 69 44 70 45 71 46 72 70 73 71 74 79 75
REMARK SMILES IDX 72 76 74 77 80 78 73 79 75 80 76 81 77 82 78 83 55 84 56 85
REMARK SMILES IDX 64 86 57 87 59 88 65 89 58 90 60 91 61 92 62 93 63 94
REMARK H PARENT 7 16 85 47 53 58
REMARK Flexibility Score: inf
ROOT
ATOM      1  O   UNL A   1      34.666  30.250  26.960  1.00  0.00    -0.374 OA
ENDROOT
BRANCH   1   2
ATOM      2  C   UNL A   1      34.431  28.929  27.377  1.00  0.00     0.202 C 
BRANCH   2   3
ATOM      3  C   UNL A   1      33.923  27.974  26.289  1.00  0.00     0.261 C 
BRANCH   3   4
ATOM      4  O   UNL A   1      33.049  27.006  26.826  1.00  0.00    -0.460 OA
BRANCH   4   5
ATOM      5  C   UNL A   1      31.809  27.525  26.935  1.00  0.00     0.340 C 
ATOM      6  O   UNL A   1      31.374  28.166  27.864  1.00  0.00    -0.246 OA
BRANCH   5   7
ATOM      7  C   UNL A   1      31.086  27.347  25.666  1.00  0.00     0.086 A 
ATOM      8  C   UNL A   1      31.418  29.789  24.877  1.00  0.00     0.045 C 
ATOM      9  C   UNL A   1      30.937  28.371  24.698  1.00  0.00    -0.034 A 
ATOM     10  C   UNL A   1      30.201  28.072  23.546  1.00  0.00     0.004 A 
ATOM     11  C   UNL A   1      29.663  26.797  23.357  1.00  0.00     0.002 A 
ATOM     12  C   UNL A   1      30.455  26.087  25.527  1.00  0.00     0.056 A 
ATOM     13  C   UNL A   1      29.791  25.809  24.338  1.00  0.00     0.027 A 
BRANCH  12  14
ATOM     14  N   UNL A   1      30.456  25.191  26.635  1.00  0.00    -0.325 N 
ATOM     15  C   UNL A   1      31.137  24.000  26.757  1.00  0.00     0.227 C 
ATOM     16  H   UNL A   1      29.902  25.454  27.405  1.00  0.00     0.169 HD
ATOM     17  O   UNL A   1      30.665  23.094  27.446  1.00  0.00    -0.275 OA
BRANCH  15  18
ATOM     18  C   UNL A   1      32.491  23.835  26.131  1.00  0.00     0.132 C 
BRANCH  18  19
ATOM     19  C   UNL A   1      33.495  22.895  26.816  1.00  0.00     0.127 C 
ATOM     20  C   UNL A   1      34.914  23.215  26.329  1.00  0.00     0.033 C 
ATOM     21  O   UNL A   1      33.297  21.487  26.705  1.00  0.00    -0.378 OA
ATOM     22  C   UNL A   1      35.106  22.780  24.876  1.00  0.00     0.005 C 
ATOM     23  C   UNL A   1      33.456  20.920  25.417  1.00  0.00     0.160 C 
ATOM     24  C   UNL A   1      34.740  21.314  24.701  1.00  0.00     0.029 C 
ENDBRANCH  18  19
ENDBRANCH  15  18
ENDBRANCH  12  14
ENDBRANCH   5   7
ENDBRANCH   4   5
ENDBRANCH   3   4
ENDBRANCH   2   3
ENDBRANCH   1   2
BRANCH   1  25
ATOM     25  C   UNL A   1      33.910  31.205  27.665  1.00  0.00     0.202 C 
BRANCH  25  26
ATOM     26  C   UNL A   1      34.503  32.589  28.150  1.00  0.00     0.261 C 
BRANCH  26  27
ATOM     27  O   UNL A   1      35.568  32.722  29.221  1.00  0.00    -0.460 OA
BRANCH  27  28
ATOM     28  C   UNL A   1      36.419  32.028  30.063  1.00  0.00     0.338 C 
ATOM     29  O   UNL A   1      36.423  32.279  31.268  1.00  0.00    -0.246 OA
BRANCH  28  30
ATOM     30  C   UNL A   1      37.091  30.734  29.679  1.00  0.00     0.060 A 
ATOM     31  C   UNL A   1      36.958  29.589  30.464  1.00  0.00     0.016 A 
ATOM     32  C   UNL A   1      37.802  30.575  28.497  1.00  0.00     0.016 A 
ATOM     33  C   UNL A   1      37.901  28.547  30.385  1.00  0.00     0.010 A 
ATOM     34  C   UNL A   1      38.809  29.608  28.456  1.00  0.00     0.010 A 
ATOM     35  C   UNL A   1      38.955  28.670  29.494  1.00  0.00    -0.014 A 
BRANCH  35  36
ATOM     36  C   UNL A   1      40.297  28.078  29.699  1.00  0.00     0.031 A 
ATOM     37  C   UNL A   1      40.612  26.726  29.151  1.00  0.00     0.074 A 
ATOM     38  C   UNL A   1      41.350  28.859  30.083  1.00  0.00     0.049 A 
ATOM     39  N   UNL A   1      41.734  26.116  29.338  1.00  0.00    -0.248 NA
ATOM     40  C   UNL A   1      39.666  25.917  28.384  1.00  0.00     0.031 C 
ATOM     41  C   UNL A   1      42.752  28.630  29.707  1.00  0.00     0.029 A 
ATOM     42  N   UNL A   1      41.427  30.028  30.860  1.00  0.00    -0.354 N 
ATOM     43  C   UNL A   1      41.789  25.059  28.461  1.00  0.00     0.074 A 
ATOM     44  C   UNL A   1      40.437  24.893  28.001  1.00  0.00     0.031 C 
ATOM     45  C   UNL A   1      43.548  29.485  30.354  1.00  0.00     0.029 A 
ATOM     46  C   UNL A   1      42.742  30.160  31.341  1.00  0.00     0.049 A 
ATOM     47  H   UNL A   1      40.685  30.651  31.037  1.00  0.00     0.167 HD
ATOM     48  C   UNL A   1      42.997  24.517  28.142  1.00  0.00     0.034 A 
ATOM     49  C   UNL A   1      43.136  30.334  32.633  1.00  0.00     0.034 A 
ATOM     50  C   UNL A   1      44.069  25.056  29.001  1.00  0.00     0.049 A 
ATOM     51  C   UNL A   1      43.921  29.126  33.128  1.00  0.00     0.074 A 
ATOM     52  C   UNL A   1      45.138  25.907  28.790  1.00  0.00     0.029 A 
ATOM     53  N   UNL A   1      43.962  24.909  30.386  1.00  0.00    -0.354 N 
ATOM     54  N   UNL A   1      44.367  28.177  32.345  1.00  0.00    -0.248 NA
ATOM     55  C   UNL A   1      44.232  28.846  34.528  1.00  0.00     0.031 C 
ATOM     56  C   UNL A   1      45.585  26.370  30.066  1.00  0.00     0.029 A 
ATOM     57  C   UNL A   1      44.833  25.758  31.059  1.00  0.00     0.049 A 
ATOM     58  H   UNL A   1      43.348  24.282  30.830  1.00  0.00     0.167 HD
ATOM     59  C   UNL A   1      44.714  27.083  33.084  1.00  0.00     0.074 A 
ATOM     60  C   UNL A   1      44.749  27.605  34.442  1.00  0.00     0.031 C 
ATOM     61  C   UNL A   1      44.826  25.831  32.530  1.00  0.00     0.034 A 
BRANCH  48  62
ATOM     62  C   UNL A   1      43.256  23.561  26.983  1.00  0.00     0.023 A 
ATOM     63  C   UNL A   1      43.918  24.083  25.849  1.00  0.00     0.012 A 
ATOM     64  C   UNL A   1      42.839  22.206  26.887  1.00  0.00     0.148 A 
ATOM     65  C   UNL A   1      44.173  23.311  24.706  1.00  0.00     0.002 A 
ATOM     66  C   UNL A   1      43.165  21.414  25.779  1.00  0.00     0.091 A 
ATOM     67  F   UNL A   1      42.038  21.685  27.821  1.00  0.00    -0.205 F 
ATOM     68  C   UNL A   1      43.819  21.970  24.678  1.00  0.00     0.022 A 
BRANCH  66  69
ATOM     69  S   UNL A   1      42.810  19.644  25.703  1.00  0.00     0.127 S 
ATOM     70  O   UNL A   1      43.735  19.186  24.667  1.00  0.00    -0.237 OA
ATOM     71  O   UNL A   1      43.148  19.198  27.056  1.00  0.00    -0.237 OA
ATOM     72  O   UNL A   1      41.395  19.527  25.371  1.00  0.00    -0.744 OA
ENDBRANCH  66  69
ENDBRANCH  48  62
BRANCH  49  73
ATOM     73  C   UNL A   1      42.274  31.264  33.405  1.00  0.00     0.023 A 
ATOM     74  C   UNL A   1      42.187  32.583  32.894  1.00  0.00     0.012 A 
ATOM     75  C   UNL A   1      41.226  30.769  34.193  1.00  0.00     0.148 A 
ATOM     76  C   UNL A   1      41.014  33.330  33.021  1.00  0.00     0.002 A 
ATOM     77  C   UNL A   1      40.038  31.492  34.257  1.00  0.00     0.091 A 
ATOM     78  F   UNL A   1      41.344  29.534  34.697  1.00  0.00    -0.205 F 
ATOM     79  C   UNL A   1      39.924  32.760  33.661  1.00  0.00     0.022 A 
BRANCH  77  80
ATOM     80  S   UNL A   1      38.487  30.725  34.734  1.00  0.00     0.127 S 
ATOM     81  O   UNL A   1      38.393  29.601  33.810  1.00  0.00    -0.237 OA
ATOM     82  O   UNL A   1      38.793  30.358  36.114  1.00  0.00    -0.237 OA
ATOM     83  O   UNL A   1      37.480  31.763  34.585  1.00  0.00    -0.744 OA
ENDBRANCH  77  80
ENDBRANCH  49  73
BRANCH  61  84
ATOM     84  C   UNL A   1      44.898  24.551  33.353  1.00  0.00     0.023 A 
ATOM     85  C   UNL A   1      43.864  23.591  33.341  1.00  0.00     0.012 A 
ATOM     86  C   UNL A   1      46.071  24.200  34.070  1.00  0.00     0.148 A 
ATOM     87  C   UNL A   1      43.938  22.402  34.075  1.00  0.00     0.002 A 
ATOM     88  C   UNL A   1      46.191  22.957  34.691  1.00  0.00     0.091 A 
ATOM     89  F   UNL A   1      47.078  25.079  34.175  1.00  0.00    -0.205 F 
ATOM     90  C   UNL A   1      45.110  22.074  34.736  1.00  0.00     0.022 A 
BRANCH  88  91
ATOM     91  S   UNL A   1      47.779  22.371  35.299  1.00  0.00     0.127 S 
ATOM     92  O   UNL A   1      48.653  22.622  34.156  1.00  0.00    -0.237 OA
ATOM     93  O   UNL A   1      48.016  23.244  36.450  1.00  0.00    -0.237 OA
ATOM     94  O   UNL A   1      47.554  20.974  35.648  1.00  0.00    -0.744 OA
ENDBRANCH  88  91
ENDBRANCH  61  84
ENDBRANCH  35  36
ENDBRANCH  28  30
ENDBRANCH  27  28
ENDBRANCH  26  27
ENDBRANCH  25  26
ENDBRANCH   1  25
TORSDOF 20
ENDMDL
MODEL 2
REMARK VINA RESULT:     -10.8      2.436      4.184
REMARK SMILES Cc1cccc(NC(=O)C[C@@H]2CCCCO2)c1C(=O)OCCOCCOC(=O)c1ccc(-c2c3nc(c(-c4cccc(S(=O)(=O)[O-])c4F)c4ccc([nH]4)c(-c4cccc(S(=O)(=O)[O-])c4F)c4nc(c(-c5cccc(S(=O)(=O)[O-])c5F)c5ccc2[nH]5)C=C4)C=C3)cc1
REMARK SMILES IDX 23 1 22 2 21 3 20 4 18 5 19 6 17 7 1 8 2 9 3 10 4 11 6 12
REMARK SMILES IDX 5 13 7 14 8 15 9 17 10 18 11 19 12 20 16 21 13 22 15 23
REMARK SMILES IDX 14 24 24 25 25 26 26 27 27 28 28 29 29 30 30 31 91 32 31 33
REMARK SMILES IDX 90 34 32 35 33 36 34 37 84 38 35 39 89 40 83 41 85 42 36 43
REMARK SMILES IDX 88 44 82 45 81 46 37 48 69 49 49 50 68 51 50 52 53 53 67 54
REMARK SMILES IDX 86 55 51 56 52 57 66 59 87 60 54 61 38 62 39 63 47 64 40 65
REMARK SMILES IDX 42 66 48 67 41 68 43 69 44 70 45 71 46 72 70 73 71 74 79 75
REMARK SMILES IDX 72 76 74 77 80 78 73 79 75 80 76 81 77 82 78 83 55 84 56 85
REMARK SMILES IDX 64 86 57 87 59 88 65 89 58 90 60 91 61 92 62 93 63 94
REMARK H PARENT 7 16 85 47 53 58
REMARK Flexibility Score: inf
ROOT
ATOM      1  O   UNL A   1      33.217  28.614  27.617  1.00  0.00    -0.374 OA
ENDROOT
BRANCH   1   2
ATOM      2  C   UNL A   1      32.637  27.587  26.855  1.00  0.00     0.202 C 
BRANCH   2   3
ATOM      3  C   UNL A   1      33.623  26.693  26.092  1.00  0.00     0.261 C 
BRANCH   3   4
ATOM      4  O   UNL A   1      33.180  25.354  26.060  1.00  0.00    -0.460 OA
BRANCH   4   5
ATOM      5  C   UNL A   1      34.115  24.582  25.469  1.00  0.00     0.340 C 
ATOM      6  O   UNL A   1      35.308  24.782  25.449  1.00  0.00    -0.246 OA
BRANCH   5   7
ATOM      7  C   UNL A   1      33.495  23.341  24.981  1.00  0.00     0.086 A 
ATOM      8  C   UNL A   1      33.783  22.058  27.210  1.00  0.00     0.045 C 
ATOM      9  C   UNL A   1      33.302  22.191  25.786  1.00  0.00    -0.034 A 
ATOM     10  C   UNL A   1      32.722  21.068  25.187  1.00  0.00     0.004 A 
ATOM     11  C   UNL A   1      32.325  21.104  23.848  1.00  0.00     0.002 A 
ATOM     12  C   UNL A   1      33.190  23.347  23.599  1.00  0.00     0.056 A 
ATOM     13  C   UNL A   1      32.553  22.235  23.059  1.00  0.00     0.027 A 
BRANCH  12  14
ATOM     14  N   UNL A   1      33.617  24.450  22.804  1.00  0.00    -0.325 N 
ATOM     15  C   UNL A   1      32.841  25.284  22.032  1.00  0.00     0.227 C 
ATOM     16  H   UNL A   1      34.584  24.636  22.806  1.00  0.00     0.169 HD
ATOM     17  O   UNL A   1      33.317  25.797  21.018  1.00  0.00    -0.275 OA
BRANCH  15  18
ATOM     18  C   UNL A   1      31.452  25.645  22.469  1.00  0.00     0.132 C 
BRANCH  18  19
ATOM     19  C   UNL A   1      31.291  26.678  23.594  1.00  0.00     0.127 C 
ATOM     20  C   UNL A   1      30.103  26.291  24.483  1.00  0.00     0.033 C 
ATOM     21  O   UNL A   1      31.150  28.054  23.242  1.00  0.00    -0.378 OA
ATOM     22  C   UNL A   1      28.778  26.503  23.750  1.00  0.00     0.005 C 
ATOM     23  C   UNL A   1      29.961  28.421  22.568  1.00  0.00     0.160 C 
ATOM     24  C   UNL A   1      28.679  27.927  23.221  1.00  0.00     0.029 C 
ENDBRANCH  18  19
ENDBRANCH  15  18
ENDBRANCH  12  14
ENDBRANCH   5   7
ENDBRANCH   4   5
ENDBRANCH   3   4
ENDBRANCH   2   3
ENDBRANCH   1   2
BRANCH   1  25
ATOM     25  C   UNL A   1      34.473  29.030  27.137  1.00  0.00     0.202 C 
BRANCH  25  26
ATOM     26  C   UNL A   1      34.988  30.522  27.245  1.00  0.00     0.261 C 
BRANCH  26  27
ATOM     27  O   UNL A   1      34.310  31.590  28.080  1.00  0.00    -0.460 OA
BRANCH  27  28
ATOM     28  C   UNL A   1      34.508  32.597  29.008  1.00  0.00     0.338 C 
ATOM     29  O   UNL A   1      33.572  33.334  29.319  1.00  0.00    -0.246 OA
BRANCH  28  30
ATOM     30  C   UNL A   1      35.690  32.640  29.943  1.00  0.00     0.060 A 
ATOM     31  C   UNL A   1      36.792  33.455  29.681  1.00  0.00     0.016 A 
ATOM     32  C   UNL A   1      35.725  31.951  31.148  1.00  0.00     0.016 A 
ATOM     33  C   UNL A   1      38.045  33.182  30.261  1.00  0.00     0.010 A 
ATOM     34  C   UNL A   1      36.970  31.591  31.669  1.00  0.00     0.010 A 
ATOM     35  C   UNL A   1      38.160  32.100  31.118  1.00  0.00    -0.014 A 
BRANCH  35  36
ATOM     36  C   UNL A   1      39.394  31.299  31.295  1.00  0.00     0.031 A 
ATOM     37  C   UNL A   1      39.603  30.059  30.492  1.00  0.00     0.074 A 
ATOM     38  C   UNL A   1      40.484  31.831  31.923  1.00  0.00     0.049 A 
ATOM     39  N   UNL A   1      40.619  29.274  30.631  1.00  0.00    -0.248 NA
ATOM     40  C   UNL A   1      38.657  29.564  29.495  1.00  0.00     0.031 C 
ATOM     41  C   UNL A   1      41.881  31.492  31.620  1.00  0.00     0.029 A 
ATOM     42  N   UNL A   1      40.614  32.793  32.940  1.00  0.00    -0.354 N 
ATOM     43  C   UNL A   1      40.643  28.423  29.551  1.00  0.00     0.074 A 
ATOM     44  C   UNL A   1      39.338  28.545  28.959  1.00  0.00     0.031 C 
ATOM     45  C   UNL A   1      42.698  32.077  32.499  1.00  0.00     0.029 A 
ATOM     46  C   UNL A   1      41.876  32.639  33.543  1.00  0.00     0.049 A 
ATOM     47  H   UNL A   1      39.936  33.462  33.189  1.00  0.00     0.167 HD
ATOM     48  C   UNL A   1      41.805  27.797  29.219  1.00  0.00     0.034 A 
ATOM     49  C   UNL A   1      42.146  32.487  34.869  1.00  0.00     0.034 A 
ATOM     50  C   UNL A   1      42.834  27.994  30.259  1.00  0.00     0.049 A 
ATOM     51  C   UNL A   1      42.726  31.106  35.149  1.00  0.00     0.074 A 
ATOM     52  C   UNL A   1      44.013  28.713  30.324  1.00  0.00     0.029 A 
ATOM     53  N   UNL A   1      42.563  27.580  31.565  1.00  0.00    -0.354 N 
ATOM     54  N   UNL A   1      43.138  30.286  34.216  1.00  0.00    -0.248 NA
ATOM     55  C   UNL A   1      42.848  30.504  36.474  1.00  0.00     0.031 C 
ATOM     56  C   UNL A   1      44.372  28.837  31.702  1.00  0.00     0.029 A 
ATOM     57  C   UNL A   1      43.450  28.144  32.475  1.00  0.00     0.049 A 
ATOM     58  H   UNL A   1      41.835  26.966  31.811  1.00  0.00     0.167 HD
ATOM     59  C   UNL A   1      43.271  29.026  34.723  1.00  0.00     0.074 A 
ATOM     60  C   UNL A   1      43.221  29.248  36.161  1.00  0.00     0.031 C 
ATOM     61  C   UNL A   1      43.294  27.912  33.920  1.00  0.00     0.034 A 
BRANCH  48  62
ATOM     62  C   UNL A   1      42.073  27.074  27.904  1.00  0.00     0.023 A 
ATOM     63  C   UNL A   1      42.253  27.871  26.752  1.00  0.00     0.012 A 
ATOM     64  C   UNL A   1      42.093  25.669  27.693  1.00  0.00     0.148 A 
ATOM     65  C   UNL A   1      42.463  27.319  25.480  1.00  0.00     0.002 A 
ATOM     66  C   UNL A   1      42.382  25.118  26.438  1.00  0.00     0.091 A 
ATOM     67  F   UNL A   1      41.738  24.839  28.679  1.00  0.00    -0.205 F 
ATOM     68  C   UNL A   1      42.552  25.943  25.325  1.00  0.00     0.022 A 
BRANCH  66  69
ATOM     69  S   UNL A   1      42.594  23.344  26.173  1.00  0.00     0.127 S 
ATOM     70  O   UNL A   1      43.134  23.295  24.814  1.00  0.00    -0.237 OA
ATOM     71  O   UNL A   1      43.553  22.982  27.218  1.00  0.00    -0.237 OA
ATOM     72  O   UNL A   1      41.274  22.747  26.341  1.00  0.00    -0.744 OA
ENDBRANCH  66  69
ENDBRANCH  48  62
BRANCH  49  73
ATOM     73  C   UNL A   1      41.322  33.348  35.754  1.00  0.00     0.023 A 
ATOM     74  C   UNL A   1      41.320  34.729  35.432  1.00  0.00     0.012 A 
ATOM     75  C   UNL A   1      40.233  32.809  36.451  1.00  0.00     0.148 A 
ATOM     76  C   UNL A   1      40.187  35.517  35.649  1.00  0.00     0.002 A 
ATOM     77  C   UNL A   1      39.085  33.584  36.602  1.00  0.00     0.091 A 
ATOM     78  F   UNL A   1      40.271  31.511  36.776  1.00  0.00    -0.205 F 
ATOM     79  C   UNL A   1      39.055  34.928  36.189  1.00  0.00     0.022 A 
BRANCH  77  80
ATOM     80  S   UNL A   1      37.485  32.849  36.946  1.00  0.00     0.127 S 
ATOM     81  O   UNL A   1      37.506  31.645  36.125  1.00  0.00    -0.237 OA
ATOM     82  O   UNL A   1      37.613  32.612  38.382  1.00  0.00    -0.237 OA
ATOM     83  O   UNL A   1      36.508  33.860  36.577  1.00  0.00    -0.744 OA
ENDBRANCH  77  80
ENDBRANCH  49  73
BRANCH  61  84
ATOM     84  C   UNL A   1      43.125  26.493  34.448  1.00  0.00     0.023 A 
ATOM     85  C   UNL A   1      41.929  26.055  35.055  1.00  0.00     0.012 A 
ATOM     86  C   UNL A   1      44.117  25.503  34.232  1.00  0.00     0.148 A 
ATOM     87  C   UNL A   1      41.760  24.745  35.517  1.00  0.00     0.002 A 
ATOM     88  C   UNL A   1      43.891  24.170  34.574  1.00  0.00     0.091 A 
ATOM     89  F   UNL A   1      45.303  25.848  33.708  1.00  0.00    -0.205 F 
ATOM     90  C   UNL A   1      42.735  23.795  35.260  1.00  0.00     0.022 A 
BRANCH  88  91
ATOM     91  S   UNL A   1      44.986  22.863  33.999  1.00  0.00     0.127 S 
ATOM     92  O   UNL A   1      44.827  22.951  32.549  1.00  0.00    -0.237 OA
ATOM     93  O   UNL A   1      46.290  23.305  34.497  1.00  0.00    -0.237 OA
ATOM     94  O   UNL A   1      44.487  21.650  34.632  1.00  0.00    -0.744 OA
ENDBRANCH  88  91
ENDBRANCH  61  84
ENDBRANCH  35  36
ENDBRANCH  28  30
ENDBRANCH  27  28
ENDBRANCH  26  27
ENDBRANCH  25  26
ENDBRANCH   1  25
TORSDOF 20
ENDMDL
MODEL 3
REMARK VINA RESULT:     -10.7      4.099      9.894
REMARK SMILES Cc1cccc(NC(=O)C[C@@H]2CCCCO2)c1C(=O)OCCOCCOC(=O)c1ccc(-c2c3nc(c(-c4cccc(S(=O)(=O)[O-])c4F)c4ccc([nH]4)c(-c4cccc(S(=O)(=O)[O-])c4F)c4nc(c(-c5cccc(S(=O)(=O)[O-])c5F)c5ccc2[nH]5)C=C4)C=C3)cc1
REMARK SMILES IDX 23 1 22 2 21 3 20 4 18 5 19 6 17 7 1 8 2 9 3 10 4 11 6 12
REMARK SMILES IDX 5 13 7 14 8 15 9 17 10 18 11 19 12 20 16 21 13 22 15 23
REMARK SMILES IDX 14 24 24 25 25 26 26 27 27 28 28 29 29 30 30 31 91 32 31 33
REMARK SMILES IDX 90 34 32 35 33 36 34 37 84 38 35 39 89 40 83 41 85 42 36 43
REMARK SMILES IDX 88 44 82 45 81 46 37 48 69 49 49 50 68 51 50 52 53 53 67 54
REMARK SMILES IDX 86 55 51 56 52 57 66 59 87 60 54 61 38 62 39 63 47 64 40 65
REMARK SMILES IDX 42 66 48 67 41 68 43 69 44 70 45 71 46 72 70 73 71 74 79 75
REMARK SMILES IDX 72 76 74 77 80 78 73 79 75 80 76 81 77 82 78 83 55 84 56 85
REMARK SMILES IDX 64 86 57 87 59 88 65 89 58 90 60 91 61 92 62 93 63 94
REMARK H PARENT 7 16 85 47 53 58
REMARK Flexibility Score: inf
ROOT
ATOM      1  O   UNL A   1      38.028  20.303  25.138  1.00  0.00    -0.374 OA
ENDROOT
BRANCH   1   2
ATOM      2  C   UNL A   1      37.318  21.507  25.272  1.00  0.00     0.202 C 
BRANCH   2   3
ATOM      3  C   UNL A   1      36.669  22.037  23.987  1.00  0.00     0.261 C 
BRANCH   3   4
ATOM      4  O   UNL A   1      35.945  23.223  24.231  1.00  0.00    -0.460 OA
BRANCH   4   5
ATOM      5  C   UNL A   1      34.843  22.940  24.955  1.00  0.00     0.340 C 
ATOM      6  O   UNL A   1      34.611  23.301  26.086  1.00  0.00    -0.246 OA
BRANCH   5   7
ATOM      7  C   UNL A   1      33.857  22.254  24.106  1.00  0.00     0.086 A 
ATOM      8  C   UNL A   1      34.102  19.965  25.290  1.00  0.00     0.045 C 
ATOM      9  C   UNL A   1      33.482  20.898  24.279  1.00  0.00    -0.034 A 
ATOM     10  C   UNL A   1      32.550  20.363  23.383  1.00  0.00     0.004 A 
ATOM     11  C   UNL A   1      31.996  21.157  22.376  1.00  0.00     0.002 A 
ATOM     12  C   UNL A   1      33.377  23.031  23.025  1.00  0.00     0.056 A 
ATOM     13  C   UNL A   1      32.404  22.483  22.198  1.00  0.00     0.027 A 
BRANCH  12  14
ATOM     14  N   UNL A   1      33.966  24.305  22.778  1.00  0.00    -0.325 N 
ATOM     15  C   UNL A   1      33.332  25.472  22.416  1.00  0.00     0.227 C 
ATOM     16  H   UNL A   1      34.944  24.356  22.878  1.00  0.00     0.169 HD
ATOM     17  O   UNL A   1      33.925  26.300  21.722  1.00  0.00    -0.275 OA
BRANCH  15  18
ATOM     18  C   UNL A   1      31.959  25.781  22.936  1.00  0.00     0.132 C 
BRANCH  18  19
ATOM     19  C   UNL A   1      31.841  26.654  24.195  1.00  0.00     0.127 C 
ATOM     20  C   UNL A   1      32.437  25.909  25.396  1.00  0.00     0.033 C 
ATOM     21  O   UNL A   1      30.553  27.139  24.570  1.00  0.00    -0.378 OA
ATOM     22  C   UNL A   1      31.546  24.739  25.812  1.00  0.00     0.005 C 
ATOM     23  C   UNL A   1      29.609  26.175  25.000  1.00  0.00     0.160 C 
ATOM     24  C   UNL A   1      30.120  25.210  26.060  1.00  0.00     0.029 C 
ENDBRANCH  18  19
ENDBRANCH  15  18
ENDBRANCH  12  14
ENDBRANCH   5   7
ENDBRANCH   4   5
ENDBRANCH   3   4
ENDBRANCH   2   3
ENDBRANCH   1   2
BRANCH   1  25
ATOM     25  C   UNL A   1      39.328  20.353  25.675  1.00  0.00     0.202 C 
BRANCH  25  26
ATOM     26  C   UNL A   1      39.853  21.560  26.553  1.00  0.00     0.261 C 
BRANCH  26  27
ATOM     27  O   UNL A   1      41.151  22.296  26.285  1.00  0.00    -0.460 OA
BRANCH  27  28
ATOM     28  C   UNL A   1      41.771  23.534  26.279  1.00  0.00     0.338 C 
ATOM     29  O   UNL A   1      42.865  23.666  25.729  1.00  0.00    -0.246 OA
BRANCH  28  30
ATOM     30  C   UNL A   1      41.049  24.822  26.580  1.00  0.00     0.060 A 
ATOM     31  C   UNL A   1      41.340  25.995  25.883  1.00  0.00     0.016 A 
ATOM     32  C   UNL A   1      40.007  24.907  27.493  1.00  0.00     0.016 A 
ATOM     33  C   UNL A   1      41.029  27.254  26.430  1.00  0.00     0.010 A 
ATOM     34  C   UNL A   1      39.768  26.137  28.112  1.00  0.00     0.010 A 
ATOM     35  C   UNL A   1      40.407  27.308  27.666  1.00  0.00    -0.014 A 
BRANCH  35  36
ATOM     36  C   UNL A   1      40.578  28.409  28.643  1.00  0.00     0.031 A 
ATOM     37  C   UNL A   1      39.590  29.526  28.694  1.00  0.00     0.074 A 
ATOM     38  C   UNL A   1      41.420  28.267  29.709  1.00  0.00     0.049 A 
ATOM     39  N   UNL A   1      39.700  30.551  29.472  1.00  0.00    -0.248 NA
ATOM     40  C   UNL A   1      38.412  29.612  27.834  1.00  0.00     0.031 C 
ATOM     41  C   UNL A   1      41.228  28.893  31.024  1.00  0.00     0.029 A 
ATOM     42  N   UNL A   1      42.606  27.534  29.887  1.00  0.00    -0.354 N 
ATOM     43  C   UNL A   1      38.492  31.207  29.477  1.00  0.00     0.074 A 
ATOM     44  C   UNL A   1      37.782  30.675  28.345  1.00  0.00     0.031 C 
ATOM     45  C   UNL A   1      42.292  28.671  31.800  1.00  0.00     0.029 A 
ATOM     46  C   UNL A   1      43.316  28.086  30.969  1.00  0.00     0.049 A 
ATOM     47  H   UNL A   1      42.892  26.762  29.346  1.00  0.00     0.167 HD
ATOM     48  C   UNL A   1      38.191  32.045  30.506  1.00  0.00     0.034 A 
ATOM     49  C   UNL A   1      44.613  28.501  30.981  1.00  0.00     0.034 A 
ATOM     50  C   UNL A   1      39.365  32.271  31.372  1.00  0.00     0.049 A 
ATOM     51  C   UNL A   1      44.699  30.009  31.182  1.00  0.00     0.074 A 
ATOM     52  C   UNL A   1      39.703  31.887  32.657  1.00  0.00     0.029 A 
ATOM     53  N   UNL A   1      40.529  32.796  30.808  1.00  0.00    -0.354 N 
ATOM     54  N   UNL A   1      43.686  30.753  31.544  1.00  0.00    -0.248 NA
ATOM     55  C   UNL A   1      45.894  30.816  30.952  1.00  0.00     0.031 C 
ATOM     56  C   UNL A   1      41.113  32.066  32.808  1.00  0.00     0.029 A 
ATOM     57  C   UNL A   1      41.627  32.617  31.642  1.00  0.00     0.049 A 
ATOM     58  H   UNL A   1      40.568  33.240  29.931  1.00  0.00     0.167 HD
ATOM     59  C   UNL A   1      43.963  32.069  31.307  1.00  0.00     0.074 A 
ATOM     60  C   UNL A   1      45.400  32.063  31.078  1.00  0.00     0.031 C 
ATOM     61  C   UNL A   1      42.975  33.019  31.207  1.00  0.00     0.034 A 
BRANCH  48  62
ATOM     62  C   UNL A   1      36.807  32.604  30.812  1.00  0.00     0.023 A 
ATOM     63  C   UNL A   1      36.211  32.225  32.036  1.00  0.00     0.012 A 
ATOM     64  C   UNL A   1      36.009  33.417  29.962  1.00  0.00     0.148 A 
ATOM     65  C   UNL A   1      34.924  32.642  32.407  1.00  0.00     0.002 A 
ATOM     66  C   UNL A   1      34.758  33.898  30.367  1.00  0.00     0.091 A 
ATOM     67  F   UNL A   1      36.403  33.661  28.708  1.00  0.00    -0.205 F 
ATOM     68  C   UNL A   1      34.206  33.498  31.585  1.00  0.00     0.022 A 
BRANCH  66  69
ATOM     69  S   UNL A   1      33.799  35.076  29.390  1.00  0.00     0.127 S 
ATOM     70  O   UNL A   1      32.562  34.337  29.137  1.00  0.00    -0.237 OA
ATOM     71  O   UNL A   1      33.651  36.203  30.314  1.00  0.00    -0.237 OA
ATOM     72  O   UNL A   1      34.601  35.374  28.209  1.00  0.00    -0.744 OA
ENDBRANCH  66  69
ENDBRANCH  48  62
BRANCH  49  73
ATOM     73  C   UNL A   1      45.538  27.606  30.241  1.00  0.00     0.023 A 
ATOM     74  C   UNL A   1      45.670  26.295  30.765  1.00  0.00     0.012 A 
ATOM     75  C   UNL A   1      45.797  27.825  28.881  1.00  0.00     0.148 A 
ATOM     76  C   UNL A   1      45.890  25.202  29.925  1.00  0.00     0.002 A 
ATOM     77  C   UNL A   1      45.948  26.723  28.043  1.00  0.00     0.091 A 
ATOM     78  F   UNL A   1      45.702  29.076  28.414  1.00  0.00    -0.205 F 
ATOM     79  C   UNL A   1      45.979  25.415  28.558  1.00  0.00     0.022 A 
BRANCH  77  80
ATOM     80  S   UNL A   1      45.717  26.845  26.268  1.00  0.00     0.127 S 
ATOM     81  O   UNL A   1      45.367  25.479  25.900  1.00  0.00    -0.237 OA
ATOM     82  O   UNL A   1      44.609  27.795  26.216  1.00  0.00    -0.237 OA
ATOM     83  O   UNL A   1      46.979  27.346  25.747  1.00  0.00    -0.744 OA
ENDBRANCH  77  80
ENDBRANCH  49  73
BRANCH  61  84
ATOM     84  C   UNL A   1      43.206  34.414  30.641  1.00  0.00     0.023 A 
ATOM     85  C   UNL A   1      43.455  35.529  31.470  1.00  0.00     0.012 A 
ATOM     86  C   UNL A   1      43.315  34.635  29.245  1.00  0.00     0.148 A 
ATOM     87  C   UNL A   1      43.694  36.807  30.953  1.00  0.00     0.002 A 
ATOM     88  C   UNL A   1      43.684  35.881  28.739  1.00  0.00     0.091 A 
ATOM     89  F   UNL A   1      43.042  33.640  28.388  1.00  0.00    -0.205 F 
ATOM     90  C   UNL A   1      43.828  36.981  29.586  1.00  0.00     0.022 A 
BRANCH  88  91
ATOM     91  S   UNL A   1      44.158  36.082  27.015  1.00  0.00     0.127 S 
ATOM     92  O   UNL A   1      45.064  34.954  26.815  1.00  0.00    -0.237 OA
ATOM     93  O   UNL A   1      42.874  35.962  26.321  1.00  0.00    -0.237 OA
ATOM     94  O   UNL A   1      44.752  37.410  26.942  1.00  0.00    -0.744 OA
ENDBRANCH  88  91
ENDBRANCH  61  84
ENDBRANCH  35  36
ENDBRANCH  28  30
ENDBRANCH  27  28
ENDBRANCH  26  27
ENDBRANCH  25  26
ENDBRANCH   1  25
TORSDOF 20
ENDMDL
