MODEL 1
REMARK VINA RESULT:     -11.9      0.000      0.000
REMARK SMILES [NH3+]Cc1ccc(C(=O)N2[C@@H](C(=O)OCCOCCOC(=O)c3ccc(-c4c5nc(c(-c6cccc(S(=O)(=O)[O-])c6F)c6ccc([nH]6)c(-c6cccc(S(=O)(=O)[O-])c6F)c6nc(c(-c7cccc(S(=O)(=O)[O-])c7F)c7ccc4[nH]7)C=C6)C=C5)cc3)C[C@H]3CCCC[C@@H]32)o1
REMARK SMILES IDX 15 1 14 2 13 3 11 4 12 5 10 6 9 7 91 8 85 9 86 10 90 11
REMARK SMILES IDX 87 12 89 13 88 14 7 15 8 16 6 17 3 18 4 19 92 20 5 21 2 22
REMARK SMILES IDX 1 23 16 27 17 28 18 29 19 30 20 31 21 32 22 33 23 34 84 35
REMARK SMILES IDX 24 36 83 37 25 38 26 39 27 40 77 41 28 42 82 43 76 44 78 45
REMARK SMILES IDX 29 46 81 47 75 48 74 49 30 51 62 52 42 53 61 54 43 55 46 56
REMARK SMILES IDX 60 57 79 58 44 59 45 60 59 62 80 63 47 64 31 65 32 66 40 67
REMARK SMILES IDX 33 68 35 69 41 70 34 71 36 72 37 73 38 74 39 75 63 76 64 77
REMARK SMILES IDX 72 78 65 79 67 80 73 81 66 82 68 83 69 84 70 85 71 86 48 87
REMARK SMILES IDX 49 88 57 89 50 90 52 91 58 92 51 93 53 94 54 95 55 96 56 97
REMARK H PARENT 1 24 1 25 1 26 78 50 46 61
REMARK Flexibility Score: inf
ROOT
ATOM      1  C   UNL A   1      32.648  27.767  23.960  1.00  0.00     0.202 C 
ENDROOT
BRANCH   1   2
ATOM      2  C   UNL A   1      31.861  26.828  24.878  1.00  0.00     0.261 C 
BRANCH   2   3
ATOM      3  O   UNL A   1      31.677  25.528  24.299  1.00  0.00    -0.462 OA
BRANCH   3   4
ATOM      4  C   UNL A   1      32.537  24.582  24.769  1.00  0.00     0.328 C 
ATOM      5  O   UNL A   1      33.147  24.667  25.829  1.00  0.00    -0.250 OA
BRANCH   4   6
ATOM      6  C   UNL A   1      32.681  23.410  23.769  1.00  0.00     0.196 C 
ATOM      7  N   UNL A   1      32.979  22.141  24.457  1.00  0.00    -0.319 N 
ATOM      8  C   UNL A   1      34.369  22.142  24.818  1.00  0.00     0.089 C 
ATOM      9  C   UNL A   1      33.963  23.685  22.967  1.00  0.00     0.043 C 
ATOM     10  C   UNL A   1      34.974  22.661  23.509  1.00  0.00     0.014 C 
ATOM     11  C   UNL A   1      35.072  20.854  25.216  1.00  0.00     0.025 C 
ATOM     12  C   UNL A   1      36.395  23.121  23.758  1.00  0.00     0.006 C 
ATOM     13  C   UNL A   1      36.560  21.174  25.440  1.00  0.00     0.002 C 
ATOM     14  C   UNL A   1      37.215  21.925  24.266  1.00  0.00     0.000 C 
BRANCH   7  15
ATOM     15  C   UNL A   1      32.060  21.252  24.964  1.00  0.00     0.290 C 
ATOM     16  O   UNL A   1      31.273  21.577  25.852  1.00  0.00    -0.265 OA
BRANCH  15  17
ATOM     17  C   UNL A   1      32.248  19.877  24.519  1.00  0.00     0.192 A 
ATOM     18  C   UNL A   1      32.701  17.733  24.834  1.00  0.00     0.159 A 
ATOM     19  C   UNL A   1      32.783  17.949  23.477  1.00  0.00     0.052 A 
ATOM     20  O   UNL A   1      32.340  18.888  25.469  1.00  0.00    -0.450 OA
ATOM     21  C   UNL A   1      32.498  19.320  23.275  1.00  0.00     0.057 A 
BRANCH  18  22
ATOM     22  C   UNL A   1      32.963  16.545  25.688  1.00  0.00     0.335 C 
BRANCH  22  23
ATOM     23  N   UNL A   1      32.299  15.355  25.167  1.00  0.00    -0.351 N 
ATOM     24  H   UNL A   1      32.114  15.477  24.171  1.00  0.00     0.344 HD
ATOM     25  H   UNL A   1      31.418  15.214  25.662  1.00  0.00     0.344 HD
ATOM     26  H   UNL A   1      32.900  14.542  25.304  1.00  0.00     0.344 HD
ENDBRANCH  22  23
ENDBRANCH  18  22
ENDBRANCH  15  17
ENDBRANCH   7  15
ENDBRANCH   4   6
ENDBRANCH   3   4
ENDBRANCH   2   3
ENDBRANCH   1   2
BRANCH   1  27
ATOM     27  O   UNL A   1      32.424  29.168  24.075  1.00  0.00    -0.374 OA
BRANCH  27  28
ATOM     28  C   UNL A   1      31.410  29.624  24.970  1.00  0.00     0.202 C 
BRANCH  28  29
ATOM     29  C   UNL A   1      31.832  30.429  26.207  1.00  0.00     0.261 C 
BRANCH  29  30
ATOM     30  O   UNL A   1      33.251  30.425  26.434  1.00  0.00    -0.460 OA
BRANCH  30  31
ATOM     31  C   UNL A   1      33.701  31.414  27.243  1.00  0.00     0.338 C 
ATOM     32  O   UNL A   1      33.073  32.392  27.638  1.00  0.00    -0.246 OA
BRANCH  31  33
ATOM     33  C   UNL A   1      35.030  31.066  27.769  1.00  0.00     0.060 A 
ATOM     34  C   UNL A   1      35.274  29.726  28.107  1.00  0.00     0.016 A 
ATOM     35  C   UNL A   1      36.006  32.040  27.976  1.00  0.00     0.016 A 
ATOM     36  C   UNL A   1      36.494  29.358  28.669  1.00  0.00     0.010 A 
ATOM     37  C   UNL A   1      37.221  31.672  28.558  1.00  0.00     0.010 A 
ATOM     38  C   UNL A   1      37.463  30.335  28.924  1.00  0.00    -0.014 A 
BRANCH  38  39
ATOM     39  C   UNL A   1      38.699  29.984  29.660  1.00  0.00     0.031 A 
ATOM     40  C   UNL A   1      39.634  28.965  29.079  1.00  0.00     0.074 A 
ATOM     41  C   UNL A   1      38.961  30.550  30.851  1.00  0.00     0.049 A 
ATOM     42  N   UNL A   1      40.725  28.459  29.589  1.00  0.00    -0.248 NA
ATOM     43  C   UNL A   1      39.291  28.446  27.745  1.00  0.00     0.031 C 
ATOM     44  C   UNL A   1      38.136  31.566  31.501  1.00  0.00     0.029 A 
ATOM     45  N   UNL A   1      39.982  30.323  31.738  1.00  0.00    -0.354 N 
ATOM     46  C   UNL A   1      41.189  27.541  28.655  1.00  0.00     0.074 A 
ATOM     47  C   UNL A   1      40.253  27.554  27.550  1.00  0.00     0.031 C 
ATOM     48  C   UNL A   1      38.669  31.855  32.700  1.00  0.00     0.029 A 
ATOM     49  C   UNL A   1      39.849  31.021  32.914  1.00  0.00     0.049 A 
ATOM     50  H   UNL A   1      40.737  29.719  31.550  1.00  0.00     0.167 HD
ATOM     51  C   UNL A   1      42.299  26.768  28.707  1.00  0.00     0.034 A 
ATOM     52  C   UNL A   1      40.579  30.968  34.046  1.00  0.00     0.034 A 
ATOM     53  C   UNL A   1      43.225  26.764  29.806  1.00  0.00     0.049 A 
ATOM     54  C   UNL A   1      41.765  30.041  34.112  1.00  0.00     0.074 A 
ATOM     55  C   UNL A   1      44.409  26.060  29.933  1.00  0.00     0.029 A 
ATOM     56  N   UNL A   1      43.059  27.480  30.983  1.00  0.00    -0.354 N 
ATOM     57  N   UNL A   1      42.262  29.269  33.176  1.00  0.00    -0.248 NA
ATOM     58  C   UNL A   1      42.497  29.990  35.385  1.00  0.00     0.031 C 
ATOM     59  C   UNL A   1      44.940  26.323  31.202  1.00  0.00     0.029 A 
ATOM     60  C   UNL A   1      44.100  27.210  31.856  1.00  0.00     0.049 A 
ATOM     61  H   UNL A   1      42.309  28.091  31.170  1.00  0.00     0.167 HD
ATOM     62  C   UNL A   1      43.378  28.658  33.737  1.00  0.00     0.074 A 
ATOM     63  C   UNL A   1      43.495  29.166  35.089  1.00  0.00     0.031 C 
ATOM     64  C   UNL A   1      44.221  27.748  33.188  1.00  0.00     0.034 A 
BRANCH  51  65
ATOM     65  C   UNL A   1      42.572  25.872  27.528  1.00  0.00     0.023 A 
ATOM     66  C   UNL A   1      43.334  26.355  26.444  1.00  0.00     0.012 A 
ATOM     67  C   UNL A   1      42.092  24.547  27.497  1.00  0.00     0.148 A 
ATOM     68  C   UNL A   1      43.579  25.551  25.332  1.00  0.00     0.002 A 
ATOM     69  C   UNL A   1      42.376  23.737  26.404  1.00  0.00     0.091 A 
ATOM     70  F   UNL A   1      41.346  24.113  28.522  1.00  0.00    -0.205 F 
ATOM     71  C   UNL A   1      43.108  24.241  25.315  1.00  0.00     0.022 A 
BRANCH  69  72
ATOM     72  S   UNL A   1      41.870  22.016  26.325  1.00  0.00     0.127 S 
ATOM     73  O   UNL A   1      42.621  21.539  25.166  1.00  0.00    -0.237 OA
ATOM     74  O   UNL A   1      42.338  21.496  27.612  1.00  0.00    -0.237 OA
ATOM     75  O   UNL A   1      40.421  22.036  26.175  1.00  0.00    -0.744 OA
ENDBRANCH  69  72
ENDBRANCH  51  65
BRANCH  52  76
ATOM     76  C   UNL A   1      40.220  31.844  35.196  1.00  0.00     0.023 A 
ATOM     77  C   UNL A   1      40.834  33.105  35.318  1.00  0.00     0.012 A 
ATOM     78  C   UNL A   1      39.244  31.459  36.136  1.00  0.00     0.148 A 
ATOM     79  C   UNL A   1      40.493  33.963  36.364  1.00  0.00     0.002 A 
ATOM     80  C   UNL A   1      38.870  32.340  37.144  1.00  0.00     0.091 A 
ATOM     81  F   UNL A   1      38.683  30.249  36.010  1.00  0.00    -0.205 F 
ATOM     82  C   UNL A   1      39.504  33.586  37.270  1.00  0.00     0.022 A 
BRANCH  80  83
ATOM     83  S   UNL A   1      37.518  31.997  38.277  1.00  0.00     0.127 S 
ATOM     84  O   UNL A   1      38.118  32.320  39.569  1.00  0.00    -0.237 OA
ATOM     85  O   UNL A   1      36.497  32.940  37.817  1.00  0.00    -0.237 OA
ATOM     86  O   UNL A   1      37.176  30.596  38.076  1.00  0.00    -0.744 OA
ENDBRANCH  80  83
ENDBRANCH  52  76
BRANCH  64  87
ATOM     87  C   UNL A   1      45.353  27.238  34.042  1.00  0.00     0.023 A 
ATOM     88  C   UNL A   1      46.582  27.929  34.052  1.00  0.00     0.012 A 
ATOM     89  C   UNL A   1      45.175  26.133  34.900  1.00  0.00     0.148 A 
ATOM     90  C   UNL A   1      47.622  27.516  34.883  1.00  0.00     0.002 A 
ATOM     91  C   UNL A   1      46.200  25.756  35.760  1.00  0.00     0.091 A 
ATOM     92  F   UNL A   1      44.004  25.482  34.865  1.00  0.00    -0.205 F 
ATOM     93  C   UNL A   1      47.427  26.439  35.744  1.00  0.00     0.022 A 
BRANCH  91  94
ATOM     94  S   UNL A   1      46.016  24.440  36.969  1.00  0.00     0.127 S 
ATOM     95  O   UNL A   1      44.906  24.934  37.782  1.00  0.00    -0.237 OA
ATOM     96  O   UNL A   1      45.690  23.289  36.124  1.00  0.00    -0.237 OA
ATOM     97  O   UNL A   1      47.296  24.344  37.659  1.00  0.00    -0.744 OA
ENDBRANCH  91  94
ENDBRANCH  64  87
ENDBRANCH  38  39
ENDBRANCH  31  33
ENDBRANCH  30  31
ENDBRANCH  29  30
ENDBRANCH  28  29
ENDBRANCH  27  28
ENDBRANCH   1  27
TORSDOF 21
ENDMDL
MODEL 2
REMARK VINA RESULT:     -11.6      2.190      2.925
REMARK SMILES [NH3+]Cc1ccc(C(=O)N2[C@@H](C(=O)OCCOCCOC(=O)c3ccc(-c4c5nc(c(-c6cccc(S(=O)(=O)[O-])c6F)c6ccc([nH]6)c(-c6cccc(S(=O)(=O)[O-])c6F)c6nc(c(-c7cccc(S(=O)(=O)[O-])c7F)c7ccc4[nH]7)C=C6)C=C5)cc3)C[C@H]3CCCC[C@@H]32)o1
REMARK SMILES IDX 15 1 14 2 13 3 11 4 12 5 10 6 9 7 91 8 85 9 86 10 90 11
REMARK SMILES IDX 87 12 89 13 88 14 7 15 8 16 6 17 3 18 4 19 92 20 5 21 2 22
REMARK SMILES IDX 1 23 16 27 17 28 18 29 19 30 20 31 21 32 22 33 23 34 84 35
REMARK SMILES IDX 24 36 83 37 25 38 26 39 27 40 77 41 28 42 82 43 76 44 78 45
REMARK SMILES IDX 29 46 81 47 75 48 74 49 30 51 62 52 42 53 61 54 43 55 46 56
REMARK SMILES IDX 60 57 79 58 44 59 45 60 59 62 80 63 47 64 31 65 32 66 40 67
REMARK SMILES IDX 33 68 35 69 41 70 34 71 36 72 37 73 38 74 39 75 63 76 64 77
REMARK SMILES IDX 72 78 65 79 67 80 73 81 66 82 68 83 69 84 70 85 71 86 48 87
REMARK SMILES IDX 49 88 57 89 50 90 52 91 58 92 51 93 53 94 54 95 55 96 56 97
REMARK H PARENT 1 24 1 25 1 26 78 50 46 61
REMARK Flexibility Score: inf
ROOT
ATOM      1  C   UNL A   1      31.177  28.878  22.663  1.00  0.00     0.202 C 
ENDROOT
BRANCH   1   2
ATOM      2  C   UNL A   1      31.012  27.396  22.320  1.00  0.00     0.261 C 
BRANCH   2   3
ATOM      3  O   UNL A   1      31.764  26.546  23.197  1.00  0.00    -0.462 OA
BRANCH   3   4
ATOM      4  C   UNL A   1      33.071  26.394  22.841  1.00  0.00     0.328 C 
ATOM      5  O   UNL A   1      33.507  26.587  21.712  1.00  0.00    -0.250 OA
BRANCH   4   6
ATOM      6  C   UNL A   1      33.922  25.899  24.035  1.00  0.00     0.196 C 
ATOM      7  N   UNL A   1      34.018  24.428  24.062  1.00  0.00    -0.319 N 
ATOM      8  C   UNL A   1      32.788  23.908  24.589  1.00  0.00     0.089 C 
ATOM      9  C   UNL A   1      33.114  26.222  25.302  1.00  0.00     0.043 C 
ATOM     10  C   UNL A   1      32.596  24.855  25.778  1.00  0.00     0.014 C 
ATOM     11  C   UNL A   1      32.694  22.471  25.075  1.00  0.00     0.025 C 
ATOM     12  C   UNL A   1      31.167  24.763  26.270  1.00  0.00     0.006 C 
ATOM     13  C   UNL A   1      31.290  22.260  25.667  1.00  0.00     0.002 C 
ATOM     14  C   UNL A   1      30.894  23.317  26.714  1.00  0.00     0.000 C 
BRANCH   7  15
ATOM     15  C   UNL A   1      34.955  23.659  23.412  1.00  0.00     0.290 C 
ATOM     16  O   UNL A   1      34.757  23.227  22.278  1.00  0.00    -0.265 OA
BRANCH  15  17
ATOM     17  C   UNL A   1      36.072  23.241  24.250  1.00  0.00     0.192 A 
ATOM     18  C   UNL A   1      37.505  21.755  25.049  1.00  0.00     0.159 A 
ATOM     19  C   UNL A   1      37.584  22.852  25.878  1.00  0.00     0.052 A 
ATOM     20  O   UNL A   1      36.619  21.997  24.038  1.00  0.00    -0.450 OA
ATOM     21  C   UNL A   1      36.664  23.800  25.371  1.00  0.00     0.057 A 
BRANCH  18  22
ATOM     22  C   UNL A   1      38.145  20.414  25.081  1.00  0.00     0.335 C 
BRANCH  22  23
ATOM     23  N   UNL A   1      39.432  20.451  25.767  1.00  0.00    -0.351 N 
ATOM     24  H   UNL A   1      39.833  21.387  25.688  1.00  0.00     0.344 HD
ATOM     25  H   UNL A   1      40.064  19.774  25.340  1.00  0.00     0.344 HD
ATOM     26  H   UNL A   1      39.300  20.220  26.751  1.00  0.00     0.344 HD
ENDBRANCH  22  23
ENDBRANCH  18  22
ENDBRANCH  15  17
ENDBRANCH   7  15
ENDBRANCH   4   6
ENDBRANCH   3   4
ENDBRANCH   2   3
ENDBRANCH   1   2
BRANCH   1  27
ATOM     27  O   UNL A   1      30.542  29.373  23.837  1.00  0.00    -0.374 OA
BRANCH  27  28
ATOM     28  C   UNL A   1      31.267  29.348  25.066  1.00  0.00     0.202 C 
BRANCH  28  29
ATOM     29  C   UNL A   1      31.537  30.677  25.786  1.00  0.00     0.261 C 
BRANCH  29  30
ATOM     30  O   UNL A   1      32.504  30.566  26.843  1.00  0.00    -0.460 OA
BRANCH  30  31
ATOM     31  C   UNL A   1      33.143  31.721  27.153  1.00  0.00     0.338 C 
ATOM     32  O   UNL A   1      32.673  32.855  27.139  1.00  0.00    -0.246 OA
BRANCH  31  33
ATOM     33  C   UNL A   1      34.470  31.424  27.715  1.00  0.00     0.060 A 
ATOM     34  C   UNL A   1      34.738  30.104  28.108  1.00  0.00     0.016 A 
ATOM     35  C   UNL A   1      35.419  32.429  27.902  1.00  0.00     0.016 A 
ATOM     36  C   UNL A   1      35.956  29.787  28.704  1.00  0.00     0.010 A 
ATOM     37  C   UNL A   1      36.631  32.111  28.519  1.00  0.00     0.010 A 
ATOM     38  C   UNL A   1      36.897  30.796  28.939  1.00  0.00    -0.014 A 
BRANCH  38  39
ATOM     39  C   UNL A   1      38.127  30.502  29.710  1.00  0.00     0.031 A 
ATOM     40  C   UNL A   1      39.172  29.608  29.111  1.00  0.00     0.074 A 
ATOM     41  C   UNL A   1      38.287  31.005  30.946  1.00  0.00     0.049 A 
ATOM     42  N   UNL A   1      40.281  29.164  29.638  1.00  0.00    -0.248 NA
ATOM     43  C   UNL A   1      38.933  29.154  27.731  1.00  0.00     0.031 C 
ATOM     44  C   UNL A   1      37.349  31.900  31.620  1.00  0.00     0.029 A 
ATOM     45  N   UNL A   1      39.286  30.806  31.865  1.00  0.00    -0.354 N 
ATOM     46  C   UNL A   1      40.863  28.355  28.671  1.00  0.00     0.074 A 
ATOM     47  C   UNL A   1      39.977  28.363  27.526  1.00  0.00     0.031 C 
ATOM     48  C   UNL A   1      37.802  32.152  32.859  1.00  0.00     0.029 A 
ATOM     49  C   UNL A   1      39.041  31.409  33.075  1.00  0.00     0.049 A 
ATOM     50  H   UNL A   1      40.099  30.283  31.675  1.00  0.00     0.167 HD
ATOM     51  C   UNL A   1      42.034  27.678  28.726  1.00  0.00     0.034 A 
ATOM     52  C   UNL A   1      39.725  31.341  34.236  1.00  0.00     0.034 A 
ATOM     53  C   UNL A   1      42.910  27.677  29.867  1.00  0.00     0.049 A 
ATOM     54  C   UNL A   1      40.984  30.516  34.299  1.00  0.00     0.074 A 
ATOM     55  C   UNL A   1      44.145  27.070  30.005  1.00  0.00     0.029 A 
ATOM     56  N   UNL A   1      42.631  28.295  31.077  1.00  0.00    -0.354 N 
ATOM     57  N   UNL A   1      41.587  29.855  33.340  1.00  0.00    -0.248 NA
ATOM     58  C   UNL A   1      41.664  30.441  35.600  1.00  0.00     0.031 C 
ATOM     59  C   UNL A   1      44.596  27.290  31.311  1.00  0.00     0.029 A 
ATOM     60  C   UNL A   1      43.654  28.056  31.980  1.00  0.00     0.049 A 
ATOM     61  H   UNL A   1      41.823  28.825  31.267  1.00  0.00     0.167 HD
ATOM     62  C   UNL A   1      42.728  29.305  33.914  1.00  0.00     0.074 A 
ATOM     63  C   UNL A   1      42.742  29.727  35.300  1.00  0.00     0.031 C 
ATOM     64  C   UNL A   1      43.670  28.509  33.348  1.00  0.00     0.034 A 
BRANCH  51  65
ATOM     65  C   UNL A   1      42.435  26.890  27.507  1.00  0.00     0.023 A 
ATOM     66  C   UNL A   1      43.063  27.546  26.427  1.00  0.00     0.012 A 
ATOM     67  C   UNL A   1      42.208  25.502  27.432  1.00  0.00     0.148 A 
ATOM     68  C   UNL A   1      43.420  26.841  25.278  1.00  0.00     0.002 A 
ATOM     69  C   UNL A   1      42.606  24.799  26.302  1.00  0.00     0.091 A 
ATOM     70  F   UNL A   1      41.586  24.899  28.455  1.00  0.00    -0.205 F 
ATOM     71  C   UNL A   1      43.200  25.468  25.219  1.00  0.00     0.022 A 
BRANCH  69  72
ATOM     72  S   UNL A   1      42.426  23.017  26.165  1.00  0.00     0.127 S 
ATOM     73  O   UNL A   1      43.213  22.552  27.306  1.00  0.00    -0.237 OA
ATOM     74  O   UNL A   1      40.980  22.838  26.309  1.00  0.00    -0.237 OA
ATOM     75  O   UNL A   1      42.949  22.666  24.852  1.00  0.00    -0.744 OA
ENDBRANCH  69  72
ENDBRANCH  51  65
BRANCH  52  76
ATOM     76  C   UNL A   1      39.241  32.102  35.421  1.00  0.00     0.023 A 
ATOM     77  C   UNL A   1      38.347  31.484  36.317  1.00  0.00     0.012 A 
ATOM     78  C   UNL A   1      39.698  33.407  35.693  1.00  0.00     0.148 A 
ATOM     79  C   UNL A   1      37.904  32.158  37.456  1.00  0.00     0.002 A 
ATOM     80  C   UNL A   1      39.295  34.052  36.856  1.00  0.00     0.091 A 
ATOM     81  F   UNL A   1      40.536  33.980  34.820  1.00  0.00    -0.205 F 
ATOM     82  C   UNL A   1      38.386  33.436  37.731  1.00  0.00     0.022 A 
BRANCH  80  83
ATOM     83  S   UNL A   1      39.961  35.642  37.361  1.00  0.00     0.127 S 
ATOM     84  O   UNL A   1      41.338  35.297  37.701  1.00  0.00    -0.237 OA
ATOM     85  O   UNL A   1      39.804  36.433  36.140  1.00  0.00    -0.237 OA
ATOM     86  O   UNL A   1      39.132  36.085  38.474  1.00  0.00    -0.744 OA
ENDBRANCH  80  83
ENDBRANCH  52  76
BRANCH  64  87
ATOM     87  C   UNL A   1      44.806  28.041  34.222  1.00  0.00     0.023 A 
ATOM     88  C   UNL A   1      45.977  28.820  34.316  1.00  0.00     0.012 A 
ATOM     89  C   UNL A   1      44.681  26.882  35.015  1.00  0.00     0.148 A 
ATOM     90  C   UNL A   1      47.014  28.442  35.167  1.00  0.00     0.002 A 
ATOM     91  C   UNL A   1      45.700  26.538  35.897  1.00  0.00     0.091 A 
ATOM     92  F   UNL A   1      43.565  26.149  34.901  1.00  0.00    -0.205 F 
ATOM     93  C   UNL A   1      46.870  27.310  35.965  1.00  0.00     0.022 A 
BRANCH  91  94
ATOM     94  S   UNL A   1      45.572  25.150  37.030  1.00  0.00     0.127 S 
ATOM     95  O   UNL A   1      44.379  25.500  37.798  1.00  0.00    -0.237 OA
ATOM     96  O   UNL A   1      45.401  24.020  36.116  1.00  0.00    -0.237 OA
ATOM     97  O   UNL A   1      46.816  25.133  37.790  1.00  0.00    -0.744 OA
ENDBRANCH  91  94
ENDBRANCH  64  87
ENDBRANCH  38  39
ENDBRANCH  31  33
ENDBRANCH  30  31
ENDBRANCH  29  30
ENDBRANCH  28  29
ENDBRANCH  27  28
ENDBRANCH   1  27
TORSDOF 21
ENDMDL
MODEL 3
REMARK VINA RESULT:     -11.4      5.024      7.877
REMARK SMILES [NH3+]Cc1ccc(C(=O)N2[C@@H](C(=O)OCCOCCOC(=O)c3ccc(-c4c5nc(c(-c6cccc(S(=O)(=O)[O-])c6F)c6ccc([nH]6)c(-c6cccc(S(=O)(=O)[O-])c6F)c6nc(c(-c7cccc(S(=O)(=O)[O-])c7F)c7ccc4[nH]7)C=C6)C=C5)cc3)C[C@H]3CCCC[C@@H]32)o1
REMARK SMILES IDX 15 1 14 2 13 3 11 4 12 5 10 6 9 7 91 8 85 9 86 10 90 11
REMARK SMILES IDX 87 12 89 13 88 14 7 15 8 16 6 17 3 18 4 19 92 20 5 21 2 22
REMARK SMILES IDX 1 23 16 27 17 28 18 29 19 30 20 31 21 32 22 33 23 34 84 35
REMARK SMILES IDX 24 36 83 37 25 38 26 39 27 40 77 41 28 42 82 43 76 44 78 45
REMARK SMILES IDX 29 46 81 47 75 48 74 49 30 51 62 52 42 53 61 54 43 55 46 56
REMARK SMILES IDX 60 57 79 58 44 59 45 60 59 62 80 63 47 64 31 65 32 66 40 67
REMARK SMILES IDX 33 68 35 69 41 70 34 71 36 72 37 73 38 74 39 75 63 76 64 77
REMARK SMILES IDX 72 78 65 79 67 80 73 81 66 82 68 83 69 84 70 85 71 86 48 87
REMARK SMILES IDX 49 88 57 89 50 90 52 91 58 92 51 93 53 94 54 95 55 96 56 97
REMARK H PARENT 1 24 1 25 1 26 78 50 46 61
REMARK Flexibility Score: inf
ROOT
ATOM      1  C   UNL A   1      37.262  22.176  25.640  1.00  0.00     0.202 C 
ENDROOT
BRANCH   1   2
ATOM      2  C   UNL A   1      37.143  23.637  25.202  1.00  0.00     0.261 C 
BRANCH   2   3
ATOM      3  O   UNL A   1      35.832  23.953  24.710  1.00  0.00    -0.462 OA
BRANCH   3   4
ATOM      4  C   UNL A   1      34.848  23.136  25.180  1.00  0.00     0.328 C 
ATOM      5  O   UNL A   1      34.864  21.914  25.092  1.00  0.00    -0.250 OA
BRANCH   4   6
ATOM      6  C   UNL A   1      33.688  23.954  25.794  1.00  0.00     0.196 C 
ATOM      7  N   UNL A   1      32.440  23.791  25.026  1.00  0.00    -0.319 N 
ATOM      8  C   UNL A   1      32.529  24.606  23.847  1.00  0.00     0.089 C 
ATOM      9  C   UNL A   1      34.043  25.434  25.577  1.00  0.00     0.043 C 
ATOM     10  C   UNL A   1      33.085  25.892  24.465  1.00  0.00     0.014 C 
ATOM     11  C   UNL A   1      31.289  24.938  23.033  1.00  0.00     0.025 C 
ATOM     12  C   UNL A   1      33.634  26.782  23.370  1.00  0.00     0.006 C 
ATOM     13  C   UNL A   1      31.702  25.901  21.907  1.00  0.00     0.002 C 
ATOM     14  C   UNL A   1      32.492  27.127  22.401  1.00  0.00     0.000 C 
BRANCH   7  15
ATOM     15  C   UNL A   1      31.495  22.807  25.204  1.00  0.00     0.290 C 
ATOM     16  O   UNL A   1      30.590  22.927  26.029  1.00  0.00    -0.265 OA
BRANCH  15  17
ATOM     17  C   UNL A   1      31.786  21.563  24.503  1.00  0.00     0.192 A 
ATOM     18  C   UNL A   1      32.345  19.424  24.406  1.00  0.00     0.159 A 
ATOM     19  C   UNL A   1      32.484  19.917  23.129  1.00  0.00     0.052 A 
ATOM     20  O   UNL A   1      31.886  20.405  25.238  1.00  0.00    -0.450 OA
ATOM     21  C   UNL A   1      32.132  21.286  23.190  1.00  0.00     0.057 A 
BRANCH  18  22
ATOM     22  C   UNL A   1      32.632  18.099  25.017  1.00  0.00     0.335 C 
BRANCH  22  23
ATOM     23  N   UNL A   1      32.745  18.192  26.469  1.00  0.00    -0.351 N 
ATOM     24  H   UNL A   1      33.021  19.140  26.728  1.00  0.00     0.344 HD
ATOM     25  H   UNL A   1      33.449  17.532  26.797  1.00  0.00     0.344 HD
ATOM     26  H   UNL A   1      31.845  17.972  26.895  1.00  0.00     0.344 HD
ENDBRANCH  22  23
ENDBRANCH  18  22
ENDBRANCH  15  17
ENDBRANCH   7  15
ENDBRANCH   4   6
ENDBRANCH   3   4
ENDBRANCH   2   3
ENDBRANCH   1   2
BRANCH   1  27
ATOM     27  O   UNL A   1      38.168  21.332  24.938  1.00  0.00    -0.374 OA
BRANCH  27  28
ATOM     28  C   UNL A   1      38.158  19.934  25.222  1.00  0.00     0.202 C 
BRANCH  28  29
ATOM     29  C   UNL A   1      39.458  19.271  25.697  1.00  0.00     0.261 C 
BRANCH  29  30
ATOM     30  O   UNL A   1      40.553  20.194  25.831  1.00  0.00    -0.460 OA
BRANCH  30  31
ATOM     31  C   UNL A   1      41.027  20.334  27.093  1.00  0.00     0.338 C 
ATOM     32  O   UNL A   1      41.412  19.442  27.843  1.00  0.00    -0.246 OA
BRANCH  31  33
ATOM     33  C   UNL A   1      41.213  21.761  27.403  1.00  0.00     0.060 A 
ATOM     34  C   UNL A   1      40.721  22.702  26.486  1.00  0.00     0.016 A 
ATOM     35  C   UNL A   1      41.901  22.170  28.544  1.00  0.00     0.016 A 
ATOM     36  C   UNL A   1      40.929  24.062  26.703  1.00  0.00     0.010 A 
ATOM     37  C   UNL A   1      42.126  23.534  28.749  1.00  0.00     0.010 A 
ATOM     38  C   UNL A   1      41.659  24.483  27.821  1.00  0.00    -0.014 A 
BRANCH  38  39
ATOM     39  C   UNL A   1      42.019  25.910  27.982  1.00  0.00     0.031 A 
ATOM     40  C   UNL A   1      43.390  26.370  27.581  1.00  0.00     0.074 A 
ATOM     41  C   UNL A   1      41.138  26.775  28.513  1.00  0.00     0.049 A 
ATOM     42  N   UNL A   1      43.935  27.551  27.705  1.00  0.00    -0.248 NA
ATOM     43  C   UNL A   1      44.262  25.363  26.955  1.00  0.00     0.031 C 
ATOM     44  C   UNL A   1      39.773  26.445  28.919  1.00  0.00     0.029 A 
ATOM     45  N   UNL A   1      41.275  28.102  28.829  1.00  0.00    -0.354 N 
ATOM     46  C   UNL A   1      45.223  27.427  27.201  1.00  0.00     0.074 A 
ATOM     47  C   UNL A   1      45.381  26.052  26.778  1.00  0.00     0.031 C 
ATOM     48  C   UNL A   1      39.206  27.536  29.460  1.00  0.00     0.029 A 
ATOM     49  C   UNL A   1      40.177  28.627  29.468  1.00  0.00     0.049 A 
ATOM     50  H   UNL A   1      42.081  28.628  28.619  1.00  0.00     0.167 HD
ATOM     51  C   UNL A   1      46.183  28.375  27.090  1.00  0.00     0.034 A 
ATOM     52  C   UNL A   1      39.991  29.841  30.025  1.00  0.00     0.034 A 
ATOM     53  C   UNL A   1      46.017  29.741  27.510  1.00  0.00     0.049 A 
ATOM     54  C   UNL A   1      41.101  30.856  29.961  1.00  0.00     0.074 A 
ATOM     55  C   UNL A   1      46.907  30.793  27.391  1.00  0.00     0.029 A 
ATOM     56  N   UNL A   1      44.895  30.238  28.156  1.00  0.00    -0.354 N 
ATOM     57  N   UNL A   1      42.270  30.765  29.373  1.00  0.00    -0.248 NA
ATOM     58  C   UNL A   1      40.861  32.146  30.623  1.00  0.00     0.031 C 
ATOM     59  C   UNL A   1      46.336  31.918  27.998  1.00  0.00     0.029 A 
ATOM     60  C   UNL A   1      45.080  31.573  28.473  1.00  0.00     0.049 A 
ATOM     61  H   UNL A   1      44.084  29.717  28.360  1.00  0.00     0.167 HD
ATOM     62  C   UNL A   1      42.896  31.990  29.574  1.00  0.00     0.074 A 
ATOM     63  C   UNL A   1      41.967  32.814  30.320  1.00  0.00     0.031 C 
ATOM     64  C   UNL A   1      44.134  32.392  29.188  1.00  0.00     0.034 A 
BRANCH  51  65
ATOM     65  C   UNL A   1      47.495  27.962  26.477  1.00  0.00     0.023 A 
ATOM     66  C   UNL A   1      48.592  27.661  27.310  1.00  0.00     0.012 A 
ATOM     67  C   UNL A   1      47.641  27.856  25.079  1.00  0.00     0.148 A 
ATOM     68  C   UNL A   1      49.823  27.301  26.764  1.00  0.00     0.002 A 
ATOM     69  C   UNL A   1      48.859  27.455  24.543  1.00  0.00     0.091 A 
ATOM     70  F   UNL A   1      46.597  28.173  24.301  1.00  0.00    -0.205 F 
ATOM     71  C   UNL A   1      49.954  27.189  25.382  1.00  0.00     0.022 A 
BRANCH  69  72
ATOM     72  S   UNL A   1      49.101  27.218  22.779  1.00  0.00     0.127 S 
ATOM     73  O   UNL A   1      48.588  28.475  22.238  1.00  0.00    -0.237 OA
ATOM     74  O   UNL A   1      50.553  27.060  22.683  1.00  0.00    -0.237 OA
ATOM     75  O   UNL A   1      48.341  26.025  22.433  1.00  0.00    -0.744 OA
ENDBRANCH  69  72
ENDBRANCH  51  65
BRANCH  52  76
ATOM     76  C   UNL A   1      38.686  30.165  30.665  1.00  0.00     0.023 A 
ATOM     77  C   UNL A   1      38.450  29.755  31.992  1.00  0.00     0.012 A 
ATOM     78  C   UNL A   1      37.703  30.916  29.991  1.00  0.00     0.148 A 
ATOM     79  C   UNL A   1      37.251  30.075  32.631  1.00  0.00     0.002 A 
ATOM     80  C   UNL A   1      36.535  31.277  30.652  1.00  0.00     0.091 A 
ATOM     81  F   UNL A   1      37.943  31.284  28.725  1.00  0.00    -0.205 F 
ATOM     82  C   UNL A   1      36.300  30.845  31.966  1.00  0.00     0.022 A 
BRANCH  80  83
ATOM     83  S   UNL A   1      35.311  32.374  29.925  1.00  0.00     0.127 S 
ATOM     84  O   UNL A   1      34.803  31.567  28.818  1.00  0.00    -0.237 OA
ATOM     85  O   UNL A   1      34.376  32.557  31.036  1.00  0.00    -0.237 OA
ATOM     86  O   UNL A   1      36.034  33.580  29.543  1.00  0.00    -0.744 OA
ENDBRANCH  80  83
ENDBRANCH  52  76
BRANCH  64  87
ATOM     87  C   UNL A   1      44.563  33.788  29.559  1.00  0.00     0.023 A 
ATOM     88  C   UNL A   1      45.150  34.022  30.820  1.00  0.00     0.012 A 
ATOM     89  C   UNL A   1      44.470  34.847  28.634  1.00  0.00     0.148 A 
ATOM     90  C   UNL A   1      45.615  35.290  31.162  1.00  0.00     0.002 A 
ATOM     91  C   UNL A   1      44.979  36.098  28.964  1.00  0.00     0.091 A 
ATOM     92  F   UNL A   1      43.896  34.606  27.446  1.00  0.00    -0.205 F 
ATOM     93  C   UNL A   1      45.541  36.324  30.230  1.00  0.00     0.022 A 
BRANCH  91  94
ATOM     94  S   UNL A   1      45.011  37.469  27.803  1.00  0.00     0.127 S 
ATOM     95  O   UNL A   1      43.586  37.743  27.625  1.00  0.00    -0.237 OA
ATOM     96  O   UNL A   1      45.742  38.491  28.553  1.00  0.00    -0.237 OA
ATOM     97  O   UNL A   1      45.700  36.977  26.617  1.00  0.00    -0.744 OA
ENDBRANCH  91  94
ENDBRANCH  64  87
ENDBRANCH  38  39
ENDBRANCH  31  33
ENDBRANCH  30  31
ENDBRANCH  29  30
ENDBRANCH  28  29
ENDBRANCH  27  28
ENDBRANCH   1  27
TORSDOF 21
ENDMDL
