MODEL 1
REMARK VINA RESULT:     -10.9      0.000      0.000
REMARK SMILES Cc1cccc(NC(=O)C[C@H]([NH2+]C(C)C)C(=O)OCCOCCOC(=O)c2ccc(-c3c4nc(c(-c5cccc(S(=O)(=O)[O-])c5F)c5ccc([nH]5)c(-c5cccc(S(=O)(=O)[O-])c5F)c5nc(c(-c6cccc(S(=O)(=O)[O-])c6F)c6ccc3[nH]6)C=C5)C=C4)cc2)c1
REMARK SMILES IDX 21 1 20 2 19 3 18 4 16 5 17 6 11 7 10 8 8 9 7 10 9 12 6 13
REMARK SMILES IDX 1 14 2 15 3 16 90 17 4 18 5 19 12 20 13 23 14 24 15 25 22 26
REMARK SMILES IDX 23 27 24 28 25 29 26 30 27 31 28 32 89 33 29 34 88 35 30 36
REMARK SMILES IDX 31 37 32 38 82 39 33 40 87 41 81 42 83 43 34 44 86 45 80 46
REMARK SMILES IDX 79 47 35 49 67 50 47 51 66 52 48 53 51 54 65 55 84 56 49 57
REMARK SMILES IDX 50 58 64 60 85 61 52 62 36 63 37 64 45 65 38 66 40 67 46 68
REMARK SMILES IDX 39 69 41 70 42 71 43 72 44 73 68 74 69 75 77 76 70 77 72 78
REMARK SMILES IDX 78 79 71 80 73 81 74 82 75 83 76 84 53 85 54 86 62 87 55 88
REMARK SMILES IDX 57 89 63 90 56 91 58 92 59 93 60 94 61 95
REMARK H PARENT 7 11 12 21 12 22 83 48 51 59
REMARK Flexibility Score: inf
ROOT
ATOM      1  O   UNL A   1      38.005  21.801  25.518  1.00  0.00    -0.374 OA
ENDROOT
BRANCH   1   2
ATOM      2  C   UNL A   1      36.634  21.774  25.824  1.00  0.00     0.202 C 
BRANCH   2   3
ATOM      3  C   UNL A   1      36.109  23.101  25.443  1.00  0.00     0.261 C 
BRANCH   3   4
ATOM      4  O   UNL A   1      34.737  22.956  25.647  1.00  0.00    -0.459 OA
BRANCH   4   5
ATOM      5  C   UNL A   1      33.920  22.522  24.674  1.00  0.00     0.365 C 
ATOM      6  O   UNL A   1      34.103  22.571  23.473  1.00  0.00    -0.245 OA
BRANCH   5   7
ATOM      7  C   UNL A   1      32.731  21.941  25.442  1.00  0.00     0.303 C 
BRANCH   7   8
ATOM      8  C   UNL A   1      32.318  22.923  26.616  1.00  0.00     0.177 C 
BRANCH   8   9
ATOM      9  C   UNL A   1      30.913  23.543  26.403  1.00  0.00     0.231 C 
ATOM     10  N   UNL A   1      30.269  24.177  25.285  1.00  0.00    -0.326 N 
ATOM     11  H   UNL A   1      29.301  24.002  25.222  1.00  0.00     0.169 HD
ATOM     12  O   UNL A   1      30.181  23.359  27.397  1.00  0.00    -0.274 OA
BRANCH  10  13
ATOM     13  C   UNL A   1      30.787  25.021  24.239  1.00  0.00     0.041 A 
ATOM     14  C   UNL A   1      33.791  28.107  23.109  1.00  0.00     0.044 C 
ATOM     15  C   UNL A   1      32.512  27.365  22.665  1.00  0.00    -0.049 A 
ATOM     16  C   UNL A   1      31.037  28.232  22.601  1.00  0.00     0.003 A 
ATOM     17  C   UNL A   1      32.491  25.737  23.388  1.00  0.00     0.029 A 
ATOM     18  C   UNL A   1      29.530  27.645  23.218  1.00  0.00     0.002 A 
ATOM     19  C   UNL A   1      29.350  26.121  24.018  1.00  0.00     0.026 A 
ENDBRANCH  10  13
ENDBRANCH   8   9
ENDBRANCH   7   8
BRANCH   7  20
ATOM     20  N   UNL A   1      32.944  20.490  25.843  1.00  0.00    -0.332 N 
ATOM     21  H   UNL A   1      32.109  20.180  26.340  1.00  0.00     0.347 HD
ATOM     22  H   UNL A   1      33.796  20.488  26.404  1.00  0.00     0.347 HD
BRANCH  20  23
ATOM     23  C   UNL A   1      33.197  19.527  24.742  1.00  0.00     0.176 C 
ATOM     24  C   UNL A   1      34.642  19.033  24.765  1.00  0.00     0.075 C 
ATOM     25  C   UNL A   1      32.272  18.293  24.810  1.00  0.00     0.075 C 
ENDBRANCH  20  23
ENDBRANCH   7  20
ENDBRANCH   5   7
ENDBRANCH   4   5
ENDBRANCH   3   4
ENDBRANCH   2   3
ENDBRANCH   1   2
BRANCH   1  26
ATOM     26  C   UNL A   1      38.623  22.997  25.943  1.00  0.00     0.202 C 
BRANCH  26  27
ATOM     27  C   UNL A   1      39.479  22.809  27.207  1.00  0.00     0.261 C 
BRANCH  27  28
ATOM     28  O   UNL A   1      40.185  21.545  27.100  1.00  0.00    -0.460 OA
BRANCH  28  29
ATOM     29  C   UNL A   1      41.359  21.554  26.396  1.00  0.00     0.338 C 
ATOM     30  O   UNL A   1      41.724  20.640  25.671  1.00  0.00    -0.246 OA
BRANCH  29  31
ATOM     31  C   UNL A   1      42.278  22.629  26.926  1.00  0.00     0.060 A 
ATOM     32  C   UNL A   1      42.446  22.855  28.285  1.00  0.00     0.016 A 
ATOM     33  C   UNL A   1      42.685  23.649  26.076  1.00  0.00     0.016 A 
ATOM     34  C   UNL A   1      42.774  24.153  28.749  1.00  0.00     0.010 A 
ATOM     35  C   UNL A   1      42.792  24.955  26.573  1.00  0.00     0.010 A 
ATOM     36  C   UNL A   1      42.695  25.267  27.937  1.00  0.00    -0.014 A 
BRANCH  36  37
ATOM     37  C   UNL A   1      42.965  26.689  28.332  1.00  0.00     0.031 A 
ATOM     38  C   UNL A   1      41.716  27.457  28.291  1.00  0.00     0.074 A 
ATOM     39  C   UNL A   1      44.121  27.327  28.734  1.00  0.00     0.049 A 
ATOM     40  N   UNL A   1      41.670  28.734  28.221  1.00  0.00    -0.248 NA
ATOM     41  C   UNL A   1      40.377  26.850  28.171  1.00  0.00     0.031 C 
ATOM     42  C   UNL A   1      44.406  28.322  29.787  1.00  0.00     0.029 A 
ATOM     43  N   UNL A   1      45.419  26.992  28.463  1.00  0.00    -0.354 N 
ATOM     44  C   UNL A   1      40.414  29.035  28.674  1.00  0.00     0.074 A 
ATOM     45  C   UNL A   1      39.601  27.923  28.293  1.00  0.00     0.031 C 
ATOM     46  C   UNL A   1      45.747  28.587  29.914  1.00  0.00     0.029 A 
ATOM     47  C   UNL A   1      46.483  27.785  28.933  1.00  0.00     0.049 A 
ATOM     48  H   UNL A   1      45.612  26.186  27.932  1.00  0.00     0.167 HD
ATOM     49  C   UNL A   1      40.318  29.997  29.626  1.00  0.00     0.034 A 
ATOM     50  C   UNL A   1      47.654  27.942  28.209  1.00  0.00     0.034 A 
ATOM     51  C   UNL A   1      41.650  30.660  29.825  1.00  0.00     0.049 A 
ATOM     52  C   UNL A   1      47.164  29.347  27.579  1.00  0.00     0.074 A 
ATOM     53  C   UNL A   1      42.519  30.812  30.893  1.00  0.00     0.029 A 
ATOM     54  N   UNL A   1      42.407  31.024  28.693  1.00  0.00    -0.354 N 
ATOM     55  N   UNL A   1      45.919  29.760  27.718  1.00  0.00    -0.248 NA
ATOM     56  C   UNL A   1      47.971  30.435  27.020  1.00  0.00     0.031 C 
ATOM     57  C   UNL A   1      43.798  31.239  30.378  1.00  0.00     0.029 A 
ATOM     58  C   UNL A   1      43.741  31.291  28.987  1.00  0.00     0.049 A 
ATOM     59  H   UNL A   1      42.031  31.084  27.786  1.00  0.00     0.167 HD
ATOM     60  C   UNL A   1      45.786  31.093  27.564  1.00  0.00     0.074 A 
ATOM     61  C   UNL A   1      47.083  31.461  27.001  1.00  0.00     0.031 C 
ATOM     62  C   UNL A   1      44.649  31.778  27.924  1.00  0.00     0.034 A 
BRANCH  49  63
ATOM     63  C   UNL A   1      39.092  30.196  30.519  1.00  0.00     0.023 A 
ATOM     64  C   UNL A   1      38.278  29.062  30.698  1.00  0.00     0.012 A 
ATOM     65  C   UNL A   1      38.663  31.368  31.214  1.00  0.00     0.148 A 
ATOM     66  C   UNL A   1      37.153  29.063  31.531  1.00  0.00     0.002 A 
ATOM     67  C   UNL A   1      37.567  31.358  32.085  1.00  0.00     0.091 A 
ATOM     68  F   UNL A   1      39.265  32.541  31.029  1.00  0.00    -0.205 F 
ATOM     69  C   UNL A   1      36.809  30.202  32.244  1.00  0.00     0.022 A 
BRANCH  67  70
ATOM     70  S   UNL A   1      37.069  32.794  33.070  1.00  0.00     0.127 S 
ATOM     71  O   UNL A   1      36.359  32.172  34.190  1.00  0.00    -0.237 OA
ATOM     72  O   UNL A   1      38.357  33.388  33.428  1.00  0.00    -0.237 OA
ATOM     73  O   UNL A   1      36.230  33.624  32.214  1.00  0.00    -0.744 OA
ENDBRANCH  67  70
ENDBRANCH  49  63
BRANCH  50  74
ATOM     74  C   UNL A   1      48.100  26.530  27.328  1.00  0.00     0.023 A 
ATOM     75  C   UNL A   1      47.213  25.527  26.008  1.00  0.00     0.012 A 
ATOM     76  C   UNL A   1      49.724  27.067  26.979  1.00  0.00     0.148 A 
ATOM     77  C   UNL A   1      48.091  25.482  24.152  1.00  0.00     0.002 A 
ATOM     78  C   UNL A   1      50.482  27.012  25.421  1.00  0.00     0.091 A 
ATOM     79  F   UNL A   1      50.495  27.315  28.058  1.00  0.00    -0.205 F 
ATOM     80  C   UNL A   1      49.704  26.324  23.982  1.00  0.00     0.022 A 
BRANCH  78  81
ATOM     81  S   UNL A   1      52.303  26.178  25.819  1.00  0.00     0.127 S 
ATOM     82  O   UNL A   1      52.854  25.888  24.496  1.00  0.00    -0.237 OA
ATOM     83  O   UNL A   1      52.955  27.283  26.514  1.00  0.00    -0.237 OA
ATOM     84  O   UNL A   1      52.004  24.996  26.611  1.00  0.00    -0.744 OA
ENDBRANCH  78  81
ENDBRANCH  50  74
BRANCH  62  85
ATOM     85  C   UNL A   1      44.247  33.045  27.219  1.00  0.00     0.023 A 
ATOM     86  C   UNL A   1      44.031  33.051  25.831  1.00  0.00     0.012 A 
ATOM     87  C   UNL A   1      43.830  34.184  27.952  1.00  0.00     0.148 A 
ATOM     88  C   UNL A   1      43.532  34.175  25.180  1.00  0.00     0.002 A 
ATOM     89  C   UNL A   1      43.177  35.226  27.317  1.00  0.00     0.091 A 
ATOM     90  F   UNL A   1      44.061  34.272  29.269  1.00  0.00    -0.205 F 
ATOM     91  C   UNL A   1      43.082  35.254  25.927  1.00  0.00     0.022 A 
BRANCH  89  92
ATOM     92  S   UNL A   1      42.271  36.457  28.260  1.00  0.00     0.127 S 
ATOM     93  O   UNL A   1      41.228  35.646  28.881  1.00  0.00    -0.237 OA
ATOM     94  O   UNL A   1      43.296  36.949  29.183  1.00  0.00    -0.237 OA
ATOM     95  O   UNL A   1      41.820  37.444  27.288  1.00  0.00    -0.744 OA
ENDBRANCH  89  92
ENDBRANCH  62  85
ENDBRANCH  36  37
ENDBRANCH  29  31
ENDBRANCH  28  29
ENDBRANCH  27  28
ENDBRANCH  26  27
ENDBRANCH   1  26
TORSDOF 22
ENDMDL
MODEL 2
REMARK VINA RESULT:     -10.6      3.728      9.216
REMARK SMILES Cc1cccc(NC(=O)C[C@H]([NH2+]C(C)C)C(=O)OCCOCCOC(=O)c2ccc(-c3c4nc(c(-c5cccc(S(=O)(=O)[O-])c5F)c5ccc([nH]5)c(-c5cccc(S(=O)(=O)[O-])c5F)c5nc(c(-c6cccc(S(=O)(=O)[O-])c6F)c6ccc3[nH]6)C=C5)C=C4)cc2)c1
REMARK SMILES IDX 21 1 20 2 19 3 18 4 16 5 17 6 11 7 10 8 8 9 7 10 9 12 6 13
REMARK SMILES IDX 1 14 2 15 3 16 90 17 4 18 5 19 12 20 13 23 14 24 15 25 22 26
REMARK SMILES IDX 23 27 24 28 25 29 26 30 27 31 28 32 89 33 29 34 88 35 30 36
REMARK SMILES IDX 31 37 32 38 82 39 33 40 87 41 81 42 83 43 34 44 86 45 80 46
REMARK SMILES IDX 79 47 35 49 67 50 47 51 66 52 48 53 51 54 65 55 84 56 49 57
REMARK SMILES IDX 50 58 64 60 85 61 52 62 36 63 37 64 45 65 38 66 40 67 46 68
REMARK SMILES IDX 39 69 41 70 42 71 43 72 44 73 68 74 69 75 77 76 70 77 72 78
REMARK SMILES IDX 78 79 71 80 73 81 74 82 75 83 76 84 53 85 54 86 62 87 55 88
REMARK SMILES IDX 57 89 63 90 56 91 58 92 59 93 60 94 61 95
REMARK H PARENT 7 11 12 21 12 22 83 48 51 59
REMARK Flexibility Score: inf
ROOT
ATOM      1  O   UNL A   1      34.063  27.740  26.970  1.00  0.00    -0.374 OA
ENDROOT
BRANCH   1   2
ATOM      2  C   UNL A   1      33.512  27.041  25.883  1.00  0.00     0.202 C 
BRANCH   2   3
ATOM      3  C   UNL A   1      33.665  27.929  24.713  1.00  0.00     0.261 C 
BRANCH   3   4
ATOM      4  O   UNL A   1      32.353  28.325  24.457  1.00  0.00    -0.459 OA
BRANCH   4   5
ATOM      5  C   UNL A   1      31.941  28.650  23.221  1.00  0.00     0.365 C 
ATOM      6  O   UNL A   1      32.585  29.187  22.341  1.00  0.00    -0.245 OA
BRANCH   5   7
ATOM      7  C   UNL A   1      30.491  28.163  23.191  1.00  0.00     0.303 C 
BRANCH   7   8
ATOM      8  C   UNL A   1      30.454  26.581  23.267  1.00  0.00     0.177 C 
BRANCH   8   9
ATOM      9  C   UNL A   1      31.315  25.914  22.163  1.00  0.00     0.231 C 
ATOM     10  N   UNL A   1      32.131  24.732  22.121  1.00  0.00    -0.326 N 
ATOM     11  H   UNL A   1      32.127  24.266  21.253  1.00  0.00     0.169 HD
ATOM     12  O   UNL A   1      31.181  26.500  21.069  1.00  0.00    -0.274 OA
BRANCH  10  13
ATOM     13  C   UNL A   1      32.953  24.105  23.124  1.00  0.00     0.041 A 
ATOM     14  C   UNL A   1      36.872  22.206  24.051  1.00  0.00     0.044 C 
ATOM     15  C   UNL A   1      35.442  22.470  24.568  1.00  0.00    -0.049 A 
ATOM     16  C   UNL A   1      34.350  21.156  24.677  1.00  0.00     0.003 A 
ATOM     17  C   UNL A   1      34.839  24.000  23.883  1.00  0.00     0.029 A 
ATOM     18  C   UNL A   1      32.704  21.205  24.140  1.00  0.00     0.002 A 
ATOM     19  C   UNL A   1      31.984  22.584  23.383  1.00  0.00     0.026 A 
ENDBRANCH  10  13
ENDBRANCH   8   9
ENDBRANCH   7   8
BRANCH   7  20
ATOM     20  N   UNL A   1      29.686  28.786  22.061  1.00  0.00    -0.332 N 
ATOM     21  H   UNL A   1      29.350  28.029  21.466  1.00  0.00     0.347 HD
ATOM     22  H   UNL A   1      30.325  29.435  21.601  1.00  0.00     0.347 HD
BRANCH  20  23
ATOM     23  C   UNL A   1      28.513  29.606  22.455  1.00  0.00     0.176 C 
ATOM     24  C   UNL A   1      27.435  28.744  23.109  1.00  0.00     0.075 C 
ATOM     25  C   UNL A   1      28.882  30.733  23.443  1.00  0.00     0.075 C 
ENDBRANCH  20  23
ENDBRANCH   7  20
ENDBRANCH   5   7
ENDBRANCH   4   5
ENDBRANCH   3   4
ENDBRANCH   2   3
ENDBRANCH   1   2
BRANCH   1  26
ATOM     26  C   UNL A   1      34.453  29.051  26.620  1.00  0.00     0.202 C 
BRANCH  26  27
ATOM     27  C   UNL A   1      35.056  29.829  27.802  1.00  0.00     0.261 C 
BRANCH  27  28
ATOM     28  O   UNL A   1      36.486  29.959  27.584  1.00  0.00    -0.460 OA
BRANCH  28  29
ATOM     29  C   UNL A   1      37.303  29.538  28.598  1.00  0.00     0.338 C 
ATOM     30  O   UNL A   1      36.933  29.391  29.754  1.00  0.00    -0.246 OA
BRANCH  29  31
ATOM     31  C   UNL A   1      38.750  29.652  28.184  1.00  0.00     0.060 A 
ATOM     32  C   UNL A   1      39.183  29.323  26.907  1.00  0.00     0.016 A 
ATOM     33  C   UNL A   1      39.730  29.731  29.164  1.00  0.00     0.016 A 
ATOM     34  C   UNL A   1      40.504  28.853  26.707  1.00  0.00     0.010 A 
ATOM     35  C   UNL A   1      40.948  29.065  28.974  1.00  0.00     0.010 A 
ATOM     36  C   UNL A   1      41.315  28.471  27.757  1.00  0.00    -0.014 A 
BRANCH  36  37
ATOM     37  C   UNL A   1      42.705  27.913  27.664  1.00  0.00     0.031 A 
ATOM     38  C   UNL A   1      42.692  26.496  28.043  1.00  0.00     0.074 A 
ATOM     39  C   UNL A   1      43.898  28.481  27.268  1.00  0.00     0.049 A 
ATOM     40  N   UNL A   1      43.735  25.849  28.406  1.00  0.00    -0.248 NA
ATOM     41  C   UNL A   1      41.464  25.693  28.198  1.00  0.00     0.031 C 
ATOM     42  C   UNL A   1      45.019  27.992  26.441  1.00  0.00     0.029 A 
ATOM     43  N   UNL A   1      44.262  29.799  27.282  1.00  0.00    -0.354 N 
ATOM     44  C   UNL A   1      43.387  24.540  28.203  1.00  0.00     0.074 A 
ATOM     45  C   UNL A   1      41.976  24.488  28.426  1.00  0.00     0.031 C 
ATOM     46  C   UNL A   1      45.961  28.961  26.201  1.00  0.00     0.029 A 
ATOM     47  C   UNL A   1      45.547  30.199  26.869  1.00  0.00     0.049 A 
ATOM     48  H   UNL A   1      43.617  30.478  27.586  1.00  0.00     0.167 HD
ATOM     49  C   UNL A   1      44.269  23.770  27.516  1.00  0.00     0.034 A 
ATOM     50  C   UNL A   1      46.201  31.274  27.448  1.00  0.00     0.034 A 
ATOM     51  C   UNL A   1      45.550  24.521  27.299  1.00  0.00     0.049 A 
ATOM     52  C   UNL A   1      47.048  30.320  28.439  1.00  0.00     0.074 A 
ATOM     53  C   UNL A   1      46.268  24.932  26.188  1.00  0.00     0.029 A 
ATOM     54  N   UNL A   1      46.109  25.241  28.373  1.00  0.00    -0.354 N 
ATOM     55  N   UNL A   1      46.761  29.038  28.563  1.00  0.00    -0.248 NA
ATOM     56  C   UNL A   1      48.317  30.596  29.119  1.00  0.00     0.031 C 
ATOM     57  C   UNL A   1      47.233  25.918  26.613  1.00  0.00     0.029 A 
ATOM     58  C   UNL A   1      47.070  26.165  27.975  1.00  0.00     0.049 A 
ATOM     59  H   UNL A   1      45.848  25.104  29.312  1.00  0.00     0.167 HD
ATOM     60  C   UNL A   1      47.795  28.311  29.032  1.00  0.00     0.074 A 
ATOM     61  C   UNL A   1      48.714  29.352  29.488  1.00  0.00     0.031 C 
ATOM     62  C   UNL A   1      47.822  26.937  28.991  1.00  0.00     0.034 A 
BRANCH  49  63
ATOM     63  C   UNL A   1      43.907  22.436  26.862  1.00  0.00     0.023 A 
ATOM     64  C   UNL A   1      42.594  21.981  27.090  1.00  0.00     0.012 A 
ATOM     65  C   UNL A   1      44.707  21.591  26.034  1.00  0.00     0.148 A 
ATOM     66  C   UNL A   1      42.090  20.809  26.515  1.00  0.00     0.002 A 
ATOM     67  C   UNL A   1      44.190  20.445  25.418  1.00  0.00     0.091 A 
ATOM     68  F   UNL A   1      46.001  21.835  25.844  1.00  0.00    -0.205 F 
ATOM     69  C   UNL A   1      42.877  20.052  25.661  1.00  0.00     0.022 A 
BRANCH  67  70
ATOM     70  S   UNL A   1      45.143  19.418  24.270  1.00  0.00     0.127 S 
ATOM     71  O   UNL A   1      44.499  19.707  22.987  1.00  0.00    -0.237 OA
ATOM     72  O   UNL A   1      46.491  19.969  24.407  1.00  0.00    -0.237 OA
ATOM     73  O   UNL A   1      44.998  18.038  24.717  1.00  0.00    -0.744 OA
ENDBRANCH  67  70
ENDBRANCH  49  63
BRANCH  50  74
ATOM     74  C   UNL A   1      45.134  32.542  27.918  1.00  0.00     0.023 A 
ATOM     75  C   UNL A   1      43.945  32.727  29.363  1.00  0.00     0.012 A 
ATOM     76  C   UNL A   1      46.286  33.827  27.651  1.00  0.00     0.148 A 
ATOM     77  C   UNL A   1      44.360  34.229  30.701  1.00  0.00     0.002 A 
ATOM     78  C   UNL A   1      46.628  35.111  28.764  1.00  0.00     0.091 A 
ATOM     79  F   UNL A   1      46.752  33.931  26.389  1.00  0.00    -0.205 F 
ATOM     80  C   UNL A   1      45.778  35.315  30.308  1.00  0.00     0.022 A 
BRANCH  78  81
ATOM     81  S   UNL A   1      46.554  36.778  27.587  1.00  0.00     0.127 S 
ATOM     82  O   UNL A   1      47.605  36.555  26.595  1.00  0.00    -0.237 OA
ATOM     83  O   UNL A   1      45.198  36.672  27.061  1.00  0.00    -0.237 OA
ATOM     84  O   UNL A   1      46.818  37.883  28.494  1.00  0.00    -0.744 OA
ENDBRANCH  78  81
ENDBRANCH  50  74
BRANCH  62  85
ATOM     85  C   UNL A   1      48.589  26.141  30.011  1.00  0.00     0.023 A 
ATOM     86  C   UNL A   1      49.871  25.648  29.714  1.00  0.00     0.012 A 
ATOM     87  C   UNL A   1      48.164  26.086  31.362  1.00  0.00     0.148 A 
ATOM     88  C   UNL A   1      50.651  25.024  30.683  1.00  0.00     0.002 A 
ATOM     89  C   UNL A   1      49.017  25.622  32.348  1.00  0.00     0.091 A 
ATOM     90  F   UNL A   1      46.931  26.482  31.707  1.00  0.00    -0.205 F 
ATOM     91  C   UNL A   1      50.234  25.033  32.006  1.00  0.00     0.022 A 
BRANCH  89  92
ATOM     92  S   UNL A   1      48.679  25.936  34.083  1.00  0.00     0.127 S 
ATOM     93  O   UNL A   1      49.940  25.544  34.706  1.00  0.00    -0.237 OA
ATOM     94  O   UNL A   1      48.416  27.377  34.087  1.00  0.00    -0.237 OA
ATOM     95  O   UNL A   1      47.520  25.118  34.413  1.00  0.00    -0.744 OA
ENDBRANCH  89  92
ENDBRANCH  62  85
ENDBRANCH  36  37
ENDBRANCH  29  31
ENDBRANCH  28  29
ENDBRANCH  27  28
ENDBRANCH  26  27
ENDBRANCH   1  26
TORSDOF 22
ENDMDL
MODEL 3
REMARK VINA RESULT:     -10.6      4.745      7.187
REMARK SMILES Cc1cccc(NC(=O)C[C@H]([NH2+]C(C)C)C(=O)OCCOCCOC(=O)c2ccc(-c3c4nc(c(-c5cccc(S(=O)(=O)[O-])c5F)c5ccc([nH]5)c(-c5cccc(S(=O)(=O)[O-])c5F)c5nc(c(-c6cccc(S(=O)(=O)[O-])c6F)c6ccc3[nH]6)C=C5)C=C4)cc2)c1
REMARK SMILES IDX 21 1 20 2 19 3 18 4 16 5 17 6 11 7 10 8 8 9 7 10 9 12 6 13
REMARK SMILES IDX 1 14 2 15 3 16 90 17 4 18 5 19 12 20 13 23 14 24 15 25 22 26
REMARK SMILES IDX 23 27 24 28 25 29 26 30 27 31 28 32 89 33 29 34 88 35 30 36
REMARK SMILES IDX 31 37 32 38 82 39 33 40 87 41 81 42 83 43 34 44 86 45 80 46
REMARK SMILES IDX 79 47 35 49 67 50 47 51 66 52 48 53 51 54 65 55 84 56 49 57
REMARK SMILES IDX 50 58 64 60 85 61 52 62 36 63 37 64 45 65 38 66 40 67 46 68
REMARK SMILES IDX 39 69 41 70 42 71 43 72 44 73 68 74 69 75 77 76 70 77 72 78
REMARK SMILES IDX 78 79 71 80 73 81 74 82 75 83 76 84 53 85 54 86 62 87 55 88
REMARK SMILES IDX 57 89 63 90 56 91 58 92 59 93 60 94 61 95
REMARK H PARENT 7 11 12 21 12 22 83 48 51 59
REMARK Flexibility Score: inf
ROOT
ATOM      1  O   UNL A   1      39.614  24.019  26.499  1.00  0.00    -0.374 OA
ENDROOT
BRANCH   1   2
ATOM      2  C   UNL A   1      38.211  24.107  26.495  1.00  0.00     0.202 C 
BRANCH   2   3
ATOM      3  C   UNL A   1      37.732  22.878  25.830  1.00  0.00     0.261 C 
BRANCH   3   4
ATOM      4  O   UNL A   1      36.351  22.952  26.012  1.00  0.00    -0.459 OA
BRANCH   4   5
ATOM      5  C   UNL A   1      35.512  22.094  25.410  1.00  0.00     0.365 C 
ATOM      6  O   UNL A   1      35.654  20.896  25.262  1.00  0.00    -0.245 OA
BRANCH   5   7
ATOM      7  C   UNL A   1      34.342  22.984  24.984  1.00  0.00     0.303 C 
BRANCH   7   8
ATOM      8  C   UNL A   1      34.828  24.022  23.890  1.00  0.00     0.177 C 
BRANCH   8   9
ATOM      9  C   UNL A   1      33.762  24.264  22.789  1.00  0.00     0.231 C 
ATOM     10  N   UNL A   1      33.262  25.443  22.136  1.00  0.00    -0.326 N 
ATOM     11  H   UNL A   1      33.023  25.312  21.189  1.00  0.00     0.169 HD
ATOM     12  O   UNL A   1      33.332  23.186  22.331  1.00  0.00    -0.274 OA
BRANCH  10  13
ATOM     13  C   UNL A   1      33.049  26.782  22.619  1.00  0.00     0.041 A 
ATOM     14  C   UNL A   1      33.259  29.546  26.105  1.00  0.00     0.044 C 
ATOM     15  C   UNL A   1      32.746  29.371  24.659  1.00  0.00    -0.049 A 
ATOM     16  C   UNL A   1      31.062  29.224  24.395  1.00  0.00     0.003 A 
ATOM     17  C   UNL A   1      33.828  28.263  23.778  1.00  0.00     0.029 A 
ATOM     18  C   UNL A   1      30.334  28.050  23.349  1.00  0.00     0.002 A 
ATOM     19  C   UNL A   1      31.232  26.853  22.481  1.00  0.00     0.026 A 
ENDBRANCH  10  13
ENDBRANCH   8   9
ENDBRANCH   7   8
BRANCH   7  20
ATOM     20  N   UNL A   1      33.595  23.577  26.168  1.00  0.00    -0.332 N 
ATOM     21  H   UNL A   1      34.175  24.320  26.559  1.00  0.00     0.347 HD
ATOM     22  H   UNL A   1      33.426  22.794  26.799  1.00  0.00     0.347 HD
BRANCH  20  23
ATOM     23  C   UNL A   1      32.255  24.151  25.887  1.00  0.00     0.176 C 
ATOM     24  C   UNL A   1      31.194  23.541  26.801  1.00  0.00     0.075 C 
ATOM     25  C   UNL A   1      32.216  25.682  26.072  1.00  0.00     0.075 C 
ENDBRANCH  20  23
ENDBRANCH   7  20
ENDBRANCH   5   7
ENDBRANCH   4   5
ENDBRANCH   3   4
ENDBRANCH   2   3
ENDBRANCH   1   2
BRANCH   1  26
ATOM     26  C   UNL A   1      40.227  25.290  26.462  1.00  0.00     0.202 C 
BRANCH  26  27
ATOM     27  C   UNL A   1      41.739  25.215  26.185  1.00  0.00     0.261 C 
BRANCH  27  28
ATOM     28  O   UNL A   1      42.341  26.479  26.570  1.00  0.00    -0.460 OA
BRANCH  28  29
ATOM     29  C   UNL A   1      41.949  27.585  25.867  1.00  0.00     0.338 C 
ATOM     30  O   UNL A   1      42.171  27.750  24.676  1.00  0.00    -0.246 OA
BRANCH  29  31
ATOM     31  C   UNL A   1      41.566  28.697  26.814  1.00  0.00     0.060 A 
ATOM     32  C   UNL A   1      42.514  29.454  27.488  1.00  0.00     0.016 A 
ATOM     33  C   UNL A   1      40.271  28.744  27.313  1.00  0.00     0.016 A 
ATOM     34  C   UNL A   1      42.200  30.019  28.749  1.00  0.00     0.010 A 
ATOM     35  C   UNL A   1      40.062  29.126  28.646  1.00  0.00     0.010 A 
ATOM     36  C   UNL A   1      41.075  29.651  29.461  1.00  0.00    -0.014 A 
BRANCH  36  37
ATOM     37  C   UNL A   1      40.671  30.140  30.820  1.00  0.00     0.031 A 
ATOM     38  C   UNL A   1      40.040  31.459  30.701  1.00  0.00     0.074 A 
ATOM     39  C   UNL A   1      40.763  29.562  32.069  1.00  0.00     0.049 A 
ATOM     40  N   UNL A   1      39.919  32.279  31.676  1.00  0.00    -0.248 NA
ATOM     41  C   UNL A   1      39.613  32.058  29.422  1.00  0.00     0.031 C 
ATOM     42  C   UNL A   1      39.839  29.501  33.220  1.00  0.00     0.029 A 
ATOM     43  N   UNL A   1      41.635  28.603  32.504  1.00  0.00    -0.354 N 
ATOM     44  C   UNL A   1      38.909  33.110  31.273  1.00  0.00     0.074 A 
ATOM     45  C   UNL A   1      39.015  33.166  29.848  1.00  0.00     0.031 C 
ATOM     46  C   UNL A   1      40.304  28.695  34.229  1.00  0.00     0.029 A 
ATOM     47  C   UNL A   1      41.606  28.149  33.836  1.00  0.00     0.049 A 
ATOM     48  H   UNL A   1      42.294  28.225  31.877  1.00  0.00     0.167 HD
ATOM     49  C   UNL A   1      37.905  33.332  32.158  1.00  0.00     0.034 A 
ATOM     50  C   UNL A   1      42.757  27.765  34.504  1.00  0.00     0.034 A 
ATOM     51  C   UNL A   1      38.253  32.737  33.492  1.00  0.00     0.049 A 
ATOM     52  C   UNL A   1      42.911  29.204  35.221  1.00  0.00     0.074 A 
ATOM     53  C   UNL A   1      37.688  31.774  34.312  1.00  0.00     0.029 A 
ATOM     54  N   UNL A   1      39.549  32.934  34.009  1.00  0.00    -0.354 N 
ATOM     55  N   UNL A   1      42.168  30.232  34.855  1.00  0.00    -0.248 NA
ATOM     56  C   UNL A   1      43.634  29.548  36.449  1.00  0.00     0.031 C 
ATOM     57  C   UNL A   1      38.671  31.387  35.296  1.00  0.00     0.029 A 
ATOM     58  C   UNL A   1      39.864  32.062  35.046  1.00  0.00     0.049 A 
ATOM     59  H   UNL A   1      40.169  33.619  33.671  1.00  0.00     0.167 HD
ATOM     60  C   UNL A   1      42.075  31.180  35.809  1.00  0.00     0.074 A 
ATOM     61  C   UNL A   1      43.116  30.766  36.748  1.00  0.00     0.031 C 
ATOM     62  C   UNL A   1      41.153  32.199  35.762  1.00  0.00     0.034 A 
BRANCH  49  63
ATOM     63  C   UNL A   1      36.534  33.891  31.772  1.00  0.00     0.023 A 
ATOM     64  C   UNL A   1      35.916  34.710  32.735  1.00  0.00     0.012 A 
ATOM     65  C   UNL A   1      35.798  33.716  30.561  1.00  0.00     0.148 A 
ATOM     66  C   UNL A   1      34.689  35.345  32.513  1.00  0.00     0.002 A 
ATOM     67  C   UNL A   1      34.594  34.389  30.317  1.00  0.00     0.091 A 
ATOM     68  F   UNL A   1      36.204  32.866  29.621  1.00  0.00    -0.205 F 
ATOM     69  C   UNL A   1      34.038  35.206  31.297  1.00  0.00     0.022 A 
BRANCH  67  70
ATOM     70  S   UNL A   1      33.697  34.280  28.748  1.00  0.00     0.127 S 
ATOM     71  O   UNL A   1      32.541  35.146  28.990  1.00  0.00    -0.237 OA
ATOM     72  O   UNL A   1      34.667  34.821  27.796  1.00  0.00    -0.237 OA
ATOM     73  O   UNL A   1      33.363  32.875  28.548  1.00  0.00    -0.744 OA
ENDBRANCH  67  70
ENDBRANCH  49  63
BRANCH  50  74
ATOM     74  C   UNL A   1      43.916  27.008  33.477  1.00  0.00     0.023 A 
ATOM     75  C   UNL A   1      45.428  27.665  32.572  1.00  0.00     0.012 A 
ATOM     76  C   UNL A   1      44.128  25.600  34.487  1.00  0.00     0.148 A 
ATOM     77  C   UNL A   1      47.243  26.897  33.150  1.00  0.00     0.002 A 
ATOM     78  C   UNL A   1      45.654  24.930  34.962  1.00  0.00     0.091 A 
ATOM     79  F   UNL A   1      43.014  24.870  34.701  1.00  0.00    -0.205 F 
ATOM     80  C   UNL A   1      47.214  25.570  34.407  1.00  0.00     0.022 A 
BRANCH  78  81
ATOM     81  S   UNL A   1      45.428  22.938  34.578  1.00  0.00     0.127 S 
ATOM     82  O   UNL A   1      46.782  22.400  34.699  1.00  0.00    -0.237 OA
ATOM     83  O   UNL A   1      44.530  22.558  35.663  1.00  0.00    -0.237 OA
ATOM     84  O   UNL A   1      44.883  22.880  33.231  1.00  0.00    -0.744 OA
ENDBRANCH  78  81
ENDBRANCH  50  74
BRANCH  62  85
ATOM     85  C   UNL A   1      41.430  33.530  36.407  1.00  0.00     0.023 A 
ATOM     86  C   UNL A   1      42.144  34.523  35.714  1.00  0.00     0.012 A 
ATOM     87  C   UNL A   1      40.771  33.912  37.602  1.00  0.00     0.148 A 
ATOM     88  C   UNL A   1      42.297  35.803  36.237  1.00  0.00     0.002 A 
ATOM     89  C   UNL A   1      40.787  35.230  38.022  1.00  0.00     0.091 A 
ATOM     90  F   UNL A   1      40.124  33.003  38.346  1.00  0.00    -0.205 F 
ATOM     91  C   UNL A   1      41.598  36.164  37.379  1.00  0.00     0.022 A 
BRANCH  89  92
ATOM     92  S   UNL A   1      39.631  35.815  39.265  1.00  0.00     0.127 S 
ATOM     93  O   UNL A   1      40.469  35.839  40.461  1.00  0.00    -0.237 OA
ATOM     94  O   UNL A   1      39.268  37.136  38.747  1.00  0.00    -0.237 OA
ATOM     95  O   UNL A   1      38.537  34.855  39.270  1.00  0.00    -0.744 OA
ENDBRANCH  89  92
ENDBRANCH  62  85
ENDBRANCH  36  37
ENDBRANCH  29  31
ENDBRANCH  28  29
ENDBRANCH  27  28
ENDBRANCH  26  27
ENDBRANCH   1  26
TORSDOF 22
ENDMDL
