MODEL 1
REMARK VINA RESULT:     -10.7      0.000      0.000
REMARK SMILES Cc1cc(C)n(-c2nc(C)c(C)c(Oc3cccc(C(=O)OCCOCCOC(=O)c4ccc(-c5c6nc(c(-c7cccc(S(=O)(=O)[O-])c7F)c7ccc([nH]7)c(-c7cccc(S(=O)(=O)[O-])c7F)c7nc(c(-c8cccc(S(=O)(=O)[O-])c8F)c8ccc5[nH]8)C=C7)C=C6)cc4)c3)n2)n1
REMARK SMILES IDX 25 1 24 2 23 3 22 4 20 5 21 6 19 7 15 8 16 9 94 10 17 11
REMARK SMILES IDX 18 12 14 13 13 14 7 15 8 16 95 17 9 18 10 19 11 20 12 21
REMARK SMILES IDX 6 22 1 23 2 24 3 25 96 26 4 27 5 28 26 29 27 30 28 31 29 32
REMARK SMILES IDX 30 33 31 34 32 35 93 36 33 37 92 38 34 39 35 40 36 41 86 42
REMARK SMILES IDX 37 43 91 44 85 45 87 46 38 47 90 48 84 49 83 50 39 52 71 53
REMARK SMILES IDX 51 54 70 55 52 56 55 57 69 58 88 59 53 60 54 61 68 63 89 64
REMARK SMILES IDX 56 65 40 66 41 67 49 68 42 69 44 70 50 71 43 72 45 73 46 74
REMARK SMILES IDX 47 75 48 76 72 77 73 78 81 79 74 80 76 81 82 82 75 83 77 84
REMARK SMILES IDX 78 85 79 86 80 87 57 88 58 89 66 90 59 91 61 92 67 93 60 94
REMARK SMILES IDX 62 95 63 96 64 97 65 98
REMARK H PARENT 87 51 55 62
REMARK Flexibility Score: inf
ROOT
ATOM      1  O   UNL A   1      32.886  31.186  27.349  1.00  0.00    -0.374 OA
ENDROOT
BRANCH   1   2
ATOM      2  C   UNL A   1      32.514  30.064  26.549  1.00  0.00     0.202 C 
BRANCH   2   3
ATOM      3  C   UNL A   1      31.858  28.857  27.225  1.00  0.00     0.261 C 
BRANCH   3   4
ATOM      4  O   UNL A   1      32.444  27.606  26.837  1.00  0.00    -0.460 OA
BRANCH   4   5
ATOM      5  C   UNL A   1      31.605  26.778  26.165  1.00  0.00     0.338 C 
ATOM      6  O   UNL A   1      30.504  26.401  26.532  1.00  0.00    -0.246 OA
BRANCH   5   7
ATOM      7  C   UNL A   1      32.105  26.543  24.794  1.00  0.00     0.063 A 
ATOM      8  C   UNL A   1      33.112  25.151  23.111  1.00  0.00     0.130 A 
ATOM      9  C   UNL A   1      32.823  26.113  22.138  1.00  0.00     0.047 A 
ATOM     10  C   UNL A   1      32.830  25.401  24.458  1.00  0.00     0.062 A 
ATOM     11  C   UNL A   1      32.169  27.289  22.489  1.00  0.00     0.005 A 
ATOM     12  C   UNL A   1      31.782  27.490  23.812  1.00  0.00     0.016 A 
BRANCH   8  13
ATOM     13  O   UNL A   1      33.692  23.988  22.658  1.00  0.00    -0.439 OA
BRANCH  13  14
ATOM     14  C   UNL A   1      34.183  23.087  23.602  1.00  0.00     0.227 A 
ATOM     15  C   UNL A   1      35.857  22.421  25.005  1.00  0.00     0.254 A 
ATOM     16  N   UNL A   1      35.299  21.205  25.181  1.00  0.00    -0.216 NA
ATOM     17  N   UNL A   1      35.304  23.400  24.279  1.00  0.00    -0.175 NA
ATOM     18  C   UNL A   1      34.081  20.991  24.629  1.00  0.00     0.050 A 
ATOM     19  C   UNL A   1      33.416  19.718  25.065  1.00  0.00     0.067 C 
ATOM     20  C   UNL A   1      33.481  21.905  23.773  1.00  0.00     0.033 A 
ATOM     21  C   UNL A   1      32.164  21.650  23.111  1.00  0.00     0.052 C 
BRANCH  15  22
ATOM     22  N   UNL A   1      37.138  22.670  25.604  1.00  0.00    -0.203 N 
ATOM     23  C   UNL A   1      39.196  24.734  27.645  1.00  0.00     0.069 C 
ATOM     24  C   UNL A   1      38.612  23.677  26.785  1.00  0.00     0.060 A 
ATOM     25  C   UNL A   1      39.144  22.405  26.501  1.00  0.00     0.049 A 
ATOM     26  N   UNL A   1      37.444  23.878  26.166  1.00  0.00    -0.170 NA
ATOM     27  C   UNL A   1      38.200  21.781  25.715  1.00  0.00     0.045 A 
ATOM     28  C   UNL A   1      38.252  20.480  25.001  1.00  0.00     0.067 C 
ENDBRANCH  15  22
ENDBRANCH  13  14
ENDBRANCH   8  13
ENDBRANCH   5   7
ENDBRANCH   4   5
ENDBRANCH   3   4
ENDBRANCH   2   3
ENDBRANCH   1   2
BRANCH   1  29
ATOM     29  C   UNL A   1      34.259  31.430  27.640  1.00  0.00     0.202 C 
BRANCH  29  30
ATOM     30  C   UNL A   1      35.157  30.259  28.005  1.00  0.00     0.261 C 
BRANCH  30  31
ATOM     31  O   UNL A   1      36.260  30.662  28.794  1.00  0.00    -0.460 OA
BRANCH  31  32
ATOM     32  C   UNL A   1      36.615  29.749  29.728  1.00  0.00     0.338 C 
ATOM     33  O   UNL A   1      36.172  29.631  30.854  1.00  0.00    -0.246 OA
BRANCH  32  34
ATOM     34  C   UNL A   1      37.747  28.981  29.207  1.00  0.00     0.060 A 
ATOM     35  C   UNL A   1      38.155  27.895  29.983  1.00  0.00     0.016 A 
ATOM     36  C   UNL A   1      38.560  29.559  28.222  1.00  0.00     0.016 A 
ATOM     37  C   UNL A   1      39.487  27.566  29.965  1.00  0.00     0.010 A 
ATOM     38  C   UNL A   1      39.891  29.245  28.223  1.00  0.00     0.010 A 
ATOM     39  C   UNL A   1      40.343  28.330  29.168  1.00  0.00    -0.014 A 
BRANCH  39  40
ATOM     40  C   UNL A   1      41.761  28.093  29.270  1.00  0.00     0.031 A 
ATOM     41  C   UNL A   1      42.186  26.995  28.382  1.00  0.00     0.074 A 
ATOM     42  C   UNL A   1      42.556  28.883  30.016  1.00  0.00     0.049 A 
ATOM     43  N   UNL A   1      42.538  25.802  28.729  1.00  0.00    -0.248 NA
ATOM     44  C   UNL A   1      41.956  27.160  26.936  1.00  0.00     0.031 C 
ATOM     45  C   UNL A   1      42.216  30.147  30.680  1.00  0.00     0.029 A 
ATOM     46  N   UNL A   1      43.893  28.787  30.221  1.00  0.00    -0.354 N 
ATOM     47  C   UNL A   1      42.834  25.163  27.531  1.00  0.00     0.074 A 
ATOM     48  C   UNL A   1      42.201  25.928  26.492  1.00  0.00     0.031 C 
ATOM     49  C   UNL A   1      43.358  30.814  30.970  1.00  0.00     0.029 A 
ATOM     50  C   UNL A   1      44.494  29.972  30.635  1.00  0.00     0.049 A 
ATOM     51  H   UNL A   1      44.395  27.951  30.087  1.00  0.00     0.167 HD
ATOM     52  C   UNL A   1      43.847  24.262  27.457  1.00  0.00     0.034 A 
ATOM     53  C   UNL A   1      45.824  30.244  30.597  1.00  0.00     0.034 A 
ATOM     54  C   UNL A   1      44.242  23.810  28.766  1.00  0.00     0.049 A 
ATOM     55  C   UNL A   1      46.526  28.941  30.489  1.00  0.00     0.074 A 
ATOM     56  C   UNL A   1      43.606  23.163  29.806  1.00  0.00     0.029 A 
ATOM     57  N   UNL A   1      45.362  24.397  29.303  1.00  0.00    -0.354 N 
ATOM     58  N   UNL A   1      46.525  28.042  31.431  1.00  0.00    -0.248 NA
ATOM     59  C   UNL A   1      46.839  28.453  29.155  1.00  0.00     0.031 C 
ATOM     60  C   UNL A   1      44.132  23.759  30.988  1.00  0.00     0.029 A 
ATOM     61  C   UNL A   1      45.108  24.686  30.617  1.00  0.00     0.049 A 
ATOM     62  H   UNL A   1      46.203  24.579  28.825  1.00  0.00     0.167 HD
ATOM     63  C   UNL A   1      46.370  26.838  30.756  1.00  0.00     0.074 A 
ATOM     64  C   UNL A   1      46.677  27.143  29.358  1.00  0.00     0.031 C 
ATOM     65  C   UNL A   1      45.714  25.789  31.334  1.00  0.00     0.034 A 
BRANCH  52  66
ATOM     66  C   UNL A   1      44.739  24.098  26.252  1.00  0.00     0.023 A 
ATOM     67  C   UNL A   1      44.831  22.807  25.692  1.00  0.00     0.012 A 
ATOM     68  C   UNL A   1      45.675  25.060  25.799  1.00  0.00     0.148 A 
ATOM     69  C   UNL A   1      45.819  22.484  24.756  1.00  0.00     0.002 A 
ATOM     70  C   UNL A   1      46.591  24.763  24.800  1.00  0.00     0.091 A 
ATOM     71  F   UNL A   1      45.792  26.235  26.424  1.00  0.00    -0.205 F 
ATOM     72  C   UNL A   1      46.690  23.465  24.298  1.00  0.00     0.022 A 
BRANCH  70  73
ATOM     73  S   UNL A   1      47.694  26.015  24.130  1.00  0.00     0.127 S 
ATOM     74  O   UNL A   1      46.778  27.130  23.913  1.00  0.00    -0.237 OA
ATOM     75  O   UNL A   1      48.641  26.194  25.230  1.00  0.00    -0.237 OA
ATOM     76  O   UNL A   1      48.279  25.425  22.932  1.00  0.00    -0.744 OA
ENDBRANCH  70  73
ENDBRANCH  52  66
BRANCH  53  77
ATOM     77  C   UNL A   1      46.534  31.515  30.299  1.00  0.00     0.023 A 
ATOM     78  C   UNL A   1      47.590  31.926  31.140  1.00  0.00     0.012 A 
ATOM     79  C   UNL A   1      46.407  32.142  29.040  1.00  0.00     0.148 A 
ATOM     80  C   UNL A   1      48.517  32.891  30.723  1.00  0.00     0.002 A 
ATOM     81  C   UNL A   1      47.333  33.098  28.627  1.00  0.00     0.091 A 
ATOM     82  F   UNL A   1      45.438  31.734  28.210  1.00  0.00    -0.205 F 
ATOM     83  C   UNL A   1      48.398  33.465  29.461  1.00  0.00     0.022 A 
BRANCH  81  84
ATOM     84  S   UNL A   1      47.282  33.840  26.989  1.00  0.00     0.127 S 
ATOM     85  O   UNL A   1      47.528  32.684  26.126  1.00  0.00    -0.237 OA
ATOM     86  O   UNL A   1      45.918  34.361  26.938  1.00  0.00    -0.237 OA
ATOM     87  O   UNL A   1      48.340  34.841  26.969  1.00  0.00    -0.744 OA
ENDBRANCH  81  84
ENDBRANCH  53  77
BRANCH  65  88
ATOM     88  C   UNL A   1      45.381  25.884  32.805  1.00  0.00     0.023 A 
ATOM     89  C   UNL A   1      46.323  25.607  33.820  1.00  0.00     0.012 A 
ATOM     90  C   UNL A   1      44.150  26.457  33.162  1.00  0.00     0.148 A 
ATOM     91  C   UNL A   1      46.034  25.886  35.160  1.00  0.00     0.002 A 
ATOM     92  C   UNL A   1      43.888  26.784  34.486  1.00  0.00     0.091 A 
ATOM     93  F   UNL A   1      43.266  26.713  32.185  1.00  0.00    -0.205 F 
ATOM     94  C   UNL A   1      44.823  26.492  35.491  1.00  0.00     0.022 A 
BRANCH  92  95
ATOM     95  S   UNL A   1      42.415  27.695  34.950  1.00  0.00     0.127 S 
ATOM     96  O   UNL A   1      42.573  27.811  36.399  1.00  0.00    -0.237 OA
ATOM     97  O   UNL A   1      42.577  28.949  34.213  1.00  0.00    -0.237 OA
ATOM     98  O   UNL A   1      41.286  26.887  34.508  1.00  0.00    -0.744 OA
ENDBRANCH  92  95
ENDBRANCH  65  88
ENDBRANCH  39  40
ENDBRANCH  32  34
ENDBRANCH  31  32
ENDBRANCH  30  31
ENDBRANCH  29  30
ENDBRANCH   1  29
TORSDOF 20
ENDMDL
MODEL 2
REMARK VINA RESULT:     -10.4      4.784     10.613
REMARK SMILES Cc1cc(C)n(-c2nc(C)c(C)c(Oc3cccc(C(=O)OCCOCCOC(=O)c4ccc(-c5c6nc(c(-c7cccc(S(=O)(=O)[O-])c7F)c7ccc([nH]7)c(-c7cccc(S(=O)(=O)[O-])c7F)c7nc(c(-c8cccc(S(=O)(=O)[O-])c8F)c8ccc5[nH]8)C=C7)C=C6)cc4)c3)n2)n1
REMARK SMILES IDX 25 1 24 2 23 3 22 4 20 5 21 6 19 7 15 8 16 9 94 10 17 11
REMARK SMILES IDX 18 12 14 13 13 14 7 15 8 16 95 17 9 18 10 19 11 20 12 21
REMARK SMILES IDX 6 22 1 23 2 24 3 25 96 26 4 27 5 28 26 29 27 30 28 31 29 32
REMARK SMILES IDX 30 33 31 34 32 35 93 36 33 37 92 38 34 39 35 40 36 41 86 42
REMARK SMILES IDX 37 43 91 44 85 45 87 46 38 47 90 48 84 49 83 50 39 52 71 53
REMARK SMILES IDX 51 54 70 55 52 56 55 57 69 58 88 59 53 60 54 61 68 63 89 64
REMARK SMILES IDX 56 65 40 66 41 67 49 68 42 69 44 70 50 71 43 72 45 73 46 74
REMARK SMILES IDX 47 75 48 76 72 77 73 78 81 79 74 80 76 81 82 82 75 83 77 84
REMARK SMILES IDX 78 85 79 86 80 87 57 88 58 89 66 90 59 91 61 92 67 93 60 94
REMARK SMILES IDX 62 95 63 96 64 97 65 98
REMARK H PARENT 87 51 55 62
REMARK Flexibility Score: inf
ROOT
ATOM      1  O   UNL A   1      44.077  19.872  25.563  1.00  0.00    -0.374 OA
ENDROOT
BRANCH   1   2
ATOM      2  C   UNL A   1      44.880  20.407  24.510  1.00  0.00     0.202 C 
BRANCH   2   3
ATOM      3  C   UNL A   1      46.175  21.141  24.867  1.00  0.00     0.261 C 
BRANCH   3   4
ATOM      4  O   UNL A   1      45.973  22.222  25.789  1.00  0.00    -0.460 OA
BRANCH   4   5
ATOM      5  C   UNL A   1      46.199  23.455  25.267  1.00  0.00     0.338 C 
ATOM      6  O   UNL A   1      46.196  23.757  24.085  1.00  0.00    -0.246 OA
BRANCH   5   7
ATOM      7  C   UNL A   1      46.247  24.466  26.343  1.00  0.00     0.063 A 
ATOM      8  C   UNL A   1      47.367  25.598  28.146  1.00  0.00     0.130 A 
ATOM      9  C   UNL A   1      46.336  26.540  28.201  1.00  0.00     0.047 A 
ATOM     10  C   UNL A   1      47.285  24.508  27.272  1.00  0.00     0.062 A 
ATOM     11  C   UNL A   1      45.260  26.451  27.322  1.00  0.00     0.005 A 
ATOM     12  C   UNL A   1      45.231  25.433  26.373  1.00  0.00     0.016 A 
BRANCH   8  13
ATOM     13  O   UNL A   1      48.425  25.810  29.000  1.00  0.00    -0.439 OA
BRANCH  13  14
ATOM     14  C   UNL A   1      48.149  26.249  30.294  1.00  0.00     0.227 A 
ATOM     15  C   UNL A   1      46.901  26.101  32.201  1.00  0.00     0.254 A 
ATOM     16  N   UNL A   1      47.372  27.277  32.665  1.00  0.00    -0.216 NA
ATOM     17  N   UNL A   1      47.307  25.531  31.060  1.00  0.00    -0.175 NA
ATOM     18  C   UNL A   1      48.352  27.881  31.953  1.00  0.00     0.050 A 
ATOM     19  C   UNL A   1      48.995  29.047  32.647  1.00  0.00     0.067 C 
ATOM     20  C   UNL A   1      48.759  27.422  30.708  1.00  0.00     0.033 A 
ATOM     21  C   UNL A   1      49.798  28.119  29.887  1.00  0.00     0.052 C 
BRANCH  15  22
ATOM     22  N   UNL A   1      45.877  25.436  32.958  1.00  0.00    -0.203 N 
ATOM     23  C   UNL A   1      44.990  23.301  35.662  1.00  0.00     0.069 C 
ATOM     24  C   UNL A   1      45.026  24.217  34.497  1.00  0.00     0.060 A 
ATOM     25  C   UNL A   1      43.952  24.925  33.924  1.00  0.00     0.049 A 
ATOM     26  N   UNL A   1      46.175  24.448  33.854  1.00  0.00    -0.170 NA
ATOM     27  C   UNL A   1      44.510  25.680  32.915  1.00  0.00     0.045 A 
ATOM     28  C   UNL A   1      43.865  26.527  31.880  1.00  0.00     0.067 C 
ENDBRANCH  15  22
ENDBRANCH  13  14
ENDBRANCH   8  13
ENDBRANCH   5   7
ENDBRANCH   4   5
ENDBRANCH   3   4
ENDBRANCH   2   3
ENDBRANCH   1   2
BRANCH   1  29
ATOM     29  C   UNL A   1      42.725  20.296  25.714  1.00  0.00     0.202 C 
BRANCH  29  30
ATOM     30  C   UNL A   1      42.362  21.216  26.868  1.00  0.00     0.261 C 
BRANCH  30  31
ATOM     31  O   UNL A   1      43.108  22.417  26.846  1.00  0.00    -0.460 OA
BRANCH  31  32
ATOM     32  C   UNL A   1      42.526  23.398  26.117  1.00  0.00     0.338 C 
ATOM     33  O   UNL A   1      42.685  23.636  24.935  1.00  0.00    -0.246 OA
BRANCH  32  34
ATOM     34  C   UNL A   1      41.750  24.242  27.025  1.00  0.00     0.060 A 
ATOM     35  C   UNL A   1      40.939  25.204  26.421  1.00  0.00     0.016 A 
ATOM     36  C   UNL A   1      42.122  24.302  28.376  1.00  0.00     0.016 A 
ATOM     37  C   UNL A   1      40.731  26.378  27.100  1.00  0.00     0.010 A 
ATOM     38  C   UNL A   1      41.933  25.482  29.041  1.00  0.00     0.010 A 
ATOM     39  C   UNL A   1      41.335  26.531  28.351  1.00  0.00    -0.014 A 
BRANCH  39  40
ATOM     40  C   UNL A   1      41.254  27.818  28.993  1.00  0.00     0.031 A 
ATOM     41  C   UNL A   1      42.285  28.739  28.478  1.00  0.00     0.074 A 
ATOM     42  C   UNL A   1      40.271  28.112  29.863  1.00  0.00     0.049 A 
ATOM     43  N   UNL A   1      43.352  29.135  29.087  1.00  0.00    -0.248 NA
ATOM     44  C   UNL A   1      42.257  29.057  27.040  1.00  0.00     0.031 C 
ATOM     45  C   UNL A   1      39.073  27.325  30.180  1.00  0.00     0.029 A 
ATOM     46  N   UNL A   1      40.064  29.262  30.552  1.00  0.00    -0.354 N 
ATOM     47  C   UNL A   1      43.981  29.977  28.177  1.00  0.00     0.074 A 
ATOM     48  C   UNL A   1      43.431  29.668  26.886  1.00  0.00     0.031 C 
ATOM     49  C   UNL A   1      38.160  28.131  30.773  1.00  0.00     0.029 A 
ATOM     50  C   UNL A   1      38.756  29.437  30.992  1.00  0.00     0.049 A 
ATOM     51  H   UNL A   1      40.779  29.917  30.724  1.00  0.00     0.167 HD
ATOM     52  C   UNL A   1      44.645  31.083  28.600  1.00  0.00     0.034 A 
ATOM     53  C   UNL A   1      38.207  30.609  31.405  1.00  0.00     0.034 A 
ATOM     54  C   UNL A   1      44.926  31.018  30.010  1.00  0.00     0.049 A 
ATOM     55  C   UNL A   1      39.332  31.517  31.737  1.00  0.00     0.074 A 
ATOM     56  C   UNL A   1      45.633  30.157  30.824  1.00  0.00     0.029 A 
ATOM     57  N   UNL A   1      44.081  31.723  30.834  1.00  0.00    -0.354 N 
ATOM     58  N   UNL A   1      40.155  31.313  32.726  1.00  0.00    -0.248 NA
ATOM     59  C   UNL A   1      39.818  32.400  30.688  1.00  0.00     0.031 C 
ATOM     60  C   UNL A   1      44.870  30.074  32.026  1.00  0.00     0.029 A 
ATOM     61  C   UNL A   1      43.778  30.937  31.913  1.00  0.00     0.049 A 
ATOM     62  H   UNL A   1      43.751  32.636  30.675  1.00  0.00     0.167 HD
ATOM     63  C   UNL A   1      41.401  31.646  32.211  1.00  0.00     0.074 A 
ATOM     64  C   UNL A   1      41.119  32.407  30.994  1.00  0.00     0.031 C 
ATOM     65  C   UNL A   1      42.530  31.015  32.646  1.00  0.00     0.034 A 
BRANCH  52  66
ATOM     66  C   UNL A   1      44.684  32.384  27.837  1.00  0.00     0.023 A 
ATOM     67  C   UNL A   1      45.798  32.606  27.003  1.00  0.00     0.012 A 
ATOM     68  C   UNL A   1      43.834  33.491  28.079  1.00  0.00     0.148 A 
ATOM     69  C   UNL A   1      46.069  33.868  26.466  1.00  0.00     0.002 A 
ATOM     70  C   UNL A   1      44.052  34.717  27.467  1.00  0.00     0.091 A 
ATOM     71  F   UNL A   1      42.884  33.421  29.015  1.00  0.00    -0.205 F 
ATOM     72  C   UNL A   1      45.189  34.921  26.684  1.00  0.00     0.022 A 
BRANCH  70  73
ATOM     73  S   UNL A   1      42.907  36.088  27.668  1.00  0.00     0.127 S 
ATOM     74  O   UNL A   1      42.764  36.142  29.119  1.00  0.00    -0.237 OA
ATOM     75  O   UNL A   1      43.659  37.192  27.076  1.00  0.00    -0.237 OA
ATOM     76  O   UNL A   1      41.711  35.715  26.921  1.00  0.00    -0.744 OA
ENDBRANCH  70  73
ENDBRANCH  52  66
BRANCH  53  77
ATOM     77  C   UNL A   1      36.832  31.142  31.217  1.00  0.00     0.023 A 
ATOM     78  C   UNL A   1      36.146  31.681  32.326  1.00  0.00     0.012 A 
ATOM     79  C   UNL A   1      36.330  31.422  29.927  1.00  0.00     0.148 A 
ATOM     80  C   UNL A   1      35.030  32.511  32.157  1.00  0.00     0.002 A 
ATOM     81  C   UNL A   1      35.222  32.251  29.763  1.00  0.00     0.091 A 
ATOM     82  F   UNL A   1      36.993  30.956  28.861  1.00  0.00    -0.205 F 
ATOM     83  C   UNL A   1      34.577  32.808  30.875  1.00  0.00     0.022 A 
BRANCH  81  84
ATOM     84  S   UNL A   1      34.615  32.731  28.138  1.00  0.00     0.127 S 
ATOM     85  O   UNL A   1      35.782  33.405  27.567  1.00  0.00    -0.237 OA
ATOM     86  O   UNL A   1      34.303  31.436  27.539  1.00  0.00    -0.237 OA
ATOM     87  O   UNL A   1      33.475  33.605  28.378  1.00  0.00    -0.744 OA
ENDBRANCH  81  84
ENDBRANCH  53  77
BRANCH  65  88
ATOM     88  C   UNL A   1      42.425  30.131  33.867  1.00  0.00     0.023 A 
ATOM     89  C   UNL A   1      41.896  28.823  33.818  1.00  0.00     0.012 A 
ATOM     90  C   UNL A   1      43.056  30.563  35.044  1.00  0.00     0.148 A 
ATOM     91  C   UNL A   1      41.987  27.971  34.925  1.00  0.00     0.002 A 
ATOM     92  C   UNL A   1      43.194  29.697  36.121  1.00  0.00     0.091 A 
ATOM     93  F   UNL A   1      43.552  31.810  35.074  1.00  0.00    -0.205 F 
ATOM     94  C   UNL A   1      42.653  28.403  36.071  1.00  0.00     0.022 A 
BRANCH  92  95
ATOM     95  S   UNL A   1      44.164  30.144  37.561  1.00  0.00     0.127 S 
ATOM     96  O   UNL A   1      44.378  28.847  38.200  1.00  0.00    -0.237 OA
ATOM     97  O   UNL A   1      45.361  30.736  36.961  1.00  0.00    -0.237 OA
ATOM     98  O   UNL A   1      43.351  31.087  38.318  1.00  0.00    -0.744 OA
ENDBRANCH  92  95
ENDBRANCH  65  88
ENDBRANCH  39  40
ENDBRANCH  32  34
ENDBRANCH  31  32
ENDBRANCH  30  31
ENDBRANCH  29  30
ENDBRANCH   1  29
TORSDOF 20
ENDMDL
MODEL 3
REMARK VINA RESULT:     -10.4      4.793     11.262
REMARK SMILES Cc1cc(C)n(-c2nc(C)c(C)c(Oc3cccc(C(=O)OCCOCCOC(=O)c4ccc(-c5c6nc(c(-c7cccc(S(=O)(=O)[O-])c7F)c7ccc([nH]7)c(-c7cccc(S(=O)(=O)[O-])c7F)c7nc(c(-c8cccc(S(=O)(=O)[O-])c8F)c8ccc5[nH]8)C=C7)C=C6)cc4)c3)n2)n1
REMARK SMILES IDX 25 1 24 2 23 3 22 4 20 5 21 6 19 7 15 8 16 9 94 10 17 11
REMARK SMILES IDX 18 12 14 13 13 14 7 15 8 16 95 17 9 18 10 19 11 20 12 21
REMARK SMILES IDX 6 22 1 23 2 24 3 25 96 26 4 27 5 28 26 29 27 30 28 31 29 32
REMARK SMILES IDX 30 33 31 34 32 35 93 36 33 37 92 38 34 39 35 40 36 41 86 42
REMARK SMILES IDX 37 43 91 44 85 45 87 46 38 47 90 48 84 49 83 50 39 52 71 53
REMARK SMILES IDX 51 54 70 55 52 56 55 57 69 58 88 59 53 60 54 61 68 63 89 64
REMARK SMILES IDX 56 65 40 66 41 67 49 68 42 69 44 70 50 71 43 72 45 73 46 74
REMARK SMILES IDX 47 75 48 76 72 77 73 78 81 79 74 80 76 81 82 82 75 83 77 84
REMARK SMILES IDX 78 85 79 86 80 87 57 88 58 89 66 90 59 91 61 92 67 93 60 94
REMARK SMILES IDX 62 95 63 96 64 97 65 98
REMARK H PARENT 87 51 55 62
REMARK Flexibility Score: inf
ROOT
ATOM      1  O   UNL A   1      34.137  33.748  31.157  1.00  0.00    -0.374 OA
ENDROOT
BRANCH   1   2
ATOM      2  C   UNL A   1      34.692  32.525  31.641  1.00  0.00     0.202 C 
BRANCH   2   3
ATOM      3  C   UNL A   1      35.467  32.535  32.961  1.00  0.00     0.261 C 
BRANCH   3   4
ATOM      4  O   UNL A   1      36.890  32.574  32.778  1.00  0.00    -0.460 OA
BRANCH   4   5
ATOM      5  C   UNL A   1      37.529  31.421  33.103  1.00  0.00     0.338 C 
ATOM      6  O   UNL A   1      37.161  30.287  32.845  1.00  0.00    -0.246 OA
BRANCH   5   7
ATOM      7  C   UNL A   1      38.874  31.715  33.641  1.00  0.00     0.063 A 
ATOM      8  C   UNL A   1      40.622  31.419  35.266  1.00  0.00     0.130 A 
ATOM      9  C   UNL A   1      41.497  32.157  34.464  1.00  0.00     0.047 A 
ATOM     10  C   UNL A   1      39.281  31.267  34.896  1.00  0.00     0.062 A 
ATOM     11  C   UNL A   1      41.065  32.671  33.245  1.00  0.00     0.005 A 
ATOM     12  C   UNL A   1      39.763  32.423  32.819  1.00  0.00     0.016 A 
BRANCH   8  13
ATOM     13  O   UNL A   1      41.159  30.886  36.415  1.00  0.00    -0.439 OA
BRANCH  13  14
ATOM     14  C   UNL A   1      41.675  31.763  37.369  1.00  0.00     0.227 A 
ATOM     15  C   UNL A   1      41.364  33.491  38.829  1.00  0.00     0.254 A 
ATOM     16  N   UNL A   1      42.692  33.680  38.972  1.00  0.00    -0.216 NA
ATOM     17  N   UNL A   1      40.823  32.514  38.091  1.00  0.00    -0.175 NA
ATOM     18  C   UNL A   1      43.518  32.790  38.372  1.00  0.00     0.050 A 
ATOM     19  C   UNL A   1      44.960  32.914  38.770  1.00  0.00     0.067 C 
ATOM     20  C   UNL A   1      43.053  31.812  37.502  1.00  0.00     0.033 A 
ATOM     21  C   UNL A   1      43.963  30.864  36.787  1.00  0.00     0.052 C 
BRANCH  15  22
ATOM     22  N   UNL A   1      40.476  34.414  39.479  1.00  0.00    -0.203 N 
ATOM     23  C   UNL A   1      38.840  37.573  39.485  1.00  0.00     0.069 C 
ATOM     24  C   UNL A   1      39.343  36.207  39.764  1.00  0.00     0.060 A 
ATOM     25  C   UNL A   1      38.851  35.282  40.705  1.00  0.00     0.049 A 
ATOM     26  N   UNL A   1      40.388  35.720  39.087  1.00  0.00    -0.170 NA
ATOM     27  C   UNL A   1      39.610  34.146  40.531  1.00  0.00     0.045 A 
ATOM     28  C   UNL A   1      39.647  32.886  41.317  1.00  0.00     0.067 C 
ENDBRANCH  15  22
ENDBRANCH  13  14
ENDBRANCH   8  13
ENDBRANCH   5   7
ENDBRANCH   4   5
ENDBRANCH   3   4
ENDBRANCH   2   3
ENDBRANCH   1   2
BRANCH   1  29
ATOM     29  C   UNL A   1      34.770  34.443  30.087  1.00  0.00     0.202 C 
BRANCH  29  30
ATOM     30  C   UNL A   1      34.680  33.877  28.679  1.00  0.00     0.261 C 
BRANCH  30  31
ATOM     31  O   UNL A   1      35.878  33.234  28.288  1.00  0.00    -0.460 OA
BRANCH  31  32
ATOM     32  C   UNL A   1      35.738  31.900  28.110  1.00  0.00     0.338 C 
ATOM     33  O   UNL A   1      34.904  31.325  27.437  1.00  0.00    -0.246 OA
BRANCH  32  34
ATOM     34  C   UNL A   1      36.695  31.221  28.985  1.00  0.00     0.060 A 
ATOM     35  C   UNL A   1      37.854  31.936  29.292  1.00  0.00     0.016 A 
ATOM     36  C   UNL A   1      36.593  29.833  29.150  1.00  0.00     0.016 A 
ATOM     37  C   UNL A   1      39.006  31.221  29.500  1.00  0.00     0.010 A 
ATOM     38  C   UNL A   1      37.747  29.122  29.334  1.00  0.00     0.010 A 
ATOM     39  C   UNL A   1      38.943  29.829  29.400  1.00  0.00    -0.014 A 
BRANCH  39  40
ATOM     40  C   UNL A   1      40.177  29.086  29.456  1.00  0.00     0.031 A 
ATOM     41  C   UNL A   1      40.614  28.877  30.849  1.00  0.00     0.074 A 
ATOM     42  C   UNL A   1      40.746  28.580  28.347  1.00  0.00     0.049 A 
ATOM     43  N   UNL A   1      41.597  29.457  31.453  1.00  0.00    -0.248 NA
ATOM     44  C   UNL A   1      39.710  28.134  31.744  1.00  0.00     0.031 C 
ATOM     45  C   UNL A   1      40.194  28.522  26.987  1.00  0.00     0.029 A 
ATOM     46  N   UNL A   1      41.899  27.874  28.232  1.00  0.00    -0.354 N 
ATOM     47  C   UNL A   1      41.581  28.923  32.736  1.00  0.00     0.074 A 
ATOM     48  C   UNL A   1      40.273  28.360  32.929  1.00  0.00     0.031 C 
ATOM     49  C   UNL A   1      40.880  27.598  26.273  1.00  0.00     0.029 A 
ATOM     50  C   UNL A   1      41.985  27.105  27.075  1.00  0.00     0.049 A 
ATOM     51  H   UNL A   1      42.612  27.903  28.910  1.00  0.00     0.167 HD
ATOM     52  C   UNL A   1      42.740  28.686  33.404  1.00  0.00     0.034 A 
ATOM     53  C   UNL A   1      42.851  26.080  26.867  1.00  0.00     0.034 A 
ATOM     54  C   UNL A   1      43.842  29.394  32.807  1.00  0.00     0.049 A 
ATOM     55  C   UNL A   1      43.946  26.233  27.856  1.00  0.00     0.074 A 
ATOM     56  C   UNL A   1      44.132  30.722  32.567  1.00  0.00     0.029 A 
ATOM     57  N   UNL A   1      44.660  28.664  31.977  1.00  0.00    -0.354 N 
ATOM     58  N   UNL A   1      44.792  27.223  27.845  1.00  0.00    -0.248 NA
ATOM     59  C   UNL A   1      43.811  25.534  29.125  1.00  0.00     0.031 C 
ATOM     60  C   UNL A   1      44.785  30.735  31.300  1.00  0.00     0.029 A 
ATOM     61  C   UNL A   1      44.924  29.415  30.864  1.00  0.00     0.049 A 
ATOM     62  H   UNL A   1      44.997  27.757  32.154  1.00  0.00     0.167 HD
ATOM     63  C   UNL A   1      44.936  27.566  29.184  1.00  0.00     0.074 A 
ATOM     64  C   UNL A   1      44.395  26.428  29.928  1.00  0.00     0.031 C 
ATOM     65  C   UNL A   1      45.190  28.855  29.554  1.00  0.00     0.034 A 
BRANCH  52  66
ATOM     66  C   UNL A   1      42.951  27.517  34.333  1.00  0.00     0.023 A 
ATOM     67  C   UNL A   1      42.865  27.773  35.717  1.00  0.00     0.012 A 
ATOM     68  C   UNL A   1      43.470  26.258  33.946  1.00  0.00     0.148 A 
ATOM     69  C   UNL A   1      43.302  26.839  36.661  1.00  0.00     0.002 A 
ATOM     70  C   UNL A   1      43.812  25.296  34.886  1.00  0.00     0.091 A 
ATOM     71  F   UNL A   1      43.778  26.018  32.669  1.00  0.00    -0.205 F 
ATOM     72  C   UNL A   1      43.762  25.594  36.248  1.00  0.00     0.022 A 
BRANCH  70  73
ATOM     73  S   UNL A   1      44.349  23.651  34.400  1.00  0.00     0.127 S 
ATOM     74  O   UNL A   1      44.555  23.013  35.696  1.00  0.00    -0.237 OA
ATOM     75  O   UNL A   1      43.191  23.171  33.648  1.00  0.00    -0.237 OA
ATOM     76  O   UNL A   1      45.545  23.851  33.588  1.00  0.00    -0.744 OA
ENDBRANCH  70  73
ENDBRANCH  52  66
BRANCH  53  77
ATOM     77  C   UNL A   1      42.659  24.797  26.139  1.00  0.00     0.023 A 
ATOM     78  C   UNL A   1      43.638  24.379  25.213  1.00  0.00     0.012 A 
ATOM     79  C   UNL A   1      41.714  23.845  26.581  1.00  0.00     0.148 A 
ATOM     80  C   UNL A   1      43.705  23.048  24.779  1.00  0.00     0.002 A 
ATOM     81  C   UNL A   1      41.788  22.522  26.150  1.00  0.00     0.091 A 
ATOM     82  F   UNL A   1      40.805  24.212  27.493  1.00  0.00    -0.205 F 
ATOM     83  C   UNL A   1      42.790  22.117  25.259  1.00  0.00     0.022 A 
BRANCH  81  84
ATOM     84  S   UNL A   1      40.680  21.247  26.772  1.00  0.00     0.127 S 
ATOM     85  O   UNL A   1      39.378  21.726  26.308  1.00  0.00    -0.237 OA
ATOM     86  O   UNL A   1      41.174  20.058  26.082  1.00  0.00    -0.237 OA
ATOM     87  O   UNL A   1      40.840  21.248  28.219  1.00  0.00    -0.744 OA
ENDBRANCH  81  84
ENDBRANCH  53  77
BRANCH  65  88
ATOM     88  C   UNL A   1      45.556  29.845  28.473  1.00  0.00     0.023 A 
ATOM     89  C   UNL A   1      44.603  30.681  27.850  1.00  0.00     0.012 A 
ATOM     90  C   UNL A   1      46.919  30.072  28.228  1.00  0.00     0.148 A 
ATOM     91  C   UNL A   1      45.006  31.711  26.993  1.00  0.00     0.002 A 
ATOM     92  C   UNL A   1      47.318  31.129  27.421  1.00  0.00     0.091 A 
ATOM     93  F   UNL A   1      47.811  29.267  28.827  1.00  0.00    -0.205 F 
ATOM     94  C   UNL A   1      46.365  31.946  26.793  1.00  0.00     0.022 A 
BRANCH  92  95
ATOM     95  S   UNL A   1      49.047  31.570  27.244  1.00  0.00     0.127 S 
ATOM     96  O   UNL A   1      49.604  30.374  26.615  1.00  0.00    -0.237 OA
ATOM     97  O   UNL A   1      48.983  32.746  26.375  1.00  0.00    -0.237 OA
ATOM     98  O   UNL A   1      49.530  31.851  28.590  1.00  0.00    -0.744 OA
ENDBRANCH  92  95
ENDBRANCH  65  88
ENDBRANCH  39  40
ENDBRANCH  32  34
ENDBRANCH  31  32
ENDBRANCH  30  31
ENDBRANCH  29  30
ENDBRANCH   1  29
TORSDOF 20
ENDMDL
