MODEL 1
REMARK VINA RESULT:     -10.7      0.000      0.000
REMARK SMILES CCN(C(=O)N[C@@H]1CCOC1)[C@H]1COC[C@H]1C(=O)OCCOCCOC(=O)c1ccc(-c2c3nc(c(-c4cccc(S(=O)(=O)[O-])c4F)c4ccc([nH]4)c(-c4cccc(S(=O)(=O)[O-])c4F)c4nc(c(-c5cccc(S(=O)(=O)[O-])c5F)c5ccc2[nH]5)C=C4)C=C3)cc1
REMARK SMILES IDX 22 1 21 2 20 3 19 4 17 5 18 6 16 7 12 8 13 9 14 10 15 11
REMARK SMILES IDX 3 12 2 13 1 14 4 15 5 16 6 17 7 19 8 20 11 21 9 22 10 23
REMARK SMILES IDX 23 24 24 25 25 26 26 27 27 28 28 29 29 30 90 31 30 32 89 33
REMARK SMILES IDX 31 34 32 35 33 36 83 37 34 38 88 39 82 40 84 41 35 42 87 43
REMARK SMILES IDX 81 44 80 45 36 47 68 48 48 49 67 50 49 51 52 52 66 53 85 54
REMARK SMILES IDX 50 55 51 56 65 58 86 59 53 60 37 61 38 62 46 63 39 64 41 65
REMARK SMILES IDX 47 66 40 67 42 68 43 69 44 70 45 71 69 72 70 73 78 74 71 75
REMARK SMILES IDX 73 76 79 77 72 78 74 79 75 80 76 81 77 82 54 83 55 84 63 85
REMARK SMILES IDX 56 86 58 87 64 88 57 89 59 90 60 91 61 92 62 93
REMARK H PARENT 6 18 84 46 52 57
REMARK Flexibility Score: inf
ROOT
ATOM      1  O   UNL A   1      34.990  19.223  24.801  1.00  0.00    -0.374 OA
ENDROOT
BRANCH   1   2
ATOM      2  C   UNL A   1      33.588  19.477  24.665  1.00  0.00     0.202 C 
BRANCH   2   3
ATOM      3  C   UNL A   1      33.011  20.502  25.645  1.00  0.00     0.261 C 
BRANCH   3   4
ATOM      4  O   UNL A   1      32.725  21.755  24.985  1.00  0.00    -0.463 OA
BRANCH   4   5
ATOM      5  C   UNL A   1      32.292  22.735  25.799  1.00  0.00     0.313 C 
ATOM      6  O   UNL A   1      31.319  22.629  26.546  1.00  0.00    -0.252 OA
BRANCH   5   7
ATOM      7  C   UNL A   1      33.024  24.042  25.699  1.00  0.00     0.150 C 
ATOM      8  C   UNL A   1      33.767  24.673  24.511  1.00  0.00     0.129 C 
ATOM      9  C   UNL A   1      34.260  25.911  25.292  1.00  0.00     0.186 C 
ATOM     10  O   UNL A   1      33.153  26.345  26.115  1.00  0.00    -0.378 OA
ATOM     11  C   UNL A   1      32.281  25.206  26.299  1.00  0.00     0.177 C 
BRANCH   8  12
ATOM     12  N   UNL A   1      33.028  24.961  23.229  1.00  0.00    -0.319 N 
BRANCH  12  13
ATOM     13  C   UNL A   1      32.175  23.940  22.638  1.00  0.00     0.118 C 
ATOM     14  C   UNL A   1      32.914  22.912  21.808  1.00  0.00     0.027 C 
ENDBRANCH  12  13
BRANCH  12  15
ATOM     15  C   UNL A   1      33.093  26.237  22.767  1.00  0.00     0.318 C 
ATOM     16  O   UNL A   1      34.016  26.552  22.009  1.00  0.00    -0.249 OA
ATOM     17  N   UNL A   1      32.226  27.229  22.968  1.00  0.00    -0.333 N 
ATOM     18  H   UNL A   1      32.139  27.702  22.108  1.00  0.00     0.165 HD
BRANCH  17  19
ATOM     19  C   UNL A   1      31.336  27.929  23.926  1.00  0.00     0.112 C 
ATOM     20  C   UNL A   1      30.026  27.175  24.080  1.00  0.00     0.056 C 
ATOM     21  C   UNL A   1      30.818  29.346  23.763  1.00  0.00     0.185 C 
ATOM     22  C   UNL A   1      29.098  27.906  23.141  1.00  0.00     0.162 C 
ATOM     23  O   UNL A   1      29.554  29.263  23.074  1.00  0.00    -0.379 OA
ENDBRANCH  17  19
ENDBRANCH  12  15
ENDBRANCH   8  12
ENDBRANCH   5   7
ENDBRANCH   4   5
ENDBRANCH   3   4
ENDBRANCH   2   3
ENDBRANCH   1   2
BRANCH   1  24
ATOM     24  C   UNL A   1      35.814  20.376  24.971  1.00  0.00     0.202 C 
BRANCH  24  25
ATOM     25  C   UNL A   1      37.336  20.131  24.942  1.00  0.00     0.261 C 
BRANCH  25  26
ATOM     26  O   UNL A   1      38.130  21.286  25.267  1.00  0.00    -0.460 OA
BRANCH  26  27
ATOM     27  C   UNL A   1      39.239  21.056  26.017  1.00  0.00     0.338 C 
ATOM     28  O   UNL A   1      39.839  20.012  26.142  1.00  0.00    -0.246 OA
BRANCH  27  29
ATOM     29  C   UNL A   1      39.726  22.356  26.550  1.00  0.00     0.060 A 
ATOM     30  C   UNL A   1      39.135  23.535  26.084  1.00  0.00     0.016 A 
ATOM     31  C   UNL A   1      40.743  22.422  27.499  1.00  0.00     0.016 A 
ATOM     32  C   UNL A   1      39.581  24.781  26.548  1.00  0.00     0.010 A 
ATOM     33  C   UNL A   1      41.162  23.667  27.984  1.00  0.00     0.010 A 
ATOM     34  C   UNL A   1      40.614  24.866  27.493  1.00  0.00    -0.014 A 
BRANCH  34  35
ATOM     35  C   UNL A   1      41.206  26.185  27.877  1.00  0.00     0.031 A 
ATOM     36  C   UNL A   1      42.620  26.522  27.453  1.00  0.00     0.074 A 
ATOM     37  C   UNL A   1      40.524  27.083  28.619  1.00  0.00     0.049 A 
ATOM     38  N   UNL A   1      43.329  27.593  27.708  1.00  0.00    -0.248 NA
ATOM     39  C   UNL A   1      43.343  25.505  26.673  1.00  0.00     0.031 C 
ATOM     40  C   UNL A   1      39.182  26.893  29.169  1.00  0.00     0.029 A 
ATOM     41  N   UNL A   1      40.882  28.341  29.052  1.00  0.00    -0.354 N 
ATOM     42  C   UNL A   1      44.589  27.354  27.169  1.00  0.00     0.074 A 
ATOM     43  C   UNL A   1      44.562  26.017  26.619  1.00  0.00     0.031 C 
ATOM     44  C   UNL A   1      38.826  27.995  29.853  1.00  0.00     0.029 A 
ATOM     45  C   UNL A   1      39.917  28.969  29.807  1.00  0.00     0.049 A 
ATOM     46  H   UNL A   1      41.750  28.754  28.841  1.00  0.00     0.167 HD
ATOM     47  C   UNL A   1      45.661  28.176  27.088  1.00  0.00     0.034 A 
ATOM     48  C   UNL A   1      39.905  30.186  30.389  1.00  0.00     0.034 A 
ATOM     49  C   UNL A   1      45.678  29.542  27.534  1.00  0.00     0.049 A 
ATOM     50  C   UNL A   1      41.085  31.113  30.226  1.00  0.00     0.074 A 
ATOM     51  C   UNL A   1      46.682  30.482  27.382  1.00  0.00     0.029 A 
ATOM     52  N   UNL A   1      44.643  30.166  28.208  1.00  0.00    -0.354 N 
ATOM     53  N   UNL A   1      42.202  30.923  29.565  1.00  0.00    -0.248 NA
ATOM     54  C   UNL A   1      40.987  32.440  30.857  1.00  0.00     0.031 C 
ATOM     55  C   UNL A   1      46.259  31.675  27.975  1.00  0.00     0.029 A 
ATOM     56  C   UNL A   1      44.984  31.480  28.480  1.00  0.00     0.049 A 
ATOM     57  H   UNL A   1      43.791  29.740  28.455  1.00  0.00     0.167 HD
ATOM     58  C   UNL A   1      42.915  32.115  29.667  1.00  0.00     0.074 A 
ATOM     59  C   UNL A   1      42.099  33.028  30.436  1.00  0.00     0.031 C 
ATOM     60  C   UNL A   1      44.144  32.416  29.181  1.00  0.00     0.034 A 
BRANCH  47  61
ATOM     61  C   UNL A   1      46.900  27.641  26.414  1.00  0.00     0.023 A 
ATOM     62  C   UNL A   1      47.789  26.825  27.144  1.00  0.00     0.012 A 
ATOM     63  C   UNL A   1      47.154  27.898  25.054  1.00  0.00     0.148 A 
ATOM     64  C   UNL A   1      48.937  26.314  26.545  1.00  0.00     0.002 A 
ATOM     65  C   UNL A   1      48.275  27.342  24.449  1.00  0.00     0.091 A 
ATOM     66  F   UNL A   1      46.306  28.690  24.381  1.00  0.00    -0.205 F 
ATOM     67  C   UNL A   1      49.175  26.563  25.196  1.00  0.00     0.022 A 
BRANCH  65  68
ATOM     68  S   UNL A   1      48.623  27.531  22.697  1.00  0.00     0.127 S 
ATOM     69  O   UNL A   1      49.887  28.265  22.725  1.00  0.00    -0.237 OA
ATOM     70  O   UNL A   1      48.734  26.141  22.254  1.00  0.00    -0.237 OA
ATOM     71  O   UNL A   1      47.490  28.255  22.140  1.00  0.00    -0.744 OA
ENDBRANCH  65  68
ENDBRANCH  47  61
BRANCH  48  72
ATOM     72  C   UNL A   1      38.698  30.650  31.134  1.00  0.00     0.023 A 
ATOM     73  C   UNL A   1      38.615  30.426  32.523  1.00  0.00     0.012 A 
ATOM     74  C   UNL A   1      37.631  31.293  30.480  1.00  0.00     0.148 A 
ATOM     75  C   UNL A   1      37.476  30.799  33.240  1.00  0.00     0.002 A 
ATOM     76  C   UNL A   1      36.522  31.711  31.209  1.00  0.00     0.091 A 
ATOM     77  F   UNL A   1      37.722  31.483  29.156  1.00  0.00    -0.205 F 
ATOM     78  C   UNL A   1      36.435  31.448  32.584  1.00  0.00     0.022 A 
BRANCH  76  79
ATOM     79  S   UNL A   1      35.187  32.660  30.472  1.00  0.00     0.127 S 
ATOM     80  O   UNL A   1      34.284  32.836  31.605  1.00  0.00    -0.237 OA
ATOM     81  O   UNL A   1      35.883  33.874  30.042  1.00  0.00    -0.237 OA
ATOM     82  O   UNL A   1      34.682  31.840  29.379  1.00  0.00    -0.744 OA
ENDBRANCH  76  79
ENDBRANCH  48  72
BRANCH  60  83
ATOM     83  C   UNL A   1      44.688  33.802  29.413  1.00  0.00     0.023 A 
ATOM     84  C   UNL A   1      45.571  34.040  30.485  1.00  0.00     0.012 A 
ATOM     85  C   UNL A   1      44.408  34.847  28.507  1.00  0.00     0.148 A 
ATOM     86  C   UNL A   1      46.145  35.297  30.666  1.00  0.00     0.002 A 
ATOM     87  C   UNL A   1      45.021  36.084  28.666  1.00  0.00     0.091 A 
ATOM     88  F   UNL A   1      43.554  34.607  27.501  1.00  0.00    -0.205 F 
ATOM     89  C   UNL A   1      45.882  36.315  29.752  1.00  0.00     0.022 A 
BRANCH  87  90
ATOM     90  S   UNL A   1      44.819  37.422  27.484  1.00  0.00     0.127 S 
ATOM     91  O   UNL A   1      43.457  37.191  27.004  1.00  0.00    -0.237 OA
ATOM     92  O   UNL A   1      44.975  38.608  28.326  1.00  0.00    -0.237 OA
ATOM     93  O   UNL A   1      45.870  37.244  26.491  1.00  0.00    -0.744 OA
ENDBRANCH  87  90
ENDBRANCH  60  83
ENDBRANCH  34  35
ENDBRANCH  27  29
ENDBRANCH  26  27
ENDBRANCH  25  26
ENDBRANCH  24  25
ENDBRANCH   1  24
TORSDOF 21
ENDMDL
MODEL 2
REMARK VINA RESULT:     -10.6      1.573      2.230
REMARK SMILES CCN(C(=O)N[C@@H]1CCOC1)[C@H]1COC[C@H]1C(=O)OCCOCCOC(=O)c1ccc(-c2c3nc(c(-c4cccc(S(=O)(=O)[O-])c4F)c4ccc([nH]4)c(-c4cccc(S(=O)(=O)[O-])c4F)c4nc(c(-c5cccc(S(=O)(=O)[O-])c5F)c5ccc2[nH]5)C=C4)C=C3)cc1
REMARK SMILES IDX 22 1 21 2 20 3 19 4 17 5 18 6 16 7 12 8 13 9 14 10 15 11
REMARK SMILES IDX 3 12 2 13 1 14 4 15 5 16 6 17 7 19 8 20 11 21 9 22 10 23
REMARK SMILES IDX 23 24 24 25 25 26 26 27 27 28 28 29 29 30 90 31 30 32 89 33
REMARK SMILES IDX 31 34 32 35 33 36 83 37 34 38 88 39 82 40 84 41 35 42 87 43
REMARK SMILES IDX 81 44 80 45 36 47 68 48 48 49 67 50 49 51 52 52 66 53 85 54
REMARK SMILES IDX 50 55 51 56 65 58 86 59 53 60 37 61 38 62 46 63 39 64 41 65
REMARK SMILES IDX 47 66 40 67 42 68 43 69 44 70 45 71 69 72 70 73 78 74 71 75
REMARK SMILES IDX 73 76 79 77 72 78 74 79 75 80 76 81 77 82 54 83 55 84 63 85
REMARK SMILES IDX 56 86 58 87 64 88 57 89 59 90 60 91 61 92 62 93
REMARK H PARENT 6 18 84 46 52 57
REMARK Flexibility Score: inf
ROOT
ATOM      1  O   UNL A   1      35.388  21.476  25.030  1.00  0.00    -0.374 OA
ENDROOT
BRANCH   1   2
ATOM      2  C   UNL A   1      34.191  21.695  25.783  1.00  0.00     0.202 C 
BRANCH   2   3
ATOM      3  C   UNL A   1      32.900  21.739  24.962  1.00  0.00     0.261 C 
BRANCH   3   4
ATOM      4  O   UNL A   1      32.368  23.080  24.891  1.00  0.00    -0.463 OA
BRANCH   4   5
ATOM      5  C   UNL A   1      31.834  23.412  23.702  1.00  0.00     0.313 C 
ATOM      6  O   UNL A   1      30.996  22.732  23.110  1.00  0.00    -0.252 OA
BRANCH   5   7
ATOM      7  C   UNL A   1      32.380  24.657  23.063  1.00  0.00     0.150 C 
ATOM      8  C   UNL A   1      31.650  25.814  22.365  1.00  0.00     0.129 C 
ATOM      9  C   UNL A   1      32.934  26.570  21.959  1.00  0.00     0.186 C 
ATOM     10  O   UNL A   1      33.826  26.500  23.095  1.00  0.00    -0.378 OA
ATOM     11  C   UNL A   1      33.428  25.357  23.885  1.00  0.00     0.177 C 
BRANCH   8  12
ATOM     12  N   UNL A   1      30.626  26.623  23.120  1.00  0.00    -0.319 N 
BRANCH  12  13
ATOM     13  C   UNL A   1      29.599  25.948  23.899  1.00  0.00     0.118 C 
ATOM     14  C   UNL A   1      29.865  25.919  25.390  1.00  0.00     0.027 C 
ENDBRANCH  12  13
BRANCH  12  15
ATOM     15  C   UNL A   1      30.816  27.969  23.143  1.00  0.00     0.318 C 
ATOM     16  O   UNL A   1      30.331  28.656  22.239  1.00  0.00    -0.249 OA
ATOM     17  N   UNL A   1      31.421  28.697  24.081  1.00  0.00    -0.333 N 
ATOM     18  H   UNL A   1      30.879  29.511  24.194  1.00  0.00     0.165 HD
BRANCH  17  19
ATOM     19  C   UNL A   1      32.558  28.812  25.026  1.00  0.00     0.112 C 
ATOM     20  C   UNL A   1      32.365  27.874  26.205  1.00  0.00     0.056 C 
ATOM     21  C   UNL A   1      32.968  30.080  25.751  1.00  0.00     0.185 C 
ATOM     22  C   UNL A   1      31.777  28.774  27.264  1.00  0.00     0.162 C 
ATOM     23  O   UNL A   1      32.274  30.095  27.015  1.00  0.00    -0.379 OA
ENDBRANCH  17  19
ENDBRANCH  12  15
ENDBRANCH   8  12
ENDBRANCH   5   7
ENDBRANCH   4   5
ENDBRANCH   3   4
ENDBRANCH   2   3
ENDBRANCH   1   2
BRANCH   1  24
ATOM     24  C   UNL A   1      35.863  20.130  25.001  1.00  0.00     0.202 C 
BRANCH  24  25
ATOM     25  C   UNL A   1      37.395  19.952  24.986  1.00  0.00     0.261 C 
BRANCH  25  26
ATOM     26  O   UNL A   1      38.133  21.129  25.359  1.00  0.00    -0.460 OA
BRANCH  26  27
ATOM     27  C   UNL A   1      39.283  20.918  26.049  1.00  0.00     0.338 C 
ATOM     28  O   UNL A   1      39.908  19.885  26.140  1.00  0.00    -0.246 OA
BRANCH  27  29
ATOM     29  C   UNL A   1      39.773  22.226  26.561  1.00  0.00     0.060 A 
ATOM     30  C   UNL A   1      39.168  23.397  26.095  1.00  0.00     0.016 A 
ATOM     31  C   UNL A   1      40.806  22.306  27.492  1.00  0.00     0.016 A 
ATOM     32  C   UNL A   1      39.614  24.650  26.540  1.00  0.00     0.010 A 
ATOM     33  C   UNL A   1      41.228  23.558  27.957  1.00  0.00     0.010 A 
ATOM     34  C   UNL A   1      40.664  24.749  27.464  1.00  0.00    -0.014 A 
BRANCH  34  35
ATOM     35  C   UNL A   1      41.256  26.074  27.826  1.00  0.00     0.031 A 
ATOM     36  C   UNL A   1      42.655  26.420  27.362  1.00  0.00     0.074 A 
ATOM     37  C   UNL A   1      40.587  26.971  28.582  1.00  0.00     0.049 A 
ATOM     38  N   UNL A   1      43.362  27.498  27.592  1.00  0.00    -0.248 NA
ATOM     39  C   UNL A   1      43.364  25.405  26.567  1.00  0.00     0.031 C 
ATOM     40  C   UNL A   1      39.263  26.773  29.170  1.00  0.00     0.029 A 
ATOM     41  N   UNL A   1      40.947  28.234  28.999  1.00  0.00    -0.354 N 
ATOM     42  C   UNL A   1      44.609  27.266  27.019  1.00  0.00     0.074 A 
ATOM     43  C   UNL A   1      44.578  25.926  26.477  1.00  0.00     0.031 C 
ATOM     44  C   UNL A   1      38.916  27.876  29.857  1.00  0.00     0.029 A 
ATOM     45  C   UNL A   1      39.998  28.858  29.776  1.00  0.00     0.049 A 
ATOM     46  H   UNL A   1      41.806  28.652  28.761  1.00  0.00     0.167 HD
ATOM     47  C   UNL A   1      45.672  28.096  26.904  1.00  0.00     0.034 A 
ATOM     48  C   UNL A   1      39.993  30.079  30.353  1.00  0.00     0.034 A 
ATOM     49  C   UNL A   1      45.690  29.464  27.343  1.00  0.00     0.049 A 
ATOM     50  C   UNL A   1      41.160  31.014  30.152  1.00  0.00     0.074 A 
ATOM     51  C   UNL A   1      46.682  30.412  27.159  1.00  0.00     0.029 A 
ATOM     52  N   UNL A   1      44.669  30.084  28.041  1.00  0.00    -0.354 N 
ATOM     53  N   UNL A   1      42.260  30.829  29.462  1.00  0.00    -0.248 NA
ATOM     54  C   UNL A   1      41.069  32.343  30.779  1.00  0.00     0.031 C 
ATOM     55  C   UNL A   1      46.266  31.604  27.757  1.00  0.00     0.029 A 
ATOM     56  C   UNL A   1      45.007  31.402  28.298  1.00  0.00     0.049 A 
ATOM     57  H   UNL A   1      43.827  29.653  28.314  1.00  0.00     0.167 HD
ATOM     58  C   UNL A   1      42.966  32.027  29.538  1.00  0.00     0.074 A 
ATOM     59  C   UNL A   1      42.164  32.938  30.324  1.00  0.00     0.031 C 
ATOM     60  C   UNL A   1      44.179  32.335  29.017  1.00  0.00     0.034 A 
BRANCH  47  61
ATOM     61  C   UNL A   1      46.895  27.567  26.200  1.00  0.00     0.023 A 
ATOM     62  C   UNL A   1      47.065  27.817  24.822  1.00  0.00     0.012 A 
ATOM     63  C   UNL A   1      47.897  26.875  26.905  1.00  0.00     0.148 A 
ATOM     64  C   UNL A   1      48.188  27.345  24.148  1.00  0.00     0.002 A 
ATOM     65  C   UNL A   1      49.039  26.451  26.237  1.00  0.00     0.091 A 
ATOM     66  F   UNL A   1      47.710  26.631  28.211  1.00  0.00    -0.205 F 
ATOM     67  C   UNL A   1      49.180  26.671  24.856  1.00  0.00     0.022 A 
BRANCH  65  68
ATOM     68  S   UNL A   1      50.412  25.653  27.077  1.00  0.00     0.127 S 
ATOM     69  O   UNL A   1      50.774  26.661  28.073  1.00  0.00    -0.237 OA
ATOM     70  O   UNL A   1      49.781  24.453  27.625  1.00  0.00    -0.237 OA
ATOM     71  O   UNL A   1      51.414  25.398  26.052  1.00  0.00    -0.744 OA
ENDBRANCH  65  68
ENDBRANCH  47  61
BRANCH  48  72
ATOM     72  C   UNL A   1      38.803  30.537  31.128  1.00  0.00     0.023 A 
ATOM     73  C   UNL A   1      38.729  30.259  32.508  1.00  0.00     0.012 A 
ATOM     74  C   UNL A   1      37.743  31.228  30.511  1.00  0.00     0.148 A 
ATOM     75  C   UNL A   1      37.605  30.626  33.250  1.00  0.00     0.002 A 
ATOM     76  C   UNL A   1      36.650  31.639  31.267  1.00  0.00     0.091 A 
ATOM     77  F   UNL A   1      37.825  31.469  29.195  1.00  0.00    -0.205 F 
ATOM     78  C   UNL A   1      36.571  31.323  32.632  1.00  0.00     0.022 A 
BRANCH  76  79
ATOM     79  S   UNL A   1      35.329  32.644  30.583  1.00  0.00     0.127 S 
ATOM     80  O   UNL A   1      36.050  33.845  30.171  1.00  0.00    -0.237 OA
ATOM     81  O   UNL A   1      34.849  31.804  29.485  1.00  0.00    -0.237 OA
ATOM     82  O   UNL A   1      34.371  32.819  31.666  1.00  0.00    -0.744 OA
ENDBRANCH  76  79
ENDBRANCH  48  72
BRANCH  60  83
ATOM     83  C   UNL A   1      44.718  33.727  29.226  1.00  0.00     0.023 A 
ATOM     84  C   UNL A   1      45.635  33.975  30.267  1.00  0.00     0.012 A 
ATOM     85  C   UNL A   1      44.397  34.766  28.329  1.00  0.00     0.148 A 
ATOM     86  C   UNL A   1      46.204  35.238  30.425  1.00  0.00     0.002 A 
ATOM     87  C   UNL A   1      45.004  36.010  28.464  1.00  0.00     0.091 A 
ATOM     88  F   UNL A   1      43.510  34.517  27.354  1.00  0.00    -0.205 F 
ATOM     89  C   UNL A   1      45.900  36.251  29.518  1.00  0.00     0.022 A 
BRANCH  87  90
ATOM     90  S   UNL A   1      44.748  37.343  27.286  1.00  0.00     0.127 S 
ATOM     91  O   UNL A   1      44.944  38.524  28.126  1.00  0.00    -0.237 OA
ATOM     92  O   UNL A   1      45.813  37.106  26.311  1.00  0.00    -0.237 OA
ATOM     93  O   UNL A   1      43.400  37.164  26.764  1.00  0.00    -0.744 OA
ENDBRANCH  87  90
ENDBRANCH  60  83
ENDBRANCH  34  35
ENDBRANCH  27  29
ENDBRANCH  26  27
ENDBRANCH  25  26
ENDBRANCH  24  25
ENDBRANCH   1  24
TORSDOF 21
ENDMDL
MODEL 3
REMARK VINA RESULT:     -10.6      2.090      3.869
REMARK SMILES CCN(C(=O)N[C@@H]1CCOC1)[C@H]1COC[C@H]1C(=O)OCCOCCOC(=O)c1ccc(-c2c3nc(c(-c4cccc(S(=O)(=O)[O-])c4F)c4ccc([nH]4)c(-c4cccc(S(=O)(=O)[O-])c4F)c4nc(c(-c5cccc(S(=O)(=O)[O-])c5F)c5ccc2[nH]5)C=C4)C=C3)cc1
REMARK SMILES IDX 22 1 21 2 20 3 19 4 17 5 18 6 16 7 12 8 13 9 14 10 15 11
REMARK SMILES IDX 3 12 2 13 1 14 4 15 5 16 6 17 7 19 8 20 11 21 9 22 10 23
REMARK SMILES IDX 23 24 24 25 25 26 26 27 27 28 28 29 29 30 90 31 30 32 89 33
REMARK SMILES IDX 31 34 32 35 33 36 83 37 34 38 88 39 82 40 84 41 35 42 87 43
REMARK SMILES IDX 81 44 80 45 36 47 68 48 48 49 67 50 49 51 52 52 66 53 85 54
REMARK SMILES IDX 50 55 51 56 65 58 86 59 53 60 37 61 38 62 46 63 39 64 41 65
REMARK SMILES IDX 47 66 40 67 42 68 43 69 44 70 45 71 69 72 70 73 78 74 71 75
REMARK SMILES IDX 73 76 79 77 72 78 74 79 75 80 76 81 77 82 54 83 55 84 63 85
REMARK SMILES IDX 56 86 58 87 64 88 57 89 59 90 60 91 61 92 62 93
REMARK H PARENT 6 18 84 46 52 57
REMARK Flexibility Score: inf
ROOT
ATOM      1  O   UNL A   1      37.705  20.995  25.290  1.00  0.00    -0.374 OA
ENDROOT
BRANCH   1   2
ATOM      2  C   UNL A   1      38.403  22.100  25.874  1.00  0.00     0.202 C 
BRANCH   2   3
ATOM      3  C   UNL A   1      37.873  23.484  25.490  1.00  0.00     0.261 C 
BRANCH   3   4
ATOM      4  O   UNL A   1      36.904  23.397  24.422  1.00  0.00    -0.463 OA
BRANCH   4   5
ATOM      5  C   UNL A   1      35.701  23.928  24.708  1.00  0.00     0.313 C 
ATOM      6  O   UNL A   1      35.440  24.513  25.759  1.00  0.00    -0.252 OA
BRANCH   5   7
ATOM      7  C   UNL A   1      34.624  23.699  23.687  1.00  0.00     0.150 C 
ATOM      8  C   UNL A   1      33.849  22.420  23.334  1.00  0.00     0.129 C 
ATOM      9  C   UNL A   1      33.048  23.053  22.175  1.00  0.00     0.186 C 
ATOM     10  O   UNL A   1      32.644  24.366  22.626  1.00  0.00    -0.378 OA
ATOM     11  C   UNL A   1      33.559  24.762  23.673  1.00  0.00     0.177 C 
BRANCH   8  12
ATOM     12  N   UNL A   1      33.030  21.721  24.389  1.00  0.00    -0.319 N 
BRANCH  12  13
ATOM     13  C   UNL A   1      31.665  22.151  24.651  1.00  0.00     0.118 C 
ATOM     14  C   UNL A   1      31.470  22.830  25.990  1.00  0.00     0.027 C 
ENDBRANCH  12  13
BRANCH  12  15
ATOM     15  C   UNL A   1      33.583  20.611  24.947  1.00  0.00     0.318 C 
ATOM     16  O   UNL A   1      34.631  20.723  25.590  1.00  0.00    -0.249 OA
ATOM     17  N   UNL A   1      33.098  19.369  24.958  1.00  0.00    -0.333 N 
ATOM     18  H   UNL A   1      33.271  19.011  25.859  1.00  0.00     0.165 HD
BRANCH  17  19
ATOM     19  C   UNL A   1      32.412  18.294  24.200  1.00  0.00     0.112 C 
ATOM     20  C   UNL A   1      32.905  16.930  24.652  1.00  0.00     0.056 C 
ATOM     21  C   UNL A   1      32.462  18.117  22.695  1.00  0.00     0.185 C 
ATOM     22  C   UNL A   1      33.950  16.585  23.620  1.00  0.00     0.162 C 
ATOM     23  O   UNL A   1      33.568  17.239  22.403  1.00  0.00    -0.379 OA
ENDBRANCH  17  19
ENDBRANCH  12  15
ENDBRANCH   8  12
ENDBRANCH   5   7
ENDBRANCH   4   5
ENDBRANCH   3   4
ENDBRANCH   2   3
ENDBRANCH   1   2
BRANCH   1  24
ATOM     24  C   UNL A   1      38.502  19.851  24.985  1.00  0.00     0.202 C 
BRANCH  24  25
ATOM     25  C   UNL A   1      39.669  19.560  25.951  1.00  0.00     0.261 C 
BRANCH  25  26
ATOM     26  O   UNL A   1      40.962  19.512  25.323  1.00  0.00    -0.460 OA
BRANCH  26  27
ATOM     27  C   UNL A   1      42.032  19.617  26.153  1.00  0.00     0.338 C 
ATOM     28  O   UNL A   1      42.849  18.763  26.413  1.00  0.00    -0.246 OA
BRANCH  27  29
ATOM     29  C   UNL A   1      42.157  21.036  26.582  1.00  0.00     0.060 A 
ATOM     30  C   UNL A   1      42.247  22.028  25.601  1.00  0.00     0.016 A 
ATOM     31  C   UNL A   1      42.178  21.392  27.928  1.00  0.00     0.016 A 
ATOM     32  C   UNL A   1      42.385  23.375  25.966  1.00  0.00     0.010 A 
ATOM     33  C   UNL A   1      42.284  22.742  28.289  1.00  0.00     0.010 A 
ATOM     34  C   UNL A   1      42.424  23.749  27.317  1.00  0.00    -0.014 A 
BRANCH  34  35
ATOM     35  C   UNL A   1      42.730  25.157  27.723  1.00  0.00     0.031 A 
ATOM     36  C   UNL A   1      44.149  25.673  27.621  1.00  0.00     0.074 A 
ATOM     37  C   UNL A   1      41.776  25.982  28.205  1.00  0.00     0.049 A 
ATOM     38  N   UNL A   1      44.631  26.846  27.949  1.00  0.00    -0.248 NA
ATOM     39  C   UNL A   1      45.166  24.734  27.120  1.00  0.00     0.031 C 
ATOM     40  C   UNL A   1      40.376  25.628  28.434  1.00  0.00     0.029 A 
ATOM     41  N   UNL A   1      41.853  27.298  28.607  1.00  0.00    -0.354 N 
ATOM     42  C   UNL A   1      46.005  26.764  27.746  1.00  0.00     0.074 A 
ATOM     43  C   UNL A   1      46.285  25.413  27.316  1.00  0.00     0.031 C 
ATOM     44  C   UNL A   1      39.725  26.699  28.921  1.00  0.00     0.029 A 
ATOM     45  C   UNL A   1      40.659  27.816  29.056  1.00  0.00     0.049 A 
ATOM     46  H   UNL A   1      42.686  27.820  28.574  1.00  0.00     0.167 HD
ATOM     47  C   UNL A   1      46.950  27.727  27.855  1.00  0.00     0.034 A 
ATOM     48  C   UNL A   1      40.349  29.046  29.518  1.00  0.00     0.034 A 
ATOM     49  C   UNL A   1      46.682  29.101  28.179  1.00  0.00     0.049 A 
ATOM     50  C   UNL A   1      41.405  30.123  29.564  1.00  0.00     0.074 A 
ATOM     51  C   UNL A   1      47.564  30.167  28.194  1.00  0.00     0.029 A 
ATOM     52  N   UNL A   1      45.442  29.602  28.534  1.00  0.00    -0.354 N 
ATOM     53  N   UNL A   1      42.665  30.064  29.206  1.00  0.00    -0.248 NA
ATOM     54  C   UNL A   1      40.985  31.451  30.044  1.00  0.00     0.031 C 
ATOM     55  C   UNL A   1      46.858  31.315  28.570  1.00  0.00     0.029 A 
ATOM     56  C   UNL A   1      45.534  30.962  28.772  1.00  0.00     0.049 A 
ATOM     57  H   UNL A   1      44.616  29.071  28.606  1.00  0.00     0.167 HD
ATOM     58  C   UNL A   1      43.172  31.350  29.377  1.00  0.00     0.074 A 
ATOM     59  C   UNL A   1      42.082  32.173  29.852  1.00  0.00     0.031 C 
ATOM     60  C   UNL A   1      44.435  31.801  29.174  1.00  0.00     0.034 A 
BRANCH  47  61
ATOM     61  C   UNL A   1      48.374  27.344  27.541  1.00  0.00     0.023 A 
ATOM     62  C   UNL A   1      49.147  26.686  28.520  1.00  0.00     0.012 A 
ATOM     63  C   UNL A   1      48.926  27.584  26.269  1.00  0.00     0.148 A 
ATOM     64  C   UNL A   1      50.464  26.316  28.254  1.00  0.00     0.002 A 
ATOM     65  C   UNL A   1      50.223  27.166  25.994  1.00  0.00     0.091 A 
ATOM     66  F   UNL A   1      48.182  28.226  25.356  1.00  0.00    -0.205 F 
ATOM     67  C   UNL A   1      50.998  26.547  26.989  1.00  0.00     0.022 A 
BRANCH  65  68
ATOM     68  S   UNL A   1      50.971  27.337  24.370  1.00  0.00     0.127 S 
ATOM     69  O   UNL A   1      51.183  28.782  24.294  1.00  0.00    -0.237 OA
ATOM     70  O   UNL A   1      52.195  26.548  24.511  1.00  0.00    -0.237 OA
ATOM     71  O   UNL A   1      50.005  26.794  23.426  1.00  0.00    -0.744 OA
ENDBRANCH  65  68
ENDBRANCH  47  61
BRANCH  48  72
ATOM     72  C   UNL A   1      38.946  29.367  29.914  1.00  0.00     0.023 A 
ATOM     73  C   UNL A   1      38.517  29.083  31.226  1.00  0.00     0.012 A 
ATOM     74  C   UNL A   1      38.035  29.932  29.003  1.00  0.00     0.148 A 
ATOM     75  C   UNL A   1      37.197  29.321  31.612  1.00  0.00     0.002 A 
ATOM     76  C   UNL A   1      36.735  30.217  29.409  1.00  0.00     0.091 A 
ATOM     77  F   UNL A   1      38.458  30.180  27.755  1.00  0.00    -0.205 F 
ATOM     78  C   UNL A   1      36.310  29.895  30.708  1.00  0.00     0.022 A 
BRANCH  76  79
ATOM     79  S   UNL A   1      35.559  31.065  28.350  1.00  0.00     0.127 S 
ATOM     80  O   UNL A   1      35.222  30.023  27.383  1.00  0.00    -0.237 OA
ATOM     81  O   UNL A   1      34.492  31.401  29.293  1.00  0.00    -0.237 OA
ATOM     82  O   UNL A   1      36.274  32.217  27.818  1.00  0.00    -0.744 OA
ENDBRANCH  76  79
ENDBRANCH  48  72
BRANCH  60  83
ATOM     83  C   UNL A   1      44.723  33.261  29.414  1.00  0.00     0.023 A 
ATOM     84  C   UNL A   1      45.174  33.688  30.679  1.00  0.00     0.012 A 
ATOM     85  C   UNL A   1      44.648  34.193  28.358  1.00  0.00     0.148 A 
ATOM     86  C   UNL A   1      45.521  35.021  30.895  1.00  0.00     0.002 A 
ATOM     87  C   UNL A   1      45.041  35.510  28.569  1.00  0.00     0.091 A 
ATOM     88  F   UNL A   1      44.202  33.772  27.166  1.00  0.00    -0.205 F 
ATOM     89  C   UNL A   1      45.468  35.928  29.839  1.00  0.00     0.022 A 
BRANCH  87  90
ATOM     90  S   UNL A   1      45.098  36.724  27.245  1.00  0.00     0.127 S 
ATOM     91  O   UNL A   1      45.847  37.812  27.872  1.00  0.00    -0.237 OA
ATOM     92  O   UNL A   1      45.826  36.008  26.197  1.00  0.00    -0.237 OA
ATOM     93  O   UNL A   1      43.712  37.028  26.918  1.00  0.00    -0.744 OA
ENDBRANCH  87  90
ENDBRANCH  60  83
ENDBRANCH  34  35
ENDBRANCH  27  29
ENDBRANCH  26  27
ENDBRANCH  25  26
ENDBRANCH  24  25
ENDBRANCH   1  24
TORSDOF 21
ENDMDL
