MODEL 1
REMARK VINA RESULT:     -10.8      0.000      0.000
REMARK SMILES CC(C)CCc1cc2c(cc1Cl)C=C(C(=O)OCCOCCOC(=O)c1ccc(-c3c4nc(c(-c5cccc(S(=O)(=O)[O-])c5F)c5ccc([nH]5)c(-c5cccc(S(=O)(=O)[O-])c5F)c5nc(c(-c6cccc(S(=O)(=O)[O-])c6F)c6ccc3[nH]6)C=C5)C=C4)cc1)[C@@H](C(F)(F)F)O2
REMARK SMILES IDX 20 1 19 2 18 3 17 4 15 5 16 6 14 7 6 8 7 9 11 10 8 11 10 12
REMARK SMILES IDX 12 13 9 14 94 15 13 16 89 17 5 18 4 19 2 20 1 21 3 22 90 23
REMARK SMILES IDX 91 24 92 25 93 26 21 27 22 28 23 29 24 30 25 31 26 32 27 33
REMARK SMILES IDX 88 34 28 35 87 36 29 37 30 38 31 39 81 40 32 41 86 42 80 43
REMARK SMILES IDX 82 44 33 45 85 46 79 47 78 48 34 50 66 51 46 52 65 53 47 54
REMARK SMILES IDX 50 55 64 56 83 57 48 58 49 59 63 61 84 62 51 63 35 64 36 65
REMARK SMILES IDX 44 66 37 67 39 68 45 69 38 70 40 71 41 72 42 73 43 74 67 75
REMARK SMILES IDX 68 76 76 77 69 78 71 79 77 80 70 81 72 82 73 83 74 84 75 85
REMARK SMILES IDX 52 86 53 87 61 88 54 89 56 90 62 91 55 92 57 93 58 94 59 95
REMARK SMILES IDX 60 96
REMARK H PARENT 82 49 50 60
REMARK Flexibility Score: inf
ROOT
ATOM      1  O   UNL A   1      38.516  21.835  25.818  1.00  0.00    -0.374 OA
ENDROOT
BRANCH   1   2
ATOM      2  C   UNL A   1      37.375  22.689  25.782  1.00  0.00     0.202 C 
BRANCH   2   3
ATOM      3  C   UNL A   1      35.994  22.033  25.670  1.00  0.00     0.261 C 
BRANCH   3   4
ATOM      4  O   UNL A   1      35.043  22.885  25.013  1.00  0.00    -0.460 OA
BRANCH   4   5
ATOM      5  C   UNL A   1      34.153  23.473  25.846  1.00  0.00     0.338 C 
ATOM      6  O   UNL A   1      33.995  23.245  27.034  1.00  0.00    -0.246 OA
BRANCH   5   7
ATOM      7  C   UNL A   1      33.466  24.571  25.139  1.00  0.00     0.087 C 
ATOM      8  C   UNL A   1      31.079  28.876  24.194  1.00  0.00    -0.026 A 
ATOM      9  C   UNL A   1      31.216  27.653  23.508  1.00  0.00     0.052 A 
ATOM     10  C   UNL A   1      31.912  29.108  25.302  1.00  0.00     0.045 A 
ATOM     11  C   UNL A   1      32.058  26.648  23.985  1.00  0.00     0.128 A 
ATOM     12  C   UNL A   1      32.769  28.108  25.768  1.00  0.00     0.032 A 
ATOM     13  Cl  UNL A   1      31.916  30.605  26.168  1.00  0.00    -0.084 Cl
ATOM     14  C   UNL A   1      32.809  26.864  25.136  1.00  0.00     0.019 A 
ATOM     15  O   UNL A   1      32.079  25.482  23.275  1.00  0.00    -0.475 OA
ATOM     16  C   UNL A   1      33.573  25.777  25.712  1.00  0.00     0.027 C 
ATOM     17  C   UNL A   1      32.691  24.303  23.879  1.00  0.00     0.316 C 
BRANCH   8  18
ATOM     18  C   UNL A   1      30.035  29.868  23.729  1.00  0.00     0.037 C 
BRANCH  18  19
ATOM     19  C   UNL A   1      28.789  29.229  23.084  1.00  0.00     0.008 C 
BRANCH  19  20
ATOM     20  C   UNL A   1      27.715  30.220  22.584  1.00  0.00    -0.017 C 
ATOM     21  C   UNL A   1      27.555  31.427  23.508  1.00  0.00     0.007 C 
ATOM     22  C   UNL A   1      28.070  30.695  21.171  1.00  0.00     0.007 C 
ENDBRANCH  19  20
ENDBRANCH  18  19
ENDBRANCH   8  18
BRANCH  17  23
ATOM     23  C   UNL A   1      31.605  23.234  24.074  1.00  0.00     0.430 C 
ATOM     24  F   UNL A   1      31.105  23.267  25.332  1.00  0.00    -0.167 F 
ATOM     25  F   UNL A   1      30.562  23.418  23.233  1.00  0.00    -0.167 F 
ATOM     26  F   UNL A   1      32.085  21.988  23.860  1.00  0.00    -0.167 F 
ENDBRANCH  17  23
ENDBRANCH   5   7
ENDBRANCH   4   5
ENDBRANCH   3   4
ENDBRANCH   2   3
ENDBRANCH   1   2
BRANCH   1  27
ATOM     27  C   UNL A   1      38.390  20.506  25.318  1.00  0.00     0.202 C 
BRANCH  27  28
ATOM     28  C   UNL A   1      39.504  19.493  25.613  1.00  0.00     0.261 C 
BRANCH  28  29
ATOM     29  O   UNL A   1      40.370  19.902  26.682  1.00  0.00    -0.460 OA
BRANCH  29  30
ATOM     30  C   UNL A   1      41.590  20.351  26.285  1.00  0.00     0.338 C 
ATOM     31  O   UNL A   1      42.365  19.794  25.523  1.00  0.00    -0.246 OA
BRANCH  30  32
ATOM     32  C   UNL A   1      41.770  21.736  26.755  1.00  0.00     0.060 A 
ATOM     33  C   UNL A   1      41.874  22.027  28.115  1.00  0.00     0.016 A 
ATOM     34  C   UNL A   1      41.866  22.755  25.799  1.00  0.00     0.016 A 
ATOM     35  C   UNL A   1      42.095  23.347  28.516  1.00  0.00     0.010 A 
ATOM     36  C   UNL A   1      42.083  24.073  26.202  1.00  0.00     0.010 A 
ATOM     37  C   UNL A   1      42.217  24.376  27.563  1.00  0.00    -0.014 A 
BRANCH  37  38
ATOM     38  C   UNL A   1      42.611  25.741  27.988  1.00  0.00     0.031 A 
ATOM     39  C   UNL A   1      44.039  26.201  27.931  1.00  0.00     0.074 A 
ATOM     40  C   UNL A   1      41.657  26.564  28.461  1.00  0.00     0.049 A 
ATOM     41  N   UNL A   1      44.525  27.383  28.207  1.00  0.00    -0.248 NA
ATOM     42  C   UNL A   1      45.049  25.216  27.516  1.00  0.00     0.031 C 
ATOM     43  C   UNL A   1      40.246  26.207  28.625  1.00  0.00     0.029 A 
ATOM     44  N   UNL A   1      41.723  27.864  28.895  1.00  0.00    -0.354 N 
ATOM     45  C   UNL A   1      45.896  27.289  28.008  1.00  0.00     0.074 A 
ATOM     46  C   UNL A   1      46.169  25.925  27.605  1.00  0.00     0.031 C 
ATOM     47  C   UNL A   1      39.577  27.266  29.104  1.00  0.00     0.029 A 
ATOM     48  C   UNL A   1      40.512  28.370  29.303  1.00  0.00     0.049 A 
ATOM     49  H   UNL A   1      42.559  28.384  28.913  1.00  0.00     0.167 HD
ATOM     50  C   UNL A   1      46.833  28.257  28.129  1.00  0.00     0.034 A 
ATOM     51  C   UNL A   1      40.184  29.586  29.779  1.00  0.00     0.034 A 
ATOM     52  C   UNL A   1      46.554  29.615  28.517  1.00  0.00     0.049 A 
ATOM     53  C   UNL A   1      41.242  30.644  29.897  1.00  0.00     0.074 A 
ATOM     54  C   UNL A   1      47.438  30.677  28.603  1.00  0.00     0.029 A 
ATOM     55  N   UNL A   1      45.313  30.096  28.896  1.00  0.00    -0.354 N 
ATOM     56  N   UNL A   1      42.512  30.570  29.579  1.00  0.00    -0.248 NA
ATOM     57  C   UNL A   1      40.825  31.957  30.409  1.00  0.00     0.031 C 
ATOM     58  C   UNL A   1      46.736  31.795  29.057  1.00  0.00     0.029 A 
ATOM     59  C   UNL A   1      45.408  31.437  29.227  1.00  0.00     0.049 A 
ATOM     60  H   UNL A   1      44.485  29.564  28.926  1.00  0.00     0.167 HD
ATOM     61  C   UNL A   1      43.039  31.832  29.828  1.00  0.00     0.074 A 
ATOM     62  C   UNL A   1      41.951  32.654  30.315  1.00  0.00     0.031 C 
ATOM     63  C   UNL A   1      44.314  32.261  29.670  1.00  0.00     0.034 A 
BRANCH  50  64
ATOM     64  C   UNL A   1      48.256  27.919  27.782  1.00  0.00     0.023 A 
ATOM     65  C   UNL A   1      49.113  27.446  28.796  1.00  0.00     0.012 A 
ATOM     66  C   UNL A   1      48.703  27.937  26.447  1.00  0.00     0.148 A 
ATOM     67  C   UNL A   1      50.396  26.999  28.487  1.00  0.00     0.002 A 
ATOM     68  C   UNL A   1      49.974  27.465  26.143  1.00  0.00     0.091 A 
ATOM     69  F   UNL A   1      47.869  28.396  25.502  1.00  0.00    -0.205 F 
ATOM     70  C   UNL A   1      50.822  26.998  27.161  1.00  0.00     0.022 A 
BRANCH  68  71
ATOM     71  S   UNL A   1      50.602  27.371  24.462  1.00  0.00     0.127 S 
ATOM     72  O   UNL A   1      49.561  26.581  23.804  1.00  0.00    -0.237 OA
ATOM     73  O   UNL A   1      50.637  28.780  24.069  1.00  0.00    -0.237 OA
ATOM     74  O   UNL A   1      51.903  26.725  24.551  1.00  0.00    -0.744 OA
ENDBRANCH  68  71
ENDBRANCH  50  64
BRANCH  51  75
ATOM     75  C   UNL A   1      38.764  29.874  30.112  1.00  0.00     0.023 A 
ATOM     76  C   UNL A   1      38.314  29.688  31.432  1.00  0.00     0.012 A 
ATOM     77  C   UNL A   1      37.886  30.403  29.147  1.00  0.00     0.148 A 
ATOM     78  C   UNL A   1      37.008  30.022  31.788  1.00  0.00     0.002 A 
ATOM     79  C   UNL A   1      36.597  30.767  29.516  1.00  0.00     0.091 A 
ATOM     80  F   UNL A   1      38.344  30.571  27.900  1.00  0.00    -0.205 F 
ATOM     81  C   UNL A   1      36.153  30.570  30.834  1.00  0.00     0.022 A 
BRANCH  79  82
ATOM     82  S   UNL A   1      35.453  31.563  28.384  1.00  0.00     0.127 S 
ATOM     83  O   UNL A   1      34.344  31.904  29.273  1.00  0.00    -0.237 OA
ATOM     84  O   UNL A   1      36.242  32.703  27.918  1.00  0.00    -0.237 OA
ATOM     85  O   UNL A   1      35.150  30.572  27.362  1.00  0.00    -0.744 OA
ENDBRANCH  79  82
ENDBRANCH  51  75
BRANCH  63  86
ATOM     86  C   UNL A   1      44.630  33.693  30.002  1.00  0.00     0.023 A 
ATOM     87  C   UNL A   1      45.135  34.017  31.275  1.00  0.00     0.012 A 
ATOM     88  C   UNL A   1      44.560  34.688  29.006  1.00  0.00     0.148 A 
ATOM     89  C   UNL A   1      45.565  35.313  31.555  1.00  0.00     0.002 A 
ATOM     90  C   UNL A   1      45.022  35.969  29.282  1.00  0.00     0.091 A 
ATOM     91  F   UNL A   1      44.070  34.352  27.804  1.00  0.00    -0.205 F 
ATOM     92  C   UNL A   1      45.521  36.285  30.556  1.00  0.00     0.022 A 
BRANCH  90  93
ATOM     93  S   UNL A   1      45.072  37.269  28.042  1.00  0.00     0.127 S 
ATOM     94  O   UNL A   1      45.922  36.668  27.015  1.00  0.00    -0.237 OA
ATOM     95  O   UNL A   1      43.662  37.395  27.673  1.00  0.00    -0.237 OA
ATOM     96  O   UNL A   1      45.637  38.439  28.703  1.00  0.00    -0.744 OA
ENDBRANCH  90  93
ENDBRANCH  63  86
ENDBRANCH  37  38
ENDBRANCH  30  32
ENDBRANCH  29  30
ENDBRANCH  28  29
ENDBRANCH  27  28
ENDBRANCH   1  27
TORSDOF 21
ENDMDL
MODEL 2
REMARK VINA RESULT:     -10.7      4.875      7.965
REMARK SMILES CC(C)CCc1cc2c(cc1Cl)C=C(C(=O)OCCOCCOC(=O)c1ccc(-c3c4nc(c(-c5cccc(S(=O)(=O)[O-])c5F)c5ccc([nH]5)c(-c5cccc(S(=O)(=O)[O-])c5F)c5nc(c(-c6cccc(S(=O)(=O)[O-])c6F)c6ccc3[nH]6)C=C5)C=C4)cc1)[C@@H](C(F)(F)F)O2
REMARK SMILES IDX 20 1 19 2 18 3 17 4 15 5 16 6 14 7 6 8 7 9 11 10 8 11 10 12
REMARK SMILES IDX 12 13 9 14 94 15 13 16 89 17 5 18 4 19 2 20 1 21 3 22 90 23
REMARK SMILES IDX 91 24 92 25 93 26 21 27 22 28 23 29 24 30 25 31 26 32 27 33
REMARK SMILES IDX 88 34 28 35 87 36 29 37 30 38 31 39 81 40 32 41 86 42 80 43
REMARK SMILES IDX 82 44 33 45 85 46 79 47 78 48 34 50 66 51 46 52 65 53 47 54
REMARK SMILES IDX 50 55 64 56 83 57 48 58 49 59 63 61 84 62 51 63 35 64 36 65
REMARK SMILES IDX 44 66 37 67 39 68 45 69 38 70 40 71 41 72 42 73 43 74 67 75
REMARK SMILES IDX 68 76 76 77 69 78 71 79 77 80 70 81 72 82 73 83 74 84 75 85
REMARK SMILES IDX 52 86 53 87 61 88 54 89 56 90 62 91 55 92 57 93 58 94 59 95
REMARK SMILES IDX 60 96
REMARK H PARENT 82 49 50 60
REMARK Flexibility Score: inf
ROOT
ATOM      1  O   UNL A   1      43.690  19.809  25.935  1.00  0.00    -0.374 OA
ENDROOT
BRANCH   1   2
ATOM      2  C   UNL A   1      44.531  19.859  24.785  1.00  0.00     0.202 C 
BRANCH   2   3
ATOM      3  C   UNL A   1      45.842  20.645  24.892  1.00  0.00     0.261 C 
BRANCH   3   4
ATOM      4  O   UNL A   1      45.749  21.939  24.279  1.00  0.00    -0.460 OA
BRANCH   4   5
ATOM      5  C   UNL A   1      44.794  22.739  24.808  1.00  0.00     0.338 C 
ATOM      6  O   UNL A   1      43.666  22.921  24.379  1.00  0.00    -0.246 OA
BRANCH   5   7
ATOM      7  C   UNL A   1      45.259  23.277  26.101  1.00  0.00     0.087 C 
ATOM      8  C   UNL A   1      45.348  24.809  30.873  1.00  0.00    -0.026 A 
ATOM      9  C   UNL A   1      46.162  25.043  29.746  1.00  0.00     0.052 A 
ATOM     10  C   UNL A   1      44.388  23.786  30.793  1.00  0.00     0.045 A 
ATOM     11  C   UNL A   1      45.940  24.371  28.544  1.00  0.00     0.128 A 
ATOM     12  C   UNL A   1      44.180  23.100  29.593  1.00  0.00     0.032 A 
ATOM     13  Cl  UNL A   1      43.398  23.330  32.134  1.00  0.00    -0.084 Cl
ATOM     14  C   UNL A   1      44.925  23.423  28.458  1.00  0.00     0.019 A 
ATOM     15  O   UNL A   1      46.751  24.709  27.498  1.00  0.00    -0.475 OA
ATOM     16  C   UNL A   1      44.601  22.829  27.178  1.00  0.00     0.027 C 
ATOM     17  C   UNL A   1      46.381  24.277  26.155  1.00  0.00     0.316 C 
BRANCH   8  18
ATOM     18  C   UNL A   1      45.523  25.677  32.100  1.00  0.00     0.037 C 
BRANCH  18  19
ATOM     19  C   UNL A   1      44.232  26.363  32.588  1.00  0.00     0.008 C 
BRANCH  19  20
ATOM     20  C   UNL A   1      43.769  27.580  31.757  1.00  0.00    -0.017 C 
ATOM     21  C   UNL A   1      42.298  27.922  31.988  1.00  0.00     0.007 C 
ATOM     22  C   UNL A   1      44.640  28.795  32.094  1.00  0.00     0.007 C 
ENDBRANCH  19  20
ENDBRANCH  18  19
ENDBRANCH   8  18
BRANCH  17  23
ATOM     23  C   UNL A   1      46.099  25.522  25.301  1.00  0.00     0.430 C 
ATOM     24  F   UNL A   1      46.641  25.402  24.065  1.00  0.00    -0.167 F 
ATOM     25  F   UNL A   1      44.773  25.725  25.130  1.00  0.00    -0.167 F 
ATOM     26  F   UNL A   1      46.613  26.641  25.861  1.00  0.00    -0.167 F 
ENDBRANCH  17  23
ENDBRANCH   5   7
ENDBRANCH   4   5
ENDBRANCH   3   4
ENDBRANCH   2   3
ENDBRANCH   1   2
BRANCH   1  27
ATOM     27  C   UNL A   1      42.324  19.436  25.766  1.00  0.00     0.202 C 
BRANCH  27  28
ATOM     28  C   UNL A   1      41.242  20.226  26.514  1.00  0.00     0.261 C 
BRANCH  28  29
ATOM     29  O   UNL A   1      41.319  21.641  26.289  1.00  0.00    -0.460 OA
BRANCH  29  30
ATOM     30  C   UNL A   1      40.128  22.293  26.351  1.00  0.00     0.338 C 
ATOM     31  O   UNL A   1      39.021  21.821  26.142  1.00  0.00    -0.246 OA
BRANCH  30  32
ATOM     32  C   UNL A   1      40.343  23.637  26.916  1.00  0.00     0.060 A 
ATOM     33  C   UNL A   1      40.878  23.803  28.193  1.00  0.00     0.016 A 
ATOM     34  C   UNL A   1      40.025  24.749  26.126  1.00  0.00     0.016 A 
ATOM     35  C   UNL A   1      41.113  25.094  28.672  1.00  0.00     0.010 A 
ATOM     36  C   UNL A   1      40.258  26.037  26.607  1.00  0.00     0.010 A 
ATOM     37  C   UNL A   1      40.819  26.219  27.878  1.00  0.00    -0.014 A 
BRANCH  37  38
ATOM     38  C   UNL A   1      41.222  27.574  28.328  1.00  0.00     0.031 A 
ATOM     39  C   UNL A   1      42.657  28.013  28.316  1.00  0.00     0.074 A 
ATOM     40  C   UNL A   1      40.267  28.406  28.783  1.00  0.00     0.049 A 
ATOM     41  N   UNL A   1      43.153  29.184  28.618  1.00  0.00    -0.248 NA
ATOM     42  C   UNL A   1      43.664  27.017  27.920  1.00  0.00     0.031 C 
ATOM     43  C   UNL A   1      38.846  28.068  28.903  1.00  0.00     0.029 A 
ATOM     44  N   UNL A   1      40.340  29.700  29.232  1.00  0.00    -0.354 N 
ATOM     45  C   UNL A   1      44.527  29.072  28.457  1.00  0.00     0.074 A 
ATOM     46  C   UNL A   1      44.791  27.708  28.048  1.00  0.00     0.031 C 
ATOM     47  C   UNL A   1      38.180  29.133  29.374  1.00  0.00     0.029 A 
ATOM     48  C   UNL A   1      39.125  30.221  29.611  1.00  0.00     0.049 A 
ATOM     49  H   UNL A   1      41.183  30.207  29.279  1.00  0.00     0.167 HD
ATOM     50  C   UNL A   1      45.475  30.025  28.614  1.00  0.00     0.034 A 
ATOM     51  C   UNL A   1      38.802  31.437  30.091  1.00  0.00     0.034 A 
ATOM     52  C   UNL A   1      45.205  31.383  29.009  1.00  0.00     0.049 A 
ATOM     53  C   UNL A   1      39.872  32.477  30.249  1.00  0.00     0.074 A 
ATOM     54  C   UNL A   1      46.102  32.431  29.131  1.00  0.00     0.029 A 
ATOM     55  N   UNL A   1      43.961  31.879  29.358  1.00  0.00    -0.354 N 
ATOM     56  N   UNL A   1      41.148  32.388  29.966  1.00  0.00    -0.248 NA
ATOM     57  C   UNL A   1      39.459  33.792  30.763  1.00  0.00     0.031 C 
ATOM     58  C   UNL A   1      45.403  33.555  29.576  1.00  0.00     0.029 A 
ATOM     59  C   UNL A   1      44.066  33.214  29.705  1.00  0.00     0.049 A 
ATOM     60  H   UNL A   1      43.124  31.359  29.359  1.00  0.00     0.167 HD
ATOM     61  C   UNL A   1      41.687  33.639  30.243  1.00  0.00     0.074 A 
ATOM     62  C   UNL A   1      40.598  34.472  30.709  1.00  0.00     0.031 C 
ATOM     63  C   UNL A   1      42.971  34.050  30.126  1.00  0.00     0.034 A 
BRANCH  50  64
ATOM     64  C   UNL A   1      46.902  29.669  28.305  1.00  0.00     0.023 A 
ATOM     65  C   UNL A   1      47.460  30.085  27.080  1.00  0.00     0.012 A 
ATOM     66  C   UNL A   1      47.722  29.052  29.269  1.00  0.00     0.148 A 
ATOM     67  C   UNL A   1      48.814  29.888  26.816  1.00  0.00     0.002 A 
ATOM     68  C   UNL A   1      49.077  28.884  29.010  1.00  0.00     0.091 A 
ATOM     69  F   UNL A   1      47.164  28.662  30.425  1.00  0.00    -0.205 F 
ATOM     70  C   UNL A   1      49.624  29.299  27.785  1.00  0.00     0.022 A 
BRANCH  68  71
ATOM     71  S   UNL A   1      50.218  28.184  30.208  1.00  0.00     0.127 S 
ATOM     72  O   UNL A   1      49.619  26.872  30.451  1.00  0.00    -0.237 OA
ATOM     73  O   UNL A   1      51.472  28.151  29.454  1.00  0.00    -0.237 OA
ATOM     74  O   UNL A   1      50.211  29.086  31.350  1.00  0.00    -0.744 OA
ENDBRANCH  68  71
ENDBRANCH  50  64
BRANCH  51  75
ATOM     75  C   UNL A   1      37.377  31.742  30.386  1.00  0.00     0.023 A 
ATOM     76  C   UNL A   1      36.877  31.512  31.681  1.00  0.00     0.012 A 
ATOM     77  C   UNL A   1      36.545  32.331  29.415  1.00  0.00     0.148 A 
ATOM     78  C   UNL A   1      35.567  31.860  32.005  1.00  0.00     0.002 A 
ATOM     79  C   UNL A   1      35.252  32.708  29.754  1.00  0.00     0.091 A 
ATOM     80  F   UNL A   1      37.051  32.540  28.192  1.00  0.00    -0.205 F 
ATOM     81  C   UNL A   1      34.757  32.467  31.046  1.00  0.00     0.022 A 
BRANCH  79  82
ATOM     82  S   UNL A   1      34.166  33.576  28.619  1.00  0.00     0.127 S 
ATOM     83  O   UNL A   1      33.625  32.476  27.824  1.00  0.00    -0.237 OA
ATOM     84  O   UNL A   1      33.213  34.200  29.537  1.00  0.00    -0.237 OA
ATOM     85  O   UNL A   1      35.014  34.511  27.893  1.00  0.00    -0.744 OA
ENDBRANCH  79  82
ENDBRANCH  51  75
BRANCH  63  86
ATOM     86  C   UNL A   1      43.300  35.474  30.482  1.00  0.00     0.023 A 
ATOM     87  C   UNL A   1      43.793  35.774  31.765  1.00  0.00     0.012 A 
ATOM     88  C   UNL A   1      43.252  36.483  29.500  1.00  0.00     0.148 A 
ATOM     89  C   UNL A   1      44.233  37.062  32.068  1.00  0.00     0.002 A 
ATOM     90  C   UNL A   1      43.725  37.755  29.798  1.00  0.00     0.091 A 
ATOM     91  F   UNL A   1      42.773  36.170  28.287  1.00  0.00    -0.205 F 
ATOM     92  C   UNL A   1      44.212  38.048  31.083  1.00  0.00     0.022 A 
BRANCH  90  93
ATOM     93  S   UNL A   1      43.803  39.072  28.579  1.00  0.00     0.127 S 
ATOM     94  O   UNL A   1      44.688  38.490  27.570  1.00  0.00    -0.237 OA
ATOM     95  O   UNL A   1      42.404  39.194  28.168  1.00  0.00    -0.237 OA
ATOM     96  O   UNL A   1      44.340  40.237  29.271  1.00  0.00    -0.744 OA
ENDBRANCH  90  93
ENDBRANCH  63  86
ENDBRANCH  37  38
ENDBRANCH  30  32
ENDBRANCH  29  30
ENDBRANCH  28  29
ENDBRANCH  27  28
ENDBRANCH   1  27
TORSDOF 21
ENDMDL
MODEL 3
REMARK VINA RESULT:     -10.5      2.010      7.663
REMARK SMILES CC(C)CCc1cc2c(cc1Cl)C=C(C(=O)OCCOCCOC(=O)c1ccc(-c3c4nc(c(-c5cccc(S(=O)(=O)[O-])c5F)c5ccc([nH]5)c(-c5cccc(S(=O)(=O)[O-])c5F)c5nc(c(-c6cccc(S(=O)(=O)[O-])c6F)c6ccc3[nH]6)C=C5)C=C4)cc1)[C@@H](C(F)(F)F)O2
REMARK SMILES IDX 20 1 19 2 18 3 17 4 15 5 16 6 14 7 6 8 7 9 11 10 8 11 10 12
REMARK SMILES IDX 12 13 9 14 94 15 13 16 89 17 5 18 4 19 2 20 1 21 3 22 90 23
REMARK SMILES IDX 91 24 92 25 93 26 21 27 22 28 23 29 24 30 25 31 26 32 27 33
REMARK SMILES IDX 88 34 28 35 87 36 29 37 30 38 31 39 81 40 32 41 86 42 80 43
REMARK SMILES IDX 82 44 33 45 85 46 79 47 78 48 34 50 66 51 46 52 65 53 47 54
REMARK SMILES IDX 50 55 64 56 83 57 48 58 49 59 63 61 84 62 51 63 35 64 36 65
REMARK SMILES IDX 44 66 37 67 39 68 45 69 38 70 40 71 41 72 42 73 43 74 67 75
REMARK SMILES IDX 68 76 76 77 69 78 71 79 77 80 70 81 72 82 73 83 74 84 75 85
REMARK SMILES IDX 52 86 53 87 61 88 54 89 56 90 62 91 55 92 57 93 58 94 59 95
REMARK SMILES IDX 60 96
REMARK H PARENT 82 49 50 60
REMARK Flexibility Score: inf
ROOT
ATOM      1  O   UNL A   1      39.354  21.949  26.117  1.00  0.00    -0.374 OA
ENDROOT
BRANCH   1   2
ATOM      2  C   UNL A   1      38.428  23.019  26.291  1.00  0.00     0.202 C 
BRANCH   2   3
ATOM      3  C   UNL A   1      36.962  22.764  25.925  1.00  0.00     0.261 C 
BRANCH   3   4
ATOM      4  O   UNL A   1      36.281  23.970  25.550  1.00  0.00    -0.460 OA
BRANCH   4   5
ATOM      5  C   UNL A   1      34.943  23.942  25.754  1.00  0.00     0.338 C 
ATOM      6  O   UNL A   1      34.339  23.290  26.591  1.00  0.00    -0.246 OA
BRANCH   5   7
ATOM      7  C   UNL A   1      34.290  24.948  24.894  1.00  0.00     0.087 C 
ATOM      8  C   UNL A   1      31.477  28.801  23.355  1.00  0.00    -0.026 A 
ATOM      9  C   UNL A   1      32.054  27.683  22.718  1.00  0.00     0.052 A 
ATOM     10  C   UNL A   1      31.880  29.092  24.670  1.00  0.00     0.045 A 
ATOM     11  C   UNL A   1      32.900  26.816  23.409  1.00  0.00     0.128 A 
ATOM     12  C   UNL A   1      32.743  28.232  25.354  1.00  0.00     0.032 A 
ATOM     13  Cl  UNL A   1      31.328  30.488  25.527  1.00  0.00    -0.084 Cl
ATOM     14  C   UNL A   1      33.218  27.073  24.739  1.00  0.00     0.019 A 
ATOM     15  O   UNL A   1      33.364  25.735  22.715  1.00  0.00    -0.475 OA
ATOM     16  C   UNL A   1      33.979  26.102  25.498  1.00  0.00     0.027 C 
ATOM     17  C   UNL A   1      33.993  24.645  23.452  1.00  0.00     0.316 C 
BRANCH   8  18
ATOM     18  C   UNL A   1      30.441  29.617  22.614  1.00  0.00     0.037 C 
BRANCH  18  19
ATOM     19  C   UNL A   1      29.050  29.640  23.279  1.00  0.00     0.008 C 
BRANCH  19  20
ATOM     20  C   UNL A   1      28.026  30.608  22.648  1.00  0.00    -0.017 C 
ATOM     21  C   UNL A   1      28.216  32.051  23.118  1.00  0.00     0.007 C 
ATOM     22  C   UNL A   1      28.128  30.545  21.121  1.00  0.00     0.007 C 
ENDBRANCH  19  20
ENDBRANCH  18  19
ENDBRANCH   8  18
BRANCH  17  23
ATOM     23  C   UNL A   1      33.135  23.382  23.282  1.00  0.00     0.430 C 
ATOM     24  F   UNL A   1      32.518  23.366  22.077  1.00  0.00    -0.167 F 
ATOM     25  F   UNL A   1      33.880  22.255  23.356  1.00  0.00    -0.167 F 
ATOM     26  F   UNL A   1      32.175  23.297  24.231  1.00  0.00    -0.167 F 
ENDBRANCH  17  23
ENDBRANCH   5   7
ENDBRANCH   4   5
ENDBRANCH   3   4
ENDBRANCH   2   3
ENDBRANCH   1   2
BRANCH   1  27
ATOM     27  C   UNL A   1      38.953  20.819  25.346  1.00  0.00     0.202 C 
BRANCH  27  28
ATOM     28  C   UNL A   1      39.556  19.446  25.671  1.00  0.00     0.261 C 
BRANCH  28  29
ATOM     29  O   UNL A   1      40.592  19.506  26.663  1.00  0.00    -0.460 OA
BRANCH  29  30
ATOM     30  C   UNL A   1      41.857  19.471  26.167  1.00  0.00     0.338 C 
ATOM     31  O   UNL A   1      42.357  18.586  25.491  1.00  0.00    -0.246 OA
BRANCH  30  32
ATOM     32  C   UNL A   1      42.499  20.779  26.393  1.00  0.00     0.060 A 
ATOM     33  C   UNL A   1      42.996  21.530  25.328  1.00  0.00     0.016 A 
ATOM     34  C   UNL A   1      42.571  21.266  27.705  1.00  0.00     0.016 A 
ATOM     35  C   UNL A   1      43.550  22.787  25.580  1.00  0.00     0.010 A 
ATOM     36  C   UNL A   1      43.128  22.520  27.954  1.00  0.00     0.010 A 
ATOM     37  C   UNL A   1      43.607  23.297  26.892  1.00  0.00    -0.014 A 
BRANCH  37  38
ATOM     38  C   UNL A   1      44.047  24.694  27.128  1.00  0.00     0.031 A 
ATOM     39  C   UNL A   1      43.094  25.749  27.608  1.00  0.00     0.074 A 
ATOM     40  C   UNL A   1      45.330  25.011  26.873  1.00  0.00     0.049 A 
ATOM     41  N   UNL A   1      43.346  26.993  27.920  1.00  0.00    -0.248 NA
ATOM     42  C   UNL A   1      41.681  25.366  27.754  1.00  0.00     0.031 C 
ATOM     43  C   UNL A   1      46.334  24.086  26.342  1.00  0.00     0.029 A 
ATOM     44  N   UNL A   1      46.012  26.193  27.020  1.00  0.00    -0.354 N 
ATOM     45  C   UNL A   1      42.130  27.548  28.294  1.00  0.00     0.074 A 
ATOM     46  C   UNL A   1      41.133  26.509  28.152  1.00  0.00     0.031 C 
ATOM     47  C   UNL A   1      47.506  24.729  26.225  1.00  0.00     0.029 A 
ATOM     48  C   UNL A   1      47.334  26.115  26.652  1.00  0.00     0.049 A 
ATOM     49  H   UNL A   1      45.592  27.018  27.355  1.00  0.00     0.167 HD
ATOM     50  C   UNL A   1      41.876  28.802  28.736  1.00  0.00     0.034 A 
ATOM     51  C   UNL A   1      48.304  27.049  26.659  1.00  0.00     0.034 A 
ATOM     52  C   UNL A   1      42.874  29.828  28.888  1.00  0.00     0.049 A 
ATOM     53  C   UNL A   1      47.997  28.430  27.161  1.00  0.00     0.074 A 
ATOM     54  C   UNL A   1      42.713  31.109  29.390  1.00  0.00     0.029 A 
ATOM     55  N   UNL A   1      44.206  29.704  28.531  1.00  0.00    -0.354 N 
ATOM     56  N   UNL A   1      46.866  28.896  27.633  1.00  0.00    -0.248 NA
ATOM     57  C   UNL A   1      49.098  29.405  27.160  1.00  0.00     0.031 C 
ATOM     58  C   UNL A   1      43.942  31.766  29.315  1.00  0.00     0.029 A 
ATOM     59  C   UNL A   1      44.876  30.886  28.792  1.00  0.00     0.049 A 
ATOM     60  H   UNL A   1      44.616  28.895  28.148  1.00  0.00     0.167 HD
ATOM     61  C   UNL A   1      47.125  30.209  28.008  1.00  0.00     0.074 A 
ATOM     62  C   UNL A   1      48.521  30.463  27.717  1.00  0.00     0.031 C 
ATOM     63  C   UNL A   1      46.275  31.119  28.540  1.00  0.00     0.034 A 
BRANCH  50  64
ATOM     64  C   UNL A   1      40.473  29.141  29.153  1.00  0.00     0.023 A 
ATOM     65  C   UNL A   1      39.535  29.505  28.165  1.00  0.00     0.012 A 
ATOM     66  C   UNL A   1      40.048  28.968  30.484  1.00  0.00     0.148 A 
ATOM     67  C   UNL A   1      38.196  29.697  28.498  1.00  0.00     0.002 A 
ATOM     68  C   UNL A   1      38.705  29.134  30.803  1.00  0.00     0.091 A 
ATOM     69  F   UNL A   1      40.961  28.625  31.405  1.00  0.00    -0.205 F 
ATOM     70  C   UNL A   1      37.780  29.500  29.813  1.00  0.00     0.022 A 
BRANCH  68  71
ATOM     71  S   UNL A   1      38.055  28.856  32.454  1.00  0.00     0.127 S 
ATOM     72  O   UNL A   1      38.256  27.415  32.609  1.00  0.00    -0.237 OA
ATOM     73  O   UNL A   1      38.936  29.686  33.275  1.00  0.00    -0.237 OA
ATOM     74  O   UNL A   1      36.664  29.284  32.420  1.00  0.00    -0.744 OA
ENDBRANCH  68  71
ENDBRANCH  50  64
BRANCH  51  75
ATOM     75  C   UNL A   1      49.677  26.669  26.235  1.00  0.00     0.023 A 
ATOM     76  C   UNL A   1      50.452  25.842  27.068  1.00  0.00     0.012 A 
ATOM     77  C   UNL A   1      50.182  27.059  24.979  1.00  0.00     0.148 A 
ATOM     78  C   UNL A   1      51.713  25.410  26.659  1.00  0.00     0.002 A 
ATOM     79  C   UNL A   1      51.423  26.595  24.563  1.00  0.00     0.091 A 
ATOM     80  F   UNL A   1      49.419  27.843  24.207  1.00  0.00    -0.205 F 
ATOM     81  C   UNL A   1      52.195  25.777  25.405  1.00  0.00     0.022 A 
BRANCH  79  82
ATOM     82  S   UNL A   1      52.089  26.938  22.931  1.00  0.00     0.127 S 
ATOM     83  O   UNL A   1      50.915  26.742  22.084  1.00  0.00    -0.237 OA
ATOM     84  O   UNL A   1      52.522  28.328  23.073  1.00  0.00    -0.237 OA
ATOM     85  O   UNL A   1      53.168  25.981  22.733  1.00  0.00    -0.744 OA
ENDBRANCH  79  82
ENDBRANCH  51  75
BRANCH  63  86
ATOM     86  C   UNL A   1      46.809  32.484  28.874  1.00  0.00     0.023 A 
ATOM     87  C   UNL A   1      47.386  32.715  30.137  1.00  0.00     0.012 A 
ATOM     88  C   UNL A   1      46.864  33.490  27.889  1.00  0.00     0.148 A 
ATOM     89  C   UNL A   1      48.010  33.930  30.416  1.00  0.00     0.002 A 
ATOM     90  C   UNL A   1      47.517  34.685  28.162  1.00  0.00     0.091 A 
ATOM     91  F   UNL A   1      46.300  33.245  26.696  1.00  0.00    -0.205 F 
ATOM     92  C   UNL A   1      48.088  34.909  29.426  1.00  0.00     0.022 A 
BRANCH  90  93
ATOM     93  S   UNL A   1      47.730  35.977  26.932  1.00  0.00     0.127 S 
ATOM     94  O   UNL A   1      48.477  36.984  27.685  1.00  0.00    -0.237 OA
ATOM     95  O   UNL A   1      48.500  35.291  25.896  1.00  0.00    -0.237 OA
ATOM     96  O   UNL A   1      46.388  36.380  26.530  1.00  0.00    -0.744 OA
ENDBRANCH  90  93
ENDBRANCH  63  86
ENDBRANCH  37  38
ENDBRANCH  30  32
ENDBRANCH  29  30
ENDBRANCH  28  29
ENDBRANCH  27  28
ENDBRANCH   1  27
TORSDOF 21
ENDMDL
