MODEL 1
REMARK VINA RESULT:     -11.6      0.000      0.000
REMARK SMILES Cc1cc(C(=O)OCCOCCOC(=O)c2ccc(-c3c4nc(c(-c5cccc(S(=O)(=O)[O-])c5F)c5ccc([nH]5)c(-c5cccc(S(=O)(=O)[O-])c5F)c5nc(c(-c6cccc(S(=O)(=O)[O-])c6F)c6ccc3[nH]6)C=C5)C=C4)cc2)ccc1NC(=O)c1ccc(=O)n(CCOc2ccccc2)n1
REMARK SMILES IDX 8 1 7 2 5 3 6 4 4 5 1 6 2 7 3 8 81 9 80 10 79 11 82 12 83 13
REMARK SMILES IDX 84 15 85 16 86 17 100 18 87 19 90 20 88 21 89 22 91 23 92 24
REMARK SMILES IDX 93 25 94 26 95 27 99 28 96 29 98 30 97 31 9 32 10 33 11 34
REMARK SMILES IDX 12 35 13 36 14 37 15 38 16 39 17 40 78 41 18 42 77 43 19 44
REMARK SMILES IDX 20 45 21 46 71 47 22 48 76 49 70 50 72 51 23 52 75 53 69 54
REMARK SMILES IDX 68 55 24 57 56 58 36 59 55 60 37 61 40 62 54 63 73 64 38 65
REMARK SMILES IDX 39 66 53 68 74 69 41 70 25 71 26 72 34 73 27 74 29 75 35 76
REMARK SMILES IDX 28 77 30 78 31 79 32 80 33 81 57 82 58 83 66 84 59 85 61 86
REMARK SMILES IDX 67 87 60 88 62 89 63 90 64 91 65 92 42 93 43 94 51 95 44 96
REMARK SMILES IDX 46 97 52 98 45 99 47 100 48 101 49 102 50 103
REMARK H PARENT 82 14 72 56 40 67
REMARK Flexibility Score: inf
ROOT
ATOM      1  C   UNL A   1      40.313  22.067  26.960  1.00  0.00     0.261 C 
ENDROOT
BRANCH   1   2
ATOM      2  O   UNL A   1      39.251  22.354  26.110  1.00  0.00    -0.460 OA
BRANCH   2   3
ATOM      3  C   UNL A   1      38.426  23.334  26.523  1.00  0.00     0.338 C 
ATOM      4  O   UNL A   1      38.665  24.312  27.200  1.00  0.00    -0.246 OA
BRANCH   3   5
ATOM      5  C   UNL A   1      37.283  23.121  25.646  1.00  0.00     0.060 A 
ATOM      6  C   UNL A   1      34.407  25.316  24.717  1.00  0.00     0.046 C 
ATOM      7  C   UNL A   1      35.320  24.133  24.654  1.00  0.00    -0.027 A 
ATOM      8  C   UNL A   1      36.245  24.037  25.711  1.00  0.00     0.021 A 
ATOM      9  C   UNL A   1      35.453  23.276  23.551  1.00  0.00     0.044 A 
ATOM     10  C   UNL A   1      36.621  22.551  23.470  1.00  0.00     0.027 A 
ATOM     11  C   UNL A   1      37.454  22.325  24.529  1.00  0.00     0.018 A 
BRANCH   9  12
ATOM     12  N   UNL A   1      34.449  23.104  22.571  1.00  0.00    -0.320 N 
ATOM     13  C   UNL A   1      33.120  22.684  22.712  1.00  0.00     0.276 C 
ATOM     14  H   UNL A   1      34.726  23.313  21.649  1.00  0.00     0.170 HD
ATOM     15  O   UNL A   1      32.346  22.678  21.759  1.00  0.00    -0.267 OA
BRANCH  13  16
ATOM     16  C   UNL A   1      32.630  22.096  24.034  1.00  0.00     0.149 A 
ATOM     17  C   UNL A   1      33.425  20.934  24.497  1.00  0.00     0.042 A 
ATOM     18  N   UNL A   1      31.687  22.669  24.732  1.00  0.00    -0.164 NA
ATOM     19  C   UNL A   1      33.551  20.833  25.821  1.00  0.00     0.076 A 
ATOM     20  N   UNL A   1      31.665  22.332  26.099  1.00  0.00    -0.226 N 
ATOM     21  C   UNL A   1      32.793  21.760  26.701  1.00  0.00     0.266 A 
ATOM     22  O   UNL A   1      33.149  21.893  27.867  1.00  0.00    -0.268 OA
BRANCH  20  23
ATOM     23  C   UNL A   1      30.645  22.962  26.944  1.00  0.00     0.190 C 
BRANCH  23  24
ATOM     24  C   UNL A   1      30.189  24.369  26.496  1.00  0.00     0.253 C 
BRANCH  24  25
ATOM     25  O   UNL A   1      31.119  25.458  26.733  1.00  0.00    -0.492 OA
BRANCH  25  26
ATOM     26  C   UNL A   1      31.012  26.476  25.828  1.00  0.00     0.119 A 
ATOM     27  C   UNL A   1      31.615  27.711  26.019  1.00  0.00     0.046 A 
ATOM     28  C   UNL A   1      30.146  26.330  24.761  1.00  0.00     0.046 A 
ATOM     29  C   UNL A   1      31.483  28.707  25.038  1.00  0.00     0.004 A 
ATOM     30  C   UNL A   1      30.096  27.258  23.724  1.00  0.00     0.004 A 
ATOM     31  C   UNL A   1      30.784  28.452  23.856  1.00  0.00     0.000 A 
ENDBRANCH  25  26
ENDBRANCH  24  25
ENDBRANCH  23  24
ENDBRANCH  20  23
ENDBRANCH  13  16
ENDBRANCH   9  12
ENDBRANCH   3   5
ENDBRANCH   2   3
ENDBRANCH   1   2
BRANCH   1  32
ATOM     32  C   UNL A   1      41.428  21.289  26.248  1.00  0.00     0.202 C 
BRANCH  32  33
ATOM     33  O   UNL A   1      42.710  21.867  26.288  1.00  0.00    -0.374 OA
BRANCH  33  34
ATOM     34  C   UNL A   1      42.906  22.736  25.201  1.00  0.00     0.202 C 
BRANCH  34  35
ATOM     35  C   UNL A   1      42.971  24.293  25.382  1.00  0.00     0.261 C 
BRANCH  35  36
ATOM     36  O   UNL A   1      42.697  25.169  26.631  1.00  0.00    -0.460 OA
BRANCH  36  37
ATOM     37  C   UNL A   1      42.408  25.919  27.722  1.00  0.00     0.338 C 
ATOM     38  O   UNL A   1      42.803  25.538  28.816  1.00  0.00    -0.246 OA
BRANCH  37  39
ATOM     39  C   UNL A   1      41.521  27.150  27.696  1.00  0.00     0.060 A 
ATOM     40  C   UNL A   1      42.055  28.436  27.652  1.00  0.00     0.016 A 
ATOM     41  C   UNL A   1      40.152  27.118  27.788  1.00  0.00     0.016 A 
ATOM     42  C   UNL A   1      41.456  29.474  28.391  1.00  0.00     0.010 A 
ATOM     43  C   UNL A   1      39.559  28.096  28.583  1.00  0.00     0.010 A 
ATOM     44  C   UNL A   1      40.310  29.178  29.080  1.00  0.00    -0.014 A 
BRANCH  44  45
ATOM     45  C   UNL A   1      39.860  29.787  30.353  1.00  0.00     0.031 A 
ATOM     46  C   UNL A   1      39.062  31.036  30.209  1.00  0.00     0.074 A 
ATOM     47  C   UNL A   1      39.864  29.110  31.549  1.00  0.00     0.049 A 
ATOM     48  N   UNL A   1      38.636  31.750  31.186  1.00  0.00    -0.248 NA
ATOM     49  C   UNL A   1      38.699  31.611  28.909  1.00  0.00     0.031 C 
ATOM     50  C   UNL A   1      38.925  29.346  32.667  1.00  0.00     0.029 A 
ATOM     51  N   UNL A   1      40.596  28.013  32.041  1.00  0.00    -0.354 N 
ATOM     52  C   UNL A   1      37.710  32.637  30.684  1.00  0.00     0.074 A 
ATOM     53  C   UNL A   1      37.878  32.601  29.261  1.00  0.00     0.031 C 
ATOM     54  C   UNL A   1      39.245  28.583  33.726  1.00  0.00     0.029 A 
ATOM     55  C   UNL A   1      40.533  27.988  33.447  1.00  0.00     0.049 A 
ATOM     56  H   UNL A   1      41.079  27.361  31.485  1.00  0.00     0.167 HD
ATOM     57  C   UNL A   1      36.833  33.216  31.544  1.00  0.00     0.034 A 
ATOM     58  C   UNL A   1      41.601  28.127  34.296  1.00  0.00     0.034 A 
ATOM     59  C   UNL A   1      37.217  32.904  32.934  1.00  0.00     0.049 A 
ATOM     60  C   UNL A   1      41.596  29.512  34.956  1.00  0.00     0.074 A 
ATOM     61  C   UNL A   1      36.707  32.058  33.902  1.00  0.00     0.029 A 
ATOM     62  N   UNL A   1      38.500  33.252  33.363  1.00  0.00    -0.354 N 
ATOM     63  N   UNL A   1      40.642  30.388  34.766  1.00  0.00    -0.248 NA
ATOM     64  C   UNL A   1      42.605  30.035  35.878  1.00  0.00     0.031 C 
ATOM     65  C   UNL A   1      37.752  31.805  34.848  1.00  0.00     0.029 A 
ATOM     66  C   UNL A   1      38.876  32.539  34.493  1.00  0.00     0.049 A 
ATOM     67  H   UNL A   1      39.068  33.922  32.917  1.00  0.00     0.167 HD
ATOM     68  C   UNL A   1      40.944  31.586  35.334  1.00  0.00     0.074 A 
ATOM     69  C   UNL A   1      42.152  31.288  36.091  1.00  0.00     0.031 C 
ATOM     70  C   UNL A   1      40.213  32.719  35.079  1.00  0.00     0.034 A 
BRANCH  57  71
ATOM     71  C   UNL A   1      35.568  33.970  31.159  1.00  0.00     0.023 A 
ATOM     72  C   UNL A   1      34.945  33.574  29.956  1.00  0.00     0.012 A 
ATOM     73  C   UNL A   1      34.973  35.076  31.832  1.00  0.00     0.148 A 
ATOM     74  C   UNL A   1      33.808  34.216  29.450  1.00  0.00     0.002 A 
ATOM     75  C   UNL A   1      33.796  35.674  31.360  1.00  0.00     0.091 A 
ATOM     76  F   UNL A   1      35.576  35.626  32.889  1.00  0.00    -0.205 F 
ATOM     77  C   UNL A   1      33.220  35.252  30.160  1.00  0.00     0.022 A 
BRANCH  75  78
ATOM     78  S   UNL A   1      32.930  36.994  32.240  1.00  0.00     0.127 S 
ATOM     79  O   UNL A   1      32.904  38.066  31.245  1.00  0.00    -0.237 OA
ATOM     80  O   UNL A   1      31.626  36.388  32.510  1.00  0.00    -0.237 OA
ATOM     81  O   UNL A   1      33.719  37.280  33.433  1.00  0.00    -0.744 OA
ENDBRANCH  75  78
ENDBRANCH  57  71
BRANCH  58  82
ATOM     82  C   UNL A   1      42.770  27.282  33.918  1.00  0.00     0.023 A 
ATOM     83  C   UNL A   1      43.900  27.985  33.419  1.00  0.00     0.012 A 
ATOM     84  C   UNL A   1      42.974  26.057  34.550  1.00  0.00     0.148 A 
ATOM     85  C   UNL A   1      45.203  27.607  33.730  1.00  0.00     0.002 A 
ATOM     86  C   UNL A   1      44.274  25.719  34.914  1.00  0.00     0.091 A 
ATOM     87  F   UNL A   1      41.907  25.361  34.961  1.00  0.00    -0.205 F 
ATOM     88  C   UNL A   1      45.386  26.494  34.520  1.00  0.00     0.022 A 
BRANCH  86  89
ATOM     89  S   UNL A   1      44.574  24.781  36.402  1.00  0.00     0.127 S 
ATOM     90  O   UNL A   1      43.575  25.283  37.336  1.00  0.00    -0.237 OA
ATOM     91  O   UNL A   1      44.282  23.465  35.847  1.00  0.00    -0.237 OA
ATOM     92  O   UNL A   1      45.961  25.024  36.766  1.00  0.00    -0.744 OA
ENDBRANCH  86  89
ENDBRANCH  58  82
BRANCH  70  93
ATOM     93  C   UNL A   1      40.721  34.123  35.375  1.00  0.00     0.023 A 
ATOM     94  C   UNL A   1      40.401  34.790  36.574  1.00  0.00     0.012 A 
ATOM     95  C   UNL A   1      41.655  34.768  34.526  1.00  0.00     0.148 A 
ATOM     96  C   UNL A   1      40.874  36.074  36.859  1.00  0.00     0.002 A 
ATOM     97  C   UNL A   1      42.241  35.976  34.888  1.00  0.00     0.091 A 
ATOM     98  F   UNL A   1      41.972  34.230  33.339  1.00  0.00    -0.205 F 
ATOM     99  C   UNL A   1      41.811  36.661  36.025  1.00  0.00     0.022 A 
BRANCH  97 100
ATOM    100  S   UNL A   1      43.676  36.621  34.019  1.00  0.00     0.127 S 
ATOM    101  O   UNL A   1      43.805  37.955  34.602  1.00  0.00    -0.237 OA
ATOM    102  O   UNL A   1      44.724  35.678  34.414  1.00  0.00    -0.237 OA
ATOM    103  O   UNL A   1      43.329  36.569  32.605  1.00  0.00    -0.744 OA
ENDBRANCH  97 100
ENDBRANCH  70  93
ENDBRANCH  44  45
ENDBRANCH  37  39
ENDBRANCH  36  37
ENDBRANCH  35  36
ENDBRANCH  34  35
ENDBRANCH  33  34
ENDBRANCH  32  33
ENDBRANCH   1  32
TORSDOF 23
ENDMDL
MODEL 2
REMARK VINA RESULT:     -10.8      5.038     11.075
REMARK SMILES Cc1cc(C(=O)OCCOCCOC(=O)c2ccc(-c3c4nc(c(-c5cccc(S(=O)(=O)[O-])c5F)c5ccc([nH]5)c(-c5cccc(S(=O)(=O)[O-])c5F)c5nc(c(-c6cccc(S(=O)(=O)[O-])c6F)c6ccc3[nH]6)C=C5)C=C4)cc2)ccc1NC(=O)c1ccc(=O)n(CCOc2ccccc2)n1
REMARK SMILES IDX 8 1 7 2 5 3 6 4 4 5 1 6 2 7 3 8 81 9 80 10 79 11 82 12 83 13
REMARK SMILES IDX 84 15 85 16 86 17 100 18 87 19 90 20 88 21 89 22 91 23 92 24
REMARK SMILES IDX 93 25 94 26 95 27 99 28 96 29 98 30 97 31 9 32 10 33 11 34
REMARK SMILES IDX 12 35 13 36 14 37 15 38 16 39 17 40 78 41 18 42 77 43 19 44
REMARK SMILES IDX 20 45 21 46 71 47 22 48 76 49 70 50 72 51 23 52 75 53 69 54
REMARK SMILES IDX 68 55 24 57 56 58 36 59 55 60 37 61 40 62 54 63 73 64 38 65
REMARK SMILES IDX 39 66 53 68 74 69 41 70 25 71 26 72 34 73 27 74 29 75 35 76
REMARK SMILES IDX 28 77 30 78 31 79 32 80 33 81 57 82 58 83 66 84 59 85 61 86
REMARK SMILES IDX 67 87 60 88 62 89 63 90 64 91 65 92 42 93 43 94 51 95 44 96
REMARK SMILES IDX 46 97 52 98 45 99 47 100 48 101 49 102 50 103
REMARK H PARENT 82 14 72 56 40 67
REMARK Flexibility Score: inf
ROOT
ATOM      1  C   UNL A   1      34.081  30.831  27.740  1.00  0.00     0.261 C 
ENDROOT
BRANCH   1   2
ATOM      2  O   UNL A   1      33.763  30.070  26.620  1.00  0.00    -0.460 OA
BRANCH   2   3
ATOM      3  C   UNL A   1      32.456  29.793  26.460  1.00  0.00     0.338 C 
ATOM      4  O   UNL A   1      31.485  30.329  26.951  1.00  0.00    -0.246 OA
BRANCH   3   5
ATOM      5  C   UNL A   1      32.497  28.947  25.275  1.00  0.00     0.060 A 
ATOM      6  C   UNL A   1      30.422  28.903  22.169  1.00  0.00     0.046 C 
ATOM      7  C   UNL A   1      31.556  28.552  23.079  1.00  0.00    -0.027 A 
ATOM      8  C   UNL A   1      31.421  29.012  24.403  1.00  0.00     0.021 A 
ATOM      9  C   UNL A   1      32.782  28.009  22.666  1.00  0.00     0.044 A 
ATOM     10  C   UNL A   1      33.849  28.175  23.522  1.00  0.00     0.027 A 
ATOM     11  C   UNL A   1      33.725  28.477  24.848  1.00  0.00     0.018 A 
BRANCH   9  12
ATOM     12  N   UNL A   1      32.951  27.288  21.463  1.00  0.00    -0.320 N 
ATOM     13  C   UNL A   1      32.939  25.905  21.237  1.00  0.00     0.276 C 
ATOM     14  H   UNL A   1      33.098  27.841  20.661  1.00  0.00     0.170 HD
ATOM     15  O   UNL A   1      33.009  25.441  20.102  1.00  0.00    -0.267 OA
BRANCH  13  16
ATOM     16  C   UNL A   1      32.967  24.928  22.411  1.00  0.00     0.149 A 
ATOM     17  C   UNL A   1      31.679  24.228  22.630  1.00  0.00     0.042 A 
ATOM     18  N   UNL A   1      34.072  24.656  23.051  1.00  0.00    -0.164 NA
ATOM     19  C   UNL A   1      31.790  22.975  23.073  1.00  0.00     0.076 A 
ATOM     20  N   UNL A   1      34.072  23.434  23.752  1.00  0.00    -0.226 N 
ATOM     21  C   UNL A   1      33.129  22.446  23.444  1.00  0.00     0.266 A 
ATOM     22  O   UNL A   1      33.283  21.233  23.528  1.00  0.00    -0.268 OA
BRANCH  20  23
ATOM     23  C   UNL A   1      35.294  23.058  24.473  1.00  0.00     0.190 C 
BRANCH  23  24
ATOM     24  C   UNL A   1      35.286  23.356  25.989  1.00  0.00     0.253 C 
BRANCH  24  25
ATOM     25  O   UNL A   1      34.173  22.820  26.750  1.00  0.00    -0.492 OA
BRANCH  25  26
ATOM     26  C   UNL A   1      33.027  23.556  26.638  1.00  0.00     0.119 A 
ATOM     27  C   UNL A   1      33.039  24.930  26.446  1.00  0.00     0.046 A 
ATOM     28  C   UNL A   1      31.814  22.941  26.883  1.00  0.00     0.046 A 
ATOM     29  C   UNL A   1      31.824  25.623  26.318  1.00  0.00     0.004 A 
ATOM     30  C   UNL A   1      30.604  23.585  26.645  1.00  0.00     0.004 A 
ATOM     31  C   UNL A   1      30.609  24.936  26.343  1.00  0.00     0.000 A 
ENDBRANCH  25  26
ENDBRANCH  24  25
ENDBRANCH  23  24
ENDBRANCH  20  23
ENDBRANCH  13  16
ENDBRANCH   9  12
ENDBRANCH   3   5
ENDBRANCH   2   3
ENDBRANCH   1   2
BRANCH   1  32
ATOM     32  C   UNL A   1      35.542  31.301  27.723  1.00  0.00     0.202 C 
BRANCH  32  33
ATOM     33  O   UNL A   1      35.828  32.462  28.464  1.00  0.00    -0.374 OA
BRANCH  33  34
ATOM     34  C   UNL A   1      36.331  32.140  29.735  1.00  0.00     0.202 C 
BRANCH  34  35
ATOM     35  C   UNL A   1      37.870  32.113  30.038  1.00  0.00     0.261 C 
BRANCH  35  36
ATOM     36  O   UNL A   1      38.673  31.285  31.073  1.00  0.00    -0.460 OA
BRANCH  36  37
ATOM     37  C   UNL A   1      39.333  30.534  31.988  1.00  0.00     0.338 C 
ATOM     38  O   UNL A   1      39.503  30.993  33.110  1.00  0.00    -0.246 OA
BRANCH  37  39
ATOM     39  C   UNL A   1      39.982  29.197  31.681  1.00  0.00     0.060 A 
ATOM     40  C   UNL A   1      41.139  28.778  32.336  1.00  0.00     0.016 A 
ATOM     41  C   UNL A   1      39.550  28.334  30.706  1.00  0.00     0.016 A 
ATOM     42  C   UNL A   1      42.140  28.090  31.625  1.00  0.00     0.010 A 
ATOM     43  C   UNL A   1      40.536  27.709  29.947  1.00  0.00     0.010 A 
ATOM     44  C   UNL A   1      41.894  27.797  30.311  1.00  0.00    -0.014 A 
BRANCH  44  45
ATOM     45  C   UNL A   1      42.894  27.698  29.223  1.00  0.00     0.031 A 
ATOM     46  C   UNL A   1      43.412  26.327  28.962  1.00  0.00     0.074 A 
ATOM     47  C   UNL A   1      43.091  28.693  28.294  1.00  0.00     0.049 A 
ATOM     48  N   UNL A   1      44.328  26.038  28.111  1.00  0.00    -0.248 NA
ATOM     49  C   UNL A   1      42.944  25.141  29.688  1.00  0.00     0.031 C 
ATOM     50  C   UNL A   1      43.546  28.485  26.903  1.00  0.00     0.029 A 
ATOM     51  N   UNL A   1      42.858  30.081  28.296  1.00  0.00    -0.354 N 
ATOM     52  C   UNL A   1      44.329  24.671  27.944  1.00  0.00     0.074 A 
ATOM     53  C   UNL A   1      43.550  24.152  29.030  1.00  0.00     0.031 C 
ATOM     54  C   UNL A   1      43.722  29.662  26.280  1.00  0.00     0.029 A 
ATOM     55  C   UNL A   1      43.623  30.695  27.286  1.00  0.00     0.049 A 
ATOM     56  H   UNL A   1      42.251  30.552  28.910  1.00  0.00     0.167 HD
ATOM     57  C   UNL A   1      44.907  24.154  26.830  1.00  0.00     0.034 A 
ATOM     58  C   UNL A   1      44.619  31.616  27.489  1.00  0.00     0.034 A 
ATOM     59  C   UNL A   1      45.625  25.217  26.101  1.00  0.00     0.049 A 
ATOM     60  C   UNL A   1      45.999  30.986  27.265  1.00  0.00     0.074 A 
ATOM     61  C   UNL A   1      45.374  25.918  24.936  1.00  0.00     0.029 A 
ATOM     62  N   UNL A   1      46.614  25.936  26.778  1.00  0.00    -0.354 N 
ATOM     63  N   UNL A   1      46.161  29.750  26.864  1.00  0.00    -0.248 NA
ATOM     64  C   UNL A   1      47.292  31.648  27.440  1.00  0.00     0.031 C 
ATOM     65  C   UNL A   1      46.132  27.131  24.990  1.00  0.00     0.029 A 
ATOM     66  C   UNL A   1      46.889  27.145  26.154  1.00  0.00     0.049 A 
ATOM     67  H   UNL A   1      47.060  25.623  27.598  1.00  0.00     0.167 HD
ATOM     68  C   UNL A   1      47.471  29.384  26.890  1.00  0.00     0.074 A 
ATOM     69  C   UNL A   1      48.150  30.639  27.182  1.00  0.00     0.031 C 
ATOM     70  C   UNL A   1      47.866  28.079  26.734  1.00  0.00     0.034 A 
BRANCH  57  71
ATOM     71  C   UNL A   1      44.751  22.729  26.320  1.00  0.00     0.023 A 
ATOM     72  C   UNL A   1      45.834  22.206  25.582  1.00  0.00     0.012 A 
ATOM     73  C   UNL A   1      43.613  21.880  26.438  1.00  0.00     0.148 A 
ATOM     74  C   UNL A   1      45.806  20.930  25.005  1.00  0.00     0.002 A 
ATOM     75  C   UNL A   1      43.613  20.578  25.917  1.00  0.00     0.091 A 
ATOM     76  F   UNL A   1      42.482  22.341  26.978  1.00  0.00    -0.205 F 
ATOM     77  C   UNL A   1      44.705  20.107  25.188  1.00  0.00     0.022 A 
BRANCH  75  78
ATOM     78  S   UNL A   1      42.247  19.416  26.149  1.00  0.00     0.127 S 
ATOM     79  O   UNL A   1      42.735  18.222  25.459  1.00  0.00    -0.237 OA
ATOM     80  O   UNL A   1      42.185  19.290  27.605  1.00  0.00    -0.237 OA
ATOM     81  O   UNL A   1      41.072  20.036  25.549  1.00  0.00    -0.744 OA
ENDBRANCH  75  78
ENDBRANCH  57  71
BRANCH  58  82
ATOM     82  C   UNL A   1      44.235  32.702  28.437  1.00  0.00     0.023 A 
ATOM     83  C   UNL A   1      44.747  32.573  29.756  1.00  0.00     0.012 A 
ATOM     84  C   UNL A   1      43.954  33.978  27.954  1.00  0.00     0.148 A 
ATOM     85  C   UNL A   1      45.179  33.672  30.493  1.00  0.00     0.002 A 
ATOM     86  C   UNL A   1      44.447  35.068  28.664  1.00  0.00     0.091 A 
ATOM     87  F   UNL A   1      43.408  34.097  26.737  1.00  0.00    -0.205 F 
ATOM     88  C   UNL A   1      45.070  34.921  29.922  1.00  0.00     0.022 A 
BRANCH  86  89
ATOM     89  S   UNL A   1      44.966  36.541  27.801  1.00  0.00     0.127 S 
ATOM     90  O   UNL A   1      43.722  37.259  27.560  1.00  0.00    -0.237 OA
ATOM     91  O   UNL A   1      45.792  37.094  28.867  1.00  0.00    -0.237 OA
ATOM     92  O   UNL A   1      45.676  36.090  26.614  1.00  0.00    -0.744 OA
ENDBRANCH  86  89
ENDBRANCH  58  82
BRANCH  70  93
ATOM     93  C   UNL A   1      49.246  27.574  27.127  1.00  0.00     0.023 A 
ATOM     94  C   UNL A   1      49.512  27.067  28.413  1.00  0.00     0.012 A 
ATOM     95  C   UNL A   1      50.291  27.456  26.176  1.00  0.00     0.148 A 
ATOM     96  C   UNL A   1      50.774  26.588  28.779  1.00  0.00     0.002 A 
ATOM     97  C   UNL A   1      51.494  26.838  26.502  1.00  0.00     0.091 A 
ATOM     98  F   UNL A   1      50.143  27.964  24.944  1.00  0.00    -0.205 F 
ATOM     99  C   UNL A   1      51.761  26.455  27.817  1.00  0.00     0.022 A 
BRANCH  97 100
ATOM    100  S   UNL A   1      52.675  26.354  25.236  1.00  0.00     0.127 S 
ATOM    101  O   UNL A   1      53.684  27.404  25.351  1.00  0.00    -0.237 OA
ATOM    102  O   UNL A   1      53.107  25.037  25.707  1.00  0.00    -0.237 OA
ATOM    103  O   UNL A   1      51.917  26.323  23.992  1.00  0.00    -0.744 OA
ENDBRANCH  97 100
ENDBRANCH  70  93
ENDBRANCH  44  45
ENDBRANCH  37  39
ENDBRANCH  36  37
ENDBRANCH  35  36
ENDBRANCH  34  35
ENDBRANCH  33  34
ENDBRANCH  32  33
ENDBRANCH   1  32
TORSDOF 23
ENDMDL
MODEL 3
REMARK VINA RESULT:     -10.7      2.078      2.692
REMARK SMILES Cc1cc(C(=O)OCCOCCOC(=O)c2ccc(-c3c4nc(c(-c5cccc(S(=O)(=O)[O-])c5F)c5ccc([nH]5)c(-c5cccc(S(=O)(=O)[O-])c5F)c5nc(c(-c6cccc(S(=O)(=O)[O-])c6F)c6ccc3[nH]6)C=C5)C=C4)cc2)ccc1NC(=O)c1ccc(=O)n(CCOc2ccccc2)n1
REMARK SMILES IDX 8 1 7 2 5 3 6 4 4 5 1 6 2 7 3 8 81 9 80 10 79 11 82 12 83 13
REMARK SMILES IDX 84 15 85 16 86 17 100 18 87 19 90 20 88 21 89 22 91 23 92 24
REMARK SMILES IDX 93 25 94 26 95 27 99 28 96 29 98 30 97 31 9 32 10 33 11 34
REMARK SMILES IDX 12 35 13 36 14 37 15 38 16 39 17 40 78 41 18 42 77 43 19 44
REMARK SMILES IDX 20 45 21 46 71 47 22 48 76 49 70 50 72 51 23 52 75 53 69 54
REMARK SMILES IDX 68 55 24 57 56 58 36 59 55 60 37 61 40 62 54 63 73 64 38 65
REMARK SMILES IDX 39 66 53 68 74 69 41 70 25 71 26 72 34 73 27 74 29 75 35 76
REMARK SMILES IDX 28 77 30 78 31 79 32 80 33 81 57 82 58 83 66 84 59 85 61 86
REMARK SMILES IDX 67 87 60 88 62 89 63 90 64 91 65 92 42 93 43 94 51 95 44 96
REMARK SMILES IDX 46 97 52 98 45 99 47 100 48 101 49 102 50 103
REMARK H PARENT 82 14 72 56 40 67
REMARK Flexibility Score: inf
ROOT
ATOM      1  C   UNL A   1      40.463  23.027  27.134  1.00  0.00     0.261 C 
ENDROOT
BRANCH   1   2
ATOM      2  O   UNL A   1      39.238  22.901  26.489  1.00  0.00    -0.460 OA
BRANCH   2   3
ATOM      3  C   UNL A   1      38.358  23.894  26.716  1.00  0.00     0.338 C 
ATOM      4  O   UNL A   1      38.530  24.976  27.237  1.00  0.00    -0.246 OA
BRANCH   3   5
ATOM      5  C   UNL A   1      37.258  23.492  25.850  1.00  0.00     0.060 A 
ATOM      6  C   UNL A   1      34.250  25.334  24.620  1.00  0.00     0.046 C 
ATOM      7  C   UNL A   1      35.253  24.227  24.711  1.00  0.00    -0.027 A 
ATOM      8  C   UNL A   1      36.152  24.325  25.789  1.00  0.00     0.021 A 
ATOM      9  C   UNL A   1      35.480  23.263  23.717  1.00  0.00     0.044 A 
ATOM     10  C   UNL A   1      36.702  22.627  23.743  1.00  0.00     0.027 A 
ATOM     11  C   UNL A   1      37.521  22.590  24.836  1.00  0.00     0.018 A 
BRANCH   9  12
ATOM     12  N   UNL A   1      34.520  22.902  22.745  1.00  0.00    -0.320 N 
ATOM     13  C   UNL A   1      33.206  22.445  22.909  1.00  0.00     0.276 C 
ATOM     14  H   UNL A   1      34.820  22.985  21.810  1.00  0.00     0.170 HD
ATOM     15  O   UNL A   1      32.466  22.262  21.945  1.00  0.00    -0.267 OA
BRANCH  13  16
ATOM     16  C   UNL A   1      32.694  22.037  24.289  1.00  0.00     0.149 A 
ATOM     17  C   UNL A   1      33.594  21.099  25.001  1.00  0.00     0.042 A 
ATOM     18  N   UNL A   1      31.633  22.585  24.817  1.00  0.00    -0.164 NA
ATOM     19  C   UNL A   1      33.629  21.252  26.326  1.00  0.00     0.076 A 
ATOM     20  N   UNL A   1      31.549  22.494  26.221  1.00  0.00    -0.226 N 
ATOM     21  C   UNL A   1      32.691  22.204  26.977  1.00  0.00     0.266 A 
ATOM     22  O   UNL A   1      32.935  22.589  28.115  1.00  0.00    -0.268 OA
BRANCH  20  23
ATOM     23  C   UNL A   1      30.392  23.113  26.878  1.00  0.00     0.190 C 
BRANCH  23  24
ATOM     24  C   UNL A   1      30.127  24.588  26.503  1.00  0.00     0.253 C 
BRANCH  24  25
ATOM     25  O   UNL A   1      31.149  25.547  26.877  1.00  0.00    -0.492 OA
BRANCH  25  26
ATOM     26  C   UNL A   1      31.160  26.668  26.096  1.00  0.00     0.119 A 
ATOM     27  C   UNL A   1      30.630  26.691  24.814  1.00  0.00     0.046 A 
ATOM     28  C   UNL A   1      31.864  27.776  26.531  1.00  0.00     0.046 A 
ATOM     29  C   UNL A   1      30.655  27.883  24.073  1.00  0.00     0.004 A 
ATOM     30  C   UNL A   1      31.799  28.995  25.864  1.00  0.00     0.004 A 
ATOM     31  C   UNL A   1      31.174  29.055  24.631  1.00  0.00     0.000 A 
ENDBRANCH  25  26
ENDBRANCH  24  25
ENDBRANCH  23  24
ENDBRANCH  20  23
ENDBRANCH  13  16
ENDBRANCH   9  12
ENDBRANCH   3   5
ENDBRANCH   2   3
ENDBRANCH   1   2
BRANCH   1  32
ATOM     32  C   UNL A   1      41.360  21.801  26.916  1.00  0.00     0.202 C 
BRANCH  32  33
ATOM     33  O   UNL A   1      42.731  22.060  26.737  1.00  0.00    -0.374 OA
BRANCH  33  34
ATOM     34  C   UNL A   1      43.036  22.254  25.379  1.00  0.00     0.202 C 
BRANCH  34  35
ATOM     35  C   UNL A   1      43.382  23.670  24.798  1.00  0.00     0.261 C 
BRANCH  35  36
ATOM     36  O   UNL A   1      43.250  25.075  25.438  1.00  0.00    -0.460 OA
BRANCH  36  37
ATOM     37  C   UNL A   1      43.184  26.300  26.014  1.00  0.00     0.338 C 
ATOM     38  O   UNL A   1      42.783  27.242  25.342  1.00  0.00    -0.246 OA
BRANCH  37  39
ATOM     39  C   UNL A   1      43.687  26.610  27.411  1.00  0.00     0.060 A 
ATOM     40  C   UNL A   1      43.554  25.697  28.456  1.00  0.00     0.016 A 
ATOM     41  C   UNL A   1      44.234  27.810  27.787  1.00  0.00     0.016 A 
ATOM     42  C   UNL A   1      43.236  26.148  29.750  1.00  0.00     0.010 A 
ATOM     43  C   UNL A   1      43.860  28.302  29.036  1.00  0.00     0.010 A 
ATOM     44  C   UNL A   1      43.137  27.501  29.940  1.00  0.00    -0.014 A 
BRANCH  44  45
ATOM     45  C   UNL A   1      42.252  28.197  30.903  1.00  0.00     0.031 A 
ATOM     46  C   UNL A   1      41.241  29.103  30.292  1.00  0.00     0.074 A 
ATOM     47  C   UNL A   1      42.119  27.807  32.215  1.00  0.00     0.049 A 
ATOM     48  N   UNL A   1      40.428  29.845  30.952  1.00  0.00    -0.248 NA
ATOM     49  C   UNL A   1      41.087  29.273  28.843  1.00  0.00     0.031 C 
ATOM     50  C   UNL A   1      40.903  27.981  33.038  1.00  0.00     0.029 A 
ATOM     51  N   UNL A   1      42.945  27.094  33.104  1.00  0.00    -0.354 N 
ATOM     52  C   UNL A   1      39.472  30.303  30.072  1.00  0.00     0.074 A 
ATOM     53  C   UNL A   1      39.992  30.030  28.765  1.00  0.00     0.031 C 
ATOM     54  C   UNL A   1      41.122  27.575  34.300  1.00  0.00     0.029 A 
ATOM     55  C   UNL A   1      42.542  27.337  34.431  1.00  0.00     0.049 A 
ATOM     56  H   UNL A   1      43.693  26.513  32.837  1.00  0.00     0.167 HD
ATOM     57  C   UNL A   1      38.297  30.763  30.573  1.00  0.00     0.034 A 
ATOM     58  C   UNL A   1      43.301  27.951  35.395  1.00  0.00     0.034 A 
ATOM     59  C   UNL A   1      38.385  30.864  32.042  1.00  0.00     0.049 A 
ATOM     60  C   UNL A   1      42.802  29.378  35.656  1.00  0.00     0.074 A 
ATOM     61  C   UNL A   1      37.868  30.122  33.087  1.00  0.00     0.029 A 
ATOM     62  N   UNL A   1      39.400  31.651  32.593  1.00  0.00    -0.354 N 
ATOM     63  N   UNL A   1      41.745  29.880  35.069  1.00  0.00    -0.248 NA
ATOM     64  C   UNL A   1      43.395  30.346  36.578  1.00  0.00     0.031 C 
ATOM     65  C   UNL A   1      38.673  30.381  34.242  1.00  0.00     0.029 A 
ATOM     66  C   UNL A   1      39.642  31.323  33.921  1.00  0.00     0.049 A 
ATOM     67  H   UNL A   1      39.885  32.352  32.100  1.00  0.00     0.167 HD
ATOM     68  C   UNL A   1      41.601  31.204  35.349  1.00  0.00     0.074 A 
ATOM     69  C   UNL A   1      42.618  31.430  36.367  1.00  0.00     0.031 C 
ATOM     70  C   UNL A   1      40.709  31.999  34.675  1.00  0.00     0.034 A 
BRANCH  57  71
ATOM     71  C   UNL A   1      37.026  31.023  29.777  1.00  0.00     0.023 A 
ATOM     72  C   UNL A   1      36.529  29.939  29.020  1.00  0.00     0.012 A 
ATOM     73  C   UNL A   1      36.312  32.248  29.648  1.00  0.00     0.148 A 
ATOM     74  C   UNL A   1      35.402  30.049  28.198  1.00  0.00     0.002 A 
ATOM     75  C   UNL A   1      35.144  32.339  28.877  1.00  0.00     0.091 A 
ATOM     76  F   UNL A   1      36.791  33.368  30.195  1.00  0.00    -0.205 F 
ATOM     77  C   UNL A   1      34.696  31.242  28.140  1.00  0.00     0.022 A 
BRANCH  75  78
ATOM     78  S   UNL A   1      34.131  33.833  28.781  1.00  0.00     0.127 S 
ATOM     79  O   UNL A   1      33.660  33.978  30.158  1.00  0.00    -0.237 OA
ATOM     80  O   UNL A   1      35.103  34.845  28.365  1.00  0.00    -0.237 OA
ATOM     81  O   UNL A   1      33.088  33.562  27.799  1.00  0.00    -0.744 OA
ENDBRANCH  75  78
ENDBRANCH  57  71
BRANCH  58  82
ATOM     82  C   UNL A   1      44.694  27.423  35.474  1.00  0.00     0.023 A 
ATOM     83  C   UNL A   1      44.836  26.161  36.111  1.00  0.00     0.012 A 
ATOM     84  C   UNL A   1      45.632  27.794  34.513  1.00  0.00     0.148 A 
ATOM     85  C   UNL A   1      45.737  25.201  35.658  1.00  0.00     0.002 A 
ATOM     86  C   UNL A   1      46.485  26.810  34.021  1.00  0.00     0.091 A 
ATOM     87  F   UNL A   1      45.539  29.010  33.961  1.00  0.00    -0.205 F 
ATOM     88  C   UNL A   1      46.532  25.514  34.578  1.00  0.00     0.022 A 
BRANCH  86  89
ATOM     89  S   UNL A   1      47.016  26.854  32.318  1.00  0.00     0.127 S 
ATOM     90  O   UNL A   1      45.780  27.052  31.574  1.00  0.00    -0.237 OA
ATOM     91  O   UNL A   1      47.860  28.039  32.423  1.00  0.00    -0.237 OA
ATOM     92  O   UNL A   1      47.709  25.599  32.073  1.00  0.00    -0.744 OA
ENDBRANCH  86  89
ENDBRANCH  58  82
BRANCH  70  93
ATOM     93  C   UNL A   1      40.777  33.518  34.680  1.00  0.00     0.023 A 
ATOM     94  C   UNL A   1      39.957  34.295  35.522  1.00  0.00     0.012 A 
ATOM     95  C   UNL A   1      41.767  34.219  33.946  1.00  0.00     0.148 A 
ATOM     96  C   UNL A   1      40.022  35.691  35.543  1.00  0.00     0.002 A 
ATOM     97  C   UNL A   1      41.930  35.593  34.088  1.00  0.00     0.091 A 
ATOM     98  F   UNL A   1      42.553  33.565  33.079  1.00  0.00    -0.205 F 
ATOM     99  C   UNL A   1      41.023  36.341  34.840  1.00  0.00     0.022 A 
BRANCH  97 100
ATOM    100  S   UNL A   1      43.389  36.435  33.462  1.00  0.00     0.127 S 
ATOM    101  O   UNL A   1      43.139  37.814  33.874  1.00  0.00    -0.237 OA
ATOM    102  O   UNL A   1      44.467  35.766  34.192  1.00  0.00    -0.237 OA
ATOM    103  O   UNL A   1      43.395  36.184  32.027  1.00  0.00    -0.744 OA
ENDBRANCH  97 100
ENDBRANCH  70  93
ENDBRANCH  44  45
ENDBRANCH  37  39
ENDBRANCH  36  37
ENDBRANCH  35  36
ENDBRANCH  34  35
ENDBRANCH  33  34
ENDBRANCH  32  33
ENDBRANCH   1  32
TORSDOF 23
ENDMDL
