MODEL 1
REMARK VINA RESULT:     -11.3      0.000      0.000
REMARK SMILES CCc1cccc2c3c([nH]c12)[C@](CC)(CC(=O)OCCOCCOC(=O)c1ccc(-c2c4nc(c(-c5cccc(S(=O)(=O)[O-])c5F)c5ccc([nH]5)c(-c5cccc(S(=O)(=O)[O-])c5F)c5nc(c(-c6cccc(S(=O)(=O)[O-])c6F)c6ccc2[nH]6)C=C5)C=C4)cc1)OCC3
REMARK SMILES IDX 22 1 21 2 20 3 19 4 18 5 16 6 17 7 15 8 12 9 3 10 4 11 11 12
REMARK SMILES IDX 5 13 7 14 10 15 6 16 8 17 9 18 92 20 91 21 90 22 2 23 1 24
REMARK SMILES IDX 13 25 14 26 23 27 24 28 25 29 26 30 27 31 28 32 89 33 29 34
REMARK SMILES IDX 88 35 30 36 31 37 32 38 82 39 33 40 87 41 81 42 83 43 34 44
REMARK SMILES IDX 86 45 80 46 79 47 35 49 67 50 47 51 66 52 48 53 51 54 65 55
REMARK SMILES IDX 84 56 49 57 50 58 64 60 85 61 52 62 36 63 37 64 45 65 38 66
REMARK SMILES IDX 40 67 46 68 39 69 41 70 42 71 43 72 44 73 68 74 69 75 77 76
REMARK SMILES IDX 70 77 72 78 78 79 71 80 73 81 74 82 75 83 76 84 53 85 54 86
REMARK SMILES IDX 62 87 55 88 57 89 63 90 56 91 58 92 59 93 60 94 61 95
REMARK H PARENT 10 19 83 48 51 59
REMARK Flexibility Score: inf
ROOT
ATOM      1  C   UNL A   1      38.549  19.683  24.910  1.00  0.00     0.202 C 
ENDROOT
BRANCH   1   2
ATOM      2  O   UNL A   1      37.225  19.172  24.878  1.00  0.00    -0.374 OA
BRANCH   2   3
ATOM      3  C   UNL A   1      36.170  20.116  24.955  1.00  0.00     0.202 C 
BRANCH   3   4
ATOM      4  C   UNL A   1      36.455  21.466  25.634  1.00  0.00     0.261 C 
BRANCH   4   5
ATOM      5  O   UNL A   1      35.281  22.249  25.957  1.00  0.00    -0.463 OA
BRANCH   5   6
ATOM      6  C   UNL A   1      35.385  23.556  25.654  1.00  0.00     0.309 C 
ATOM      7  O   UNL A   1      36.352  24.253  25.971  1.00  0.00    -0.252 OA
BRANCH   6   8
ATOM      8  C   UNL A   1      34.248  24.220  24.917  1.00  0.00     0.164 C 
BRANCH   8   9
ATOM      9  C   UNL A   1      32.731  24.290  25.186  1.00  0.00     0.118 C 
ATOM     10  C   UNL A   1      31.540  29.208  25.614  1.00  0.00    -0.024 A 
ATOM     11  C   UNL A   1      30.886  30.073  24.713  1.00  0.00     0.006 A 
ATOM     12  C   UNL A   1      31.573  27.846  25.235  1.00  0.00     0.049 A 
ATOM     13  C   UNL A   1      30.168  29.599  23.619  1.00  0.00     0.001 A 
ATOM     14  C   UNL A   1      30.803  27.336  24.184  1.00  0.00     0.003 A 
ATOM     15  N   UNL A   1      32.312  26.785  25.734  1.00  0.00    -0.356 N 
ATOM     16  C   UNL A   1      30.054  28.227  23.391  1.00  0.00     0.010 A 
ATOM     17  C   UNL A   1      31.031  25.935  24.150  1.00  0.00    -0.014 A 
ATOM     18  C   UNL A   1      32.077  25.645  25.001  1.00  0.00     0.052 A 
ATOM     19  H   UNL A   1      32.921  26.840  26.505  1.00  0.00     0.166 HD
ATOM     20  C   UNL A   1      30.401  24.862  23.347  1.00  0.00     0.066 C 
ATOM     21  C   UNL A   1      31.391  23.697  23.219  1.00  0.00     0.166 C 
ATOM     22  O   UNL A   1      31.969  23.296  24.464  1.00  0.00    -0.368 OA
BRANCH  10  23
ATOM     23  C   UNL A   1      32.183  29.737  26.874  1.00  0.00     0.034 C 
ATOM     24  C   UNL A   1      33.682  29.451  26.975  1.00  0.00     0.009 C 
ENDBRANCH  10  23
BRANCH   9  25
ATOM     25  C   UNL A   1      32.523  23.878  26.688  1.00  0.00     0.039 C 
ATOM     26  C   UNL A   1      31.194  23.183  26.994  1.00  0.00     0.007 C 
ENDBRANCH   9  25
ENDBRANCH   8   9
ENDBRANCH   6   8
ENDBRANCH   5   6
ENDBRANCH   4   5
ENDBRANCH   3   4
ENDBRANCH   2   3
ENDBRANCH   1   2
BRANCH   1  27
ATOM     27  C   UNL A   1      39.502  19.108  25.966  1.00  0.00     0.261 C 
BRANCH  27  28
ATOM     28  O   UNL A   1      40.835  18.942  25.458  1.00  0.00    -0.460 OA
BRANCH  28  29
ATOM     29  C   UNL A   1      41.834  19.252  26.326  1.00  0.00     0.338 C 
ATOM     30  O   UNL A   1      42.837  18.605  26.572  1.00  0.00    -0.246 OA
BRANCH  29  31
ATOM     31  C   UNL A   1      41.667  20.689  26.590  1.00  0.00     0.060 A 
ATOM     32  C   UNL A   1      42.390  21.658  25.888  1.00  0.00     0.016 A 
ATOM     33  C   UNL A   1      41.038  20.988  27.802  1.00  0.00     0.016 A 
ATOM     34  C   UNL A   1      42.637  22.882  26.492  1.00  0.00     0.010 A 
ATOM     35  C   UNL A   1      41.305  22.199  28.412  1.00  0.00     0.010 A 
ATOM     36  C   UNL A   1      42.158  23.113  27.787  1.00  0.00    -0.014 A 
BRANCH  36  37
ATOM     37  C   UNL A   1      42.418  24.404  28.422  1.00  0.00     0.031 A 
ATOM     38  C   UNL A   1      41.360  25.405  28.140  1.00  0.00     0.074 A 
ATOM     39  C   UNL A   1      43.400  24.600  29.326  1.00  0.00     0.049 A 
ATOM     40  N   UNL A   1      41.492  26.575  27.605  1.00  0.00    -0.248 NA
ATOM     41  C   UNL A   1      39.963  24.986  28.347  1.00  0.00     0.031 C 
ATOM     42  C   UNL A   1      44.326  23.599  29.839  1.00  0.00     0.029 A 
ATOM     43  N   UNL A   1      43.695  25.685  30.099  1.00  0.00    -0.354 N 
ATOM     44  C   UNL A   1      40.213  27.123  27.630  1.00  0.00     0.074 A 
ATOM     45  C   UNL A   1      39.296  26.048  27.903  1.00  0.00     0.031 C 
ATOM     46  C   UNL A   1      44.889  24.019  30.988  1.00  0.00     0.029 A 
ATOM     47  C   UNL A   1      44.446  25.371  31.239  1.00  0.00     0.049 A 
ATOM     48  H   UNL A   1      43.408  26.600  29.876  1.00  0.00     0.167 HD
ATOM     49  C   UNL A   1      40.004  28.462  27.714  1.00  0.00     0.034 A 
ATOM     50  C   UNL A   1      44.602  26.134  32.350  1.00  0.00     0.034 A 
ATOM     51  C   UNL A   1      41.164  29.226  27.359  1.00  0.00     0.049 A 
ATOM     52  C   UNL A   1      44.292  27.520  31.938  1.00  0.00     0.074 A 
ATOM     53  C   UNL A   1      41.922  29.389  26.220  1.00  0.00     0.029 A 
ATOM     54  N   UNL A   1      41.926  29.691  28.400  1.00  0.00    -0.354 N 
ATOM     55  N   UNL A   1      45.000  28.201  31.084  1.00  0.00    -0.248 NA
ATOM     56  C   UNL A   1      42.950  28.017  32.185  1.00  0.00     0.031 C 
ATOM     57  C   UNL A   1      43.262  29.549  26.681  1.00  0.00     0.029 A 
ATOM     58  C   UNL A   1      43.246  29.515  28.077  1.00  0.00     0.049 A 
ATOM     59  H   UNL A   1      41.585  30.085  29.235  1.00  0.00     0.167 HD
ATOM     60  C   UNL A   1      44.060  28.917  30.358  1.00  0.00     0.074 A 
ATOM     61  C   UNL A   1      42.841  28.865  31.161  1.00  0.00     0.031 C 
ATOM     62  C   UNL A   1      44.279  29.227  29.048  1.00  0.00     0.034 A 
BRANCH  49  63
ATOM     63  C   UNL A   1      38.849  29.044  28.482  1.00  0.00     0.023 A 
ATOM     64  C   UNL A   1      37.891  29.803  27.788  1.00  0.00     0.012 A 
ATOM     65  C   UNL A   1      38.793  29.059  29.897  1.00  0.00     0.148 A 
ATOM     66  C   UNL A   1      36.905  30.524  28.472  1.00  0.00     0.002 A 
ATOM     67  C   UNL A   1      37.761  29.701  30.568  1.00  0.00     0.091 A 
ATOM     68  F   UNL A   1      39.812  28.558  30.606  1.00  0.00    -0.205 F 
ATOM     69  C   UNL A   1      36.824  30.453  29.860  1.00  0.00     0.022 A 
BRANCH  67  70
ATOM     70  S   UNL A   1      37.589  29.583  32.352  1.00  0.00     0.127 S 
ATOM     71  O   UNL A   1      38.763  30.318  32.808  1.00  0.00    -0.237 OA
ATOM     72  O   UNL A   1      36.308  30.255  32.575  1.00  0.00    -0.237 OA
ATOM     73  O   UNL A   1      37.567  28.154  32.640  1.00  0.00    -0.744 OA
ENDBRANCH  67  70
ENDBRANCH  49  63
BRANCH  50  74
ATOM     74  C   UNL A   1      44.615  25.739  33.789  1.00  0.00     0.023 A 
ATOM     75  C   UNL A   1      45.866  25.622  34.438  1.00  0.00     0.012 A 
ATOM     76  C   UNL A   1      43.462  25.807  34.603  1.00  0.00     0.148 A 
ATOM     77  C   UNL A   1      45.974  25.678  35.833  1.00  0.00     0.002 A 
ATOM     78  C   UNL A   1      43.574  25.850  35.992  1.00  0.00     0.091 A 
ATOM     79  F   UNL A   1      42.260  25.932  34.028  1.00  0.00    -0.205 F 
ATOM     80  C   UNL A   1      44.829  25.812  36.609  1.00  0.00     0.022 A 
BRANCH  78  81
ATOM     81  S   UNL A   1      42.130  26.033  37.051  1.00  0.00     0.127 S 
ATOM     82  O   UNL A   1      41.468  24.736  36.897  1.00  0.00    -0.237 OA
ATOM     83  O   UNL A   1      42.741  26.256  38.357  1.00  0.00    -0.237 OA
ATOM     84  O   UNL A   1      41.379  27.153  36.498  1.00  0.00    -0.744 OA
ENDBRANCH  78  81
ENDBRANCH  50  74
BRANCH  62  85
ATOM     85  C   UNL A   1      45.675  29.021  28.509  1.00  0.00     0.023 A 
ATOM     86  C   UNL A   1      46.705  29.971  28.683  1.00  0.00     0.012 A 
ATOM     87  C   UNL A   1      45.988  27.776  27.943  1.00  0.00     0.148 A 
ATOM     88  C   UNL A   1      48.016  29.685  28.289  1.00  0.00     0.002 A 
ATOM     89  C   UNL A   1      47.298  27.482  27.585  1.00  0.00     0.091 A 
ATOM     90  F   UNL A   1      44.997  26.885  27.795  1.00  0.00    -0.205 F 
ATOM     91  C   UNL A   1      48.315  28.436  27.751  1.00  0.00     0.022 A 
BRANCH  89  92
ATOM     92  S   UNL A   1      47.769  25.862  26.975  1.00  0.00     0.127 S 
ATOM     93  O   UNL A   1      47.037  25.786  25.711  1.00  0.00    -0.237 OA
ATOM     94  O   UNL A   1      49.220  25.991  26.835  1.00  0.00    -0.237 OA
ATOM     95  O   UNL A   1      47.350  24.909  27.995  1.00  0.00    -0.744 OA
ENDBRANCH  89  92
ENDBRANCH  62  85
ENDBRANCH  36  37
ENDBRANCH  29  31
ENDBRANCH  28  29
ENDBRANCH  27  28
ENDBRANCH   1  27
TORSDOF 20
ENDMDL
MODEL 2
REMARK VINA RESULT:     -11.1      3.536      7.005
REMARK SMILES CCc1cccc2c3c([nH]c12)[C@](CC)(CC(=O)OCCOCCOC(=O)c1ccc(-c2c4nc(c(-c5cccc(S(=O)(=O)[O-])c5F)c5ccc([nH]5)c(-c5cccc(S(=O)(=O)[O-])c5F)c5nc(c(-c6cccc(S(=O)(=O)[O-])c6F)c6ccc2[nH]6)C=C5)C=C4)cc1)OCC3
REMARK SMILES IDX 22 1 21 2 20 3 19 4 18 5 16 6 17 7 15 8 12 9 3 10 4 11 11 12
REMARK SMILES IDX 5 13 7 14 10 15 6 16 8 17 9 18 92 20 91 21 90 22 2 23 1 24
REMARK SMILES IDX 13 25 14 26 23 27 24 28 25 29 26 30 27 31 28 32 89 33 29 34
REMARK SMILES IDX 88 35 30 36 31 37 32 38 82 39 33 40 87 41 81 42 83 43 34 44
REMARK SMILES IDX 86 45 80 46 79 47 35 49 67 50 47 51 66 52 48 53 51 54 65 55
REMARK SMILES IDX 84 56 49 57 50 58 64 60 85 61 52 62 36 63 37 64 45 65 38 66
REMARK SMILES IDX 40 67 46 68 39 69 41 70 42 71 43 72 44 73 68 74 69 75 77 76
REMARK SMILES IDX 70 77 72 78 78 79 71 80 73 81 74 82 75 83 76 84 53 85 54 86
REMARK SMILES IDX 62 87 55 88 57 89 63 90 56 91 58 92 59 93 60 94 61 95
REMARK H PARENT 10 19 83 48 51 59
REMARK Flexibility Score: inf
ROOT
ATOM      1  C   UNL A   1      40.145  20.247  26.484  1.00  0.00     0.202 C 
ENDROOT
BRANCH   1   2
ATOM      2  O   UNL A   1      39.641  19.509  25.381  1.00  0.00    -0.374 OA
BRANCH   2   3
ATOM      3  C   UNL A   1      38.302  19.765  24.994  1.00  0.00     0.202 C 
BRANCH   3   4
ATOM      4  C   UNL A   1      37.755  21.191  25.180  1.00  0.00     0.261 C 
BRANCH   4   5
ATOM      5  O   UNL A   1      36.370  21.265  25.594  1.00  0.00    -0.463 OA
BRANCH   5   6
ATOM      6  C   UNL A   1      35.966  22.495  25.962  1.00  0.00     0.309 C 
ATOM      7  O   UNL A   1      36.719  23.470  26.018  1.00  0.00    -0.252 OA
BRANCH   6   8
ATOM      8  C   UNL A   1      34.524  22.694  26.360  1.00  0.00     0.164 C 
BRANCH   8   9
ATOM      9  C   UNL A   1      33.260  23.054  25.553  1.00  0.00     0.118 C 
ATOM     10  C   UNL A   1      33.494  28.036  24.600  1.00  0.00    -0.024 A 
ATOM     11  C   UNL A   1      33.808  28.727  23.412  1.00  0.00     0.006 A 
ATOM     12  C   UNL A   1      33.371  26.633  24.474  1.00  0.00     0.049 A 
ATOM     13  C   UNL A   1      33.819  28.098  22.170  1.00  0.00     0.001 A 
ATOM     14  C   UNL A   1      33.308  25.989  23.234  1.00  0.00     0.003 A 
ATOM     15  N   UNL A   1      33.312  25.639  25.438  1.00  0.00    -0.356 N 
ATOM     16  C   UNL A   1      33.492  26.747  22.061  1.00  0.00     0.010 A 
ATOM     17  C   UNL A   1      33.105  24.608  23.497  1.00  0.00    -0.014 A 
ATOM     18  C   UNL A   1      33.271  24.397  24.850  1.00  0.00     0.052 A 
ATOM     19  H   UNL A   1      33.302  25.800  26.409  1.00  0.00     0.166 HD
ATOM     20  C   UNL A   1      32.835  23.470  22.589  1.00  0.00     0.066 C 
ATOM     21  C   UNL A   1      33.317  22.178  23.262  1.00  0.00     0.166 C 
ATOM     22  O   UNL A   1      32.865  22.031  24.610  1.00  0.00    -0.368 OA
BRANCH  10  23
ATOM     23  C   UNL A   1      33.341  28.771  25.911  1.00  0.00     0.034 C 
ATOM     24  C   UNL A   1      32.008  29.506  26.059  1.00  0.00     0.009 C 
ENDBRANCH  10  23
BRANCH   9  25
ATOM     25  C   UNL A   1      32.067  23.077  26.575  1.00  0.00     0.039 C 
ATOM     26  C   UNL A   1      30.750  22.501  26.052  1.00  0.00     0.007 C 
ENDBRANCH   9  25
ENDBRANCH   8   9
ENDBRANCH   6   8
ENDBRANCH   5   6
ENDBRANCH   4   5
ENDBRANCH   3   4
ENDBRANCH   2   3
ENDBRANCH   1   2
BRANCH   1  27
ATOM     27  C   UNL A   1      41.302  21.217  26.216  1.00  0.00     0.261 C 
BRANCH  27  28
ATOM     28  O   UNL A   1      40.872  22.588  26.228  1.00  0.00    -0.460 OA
BRANCH  28  29
ATOM     29  C   UNL A   1      41.868  23.512  26.251  1.00  0.00     0.338 C 
ATOM     30  O   UNL A   1      42.731  23.701  25.411  1.00  0.00    -0.246 OA
BRANCH  29  31
ATOM     31  C   UNL A   1      41.449  24.488  27.269  1.00  0.00     0.060 A 
ATOM     32  C   UNL A   1      40.399  25.384  27.045  1.00  0.00     0.016 A 
ATOM     33  C   UNL A   1      42.381  24.701  28.288  1.00  0.00     0.016 A 
ATOM     34  C   UNL A   1      40.388  26.591  27.729  1.00  0.00     0.010 A 
ATOM     35  C   UNL A   1      42.383  25.913  28.950  1.00  0.00     0.010 A 
ATOM     36  C   UNL A   1      41.428  26.880  28.619  1.00  0.00    -0.014 A 
BRANCH  36  37
ATOM     37  C   UNL A   1      41.415  28.152  29.340  1.00  0.00     0.031 A 
ATOM     38  C   UNL A   1      42.402  29.124  28.808  1.00  0.00     0.074 A 
ATOM     39  C   UNL A   1      40.474  28.477  30.251  1.00  0.00     0.049 A 
ATOM     40  N   UNL A   1      43.357  29.720  29.444  1.00  0.00    -0.248 NA
ATOM     41  C   UNL A   1      42.414  29.342  27.351  1.00  0.00     0.031 C 
ATOM     42  C   UNL A   1      39.329  27.669  30.647  1.00  0.00     0.029 A 
ATOM     43  N   UNL A   1      40.240  29.649  30.910  1.00  0.00    -0.354 N 
ATOM     44  C   UNL A   1      43.935  30.567  28.503  1.00  0.00     0.074 A 
ATOM     45  C   UNL A   1      43.459  30.154  27.210  1.00  0.00     0.031 C 
ATOM     46  C   UNL A   1      38.398  28.432  31.252  1.00  0.00     0.029 A 
ATOM     47  C   UNL A   1      38.928  29.770  31.385  1.00  0.00     0.049 A 
ATOM     48  H   UNL A   1      40.927  30.342  31.039  1.00  0.00     0.167 HD
ATOM     49  C   UNL A   1      44.537  31.732  28.856  1.00  0.00     0.034 A 
ATOM     50  C   UNL A   1      38.298  30.911  31.762  1.00  0.00     0.034 A 
ATOM     51  C   UNL A   1      44.873  31.781  30.248  1.00  0.00     0.049 A 
ATOM     52  C   UNL A   1      39.368  31.881  32.077  1.00  0.00     0.074 A 
ATOM     53  C   UNL A   1      45.705  31.068  31.083  1.00  0.00     0.029 A 
ATOM     54  N   UNL A   1      44.000  32.459  31.060  1.00  0.00    -0.354 N 
ATOM     55  N   UNL A   1      40.211  31.742  33.059  1.00  0.00    -0.248 NA
ATOM     56  C   UNL A   1      39.753  32.825  31.042  1.00  0.00     0.031 C 
ATOM     57  C   UNL A   1      45.025  31.017  32.336  1.00  0.00     0.029 A 
ATOM     58  C   UNL A   1      43.834  31.735  32.211  1.00  0.00     0.049 A 
ATOM     59  H   UNL A   1      43.569  33.319  30.852  1.00  0.00     0.167 HD
ATOM     60  C   UNL A   1      41.409  32.217  32.548  1.00  0.00     0.074 A 
ATOM     61  C   UNL A   1      41.038  32.985  31.362  1.00  0.00     0.031 C 
ATOM     62  C   UNL A   1      42.600  31.698  32.965  1.00  0.00     0.034 A 
BRANCH  49  63
ATOM     63  C   UNL A   1      44.470  32.960  27.990  1.00  0.00     0.023 A 
ATOM     64  C   UNL A   1      45.510  33.199  27.075  1.00  0.00     0.012 A 
ATOM     65  C   UNL A   1      43.535  34.003  28.202  1.00  0.00     0.148 A 
ATOM     66  C   UNL A   1      45.599  34.412  26.382  1.00  0.00     0.002 A 
ATOM     67  C   UNL A   1      43.576  35.168  27.449  1.00  0.00     0.091 A 
ATOM     68  F   UNL A   1      42.676  33.926  29.226  1.00  0.00    -0.205 F 
ATOM     69  C   UNL A   1      44.619  35.387  26.550  1.00  0.00     0.022 A 
BRANCH  67  70
ATOM     70  S   UNL A   1      42.297  36.421  27.593  1.00  0.00     0.127 S 
ATOM     71  O   UNL A   1      42.623  37.024  28.880  1.00  0.00    -0.237 OA
ATOM     72  O   UNL A   1      42.568  37.262  26.426  1.00  0.00    -0.237 OA
ATOM     73  O   UNL A   1      41.037  35.691  27.519  1.00  0.00    -0.744 OA
ENDBRANCH  67  70
ENDBRANCH  49  63
BRANCH  50  74
ATOM     74  C   UNL A   1      36.896  31.358  31.513  1.00  0.00     0.023 A 
ATOM     75  C   UNL A   1      36.169  31.908  32.593  1.00  0.00     0.012 A 
ATOM     76  C   UNL A   1      36.390  31.568  30.211  1.00  0.00     0.148 A 
ATOM     77  C   UNL A   1      35.047  32.720  32.381  1.00  0.00     0.002 A 
ATOM     78  C   UNL A   1      35.267  32.368  30.005  1.00  0.00     0.091 A 
ATOM     79  F   UNL A   1      37.057  31.076  29.160  1.00  0.00    -0.205 F 
ATOM     80  C   UNL A   1      34.609  32.967  31.085  1.00  0.00     0.022 A 
BRANCH  78  81
ATOM     81  S   UNL A   1      34.655  32.733  28.352  1.00  0.00     0.127 S 
ATOM     82  O   UNL A   1      34.319  31.400  27.846  1.00  0.00    -0.237 OA
ATOM     83  O   UNL A   1      33.506  33.586  28.637  1.00  0.00    -0.237 OA
ATOM     84  O   UNL A   1      35.766  33.370  27.657  1.00  0.00    -0.744 OA
ENDBRANCH  78  81
ENDBRANCH  50  74
BRANCH  62  85
ATOM     85  C   UNL A   1      42.582  30.812  34.188  1.00  0.00     0.023 A 
ATOM     86  C   UNL A   1      42.591  31.328  35.502  1.00  0.00     0.012 A 
ATOM     87  C   UNL A   1      42.402  29.433  34.002  1.00  0.00     0.148 A 
ATOM     88  C   UNL A   1      42.436  30.483  36.605  1.00  0.00     0.002 A 
ATOM     89  C   UNL A   1      42.214  28.600  35.099  1.00  0.00     0.091 A 
ATOM     90  F   UNL A   1      42.387  28.963  32.746  1.00  0.00    -0.205 F 
ATOM     91  C   UNL A   1      42.235  29.120  36.402  1.00  0.00     0.022 A 
BRANCH  89  92
ATOM     92  S   UNL A   1      41.857  26.852  34.905  1.00  0.00     0.127 S 
ATOM     93  O   UNL A   1      41.758  26.404  36.293  1.00  0.00    -0.237 OA
ATOM     94  O   UNL A   1      40.587  26.873  34.177  1.00  0.00    -0.237 OA
ATOM     95  O   UNL A   1      42.969  26.294  34.148  1.00  0.00    -0.744 OA
ENDBRANCH  89  92
ENDBRANCH  62  85
ENDBRANCH  36  37
ENDBRANCH  29  31
ENDBRANCH  28  29
ENDBRANCH  27  28
ENDBRANCH   1  27
TORSDOF 20
ENDMDL
MODEL 3
REMARK VINA RESULT:     -11.0      1.862      2.145
REMARK SMILES CCc1cccc2c3c([nH]c12)[C@](CC)(CC(=O)OCCOCCOC(=O)c1ccc(-c2c4nc(c(-c5cccc(S(=O)(=O)[O-])c5F)c5ccc([nH]5)c(-c5cccc(S(=O)(=O)[O-])c5F)c5nc(c(-c6cccc(S(=O)(=O)[O-])c6F)c6ccc2[nH]6)C=C5)C=C4)cc1)OCC3
REMARK SMILES IDX 22 1 21 2 20 3 19 4 18 5 16 6 17 7 15 8 12 9 3 10 4 11 11 12
REMARK SMILES IDX 5 13 7 14 10 15 6 16 8 17 9 18 92 20 91 21 90 22 2 23 1 24
REMARK SMILES IDX 13 25 14 26 23 27 24 28 25 29 26 30 27 31 28 32 89 33 29 34
REMARK SMILES IDX 88 35 30 36 31 37 32 38 82 39 33 40 87 41 81 42 83 43 34 44
REMARK SMILES IDX 86 45 80 46 79 47 35 49 67 50 47 51 66 52 48 53 51 54 65 55
REMARK SMILES IDX 84 56 49 57 50 58 64 60 85 61 52 62 36 63 37 64 45 65 38 66
REMARK SMILES IDX 40 67 46 68 39 69 41 70 42 71 43 72 44 73 68 74 69 75 77 76
REMARK SMILES IDX 70 77 72 78 78 79 71 80 73 81 74 82 75 83 76 84 53 85 54 86
REMARK SMILES IDX 62 87 55 88 57 89 63 90 56 91 58 92 59 93 60 94 61 95
REMARK H PARENT 10 19 83 48 51 59
REMARK Flexibility Score: inf
ROOT
ATOM      1  C   UNL A   1      38.141  19.703  24.924  1.00  0.00     0.202 C 
ENDROOT
BRANCH   1   2
ATOM      2  O   UNL A   1      36.860  19.094  24.907  1.00  0.00    -0.374 OA
BRANCH   2   3
ATOM      3  C   UNL A   1      35.736  19.958  24.904  1.00  0.00     0.202 C 
BRANCH   3   4
ATOM      4  C   UNL A   1      35.970  21.447  24.598  1.00  0.00     0.261 C 
BRANCH   4   5
ATOM      5  O   UNL A   1      36.022  22.308  25.760  1.00  0.00    -0.463 OA
BRANCH   5   6
ATOM      6  C   UNL A   1      35.943  23.622  25.481  1.00  0.00     0.309 C 
ATOM      7  O   UNL A   1      36.820  24.435  25.782  1.00  0.00    -0.252 OA
BRANCH   6   8
ATOM      8  C   UNL A   1      34.705  24.142  24.792  1.00  0.00     0.164 C 
BRANCH   8   9
ATOM      9  C   UNL A   1      33.206  24.059  25.141  1.00  0.00     0.118 C 
ATOM     10  C   UNL A   1      31.377  28.790  24.903  1.00  0.00    -0.024 A 
ATOM     11  C   UNL A   1      30.574  29.413  23.925  1.00  0.00     0.006 A 
ATOM     12  C   UNL A   1      31.578  27.401  24.730  1.00  0.00     0.049 A 
ATOM     13  C   UNL A   1      29.882  28.686  22.961  1.00  0.00     0.001 A 
ATOM     14  C   UNL A   1      30.842  26.639  23.817  1.00  0.00     0.003 A 
ATOM     15  N   UNL A   1      32.475  26.534  25.335  1.00  0.00    -0.356 N 
ATOM     16  C   UNL A   1      29.946  27.292  22.948  1.00  0.00     0.010 A 
ATOM     17  C   UNL A   1      31.256  25.290  23.978  1.00  0.00    -0.014 A 
ATOM     18  C   UNL A   1      32.366  25.273  24.797  1.00  0.00     0.052 A 
ATOM     19  H   UNL A   1      33.102  26.786  26.050  1.00  0.00     0.166 HD
ATOM     20  C   UNL A   1      30.745  24.034  23.385  1.00  0.00     0.066 C 
ATOM     21  C   UNL A   1      31.877  22.999  23.372  1.00  0.00     0.166 C 
ATOM     22  O   UNL A   1      32.556  22.875  24.624  1.00  0.00    -0.368 OA
BRANCH  10  23
ATOM     23  C   UNL A   1      31.994  29.587  26.027  1.00  0.00     0.034 C 
ATOM     24  C   UNL A   1      31.713  29.020  27.419  1.00  0.00     0.009 C 
ENDBRANCH  10  23
BRANCH   9  25
ATOM     25  C   UNL A   1      33.118  23.863  26.698  1.00  0.00     0.039 C 
ATOM     26  C   UNL A   1      32.762  22.447  27.157  1.00  0.00     0.007 C 
ENDBRANCH   9  25
ENDBRANCH   8   9
ENDBRANCH   6   8
ENDBRANCH   5   6
ENDBRANCH   4   5
ENDBRANCH   3   4
ENDBRANCH   2   3
ENDBRANCH   1   2
BRANCH   1  27
ATOM     27  C   UNL A   1      39.224  19.048  25.790  1.00  0.00     0.261 C 
BRANCH  27  28
ATOM     28  O   UNL A   1      40.525  19.134  25.185  1.00  0.00    -0.460 OA
BRANCH  28  29
ATOM     29  C   UNL A   1      41.553  19.365  26.043  1.00  0.00     0.338 C 
ATOM     30  O   UNL A   1      42.544  18.679  26.224  1.00  0.00    -0.246 OA
BRANCH  29  31
ATOM     31  C   UNL A   1      41.433  20.788  26.396  1.00  0.00     0.060 A 
ATOM     32  C   UNL A   1      42.154  21.779  25.724  1.00  0.00     0.016 A 
ATOM     33  C   UNL A   1      40.858  21.030  27.646  1.00  0.00     0.016 A 
ATOM     34  C   UNL A   1      42.454  22.959  26.387  1.00  0.00     0.010 A 
ATOM     35  C   UNL A   1      41.177  22.196  28.315  1.00  0.00     0.010 A 
ATOM     36  C   UNL A   1      42.030  23.125  27.711  1.00  0.00    -0.014 A 
BRANCH  36  37
ATOM     37  C   UNL A   1      42.346  24.371  28.409  1.00  0.00     0.031 A 
ATOM     38  C   UNL A   1      41.319  25.421  28.201  1.00  0.00     0.074 A 
ATOM     39  C   UNL A   1      43.351  24.484  29.303  1.00  0.00     0.049 A 
ATOM     40  N   UNL A   1      41.482  26.613  27.727  1.00  0.00    -0.248 NA
ATOM     41  C   UNL A   1      39.913  25.039  28.413  1.00  0.00     0.031 C 
ATOM     42  C   UNL A   1      44.249  23.425  29.743  1.00  0.00     0.029 A 
ATOM     43  N   UNL A   1      43.697  25.515  30.126  1.00  0.00    -0.354 N 
ATOM     44  C   UNL A   1      40.224  27.202  27.806  1.00  0.00     0.074 A 
ATOM     45  C   UNL A   1      39.275  26.146  28.040  1.00  0.00     0.031 C 
ATOM     46  C   UNL A   1      44.847  23.764  30.901  1.00  0.00     0.029 A 
ATOM     47  C   UNL A   1      44.456  25.114  31.233  1.00  0.00     0.049 A 
ATOM     48  H   UNL A   1      43.438  26.450  29.959  1.00  0.00     0.167 HD
ATOM     49  C   UNL A   1      40.064  28.541  27.966  1.00  0.00     0.034 A 
ATOM     50  C   UNL A   1      44.658  25.811  32.380  1.00  0.00     0.034 A 
ATOM     51  C   UNL A   1      41.243  29.283  27.630  1.00  0.00     0.049 A 
ATOM     52  C   UNL A   1      44.391  27.226  32.049  1.00  0.00     0.074 A 
ATOM     53  C   UNL A   1      41.986  29.481  26.486  1.00  0.00     0.029 A 
ATOM     54  N   UNL A   1      42.040  29.664  28.678  1.00  0.00    -0.354 N 
ATOM     55  N   UNL A   1      45.107  27.928  31.218  1.00  0.00    -0.248 NA
ATOM     56  C   UNL A   1      43.071  27.754  32.348  1.00  0.00     0.031 C 
ATOM     57  C   UNL A   1      43.339  29.570  26.929  1.00  0.00     0.029 A 
ATOM     58  C   UNL A   1      43.346  29.462  28.320  1.00  0.00     0.049 A 
ATOM     59  H   UNL A   1      41.727  30.024  29.540  1.00  0.00     0.167 HD
ATOM     60  C   UNL A   1      44.179  28.714  30.551  1.00  0.00     0.074 A 
ATOM     61  C   UNL A   1      42.974  28.660  31.373  1.00  0.00     0.031 C 
ATOM     62  C   UNL A   1      44.386  29.086  29.254  1.00  0.00     0.034 A 
BRANCH  49  63
ATOM     63  C   UNL A   1      38.944  29.119  28.786  1.00  0.00     0.023 A 
ATOM     64  C   UNL A   1      38.788  28.689  30.115  1.00  0.00     0.012 A 
ATOM     65  C   UNL A   1      37.904  29.903  28.228  1.00  0.00     0.148 A 
ATOM     66  C   UNL A   1      37.660  29.045  30.863  1.00  0.00     0.002 A 
ATOM     67  C   UNL A   1      36.831  30.327  29.000  1.00  0.00     0.091 A 
ATOM     68  F   UNL A   1      37.883  30.134  26.910  1.00  0.00    -0.205 F 
ATOM     69  C   UNL A   1      36.694  29.885  30.315  1.00  0.00     0.022 A 
BRANCH  67  70
ATOM     70  S   UNL A   1      35.599  31.458  28.347  1.00  0.00     0.127 S 
ATOM     71  O   UNL A   1      34.946  30.630  27.339  1.00  0.00    -0.237 OA
ATOM     72  O   UNL A   1      34.792  31.743  29.535  1.00  0.00    -0.237 OA
ATOM     73  O   UNL A   1      36.354  32.604  27.854  1.00  0.00    -0.744 OA
ENDBRANCH  67  70
ENDBRANCH  49  63
BRANCH  50  74
ATOM     74  C   UNL A   1      44.684  25.338  33.795  1.00  0.00     0.023 A 
ATOM     75  C   UNL A   1      43.455  25.231  34.486  1.00  0.00     0.012 A 
ATOM     76  C   UNL A   1      45.805  24.686  34.355  1.00  0.00     0.148 A 
ATOM     77  C   UNL A   1      43.324  24.424  35.623  1.00  0.00     0.002 A 
ATOM     78  C   UNL A   1      45.673  23.894  35.494  1.00  0.00     0.091 A 
ATOM     79  F   UNL A   1      46.984  24.752  33.725  1.00  0.00    -0.205 F 
ATOM     80  C   UNL A   1      44.429  23.739  36.115  1.00  0.00     0.022 A 
BRANCH  78  81
ATOM     81  S   UNL A   1      47.062  22.975  36.174  1.00  0.00     0.127 S 
ATOM     82  O   UNL A   1      46.485  22.396  37.389  1.00  0.00    -0.237 OA
ATOM     83  O   UNL A   1      47.339  22.014  35.111  1.00  0.00    -0.237 OA
ATOM     84  O   UNL A   1      48.101  23.966  36.424  1.00  0.00    -0.744 OA
ENDBRANCH  78  81
ENDBRANCH  50  74
BRANCH  62  85
ATOM     85  C   UNL A   1      45.764  28.863  28.678  1.00  0.00     0.023 A 
ATOM     86  C   UNL A   1      46.841  29.744  28.918  1.00  0.00     0.012 A 
ATOM     87  C   UNL A   1      46.010  27.658  28.002  1.00  0.00     0.148 A 
ATOM     88  C   UNL A   1      48.132  29.432  28.480  1.00  0.00     0.002 A 
ATOM     89  C   UNL A   1      47.300  27.336  27.599  1.00  0.00     0.091 A 
ATOM     90  F   UNL A   1      44.975  26.831  27.792  1.00  0.00    -0.205 F 
ATOM     91  C   UNL A   1      48.364  28.222  27.831  1.00  0.00     0.022 A 
BRANCH  89  92
ATOM     92  S   UNL A   1      47.684  25.754  26.843  1.00  0.00     0.127 S 
ATOM     93  O   UNL A   1      46.716  25.694  25.750  1.00  0.00    -0.237 OA
ATOM     94  O   UNL A   1      49.073  25.940  26.422  1.00  0.00    -0.237 OA
ATOM     95  O   UNL A   1      47.507  24.754  27.888  1.00  0.00    -0.744 OA
ENDBRANCH  89  92
ENDBRANCH  62  85
ENDBRANCH  36  37
ENDBRANCH  29  31
ENDBRANCH  28  29
ENDBRANCH  27  28
ENDBRANCH   1  27
TORSDOF 20
ENDMDL
