MODEL 1
REMARK VINA RESULT:     -11.7      0.000      0.000
REMARK SMILES O=C(OCCOCCOC(=O)c1ccc(-c2c3nc(c(-c4cccc(S(=O)(=O)[O-])c4F)c4ccc([nH]4)c(-c4cccc(S(=O)(=O)[O-])c4F)c4nc(c(-c5cccc(S(=O)(=O)[O-])c5F)c5ccc2[nH]5)C=C4)C=C3)cc1)C1=Cc2cc(S(F)(F)(F)(F)F)ccc2O[C@H]1C(F)(F)F
REMARK SMILES IDX 7 1 6 2 5 3 4 4 3 5 2 6 1 7 75 8 76 9 90 10 77 11 89 12
REMARK SMILES IDX 78 13 88 14 79 15 87 16 86 17 91 18 92 19 93 20 94 21 80 22
REMARK SMILES IDX 81 23 82 24 83 25 84 26 85 27 8 28 9 29 10 30 11 31 12 32
REMARK SMILES IDX 13 33 74 34 14 35 73 36 15 37 16 38 17 39 67 40 18 41 72 42
REMARK SMILES IDX 66 43 68 44 19 45 71 46 65 47 64 48 20 50 52 51 32 52 51 53
REMARK SMILES IDX 33 54 36 55 50 56 69 57 34 58 35 59 49 61 70 62 37 63 21 64
REMARK SMILES IDX 22 65 30 66 23 67 25 68 31 69 24 70 26 71 27 72 28 73 29 74
REMARK SMILES IDX 53 75 54 76 62 77 55 78 57 79 63 80 56 81 58 82 59 83 60 84
REMARK SMILES IDX 61 85 38 86 39 87 47 88 40 89 42 90 48 91 41 92 43 93 44 94
REMARK SMILES IDX 45 95 46 96
REMARK H PARENT 68 49 36 60
REMARK Flexibility Score: inf
ROOT
ATOM      1  C   UNL A   1      32.143  27.971  24.334  1.00  0.00     0.202 C 
ENDROOT
BRANCH   1   2
ATOM      2  O   UNL A   1      32.952  27.068  25.074  1.00  0.00    -0.374 OA
BRANCH   2   3
ATOM      3  C   UNL A   1      34.017  26.607  24.255  1.00  0.00     0.202 C 
BRANCH   3   4
ATOM      4  C   UNL A   1      33.696  25.211  23.747  1.00  0.00     0.261 C 
BRANCH   4   5
ATOM      5  O   UNL A   1      34.282  24.247  24.609  1.00  0.00    -0.460 OA
BRANCH   5   6
ATOM      6  C   UNL A   1      35.087  23.208  24.070  1.00  0.00     0.338 C 
ATOM      7  O   UNL A   1      35.846  23.442  23.079  1.00  0.00    -0.246 OA
BRANCH   6   8
ATOM      8  C   UNL A   1      35.040  21.816  24.680  1.00  0.00     0.087 C 
ATOM      9  C   UNL A   1      36.062  21.382  25.465  1.00  0.00     0.027 C 
ATOM     10  C   UNL A   1      33.848  20.911  24.413  1.00  0.00     0.316 C 
ATOM     11  C   UNL A   1      37.253  22.287  25.732  1.00  0.00     0.019 A 
ATOM     12  O   UNL A   1      35.840  24.193  25.881  1.00  0.00    -0.475 OA
ATOM     13  C   UNL A   1      38.502  21.686  25.732  1.00  0.00     0.036 A 
ATOM     14  C   UNL A   1      37.105  23.568  26.047  1.00  0.00     0.128 A 
ATOM     15  C   UNL A   1      39.507  22.455  26.366  1.00  0.00     0.107 A 
ATOM     16  C   UNL A   1      38.165  24.296  26.534  1.00  0.00     0.048 A 
ATOM     17  C   UNL A   1      39.415  23.748  26.618  1.00  0.00     0.028 A 
BRANCH  10  18
ATOM     18  C   UNL A   1      32.856  21.631  23.515  1.00  0.00     0.430 C 
ATOM     19  F   UNL A   1      32.033  20.703  23.034  1.00  0.00    -0.167 F 
ATOM     20  F   UNL A   1      32.170  22.481  24.273  1.00  0.00    -0.167 F 
ATOM     21  F   UNL A   1      33.419  22.290  22.507  1.00  0.00    -0.167 F 
ENDBRANCH  10  18
BRANCH  15  22
ATOM     22  S   UNL A   1      41.025  21.606  26.866  1.00  0.00     0.310 S 
ATOM     23  F   UNL A   1      40.378  20.180  26.613  1.00  0.00    -0.094 F 
ATOM     24  F   UNL A   1      40.460  21.528  28.334  1.00  0.00    -0.094 F 
ATOM     25  F   UNL A   1      42.326  20.872  27.298  1.00  0.00    -0.094 F 
ATOM     26  F   UNL A   1      41.514  21.569  25.364  1.00  0.00    -0.094 F 
ATOM     27  F   UNL A   1      39.662  22.252  26.391  1.00  0.00    -0.094 F 
ENDBRANCH  15  22
ENDBRANCH   6   8
ENDBRANCH   5   6
ENDBRANCH   4   5
ENDBRANCH   3   4
ENDBRANCH   2   3
ENDBRANCH   1   2
BRANCH   1  28
ATOM     28  C   UNL A   1      31.951  29.250  25.132  1.00  0.00     0.261 C 
BRANCH  28  29
ATOM     29  O   UNL A   1      33.218  29.779  25.492  1.00  0.00    -0.460 OA
BRANCH  29  30
ATOM     30  C   UNL A   1      33.327  30.687  26.580  1.00  0.00     0.338 C 
ATOM     31  O   UNL A   1      32.491  31.637  26.700  1.00  0.00    -0.246 OA
BRANCH  30  32
ATOM     32  C   UNL A   1      34.441  30.521  27.599  1.00  0.00     0.060 A 
ATOM     33  C   UNL A   1      35.184  31.646  27.920  1.00  0.00     0.016 A 
ATOM     34  C   UNL A   1      34.781  29.319  28.051  1.00  0.00     0.016 A 
ATOM     35  C   UNL A   1      36.445  31.355  28.492  1.00  0.00     0.010 A 
ATOM     36  C   UNL A   1      35.966  29.133  28.721  1.00  0.00     0.010 A 
ATOM     37  C   UNL A   1      36.779  30.192  29.020  1.00  0.00    -0.014 A 
BRANCH  37  38
ATOM     38  C   UNL A   1      37.999  30.036  29.912  1.00  0.00     0.031 A 
ATOM     39  C   UNL A   1      38.069  30.631  31.173  1.00  0.00     0.074 A 
ATOM     40  C   UNL A   1      38.963  29.182  29.405  1.00  0.00     0.049 A 
ATOM     41  N   UNL A   1      39.016  30.471  32.097  1.00  0.00    -0.248 NA
ATOM     42  C   UNL A   1      37.063  31.566  31.700  1.00  0.00     0.031 C 
ATOM     43  C   UNL A   1      38.896  28.571  28.139  1.00  0.00     0.029 A 
ATOM     44  N   UNL A   1      40.133  28.775  30.008  1.00  0.00    -0.354 N 
ATOM     45  C   UNL A   1      38.728  31.190  33.184  1.00  0.00     0.074 A 
ATOM     46  C   UNL A   1      37.470  31.909  32.942  1.00  0.00     0.031 C 
ATOM     47  C   UNL A   1      40.014  27.815  27.975  1.00  0.00     0.029 A 
ATOM     48  C   UNL A   1      40.799  27.941  29.136  1.00  0.00     0.049 A 
ATOM     49  H   UNL A   1      40.441  29.035  30.907  1.00  0.00     0.167 HD
ATOM     50  C   UNL A   1      39.463  31.273  34.367  1.00  0.00     0.034 A 
ATOM     51  C   UNL A   1      42.022  27.318  29.326  1.00  0.00     0.034 A 
ATOM     52  C   UNL A   1      40.666  30.614  34.573  1.00  0.00     0.049 A 
ATOM     53  C   UNL A   1      42.786  27.447  30.487  1.00  0.00     0.074 A 
ATOM     54  C   UNL A   1      41.416  30.681  35.763  1.00  0.00     0.029 A 
ATOM     55  N   UNL A   1      41.343  29.800  33.692  1.00  0.00    -0.354 N 
ATOM     56  N   UNL A   1      42.479  28.135  31.588  1.00  0.00    -0.248 NA
ATOM     57  C   UNL A   1      44.098  26.818  30.686  1.00  0.00     0.031 C 
ATOM     58  C   UNL A   1      42.534  29.926  35.599  1.00  0.00     0.029 A 
ATOM     59  C   UNL A   1      42.501  29.376  34.304  1.00  0.00     0.049 A 
ATOM     60  H   UNL A   1      41.050  29.564  32.783  1.00  0.00     0.167 HD
ATOM     61  C   UNL A   1      43.447  28.006  32.496  1.00  0.00     0.074 A 
ATOM     62  C   UNL A   1      44.506  27.163  31.926  1.00  0.00     0.031 C 
ATOM     63  C   UNL A   1      43.489  28.555  33.779  1.00  0.00     0.034 A 
BRANCH  50  64
ATOM     64  C   UNL A   1      38.914  32.132  35.494  1.00  0.00     0.023 A 
ATOM     65  C   UNL A   1      39.077  33.501  35.367  1.00  0.00     0.012 A 
ATOM     66  C   UNL A   1      38.228  31.611  36.505  1.00  0.00     0.148 A 
ATOM     67  C   UNL A   1      38.721  34.232  36.526  1.00  0.00     0.002 A 
ATOM     68  C   UNL A   1      37.791  32.406  37.537  1.00  0.00     0.091 A 
ATOM     69  F   UNL A   1      37.960  30.308  36.518  1.00  0.00    -0.205 F 
ATOM     70  C   UNL A   1      37.972  33.761  37.507  1.00  0.00     0.022 A 
BRANCH  68  71
ATOM     71  S   UNL A   1      36.966  31.649  38.959  1.00  0.00     0.127 S 
ATOM     72  O   UNL A   1      37.880  31.734  40.184  1.00  0.00    -0.237 OA
ATOM     73  O   UNL A   1      35.659  32.391  39.246  1.00  0.00    -0.237 OA
ATOM     74  O   UNL A   1      36.627  30.008  38.614  1.00  0.00    -0.744 OA
ENDBRANCH  68  71
ENDBRANCH  50  64
BRANCH  51  75
ATOM     75  C   UNL A   1      42.562  26.445  28.204  1.00  0.00     0.023 A 
ATOM     76  C   UNL A   1      42.183  25.118  28.092  1.00  0.00     0.012 A 
ATOM     77  C   UNL A   1      43.480  26.969  27.402  1.00  0.00     0.148 A 
ATOM     78  C   UNL A   1      43.047  24.341  27.284  1.00  0.00     0.002 A 
ATOM     79  C   UNL A   1      44.192  26.172  26.539  1.00  0.00     0.091 A 
ATOM     80  F   UNL A   1      43.713  28.279  27.434  1.00  0.00    -0.205 F 
ATOM     81  C   UNL A   1      43.912  24.839  26.418  1.00  0.00     0.022 A 
BRANCH  79  82
ATOM     82  S   UNL A   1      45.521  26.896  25.545  1.00  0.00     0.127 S 
ATOM     83  O   UNL A   1      44.940  27.969  24.621  1.00  0.00    -0.237 OA
ATOM     84  O   UNL A   1      46.563  27.529  26.470  1.00  0.00    -0.237 OA
ATOM     85  O   UNL A   1      46.260  25.674  24.605  1.00  0.00    -0.744 OA
ENDBRANCH  79  82
ENDBRANCH  51  75
BRANCH  63  86
ATOM     86  C   UNL A   1      44.689  28.234  34.655  1.00  0.00     0.023 A 
ATOM     87  C   UNL A   1      45.803  29.042  34.501  1.00  0.00     0.012 A 
ATOM     88  C   UNL A   1      44.715  27.170  35.450  1.00  0.00     0.148 A 
ATOM     89  C   UNL A   1      46.997  28.478  35.008  1.00  0.00     0.002 A 
ATOM     90  C   UNL A   1      45.891  26.753  36.022  1.00  0.00     0.091 A 
ATOM     91  F   UNL A   1      43.590  26.503  35.694  1.00  0.00    -0.205 F 
ATOM     92  C   UNL A   1      47.045  27.472  35.863  1.00  0.00     0.022 A 
BRANCH  90  93
ATOM     93  S   UNL A   1      45.918  25.232  37.002  1.00  0.00     0.127 S 
ATOM     94  O   UNL A   1      45.492  24.052  36.124  1.00  0.00    -0.237 OA
ATOM     95  O   UNL A   1      47.333  24.989  37.530  1.00  0.00    -0.237 OA
ATOM     96  O   UNL A   1      44.836  25.383  38.318  1.00  0.00    -0.744 OA
ENDBRANCH  90  93
ENDBRANCH  63  86
ENDBRANCH  37  38
ENDBRANCH  30  32
ENDBRANCH  29  30
ENDBRANCH  28  29
ENDBRANCH   1  28
TORSDOF 19
ENDMDL
MODEL 2
REMARK VINA RESULT:     -11.6      2.341      8.172
REMARK SMILES O=C(OCCOCCOC(=O)c1ccc(-c2c3nc(c(-c4cccc(S(=O)(=O)[O-])c4F)c4ccc([nH]4)c(-c4cccc(S(=O)(=O)[O-])c4F)c4nc(c(-c5cccc(S(=O)(=O)[O-])c5F)c5ccc2[nH]5)C=C4)C=C3)cc1)C1=Cc2cc(S(F)(F)(F)(F)F)ccc2O[C@H]1C(F)(F)F
REMARK SMILES IDX 7 1 6 2 5 3 4 4 3 5 2 6 1 7 75 8 76 9 90 10 77 11 89 12
REMARK SMILES IDX 78 13 88 14 79 15 87 16 86 17 91 18 92 19 93 20 94 21 80 22
REMARK SMILES IDX 81 23 82 24 83 25 84 26 85 27 8 28 9 29 10 30 11 31 12 32
REMARK SMILES IDX 13 33 74 34 14 35 73 36 15 37 16 38 17 39 67 40 18 41 72 42
REMARK SMILES IDX 66 43 68 44 19 45 71 46 65 47 64 48 20 50 52 51 32 52 51 53
REMARK SMILES IDX 33 54 36 55 50 56 69 57 34 58 35 59 49 61 70 62 37 63 21 64
REMARK SMILES IDX 22 65 30 66 23 67 25 68 31 69 24 70 26 71 27 72 28 73 29 74
REMARK SMILES IDX 53 75 54 76 62 77 55 78 57 79 63 80 56 81 58 82 59 83 60 84
REMARK SMILES IDX 61 85 38 86 39 87 47 88 40 89 42 90 48 91 41 92 43 93 44 94
REMARK SMILES IDX 45 95 46 96
REMARK H PARENT 68 49 36 60
REMARK Flexibility Score: inf
ROOT
ATOM      1  C   UNL A   1      31.377  32.047  26.811  1.00  0.00     0.202 C 
ENDROOT
BRANCH   1   2
ATOM      2  O   UNL A   1      31.814  30.879  26.132  1.00  0.00    -0.374 OA
BRANCH   2   3
ATOM      3  C   UNL A   1      32.524  30.044  27.036  1.00  0.00     0.202 C 
BRANCH   3   4
ATOM      4  C   UNL A   1      31.939  28.642  26.996  1.00  0.00     0.261 C 
BRANCH   4   5
ATOM      5  O   UNL A   1      32.403  27.968  25.835  1.00  0.00    -0.460 OA
BRANCH   5   6
ATOM      6  C   UNL A   1      31.521  27.134  25.098  1.00  0.00     0.338 C 
ATOM      7  O   UNL A   1      30.419  26.766  25.610  1.00  0.00    -0.246 OA
BRANCH   6   8
ATOM      8  C   UNL A   1      31.897  26.683  23.696  1.00  0.00     0.087 C 
ATOM      9  C   UNL A   1      32.770  25.655  23.523  1.00  0.00     0.027 C 
ATOM     10  C   UNL A   1      31.295  27.382  22.487  1.00  0.00     0.316 C 
ATOM     11  C   UNL A   1      33.371  24.957  24.731  1.00  0.00     0.019 A 
ATOM     12  O   UNL A   1      31.313  25.106  25.910  1.00  0.00    -0.475 OA
ATOM     13  C   UNL A   1      34.711  24.613  24.647  1.00  0.00     0.036 A 
ATOM     14  C   UNL A   1      32.633  24.602  25.777  1.00  0.00     0.128 A 
ATOM     15  C   UNL A   1      35.113  23.637  25.590  1.00  0.00     0.107 A 
ATOM     16  C   UNL A   1      33.137  23.752  26.732  1.00  0.00     0.048 A 
ATOM     17  C   UNL A   1      34.435  23.325  26.679  1.00  0.00     0.028 A 
BRANCH  10  18
ATOM     18  C   UNL A   1      30.360  28.485  22.953  1.00  0.00     0.430 C 
ATOM     19  F   UNL A   1      29.354  27.891  23.588  1.00  0.00    -0.167 F 
ATOM     20  F   UNL A   1      31.033  29.251  23.807  1.00  0.00    -0.167 F 
ATOM     21  F   UNL A   1      29.880  29.238  21.967  1.00  0.00    -0.167 F 
ENDBRANCH  10  18
BRANCH  15  22
ATOM     22  S   UNL A   1      36.663  22.755  25.279  1.00  0.00     0.310 S 
ATOM     23  F   UNL A   1      37.024  23.704  24.061  1.00  0.00    -0.094 F 
ATOM     24  F   UNL A   1      35.898  21.839  24.252  1.00  0.00    -0.094 F 
ATOM     25  F   UNL A   1      37.993  22.000  25.007  1.00  0.00    -0.094 F 
ATOM     26  F   UNL A   1      37.440  23.772  26.207  1.00  0.00    -0.094 F 
ATOM     27  F   UNL A   1      35.343  23.603  25.482  1.00  0.00    -0.094 F 
ENDBRANCH  15  22
ENDBRANCH   6   8
ENDBRANCH   5   6
ENDBRANCH   4   5
ENDBRANCH   3   4
ENDBRANCH   2   3
ENDBRANCH   1   2
BRANCH   1  28
ATOM     28  C   UNL A   1      32.584  32.815  27.326  1.00  0.00     0.261 C 
BRANCH  28  29
ATOM     29  O   UNL A   1      32.211  34.160  27.590  1.00  0.00    -0.460 OA
BRANCH  29  30
ATOM     30  C   UNL A   1      32.907  34.908  28.578  1.00  0.00     0.338 C 
ATOM     31  O   UNL A   1      32.571  36.110  28.817  1.00  0.00    -0.246 OA
BRANCH  30  32
ATOM     32  C   UNL A   1      34.051  34.271  29.347  1.00  0.00     0.060 A 
ATOM     33  C   UNL A   1      35.316  34.344  28.786  1.00  0.00     0.016 A 
ATOM     34  C   UNL A   1      33.823  33.547  30.437  1.00  0.00     0.016 A 
ATOM     35  C   UNL A   1      36.221  33.378  29.285  1.00  0.00     0.010 A 
ATOM     36  C   UNL A   1      34.799  32.727  30.950  1.00  0.00     0.010 A 
ATOM     37  C   UNL A   1      36.055  32.705  30.409  1.00  0.00    -0.014 A 
BRANCH  37  38
ATOM     38  C   UNL A   1      37.195  31.945  31.065  1.00  0.00     0.031 A 
ATOM     39  C   UNL A   1      37.838  30.885  30.424  1.00  0.00     0.074 A 
ATOM     40  C   UNL A   1      37.590  32.465  32.286  1.00  0.00     0.049 A 
ATOM     41  N   UNL A   1      38.923  30.225  30.830  1.00  0.00    -0.248 NA
ATOM     42  C   UNL A   1      37.400  30.308  29.144  1.00  0.00     0.031 C 
ATOM     43  C   UNL A   1      36.953  33.540  32.935  1.00  0.00     0.029 A 
ATOM     44  N   UNL A   1      38.639  32.055  33.079  1.00  0.00    -0.354 N 
ATOM     45  C   UNL A   1      39.253  29.286  29.941  1.00  0.00     0.074 A 
ATOM     46  C   UNL A   1      38.274  29.322  28.846  1.00  0.00     0.031 C 
ATOM     47  C   UNL A   1      37.601  33.768  34.108  1.00  0.00     0.029 A 
ATOM     48  C   UNL A   1      38.653  32.839  34.212  1.00  0.00     0.049 A 
ATOM     49  H   UNL A   1      39.269  31.327  32.873  1.00  0.00     0.167 HD
ATOM     50  C   UNL A   1      40.332  28.403  30.000  1.00  0.00     0.034 A 
ATOM     51  C   UNL A   1      39.526  32.763  35.285  1.00  0.00     0.034 A 
ATOM     52  C   UNL A   1      41.231  28.355  31.053  1.00  0.00     0.049 A 
ATOM     53  C   UNL A   1      40.571  31.840  35.371  1.00  0.00     0.074 A 
ATOM     54  C   UNL A   1      42.328  27.476  31.124  1.00  0.00     0.029 A 
ATOM     55  N   UNL A   1      41.231  29.123  32.197  1.00  0.00    -0.354 N 
ATOM     56  N   UNL A   1      40.924  30.928  34.464  1.00  0.00    -0.248 NA
ATOM     57  C   UNL A   1      41.482  31.729  36.518  1.00  0.00     0.031 C 
ATOM     58  C   UNL A   1      42.976  27.704  32.297  1.00  0.00     0.029 A 
ATOM     59  C   UNL A   1      42.292  28.728  32.980  1.00  0.00     0.049 A 
ATOM     60  H   UNL A   1      40.583  29.832  32.417  1.00  0.00     0.167 HD
ATOM     61  C   UNL A   1      41.985  30.241  34.891  1.00  0.00     0.074 A 
ATOM     62  C   UNL A   1      42.355  30.741  36.222  1.00  0.00     0.031 C 
ATOM     63  C   UNL A   1      42.662  29.219  34.223  1.00  0.00     0.034 A 
BRANCH  50  64
ATOM     64  C   UNL A   1      40.533  27.438  28.841  1.00  0.00     0.023 A 
ATOM     65  C   UNL A   1      39.734  26.307  28.830  1.00  0.00     0.012 A 
ATOM     66  C   UNL A   1      41.361  27.707  27.840  1.00  0.00     0.148 A 
ATOM     67  C   UNL A   1      40.095  25.360  27.842  1.00  0.00     0.002 A 
ATOM     68  C   UNL A   1      41.563  26.791  26.835  1.00  0.00     0.091 A 
ATOM     69  F   UNL A   1      42.001  28.873  27.807  1.00  0.00    -0.205 F 
ATOM     70  C   UNL A   1      40.852  25.625  26.793  1.00  0.00     0.022 A 
BRANCH  68  71
ATOM     71  S   UNL A   1      42.790  27.135  25.549  1.00  0.00     0.127 S 
ATOM     72  O   UNL A   1      42.274  28.249  24.635  1.00  0.00    -0.237 OA
ATOM     73  O   UNL A   1      44.102  27.578  26.201  1.00  0.00    -0.237 OA
ATOM     74  O   UNL A   1      43.061  25.721  24.626  1.00  0.00    -0.744 OA
ENDBRANCH  68  71
ENDBRANCH  50  64
BRANCH  51  75
ATOM     75  C   UNL A   1      39.335  33.739  36.435  1.00  0.00     0.023 A 
ATOM     76  C   UNL A   1      39.879  35.011  36.385  1.00  0.00     0.012 A 
ATOM     77  C   UNL A   1      38.716  33.297  37.524  1.00  0.00     0.148 A 
ATOM     78  C   UNL A   1      39.974  35.645  37.647  1.00  0.00     0.002 A 
ATOM     79  C   UNL A   1      38.733  34.031  38.685  1.00  0.00     0.091 A 
ATOM     80  F   UNL A   1      38.075  32.132  37.490  1.00  0.00    -0.205 F 
ATOM     81  C   UNL A   1      39.305  35.272  38.724  1.00  0.00     0.022 A 
BRANCH  79  82
ATOM     82  S   UNL A   1      37.986  33.346  40.185  1.00  0.00     0.127 S 
ATOM     83  O   UNL A   1      38.030  34.394  41.300  1.00  0.00    -0.237 OA
ATOM     84  O   UNL A   1      36.532  32.964  39.901  1.00  0.00    -0.237 OA
ATOM     85  O   UNL A   1      38.857  31.957  40.672  1.00  0.00    -0.744 OA
ENDBRANCH  79  82
ENDBRANCH  51  75
BRANCH  63  86
ATOM     86  C   UNL A   1      43.879  28.608  34.899  1.00  0.00     0.023 A 
ATOM     87  C   UNL A   1      45.098  29.212  34.642  1.00  0.00     0.012 A 
ATOM     88  C   UNL A   1      43.800  27.491  35.613  1.00  0.00     0.148 A 
ATOM     89  C   UNL A   1      46.216  28.397  34.939  1.00  0.00     0.002 A 
ATOM     90  C   UNL A   1      44.938  26.819  35.986  1.00  0.00     0.091 A 
ATOM     91  F   UNL A   1      42.609  27.020  35.970  1.00  0.00    -0.205 F 
ATOM     92  C   UNL A   1      46.178  27.328  35.713  1.00  0.00     0.022 A 
BRANCH  90  93
ATOM     93  S   UNL A   1      44.795  25.236  36.852  1.00  0.00     0.127 S 
ATOM     94  O   UNL A   1      44.382  24.146  35.860  1.00  0.00    -0.237 OA
ATOM     95  O   UNL A   1      46.144  24.872  37.476  1.00  0.00    -0.237 OA
ATOM     96  O   UNL A   1      43.614  25.364  38.082  1.00  0.00    -0.744 OA
ENDBRANCH  90  93
ENDBRANCH  63  86
ENDBRANCH  37  38
ENDBRANCH  30  32
ENDBRANCH  29  30
ENDBRANCH  28  29
ENDBRANCH   1  28
TORSDOF 19
ENDMDL
MODEL 3
REMARK VINA RESULT:     -11.6      2.754      7.781
REMARK SMILES O=C(OCCOCCOC(=O)c1ccc(-c2c3nc(c(-c4cccc(S(=O)(=O)[O-])c4F)c4ccc([nH]4)c(-c4cccc(S(=O)(=O)[O-])c4F)c4nc(c(-c5cccc(S(=O)(=O)[O-])c5F)c5ccc2[nH]5)C=C4)C=C3)cc1)C1=Cc2cc(S(F)(F)(F)(F)F)ccc2O[C@H]1C(F)(F)F
REMARK SMILES IDX 7 1 6 2 5 3 4 4 3 5 2 6 1 7 75 8 76 9 90 10 77 11 89 12
REMARK SMILES IDX 78 13 88 14 79 15 87 16 86 17 91 18 92 19 93 20 94 21 80 22
REMARK SMILES IDX 81 23 82 24 83 25 84 26 85 27 8 28 9 29 10 30 11 31 12 32
REMARK SMILES IDX 13 33 74 34 14 35 73 36 15 37 16 38 17 39 67 40 18 41 72 42
REMARK SMILES IDX 66 43 68 44 19 45 71 46 65 47 64 48 20 50 52 51 32 52 51 53
REMARK SMILES IDX 33 54 36 55 50 56 69 57 34 58 35 59 49 61 70 62 37 63 21 64
REMARK SMILES IDX 22 65 30 66 23 67 25 68 31 69 24 70 26 71 27 72 28 73 29 74
REMARK SMILES IDX 53 75 54 76 62 77 55 78 57 79 63 80 56 81 58 82 59 83 60 84
REMARK SMILES IDX 61 85 38 86 39 87 47 88 40 89 42 90 48 91 41 92 43 93 44 94
REMARK SMILES IDX 45 95 46 96
REMARK H PARENT 68 49 36 60
REMARK Flexibility Score: inf
ROOT
ATOM      1  C   UNL A   1      32.842  31.094  27.115  1.00  0.00     0.202 C 
ENDROOT
BRANCH   1   2
ATOM      2  O   UNL A   1      32.009  29.951  26.987  1.00  0.00    -0.374 OA
BRANCH   2   3
ATOM      3  C   UNL A   1      32.744  28.895  26.384  1.00  0.00     0.202 C 
BRANCH   3   4
ATOM      4  C   UNL A   1      32.422  27.588  27.088  1.00  0.00     0.261 C 
BRANCH   4   5
ATOM      5  O   UNL A   1      32.448  26.524  26.148  1.00  0.00    -0.460 OA
BRANCH   5   6
ATOM      6  C   UNL A   1      31.260  25.798  25.865  1.00  0.00     0.338 C 
ATOM      7  O   UNL A   1      30.313  25.776  26.711  1.00  0.00    -0.246 OA
BRANCH   6   8
ATOM      8  C   UNL A   1      31.124  25.047  24.550  1.00  0.00     0.087 C 
ATOM      9  C   UNL A   1      31.822  23.898  24.347  1.00  0.00     0.027 C 
ATOM     10  C   UNL A   1      30.207  25.583  23.463  1.00  0.00     0.316 C 
ATOM     11  C   UNL A   1      32.739  23.363  25.435  1.00  0.00     0.019 A 
ATOM     12  O   UNL A   1      31.196  24.002  27.126  1.00  0.00    -0.475 OA
ATOM     13  C   UNL A   1      33.950  22.834  25.020  1.00  0.00     0.036 A 
ATOM     14  C   UNL A   1      32.363  23.311  26.707  1.00  0.00     0.128 A 
ATOM     15  C   UNL A   1      34.574  22.005  25.984  1.00  0.00     0.107 A 
ATOM     16  C   UNL A   1      33.095  22.594  27.623  1.00  0.00     0.048 A 
ATOM     17  C   UNL A   1      34.272  21.995  27.269  1.00  0.00     0.028 A 
BRANCH  10  18
ATOM     18  C   UNL A   1      29.551  26.868  23.939  1.00  0.00     0.430 C 
ATOM     19  F   UNL A   1      29.041  27.459  22.862  1.00  0.00    -0.167 F 
ATOM     20  F   UNL A   1      28.567  26.535  24.770  1.00  0.00    -0.167 F 
ATOM     21  F   UNL A   1      30.384  27.704  24.552  1.00  0.00    -0.167 F 
ENDBRANCH  10  18
BRANCH  15  22
ATOM     22  S   UNL A   1      35.874  20.883  25.413  1.00  0.00     0.310 S 
ATOM     23  F   UNL A   1      35.949  21.598  23.999  1.00  0.00    -0.094 F 
ATOM     24  F   UNL A   1      34.758  19.951  24.808  1.00  0.00    -0.094 F 
ATOM     25  F   UNL A   1      36.988  19.920  24.918  1.00  0.00    -0.094 F 
ATOM     26  F   UNL A   1      36.981  21.898  25.904  1.00  0.00    -0.094 F 
ATOM     27  F   UNL A   1      34.758  21.926  25.824  1.00  0.00    -0.094 F 
ENDBRANCH  15  22
ENDBRANCH   6   8
ENDBRANCH   5   6
ENDBRANCH   4   5
ENDBRANCH   3   4
ENDBRANCH   2   3
ENDBRANCH   1   2
BRANCH   1  28
ATOM     28  C   UNL A   1      31.987  32.350  27.086  1.00  0.00     0.261 C 
BRANCH  28  29
ATOM     29  O   UNL A   1      32.827  33.495  27.096  1.00  0.00    -0.460 OA
BRANCH  29  30
ATOM     30  C   UNL A   1      33.276  34.035  28.331  1.00  0.00     0.338 C 
ATOM     31  O   UNL A   1      32.685  35.040  28.838  1.00  0.00    -0.246 OA
BRANCH  30  32
ATOM     32  C   UNL A   1      34.462  33.410  29.046  1.00  0.00     0.060 A 
ATOM     33  C   UNL A   1      35.705  33.532  28.446  1.00  0.00     0.016 A 
ATOM     34  C   UNL A   1      34.289  32.653  30.124  1.00  0.00     0.016 A 
ATOM     35  C   UNL A   1      36.652  32.580  28.891  1.00  0.00     0.010 A 
ATOM     36  C   UNL A   1      35.303  31.848  30.584  1.00  0.00     0.010 A 
ATOM     37  C   UNL A   1      36.540  31.874  30.001  1.00  0.00    -0.014 A 
BRANCH  37  38
ATOM     38  C   UNL A   1      37.722  31.129  30.600  1.00  0.00     0.031 A 
ATOM     39  C   UNL A   1      38.458  30.201  29.861  1.00  0.00     0.074 A 
ATOM     40  C   UNL A   1      38.050  31.532  31.883  1.00  0.00     0.049 A 
ATOM     41  N   UNL A   1      39.581  29.580  30.222  1.00  0.00    -0.248 NA
ATOM     42  C   UNL A   1      38.092  29.746  28.512  1.00  0.00     0.031 C 
ATOM     43  C   UNL A   1      37.319  32.474  32.631  1.00  0.00     0.029 A 
ATOM     44  N   UNL A   1      39.111  31.111  32.655  1.00  0.00    -0.354 N 
ATOM     45  C   UNL A   1      40.001  28.778  29.242  1.00  0.00     0.074 A 
ATOM     46  C   UNL A   1      39.045  28.868  28.130  1.00  0.00     0.031 C 
ATOM     47  C   UNL A   1      37.922  32.612  33.842  1.00  0.00     0.029 A 
ATOM     48  C   UNL A   1      39.041  31.758  33.870  1.00  0.00     0.049 A 
ATOM     49  H   UNL A   1      39.799  30.460  32.387  1.00  0.00     0.167 HD
ATOM     50  C   UNL A   1      41.143  27.976  29.231  1.00  0.00     0.034 A 
ATOM     51  C   UNL A   1      39.895  31.622  34.953  1.00  0.00     0.034 A 
ATOM     52  C   UNL A   1      42.021  27.873  30.299  1.00  0.00     0.049 A 
ATOM     53  C   UNL A   1      41.005  30.776  34.964  1.00  0.00     0.074 A 
ATOM     54  C   UNL A   1      43.181  27.075  30.301  1.00  0.00     0.029 A 
ATOM     55  N   UNL A   1      41.938  28.501  31.522  1.00  0.00    -0.354 N 
ATOM     56  N   UNL A   1      41.446  30.003  33.970  1.00  0.00    -0.248 NA
ATOM     57  C   UNL A   1      41.897  30.600  36.117  1.00  0.00     0.031 C 
ATOM     58  C   UNL A   1      43.784  27.213  31.512  1.00  0.00     0.029 A 
ATOM     59  C   UNL A   1      43.010  28.098  32.286  1.00  0.00     0.049 A 
ATOM     60  H   UNL A   1      41.233  29.130  31.802  1.00  0.00     0.167 HD
ATOM     61  C   UNL A   1      42.547  29.352  34.347  1.00  0.00     0.074 A 
ATOM     62  C   UNL A   1      42.850  29.721  35.737  1.00  0.00     0.031 C 
ATOM     63  C   UNL A   1      43.315  28.467  33.588  1.00  0.00     0.034 A 
BRANCH  50  64
ATOM     64  C   UNL A   1      41.441  27.169  27.977  1.00  0.00     0.023 A 
ATOM     65  C   UNL A   1      41.967  27.865  26.902  1.00  0.00     0.012 A 
ATOM     66  C   UNL A   1      41.297  25.850  27.940  1.00  0.00     0.148 A 
ATOM     67  C   UNL A   1      42.045  27.107  25.710  1.00  0.00     0.002 A 
ATOM     68  C   UNL A   1      41.521  25.155  26.775  1.00  0.00     0.091 A 
ATOM     69  F   UNL A   1      40.932  25.195  29.038  1.00  0.00    -0.205 F 
ATOM     70  C   UNL A   1      41.985  25.789  25.656  1.00  0.00     0.022 A 
BRANCH  68  71
ATOM     71  S   UNL A   1      41.197  23.375  26.723  1.00  0.00     0.127 S 
ATOM     72  O   UNL A   1      39.689  23.134  26.627  1.00  0.00    -0.237 OA
ATOM     73  O   UNL A   1      41.889  22.766  25.501  1.00  0.00    -0.237 OA
ATOM     74  O   UNL A   1      41.802  22.643  28.145  1.00  0.00    -0.744 OA
ENDBRANCH  68  71
ENDBRANCH  50  64
BRANCH  51  75
ATOM     75  C   UNL A   1      39.604  32.442  36.201  1.00  0.00     0.023 A 
ATOM     76  C   UNL A   1      38.782  31.948  37.199  1.00  0.00     0.012 A 
ATOM     77  C   UNL A   1      40.083  33.679  36.252  1.00  0.00     0.148 A 
ATOM     78  C   UNL A   1      38.283  32.941  38.076  1.00  0.00     0.002 A 
ATOM     79  C   UNL A   1      39.653  34.556  37.218  1.00  0.00     0.091 A 
ATOM     80  F   UNL A   1      40.987  34.073  35.359  1.00  0.00    -0.205 F 
ATOM     81  C   UNL A   1      38.794  34.152  38.203  1.00  0.00     0.022 A 
BRANCH  79  82
ATOM     82  S   UNL A   1      40.232  36.271  37.188  1.00  0.00     0.127 S 
ATOM     83  O   UNL A   1      39.910  36.894  35.828  1.00  0.00    -0.237 OA
ATOM     84  O   UNL A   1      39.531  37.065  38.292  1.00  0.00    -0.237 OA
ATOM     85  O   UNL A   1      41.923  36.306  37.445  1.00  0.00    -0.744 OA
ENDBRANCH  79  82
ENDBRANCH  51  75
BRANCH  63  86
ATOM     86  C   UNL A   1      44.560  27.874  34.225  1.00  0.00     0.023 A 
ATOM     87  C   UNL A   1      45.750  28.547  34.003  1.00  0.00     0.012 A 
ATOM     88  C   UNL A   1      44.535  26.714  34.872  1.00  0.00     0.148 A 
ATOM     89  C   UNL A   1      46.905  27.767  34.250  1.00  0.00     0.002 A 
ATOM     90  C   UNL A   1      45.703  26.073  35.204  1.00  0.00     0.091 A 
ATOM     91  F   UNL A   1      43.367  26.169  35.202  1.00  0.00    -0.205 F 
ATOM     92  C   UNL A   1      46.918  26.653  34.960  1.00  0.00     0.022 A 
BRANCH  90  93
ATOM     93  S   UNL A   1      45.636  24.438  35.976  1.00  0.00     0.127 S 
ATOM     94  O   UNL A   1      44.932  24.542  37.331  1.00  0.00    -0.237 OA
ATOM     95  O   UNL A   1      44.861  23.477  35.071  1.00  0.00    -0.237 OA
ATOM     96  O   UNL A   1      47.226  23.850  36.204  1.00  0.00    -0.744 OA
ENDBRANCH  90  93
ENDBRANCH  63  86
ENDBRANCH  37  38
ENDBRANCH  30  32
ENDBRANCH  29  30
ENDBRANCH  28  29
ENDBRANCH   1  28
TORSDOF 19
ENDMDL
