MODEL 1
REMARK VINA RESULT:     -12.8      0.000      0.000
REMARK SMILES Cc1oc2cc3c(cc2c1C)[C@H](C)[C@@H](CC(=O)N[C@H](CC1=c2ccccc2=NC1)C(=O)OCCOCCOC(=O)c1ccc(-c2c4nc(c(-c5cccc(S(=O)(=O)[O-])c5F)c5ccc([nH]5)c(-c5cccc(S(=O)(=O)[O-])c5F)c5nc(c(-c6cccc(S(=O)(=O)[O-])c6F)c6ccc2[nH]6)C=C5)C=C4)cc1)C(=O)O3
REMARK SMILES IDX 35 1 34 2 33 3 32 4 30 5 31 6 19 7 18 8 16 9 17 10 15 12
REMARK SMILES IDX 14 13 1 14 2 15 3 16 10 17 4 18 9 19 11 20 5 21 8 22 6 23
REMARK SMILES IDX 7 24 106 25 12 26 104 27 13 28 105 29 20 30 21 31 22 32
REMARK SMILES IDX 29 33 23 34 27 35 28 36 24 37 26 38 25 39 36 40 37 41 38 42
REMARK SMILES IDX 39 43 40 44 41 45 42 46 103 47 43 48 102 49 44 50 45 51
REMARK SMILES IDX 46 52 96 53 47 54 101 55 95 56 97 57 48 58 100 59 94 60
REMARK SMILES IDX 93 61 49 63 81 64 61 65 80 66 62 67 65 68 79 69 98 70 63 71
REMARK SMILES IDX 64 72 78 74 99 75 66 76 50 77 51 78 59 79 52 80 54 81 60 82
REMARK SMILES IDX 53 83 55 84 56 85 57 86 58 87 82 88 83 89 91 90 84 91 86 92
REMARK SMILES IDX 92 93 85 94 87 95 88 96 89 97 90 98 67 99 68 100 76 101
REMARK SMILES IDX 69 102 71 103 77 104 70 105 72 106 73 107 74 108 75 109
REMARK H PARENT 18 11 97 62 65 73
REMARK Flexibility Score: inf
ROOT
ATOM      1  O   UNL A   1      34.029  29.356  26.513  1.00  0.00    -0.374 OA
ENDROOT
BRANCH   1   2
ATOM      2  C   UNL A   1      34.267  28.434  25.447  1.00  0.00     0.202 C 
BRANCH   2   3
ATOM      3  C   UNL A   1      33.285  28.511  24.268  1.00  0.00     0.261 C 
BRANCH   3   4
ATOM      4  O   UNL A   1      33.260  27.410  23.318  1.00  0.00    -0.462 OA
BRANCH   4   5
ATOM      5  C   UNL A   1      32.112  27.038  22.709  1.00  0.00     0.329 C 
ATOM      6  O   UNL A   1      32.045  26.498  21.609  1.00  0.00    -0.250 OA
BRANCH   5   7
ATOM      7  C   UNL A   1      30.831  27.283  23.542  1.00  0.00     0.196 C 
BRANCH   7   8
ATOM      8  N   UNL A   1      30.253  26.127  24.252  1.00  0.00    -0.342 N 
ATOM      9  C   UNL A   1      30.581  24.814  24.364  1.00  0.00     0.221 C 
ATOM     10  O   UNL A   1      30.152  24.199  25.346  1.00  0.00    -0.275 OA
ATOM     11  H   UNL A   1      29.445  26.361  24.763  1.00  0.00     0.164 HD
BRANCH   9  12
ATOM     12  C   UNL A   1      31.528  24.100  23.408  1.00  0.00     0.116 C 
BRANCH  12  13
ATOM     13  C   UNL A   1      32.742  23.499  24.117  1.00  0.00     0.116 C 
ATOM     14  C   UNL A   1      40.588  21.638  26.655  1.00  0.00     0.088 C 
ATOM     15  C   UNL A   1      39.264  22.184  26.299  1.00  0.00     0.105 A 
ATOM     16  O   UNL A   1      38.413  21.290  25.738  1.00  0.00    -0.461 OA
ATOM     17  C   UNL A   1      38.667  23.432  26.384  1.00  0.00    -0.002 A 
ATOM     18  C   UNL A   1      37.262  21.951  25.478  1.00  0.00     0.138 A 
ATOM     19  C   UNL A   1      37.323  23.264  25.920  1.00  0.00     0.024 A 
ATOM     20  C   UNL A   1      39.284  24.701  26.819  1.00  0.00     0.049 C 
ATOM     21  C   UNL A   1      36.199  21.409  24.795  1.00  0.00     0.095 A 
ATOM     22  C   UNL A   1      36.178  24.094  25.779  1.00  0.00     0.020 A 
ATOM     23  C   UNL A   1      35.161  22.303  24.551  1.00  0.00     0.138 A 
ATOM     24  C   UNL A   1      35.049  23.590  25.115  1.00  0.00    -0.001 A 
ATOM     25  O   UNL A   1      34.309  21.878  23.541  1.00  0.00    -0.426 OA
ATOM     26  C   UNL A   1      33.762  24.410  24.850  1.00  0.00     0.035 C 
ATOM     27  C   UNL A   1      33.646  22.966  23.062  1.00  0.00     0.315 C 
ATOM     28  C   UNL A   1      33.180  25.013  26.124  1.00  0.00     0.014 C 
ATOM     29  O   UNL A   1      33.840  23.465  21.960  1.00  0.00    -0.251 OA
ENDBRANCH  12  13
ENDBRANCH   9  12
ENDBRANCH   7   8
BRANCH   7  30
ATOM     30  C   UNL A   1      29.824  28.142  22.689  1.00  0.00     0.070 C 
BRANCH  30  31
ATOM     31  C   UNL A   1      28.979  29.229  23.348  1.00  0.00    -0.037 C 
ATOM     32  C   UNL A   1      29.157  30.495  22.947  1.00  0.00     0.001 A 
ATOM     33  C   UNL A   1      27.498  28.959  23.345  1.00  0.00     0.174 C 
ATOM     34  C   UNL A   1      28.955  31.694  23.743  1.00  0.00     0.010 A 
ATOM     35  C   UNL A   1      28.026  30.476  21.939  1.00  0.00     0.065 A 
ATOM     36  N   UNL A   1      27.050  29.643  22.120  1.00  0.00    -0.280 NA
ATOM     37  C   UNL A   1      28.501  32.750  23.051  1.00  0.00     0.001 A 
ATOM     38  C   UNL A   1      28.121  31.544  20.961  1.00  0.00     0.028 A 
ATOM     39  C   UNL A   1      28.443  32.674  21.592  1.00  0.00     0.002 A 
ENDBRANCH  30  31
ENDBRANCH   7  30
ENDBRANCH   5   7
ENDBRANCH   4   5
ENDBRANCH   3   4
ENDBRANCH   2   3
ENDBRANCH   1   2
BRANCH   1  40
ATOM     40  C   UNL A   1      34.958  29.265  27.591  1.00  0.00     0.202 C 
BRANCH  40  41
ATOM     41  C   UNL A   1      35.092  30.551  28.397  1.00  0.00     0.261 C 
BRANCH  41  42
ATOM     42  O   UNL A   1      36.453  30.704  28.851  1.00  0.00    -0.460 OA
BRANCH  42  43
ATOM     43  C   UNL A   1      36.925  29.690  29.630  1.00  0.00     0.338 C 
ATOM     44  O   UNL A   1      36.355  29.157  30.542  1.00  0.00    -0.246 OA
BRANCH  43  45
ATOM     45  C   UNL A   1      38.222  29.217  29.066  1.00  0.00     0.060 A 
ATOM     46  C   UNL A   1      38.651  29.518  27.770  1.00  0.00     0.016 A 
ATOM     47  C   UNL A   1      39.005  28.393  29.872  1.00  0.00     0.016 A 
ATOM     48  C   UNL A   1      39.845  28.951  27.268  1.00  0.00     0.010 A 
ATOM     49  C   UNL A   1      40.159  27.792  29.350  1.00  0.00     0.010 A 
ATOM     50  C   UNL A   1      40.577  28.010  28.016  1.00  0.00    -0.014 A 
BRANCH  50  51
ATOM     51  C   UNL A   1      41.778  27.301  27.402  1.00  0.00     0.031 A 
ATOM     52  C   UNL A   1      42.868  28.311  27.208  1.00  0.00     0.074 A 
ATOM     53  C   UNL A   1      42.280  26.085  27.772  1.00  0.00     0.049 A 
ATOM     54  N   UNL A   1      43.698  28.672  28.138  1.00  0.00    -0.248 NA
ATOM     55  C   UNL A   1      42.804  29.215  26.060  1.00  0.00     0.031 C 
ATOM     56  C   UNL A   1      42.460  25.626  29.148  1.00  0.00     0.029 A 
ATOM     57  N   UNL A   1      42.946  25.098  27.030  1.00  0.00    -0.354 N 
ATOM     58  C   UNL A   1      44.211  29.894  27.751  1.00  0.00     0.074 A 
ATOM     59  C   UNL A   1      43.648  30.180  26.447  1.00  0.00     0.031 C 
ATOM     60  C   UNL A   1      43.076  24.433  29.181  1.00  0.00     0.029 A 
ATOM     61  C   UNL A   1      43.534  24.100  27.836  1.00  0.00     0.049 A 
ATOM     62  H   UNL A   1      42.997  25.101  26.047  1.00  0.00     0.167 HD
ATOM     63  C   UNL A   1      45.041  30.639  28.524  1.00  0.00     0.034 A 
ATOM     64  C   UNL A   1      44.759  23.515  27.644  1.00  0.00     0.034 A 
ATOM     65  C   UNL A   1      45.359  30.114  29.818  1.00  0.00     0.049 A 
ATOM     66  C   UNL A   1      45.696  24.520  28.286  1.00  0.00     0.074 A 
ATOM     67  C   UNL A   1      45.001  30.353  31.127  1.00  0.00     0.029 A 
ATOM     68  N   UNL A   1      46.229  29.053  29.895  1.00  0.00    -0.354 N 
ATOM     69  N   UNL A   1      45.901  24.710  29.567  1.00  0.00    -0.248 NA
ATOM     70  C   UNL A   1      46.066  25.646  27.433  1.00  0.00     0.031 C 
ATOM     71  C   UNL A   1      45.319  29.155  31.843  1.00  0.00     0.029 A 
ATOM     72  C   UNL A   1      45.818  28.237  30.919  1.00  0.00     0.049 A 
ATOM     73  H   UNL A   1      47.011  28.904  29.316  1.00  0.00     0.167 HD
ATOM     74  C   UNL A   1      46.083  26.092  29.701  1.00  0.00     0.074 A 
ATOM     75  C   UNL A   1      46.202  26.596  28.345  1.00  0.00     0.031 C 
ATOM     76  C   UNL A   1      45.937  26.788  30.872  1.00  0.00     0.034 A 
BRANCH  63  77
ATOM     77  C   UNL A   1      45.771  31.786  27.956  1.00  0.00     0.023 A 
ATOM     78  C   UNL A   1      47.066  31.503  27.478  1.00  0.00     0.012 A 
ATOM     79  C   UNL A   1      45.287  33.102  27.935  1.00  0.00     0.148 A 
ATOM     80  C   UNL A   1      47.893  32.518  27.020  1.00  0.00     0.002 A 
ATOM     81  C   UNL A   1      46.120  34.115  27.470  1.00  0.00     0.091 A 
ATOM     82  F   UNL A   1      44.043  33.338  28.375  1.00  0.00    -0.205 F 
ATOM     83  C   UNL A   1      47.422  33.825  27.023  1.00  0.00     0.022 A 
BRANCH  81  84
ATOM     84  S   UNL A   1      45.631  35.841  27.407  1.00  0.00     0.127 S 
ATOM     85  O   UNL A   1      46.735  36.440  26.658  1.00  0.00    -0.237 OA
ATOM     86  O   UNL A   1      44.365  35.769  26.676  1.00  0.00    -0.237 OA
ATOM     87  O   UNL A   1      45.507  36.274  28.792  1.00  0.00    -0.744 OA
ENDBRANCH  81  84
ENDBRANCH  63  77
BRANCH  64  88
ATOM     88  C   UNL A   1      45.055  22.817  26.354  1.00  0.00     0.023 A 
ATOM     89  C   UNL A   1      45.957  23.453  25.471  1.00  0.00     0.012 A 
ATOM     90  C   UNL A   1      44.485  21.601  25.930  1.00  0.00     0.148 A 
ATOM     91  C   UNL A   1      46.363  22.852  24.276  1.00  0.00     0.002 A 
ATOM     92  C   UNL A   1      44.952  20.965  24.782  1.00  0.00     0.091 A 
ATOM     93  F   UNL A   1      43.482  21.067  26.636  1.00  0.00    -0.205 F 
ATOM     94  C   UNL A   1      45.890  21.588  23.950  1.00  0.00     0.022 A 
BRANCH  92  95
ATOM     95  S   UNL A   1      44.478  19.282  24.355  1.00  0.00     0.127 S 
ATOM     96  O   UNL A   1      45.385  18.487  25.180  1.00  0.00    -0.237 OA
ATOM     97  O   UNL A   1      43.080  19.265  24.781  1.00  0.00    -0.237 OA
ATOM     98  O   UNL A   1      44.688  19.163  22.918  1.00  0.00    -0.744 OA
ENDBRANCH  92  95
ENDBRANCH  64  88
BRANCH  76  99
ATOM     99  C   UNL A   1      45.740  25.997  32.141  1.00  0.00     0.023 A 
ATOM    100  C   UNL A   1      44.468  25.458  32.405  1.00  0.00     0.012 A 
ATOM    101  C   UNL A   1      46.811  25.653  32.999  1.00  0.00     0.148 A 
ATOM    102  C   UNL A   1      44.266  24.577  33.469  1.00  0.00     0.002 A 
ATOM    103  C   UNL A   1      46.619  24.727  34.023  1.00  0.00     0.091 A 
ATOM    104  F   UNL A   1      48.017  26.205  32.785  1.00  0.00    -0.205 F 
ATOM    105  C   UNL A   1      45.343  24.195  34.264  1.00  0.00     0.022 A 
BRANCH 103 106
ATOM    106  S   UNL A   1      47.977  24.067  35.009  1.00  0.00     0.127 S 
ATOM    107  O   UNL A   1      48.562  25.267  35.601  1.00  0.00    -0.237 OA
ATOM    108  O   UNL A   1      47.269  23.213  35.963  1.00  0.00    -0.237 OA
ATOM    109  O   UNL A   1      48.854  23.359  34.083  1.00  0.00    -0.744 OA
ENDBRANCH 103 106
ENDBRANCH  76  99
ENDBRANCH  50  51
ENDBRANCH  43  45
ENDBRANCH  42  43
ENDBRANCH  41  42
ENDBRANCH  40  41
ENDBRANCH   1  40
TORSDOF 22
ENDMDL
MODEL 2
REMARK VINA RESULT:     -12.3      1.845      2.102
REMARK SMILES Cc1oc2cc3c(cc2c1C)[C@H](C)[C@@H](CC(=O)N[C@H](CC1=c2ccccc2=NC1)C(=O)OCCOCCOC(=O)c1ccc(-c2c4nc(c(-c5cccc(S(=O)(=O)[O-])c5F)c5ccc([nH]5)c(-c5cccc(S(=O)(=O)[O-])c5F)c5nc(c(-c6cccc(S(=O)(=O)[O-])c6F)c6ccc2[nH]6)C=C5)C=C4)cc1)C(=O)O3
REMARK SMILES IDX 35 1 34 2 33 3 32 4 30 5 31 6 19 7 18 8 16 9 17 10 15 12
REMARK SMILES IDX 14 13 1 14 2 15 3 16 10 17 4 18 9 19 11 20 5 21 8 22 6 23
REMARK SMILES IDX 7 24 106 25 12 26 104 27 13 28 105 29 20 30 21 31 22 32
REMARK SMILES IDX 29 33 23 34 27 35 28 36 24 37 26 38 25 39 36 40 37 41 38 42
REMARK SMILES IDX 39 43 40 44 41 45 42 46 103 47 43 48 102 49 44 50 45 51
REMARK SMILES IDX 46 52 96 53 47 54 101 55 95 56 97 57 48 58 100 59 94 60
REMARK SMILES IDX 93 61 49 63 81 64 61 65 80 66 62 67 65 68 79 69 98 70 63 71
REMARK SMILES IDX 64 72 78 74 99 75 66 76 50 77 51 78 59 79 52 80 54 81 60 82
REMARK SMILES IDX 53 83 55 84 56 85 57 86 58 87 82 88 83 89 91 90 84 91 86 92
REMARK SMILES IDX 92 93 85 94 87 95 88 96 89 97 90 98 67 99 68 100 76 101
REMARK SMILES IDX 69 102 71 103 77 104 70 105 72 106 73 107 74 108 75 109
REMARK H PARENT 18 11 97 62 65 73
REMARK Flexibility Score: inf
ROOT
ATOM      1  O   UNL A   1      33.826  29.495  26.634  1.00  0.00    -0.374 OA
ENDROOT
BRANCH   1   2
ATOM      2  C   UNL A   1      34.158  28.609  25.564  1.00  0.00     0.202 C 
BRANCH   2   3
ATOM      3  C   UNL A   1      33.155  28.563  24.401  1.00  0.00     0.261 C 
BRANCH   3   4
ATOM      4  O   UNL A   1      33.212  27.435  23.485  1.00  0.00    -0.462 OA
BRANCH   4   5
ATOM      5  C   UNL A   1      32.113  27.024  22.814  1.00  0.00     0.329 C 
ATOM      6  O   UNL A   1      32.118  26.559  21.679  1.00  0.00    -0.250 OA
BRANCH   5   7
ATOM      7  C   UNL A   1      30.794  27.115  23.618  1.00  0.00     0.196 C 
BRANCH   7   8
ATOM      8  N   UNL A   1      30.308  25.881  24.264  1.00  0.00    -0.342 N 
ATOM      9  C   UNL A   1      30.760  24.603  24.346  1.00  0.00     0.221 C 
ATOM     10  O   UNL A   1      30.357  23.913  25.287  1.00  0.00    -0.275 OA
ATOM     11  H   UNL A   1      29.461  26.016  24.748  1.00  0.00     0.164 HD
BRANCH   9  12
ATOM     12  C   UNL A   1      31.810  24.023  23.407  1.00  0.00     0.116 C 
BRANCH  12  13
ATOM     13  C   UNL A   1      33.026  23.469  24.150  1.00  0.00     0.116 C 
ATOM     14  C   UNL A   1      40.872  21.849  26.848  1.00  0.00     0.088 C 
ATOM     15  C   UNL A   1      39.543  22.356  26.458  1.00  0.00     0.105 A 
ATOM     16  O   UNL A   1      38.718  21.428  25.913  1.00  0.00    -0.461 OA
ATOM     17  C   UNL A   1      38.919  23.593  26.496  1.00  0.00    -0.002 A 
ATOM     18  C   UNL A   1      37.557  22.057  25.618  1.00  0.00     0.138 A 
ATOM     19  C   UNL A   1      37.586  23.384  26.020  1.00  0.00     0.024 A 
ATOM     20  C   UNL A   1      39.505  24.888  26.901  1.00  0.00     0.049 C 
ATOM     21  C   UNL A   1      36.516  21.472  24.938  1.00  0.00     0.095 A 
ATOM     22  C   UNL A   1      36.426  24.185  25.839  1.00  0.00     0.020 A 
ATOM     23  C   UNL A   1      35.463  22.337  24.652  1.00  0.00     0.138 A 
ATOM     24  C   UNL A   1      35.317  23.639  25.176  1.00  0.00    -0.001 A 
ATOM     25  O   UNL A   1      34.634  21.865  23.645  1.00  0.00    -0.426 OA
ATOM     26  C   UNL A   1      34.017  24.423  24.868  1.00  0.00     0.035 C 
ATOM     27  C   UNL A   1      33.956  22.923  23.124  1.00  0.00     0.315 C 
ATOM     28  C   UNL A   1      33.405  25.052  26.116  1.00  0.00     0.014 C 
ATOM     29  O   UNL A   1      34.155  23.393  22.010  1.00  0.00    -0.251 OA
ENDBRANCH  12  13
ENDBRANCH   9  12
ENDBRANCH   7   8
BRANCH   7  30
ATOM     30  C   UNL A   1      29.734  27.913  22.771  1.00  0.00     0.070 C 
BRANCH  30  31
ATOM     31  C   UNL A   1      28.902  29.021  23.412  1.00  0.00    -0.037 C 
ATOM     32  C   UNL A   1      29.131  30.283  23.028  1.00  0.00     0.001 A 
ATOM     33  C   UNL A   1      27.414  28.795  23.360  1.00  0.00     0.174 C 
ATOM     34  C   UNL A   1      28.939  31.482  23.828  1.00  0.00     0.010 A 
ATOM     35  C   UNL A   1      28.032  30.307  21.985  1.00  0.00     0.065 A 
ATOM     36  N   UNL A   1      27.026  29.503  22.128  1.00  0.00    -0.280 NA
ATOM     37  C   UNL A   1      28.540  32.557  23.132  1.00  0.00     0.001 A 
ATOM     38  C   UNL A   1      28.191  31.379  21.020  1.00  0.00     0.028 A 
ATOM     39  C   UNL A   1      28.526  32.494  21.671  1.00  0.00     0.002 A 
ENDBRANCH  30  31
ENDBRANCH   7  30
ENDBRANCH   5   7
ENDBRANCH   4   5
ENDBRANCH   3   4
ENDBRANCH   2   3
ENDBRANCH   1   2
BRANCH   1  40
ATOM     40  C   UNL A   1      34.790  29.542  27.684  1.00  0.00     0.202 C 
BRANCH  40  41
ATOM     41  C   UNL A   1      35.060  30.946  28.211  1.00  0.00     0.261 C 
BRANCH  41  42
ATOM     42  O   UNL A   1      36.481  31.147  28.361  1.00  0.00    -0.460 OA
BRANCH  42  43
ATOM     43  C   UNL A   1      37.081  30.373  29.310  1.00  0.00     0.338 C 
ATOM     44  O   UNL A   1      36.614  30.030  30.361  1.00  0.00    -0.246 OA
BRANCH  43  45
ATOM     45  C   UNL A   1      38.373  29.866  28.766  1.00  0.00     0.060 A 
ATOM     46  C   UNL A   1      38.573  29.563  27.416  1.00  0.00     0.016 A 
ATOM     47  C   UNL A   1      39.404  29.643  29.676  1.00  0.00     0.016 A 
ATOM     48  C   UNL A   1      39.793  28.991  26.989  1.00  0.00     0.010 A 
ATOM     49  C   UNL A   1      40.591  29.026  29.255  1.00  0.00     0.010 A 
ATOM     50  C   UNL A   1      40.793  28.632  27.912  1.00  0.00    -0.014 A 
BRANCH  50  51
ATOM     51  C   UNL A   1      42.038  27.884  27.450  1.00  0.00     0.031 A 
ATOM     52  C   UNL A   1      43.198  28.831  27.499  1.00  0.00     0.074 A 
ATOM     53  C   UNL A   1      42.407  26.619  27.813  1.00  0.00     0.049 A 
ATOM     54  N   UNL A   1      43.884  29.085  28.571  1.00  0.00    -0.248 NA
ATOM     55  C   UNL A   1      43.369  29.802  26.419  1.00  0.00     0.031 C 
ATOM     56  C   UNL A   1      42.336  26.071  29.166  1.00  0.00     0.029 A 
ATOM     57  N   UNL A   1      43.129  25.635  27.122  1.00  0.00    -0.354 N 
ATOM     58  C   UNL A   1      44.518  30.291  28.352  1.00  0.00     0.074 A 
ATOM     59  C   UNL A   1      44.190  30.686  26.998  1.00  0.00     0.031 C 
ATOM     60  C   UNL A   1      42.873  24.841  29.217  1.00  0.00     0.029 A 
ATOM     61  C   UNL A   1      43.525  24.557  27.943  1.00  0.00     0.049 A 
ATOM     62  H   UNL A   1      43.340  25.691  26.162  1.00  0.00     0.167 HD
ATOM     63  C   UNL A   1      45.251  30.936  29.296  1.00  0.00     0.034 A 
ATOM     64  C   UNL A   1      44.731  23.907  27.908  1.00  0.00     0.034 A 
ATOM     65  C   UNL A   1      45.326  30.318  30.585  1.00  0.00     0.049 A 
ATOM     66  C   UNL A   1      45.604  24.811  28.756  1.00  0.00     0.074 A 
ATOM     67  C   UNL A   1      44.774  30.505  31.834  1.00  0.00     0.029 A 
ATOM     68  N   UNL A   1      46.113  29.201  30.728  1.00  0.00    -0.354 N 
ATOM     69  N   UNL A   1      45.609  24.914  30.063  1.00  0.00    -0.248 NA
ATOM     70  C   UNL A   1      46.168  25.958  28.049  1.00  0.00     0.031 C 
ATOM     71  C   UNL A   1      44.907  29.249  32.510  1.00  0.00     0.029 A 
ATOM     72  C   UNL A   1      45.499  28.356  31.618  1.00  0.00     0.049 A 
ATOM     73  H   UNL A   1      46.969  29.036  30.272  1.00  0.00     0.167 HD
ATOM     74  C   UNL A   1      45.841  26.272  30.317  1.00  0.00     0.074 A 
ATOM     75  C   UNL A   1      46.206  26.844  29.033  1.00  0.00     0.031 C 
ATOM     76  C   UNL A   1      45.545  26.907  31.493  1.00  0.00     0.034 A 
BRANCH  63  77
ATOM     77  C   UNL A   1      46.124  32.065  28.927  1.00  0.00     0.023 A 
ATOM     78  C   UNL A   1      45.510  33.332  28.935  1.00  0.00     0.012 A 
ATOM     79  C   UNL A   1      47.459  31.933  28.518  1.00  0.00     0.148 A 
ATOM     80  C   UNL A   1      46.196  34.458  28.503  1.00  0.00     0.002 A 
ATOM     81  C   UNL A   1      48.144  33.066  28.090  1.00  0.00     0.091 A 
ATOM     82  F   UNL A   1      48.024  30.717  28.543  1.00  0.00    -0.205 F 
ATOM     83  C   UNL A   1      47.510  34.323  28.073  1.00  0.00     0.022 A 
BRANCH  81  84
ATOM     84  S   UNL A   1      49.847  33.034  27.525  1.00  0.00     0.127 S 
ATOM     85  O   UNL A   1      49.726  32.344  26.241  1.00  0.00    -0.237 OA
ATOM     86  O   UNL A   1      50.158  34.460  27.425  1.00  0.00    -0.237 OA
ATOM     87  O   UNL A   1      50.596  32.320  28.550  1.00  0.00    -0.744 OA
ENDBRANCH  81  84
ENDBRANCH  63  77
BRANCH  64  88
ATOM     88  C   UNL A   1      45.194  23.266  26.638  1.00  0.00     0.023 A 
ATOM     89  C   UNL A   1      46.057  24.023  25.812  1.00  0.00     0.012 A 
ATOM     90  C   UNL A   1      44.816  21.990  26.177  1.00  0.00     0.148 A 
ATOM     91  C   UNL A   1      46.610  23.493  24.644  1.00  0.00     0.002 A 
ATOM     92  C   UNL A   1      45.431  21.432  25.058  1.00  0.00     0.091 A 
ATOM     93  F   UNL A   1      43.851  21.322  26.819  1.00  0.00    -0.205 F 
ATOM     94  C   UNL A   1      46.328  22.181  24.288  1.00  0.00     0.022 A 
BRANCH  92  95
ATOM     95  S   UNL A   1      45.210  19.706  24.601  1.00  0.00     0.127 S 
ATOM     96  O   UNL A   1      46.140  19.561  23.482  1.00  0.00    -0.237 OA
ATOM     97  O   UNL A   1      45.615  19.032  25.833  1.00  0.00    -0.237 OA
ATOM     98  O   UNL A   1      43.802  19.565  24.253  1.00  0.00    -0.744 OA
ENDBRANCH  92  95
ENDBRANCH  64  88
BRANCH  76  99
ATOM     99  C   UNL A   1      45.102  26.059  32.659  1.00  0.00     0.023 A 
ATOM    100  C   UNL A   1      46.034  25.180  33.240  1.00  0.00     0.012 A 
ATOM    101  C   UNL A   1      43.841  26.216  33.280  1.00  0.00     0.148 A 
ATOM    102  C   UNL A   1      45.738  24.498  34.423  1.00  0.00     0.002 A 
ATOM    103  C   UNL A   1      43.572  25.580  34.491  1.00  0.00     0.091 A 
ATOM    104  F   UNL A   1      42.927  27.012  32.701  1.00  0.00    -0.205 F 
ATOM    105  C   UNL A   1      44.518  24.713  35.059  1.00  0.00     0.022 A 
BRANCH 103 106
ATOM    106  S   UNL A   1      42.085  25.908  35.456  1.00  0.00     0.127 S 
ATOM    107  O   UNL A   1      41.771  24.598  36.023  1.00  0.00    -0.237 OA
ATOM    108  O   UNL A   1      42.569  26.883  36.433  1.00  0.00    -0.237 OA
ATOM    109  O   UNL A   1      41.089  26.416  34.520  1.00  0.00    -0.744 OA
ENDBRANCH 103 106
ENDBRANCH  76  99
ENDBRANCH  50  51
ENDBRANCH  43  45
ENDBRANCH  42  43
ENDBRANCH  41  42
ENDBRANCH  40  41
ENDBRANCH   1  40
TORSDOF 22
ENDMDL
MODEL 3
REMARK VINA RESULT:     -11.3      3.515      6.316
REMARK SMILES Cc1oc2cc3c(cc2c1C)[C@H](C)[C@@H](CC(=O)N[C@H](CC1=c2ccccc2=NC1)C(=O)OCCOCCOC(=O)c1ccc(-c2c4nc(c(-c5cccc(S(=O)(=O)[O-])c5F)c5ccc([nH]5)c(-c5cccc(S(=O)(=O)[O-])c5F)c5nc(c(-c6cccc(S(=O)(=O)[O-])c6F)c6ccc2[nH]6)C=C5)C=C4)cc1)C(=O)O3
REMARK SMILES IDX 35 1 34 2 33 3 32 4 30 5 31 6 19 7 18 8 16 9 17 10 15 12
REMARK SMILES IDX 14 13 1 14 2 15 3 16 10 17 4 18 9 19 11 20 5 21 8 22 6 23
REMARK SMILES IDX 7 24 106 25 12 26 104 27 13 28 105 29 20 30 21 31 22 32
REMARK SMILES IDX 29 33 23 34 27 35 28 36 24 37 26 38 25 39 36 40 37 41 38 42
REMARK SMILES IDX 39 43 40 44 41 45 42 46 103 47 43 48 102 49 44 50 45 51
REMARK SMILES IDX 46 52 96 53 47 54 101 55 95 56 97 57 48 58 100 59 94 60
REMARK SMILES IDX 93 61 49 63 81 64 61 65 80 66 62 67 65 68 79 69 98 70 63 71
REMARK SMILES IDX 64 72 78 74 99 75 66 76 50 77 51 78 59 79 52 80 54 81 60 82
REMARK SMILES IDX 53 83 55 84 56 85 57 86 58 87 82 88 83 89 91 90 84 91 86 92
REMARK SMILES IDX 92 93 85 94 87 95 88 96 89 97 90 98 67 99 68 100 76 101
REMARK SMILES IDX 69 102 71 103 77 104 70 105 72 106 73 107 74 108 75 109
REMARK H PARENT 18 11 97 62 65 73
REMARK Flexibility Score: inf
ROOT
ATOM      1  O   UNL A   1      32.808  28.560  26.168  1.00  0.00    -0.374 OA
ENDROOT
BRANCH   1   2
ATOM      2  C   UNL A   1      33.589  28.603  24.972  1.00  0.00     0.202 C 
BRANCH   2   3
ATOM      3  C   UNL A   1      33.969  27.240  24.375  1.00  0.00     0.261 C 
BRANCH   3   4
ATOM      4  O   UNL A   1      33.933  27.086  22.929  1.00  0.00    -0.462 OA
BRANCH   4   5
ATOM      5  C   UNL A   1      33.090  26.210  22.340  1.00  0.00     0.329 C 
ATOM      6  O   UNL A   1      33.205  25.789  21.194  1.00  0.00    -0.250 OA
BRANCH   5   7
ATOM      7  C   UNL A   1      31.955  25.692  23.256  1.00  0.00     0.196 C 
BRANCH   7   8
ATOM      8  N   UNL A   1      31.883  24.236  23.487  1.00  0.00    -0.342 N 
ATOM      9  C   UNL A   1      32.795  23.233  23.554  1.00  0.00     0.221 C 
ATOM     10  O   UNL A   1      32.474  22.208  24.163  1.00  0.00    -0.275 OA
ATOM     11  H   UNL A   1      30.960  23.921  23.625  1.00  0.00     0.164 HD
BRANCH   9  12
ATOM     12  C   UNL A   1      34.215  23.352  23.015  1.00  0.00     0.116 C 
BRANCH  12  13
ATOM     13  C   UNL A   1      35.275  23.004  24.060  1.00  0.00     0.116 C 
ATOM     14  C   UNL A   1      42.344  22.671  28.685  1.00  0.00     0.088 C 
ATOM     15  C   UNL A   1      41.094  22.958  27.955  1.00  0.00     0.105 A 
ATOM     16  O   UNL A   1      40.586  21.907  27.265  1.00  0.00    -0.461 OA
ATOM     17  C   UNL A   1      40.299  24.079  27.783  1.00  0.00    -0.002 A 
ATOM     18  C   UNL A   1      39.454  22.341  26.665  1.00  0.00     0.138 A 
ATOM     19  C   UNL A   1      39.176  23.657  27.002  1.00  0.00     0.024 A 
ATOM     20  C   UNL A   1      40.557  25.453  28.261  1.00  0.00     0.049 C 
ATOM     21  C   UNL A   1      38.719  21.594  25.774  1.00  0.00     0.095 A 
ATOM     22  C   UNL A   1      37.991  24.262  26.504  1.00  0.00     0.020 A 
ATOM     23  C   UNL A   1      37.652  22.278  25.199  1.00  0.00     0.138 A 
ATOM     24  C   UNL A   1      37.181  23.542  25.612  1.00  0.00    -0.001 A 
ATOM     25  O   UNL A   1      37.186  21.674  24.040  1.00  0.00    -0.426 OA
ATOM     26  C   UNL A   1      35.896  24.107  24.958  1.00  0.00     0.035 C 
ATOM     27  C   UNL A   1      36.506  22.608  23.321  1.00  0.00     0.315 C 
ATOM     28  C   UNL A   1      34.900  24.635  25.986  1.00  0.00     0.014 C 
ATOM     29  O   UNL A   1      36.904  23.099  22.271  1.00  0.00    -0.251 OA
ENDBRANCH  12  13
ENDBRANCH   9  12
ENDBRANCH   7   8
BRANCH   7  30
ATOM     30  C   UNL A   1      30.607  26.392  22.845  1.00  0.00     0.070 C 
BRANCH  30  31
ATOM     31  C   UNL A   1      29.979  27.457  23.740  1.00  0.00    -0.037 C 
ATOM     32  C   UNL A   1      30.074  28.737  23.358  1.00  0.00     0.001 A 
ATOM     33  C   UNL A   1      28.541  27.199  24.105  1.00  0.00     0.174 C 
ATOM     34  C   UNL A   1      30.104  29.902  24.227  1.00  0.00     0.010 A 
ATOM     35  C   UNL A   1      28.723  28.772  22.673  1.00  0.00     0.065 A 
ATOM     36  N   UNL A   1      27.809  27.940  23.065  1.00  0.00    -0.280 NA
ATOM     37  C   UNL A   1      29.509  30.991  23.718  1.00  0.00     0.001 A 
ATOM     38  C   UNL A   1      28.586  29.881  21.747  1.00  0.00     0.028 A 
ATOM     39  C   UNL A   1      29.080  30.980  22.320  1.00  0.00     0.002 A 
ENDBRANCH  30  31
ENDBRANCH   7  30
ENDBRANCH   5   7
ENDBRANCH   4   5
ENDBRANCH   3   4
ENDBRANCH   2   3
ENDBRANCH   1   2
BRANCH   1  40
ATOM     40  C   UNL A   1      33.445  29.124  27.312  1.00  0.00     0.202 C 
BRANCH  40  41
ATOM     41  C   UNL A   1      33.729  30.615  27.187  1.00  0.00     0.261 C 
BRANCH  41  42
ATOM     42  O   UNL A   1      35.126  30.871  27.446  1.00  0.00    -0.460 OA
BRANCH  42  43
ATOM     43  C   UNL A   1      35.412  31.319  28.701  1.00  0.00     0.338 C 
ATOM     44  O   UNL A   1      34.698  31.968  29.415  1.00  0.00    -0.246 OA
BRANCH  43  45
ATOM     45  C   UNL A   1      36.713  30.733  29.133  1.00  0.00     0.060 A 
ATOM     46  C   UNL A   1      37.224  29.536  28.622  1.00  0.00     0.016 A 
ATOM     47  C   UNL A   1      37.414  31.402  30.134  1.00  0.00     0.016 A 
ATOM     48  C   UNL A   1      38.415  28.988  29.151  1.00  0.00     0.010 A 
ATOM     49  C   UNL A   1      38.565  30.827  30.691  1.00  0.00     0.010 A 
ATOM     50  C   UNL A   1      39.063  29.577  30.254  1.00  0.00    -0.014 A 
BRANCH  50  51
ATOM     51  C   UNL A   1      40.260  28.894  30.903  1.00  0.00     0.031 A 
ATOM     52  C   UNL A   1      41.503  29.390  30.229  1.00  0.00     0.074 A 
ATOM     53  C   UNL A   1      40.457  28.698  32.241  1.00  0.00     0.049 A 
ATOM     54  N   UNL A   1      42.106  30.496  30.542  1.00  0.00    -0.248 NA
ATOM     55  C   UNL A   1      41.878  28.835  28.929  1.00  0.00     0.031 C 
ATOM     56  C   UNL A   1      40.200  29.685  33.288  1.00  0.00     0.029 A 
ATOM     57  N   UNL A   1      41.135  27.684  32.934  1.00  0.00    -0.354 N 
ATOM     58  C   UNL A   1      42.882  30.839  29.453  1.00  0.00     0.074 A 
ATOM     59  C   UNL A   1      42.729  29.770  28.488  1.00  0.00     0.031 C 
ATOM     60  C   UNL A   1      40.597  29.229  34.487  1.00  0.00     0.029 A 
ATOM     61  C   UNL A   1      41.334  27.984  34.299  1.00  0.00     0.049 A 
ATOM     62  H   UNL A   1      41.441  26.850  32.511  1.00  0.00     0.167 HD
ATOM     63  C   UNL A   1      43.585  31.997  29.367  1.00  0.00     0.034 A 
ATOM     64  C   UNL A   1      42.462  27.726  35.033  1.00  0.00     0.034 A 
ATOM     65  C   UNL A   1      43.471  32.903  30.470  1.00  0.00     0.049 A 
ATOM     66  C   UNL A   1      43.341  28.914  34.693  1.00  0.00     0.074 A 
ATOM     67  C   UNL A   1      42.824  34.087  30.749  1.00  0.00     0.029 A 
ATOM     68  N   UNL A   1      44.118  32.589  31.641  1.00  0.00    -0.354 N 
ATOM     69  N   UNL A   1      43.231  30.139  35.146  1.00  0.00    -0.248 NA
ATOM     70  C   UNL A   1      44.087  28.788  33.444  1.00  0.00     0.031 C 
ATOM     71  C   UNL A   1      42.759  34.168  32.177  1.00  0.00     0.029 A 
ATOM     72  C   UNL A   1      43.336  33.006  32.688  1.00  0.00     0.049 A 
ATOM     73  H   UNL A   1      44.992  32.142  31.715  1.00  0.00     0.167 HD
ATOM     74  C   UNL A   1      43.580  30.957  34.064  1.00  0.00     0.074 A 
ATOM     75  C   UNL A   1      44.124  30.056  33.064  1.00  0.00     0.031 C 
ATOM     76  C   UNL A   1      43.241  32.279  33.944  1.00  0.00     0.034 A 
BRANCH  63  77
ATOM     77  C   UNL A   1      44.604  32.182  28.318  1.00  0.00     0.023 A 
ATOM     78  C   UNL A   1      44.161  32.844  27.156  1.00  0.00     0.012 A 
ATOM     79  C   UNL A   1      45.914  31.688  28.390  1.00  0.00     0.148 A 
ATOM     80  C   UNL A   1      44.995  32.982  26.055  1.00  0.00     0.002 A 
ATOM     81  C   UNL A   1      46.747  31.834  27.285  1.00  0.00     0.091 A 
ATOM     82  F   UNL A   1      46.313  31.084  29.518  1.00  0.00    -0.205 F 
ATOM     83  C   UNL A   1      46.285  32.470  26.117  1.00  0.00     0.022 A 
BRANCH  81  84
ATOM     84  S   UNL A   1      48.437  31.233  27.239  1.00  0.00     0.127 S 
ATOM     85  O   UNL A   1      48.779  31.185  28.660  1.00  0.00    -0.237 OA
ATOM     86  O   UNL A   1      48.275  29.925  26.605  1.00  0.00    -0.237 OA
ATOM     87  O   UNL A   1      49.186  32.201  26.449  1.00  0.00    -0.744 OA
ENDBRANCH  81  84
ENDBRANCH  63  77
BRANCH  64  88
ATOM     88  C   UNL A   1      42.975  26.325  35.141  1.00  0.00     0.023 A 
ATOM     89  C   UNL A   1      42.016  25.286  35.138  1.00  0.00     0.012 A 
ATOM     90  C   UNL A   1      44.327  25.954  35.282  1.00  0.00     0.148 A 
ATOM     91  C   UNL A   1      42.389  23.939  35.157  1.00  0.00     0.002 A 
ATOM     92  C   UNL A   1      44.702  24.613  35.216  1.00  0.00     0.091 A 
ATOM     93  F   UNL A   1      45.247  26.902  35.490  1.00  0.00    -0.205 F 
ATOM     94  C   UNL A   1      43.736  23.603  35.155  1.00  0.00     0.022 A 
BRANCH  92  95
ATOM     95  S   UNL A   1      46.422  24.102  35.091  1.00  0.00     0.127 S 
ATOM     96  O   UNL A   1      46.914  24.936  33.997  1.00  0.00    -0.237 OA
ATOM     97  O   UNL A   1      46.922  24.464  36.417  1.00  0.00    -0.237 OA
ATOM     98  O   UNL A   1      46.393  22.673  34.810  1.00  0.00    -0.744 OA
ENDBRANCH  92  95
ENDBRANCH  64  88
BRANCH  76  99
ATOM     99  C   UNL A   1      42.602  32.952  35.133  1.00  0.00     0.023 A 
ATOM    100  C   UNL A   1      43.437  33.482  36.132  1.00  0.00     0.012 A 
ATOM    101  C   UNL A   1      41.211  33.198  35.212  1.00  0.00     0.148 A 
ATOM    102  C   UNL A   1      42.916  34.264  37.165  1.00  0.00     0.002 A 
ATOM    103  C   UNL A   1      40.703  34.028  36.210  1.00  0.00     0.091 A 
ATOM    104  F   UNL A   1      40.401  32.650  34.291  1.00  0.00    -0.205 F 
ATOM    105  C   UNL A   1      41.554  34.554  37.193  1.00  0.00     0.022 A 
BRANCH 103 106
ATOM    106  S   UNL A   1      38.984  34.573  36.244  1.00  0.00     0.127 S 
ATOM    107  O   UNL A   1      38.927  35.393  37.452  1.00  0.00    -0.237 OA
ATOM    108  O   UNL A   1      38.886  35.334  34.998  1.00  0.00    -0.237 OA
ATOM    109  O   UNL A   1      38.168  33.366  36.293  1.00  0.00    -0.744 OA
ENDBRANCH 103 106
ENDBRANCH  76  99
ENDBRANCH  50  51
ENDBRANCH  43  45
ENDBRANCH  42  43
ENDBRANCH  41  42
ENDBRANCH  40  41
ENDBRANCH   1  40
TORSDOF 22
ENDMDL
