MODEL 1
REMARK VINA RESULT:     -12.4      0.000      0.000
REMARK SMILES O=C(OCCOCCOC(=O)[C@@H](Cc1ccccc1)N1C(=O)/C(=C/c2ccc3ncccc3c2)SC1=S)c1ccc(-c2c3nc(c(-c4cccc(S(=O)(=O)[O-])c4F)c4ccc([nH]4)c(-c4cccc(S(=O)(=O)[O-])c4F)c4nc(c(-c5cccc(S(=O)(=O)[O-])c5F)c5ccc2[nH]5)C=C4)C=C3)cc1
REMARK SMILES IDX 5 1 4 2 3 3 2 4 1 5 38 6 39 7 100 8 40 9 99 10 41 11 42 12
REMARK SMILES IDX 43 13 93 14 44 15 98 16 92 17 94 18 45 19 97 20 91 21 90 22
REMARK SMILES IDX 46 24 78 25 58 26 77 27 59 28 62 29 76 30 95 31 60 32 61 33
REMARK SMILES IDX 75 35 96 36 63 37 47 38 48 39 56 40 49 41 51 42 57 43 50 44
REMARK SMILES IDX 52 45 53 46 54 47 55 48 79 49 80 50 88 51 81 52 83 53 89 54
REMARK SMILES IDX 82 55 84 56 85 57 86 58 87 59 64 60 65 61 73 62 66 63 68 64
REMARK SMILES IDX 74 65 67 66 69 67 70 68 71 69 72 70 6 71 7 72 8 73 9 74
REMARK SMILES IDX 10 75 11 76 12 77 13 78 14 79 15 80 19 81 16 82 18 83 17 84
REMARK SMILES IDX 20 85 21 86 36 87 22 88 23 89 35 90 37 91 24 92 25 93 26 94
REMARK SMILES IDX 34 95 27 96 33 97 28 98 32 99 29 100 31 101 30 102
REMARK H PARENT 94 23 62 34
REMARK Flexibility Score: inf
ROOT
ATOM      1  C   UNL A   1      36.575  22.728  23.563  1.00  0.00     0.202 C 
ENDROOT
BRANCH   1   2
ATOM      2  C   UNL A   1      37.042  21.416  24.206  1.00  0.00     0.261 C 
BRANCH   2   3
ATOM      3  O   UNL A   1      37.480  21.571  25.568  1.00  0.00    -0.460 OA
BRANCH   3   4
ATOM      4  C   UNL A   1      38.770  21.467  25.999  1.00  0.00     0.338 C 
ATOM      5  O   UNL A   1      39.350  20.390  25.959  1.00  0.00    -0.246 OA
BRANCH   4   6
ATOM      6  C   UNL A   1      39.481  22.666  26.519  1.00  0.00     0.060 A 
ATOM      7  C   UNL A   1      39.187  23.934  26.044  1.00  0.00     0.016 A 
ATOM      8  C   UNL A   1      40.430  22.558  27.533  1.00  0.00     0.016 A 
ATOM      9  C   UNL A   1      39.903  25.047  26.371  1.00  0.00     0.010 A 
ATOM     10  C   UNL A   1      41.076  23.713  27.997  1.00  0.00     0.010 A 
ATOM     11  C   UNL A   1      40.815  24.954  27.395  1.00  0.00    -0.014 A 
BRANCH  11  12
ATOM     12  C   UNL A   1      41.509  26.205  27.700  1.00  0.00     0.031 A 
ATOM     13  C   UNL A   1      40.800  27.191  28.558  1.00  0.00     0.074 A 
ATOM     14  C   UNL A   1      42.816  26.313  27.387  1.00  0.00     0.049 A 
ATOM     15  N   UNL A   1      41.177  28.382  28.915  1.00  0.00    -0.248 NA
ATOM     16  C   UNL A   1      39.492  26.777  29.103  1.00  0.00     0.031 C 
ATOM     17  C   UNL A   1      43.619  25.276  26.718  1.00  0.00     0.029 A 
ATOM     18  N   UNL A   1      43.711  27.314  27.623  1.00  0.00    -0.354 N 
ATOM     19  C   UNL A   1      40.120  28.897  29.648  1.00  0.00     0.074 A 
ATOM     20  C   UNL A   1      39.100  27.878  29.723  1.00  0.00     0.031 C 
ATOM     21  C   UNL A   1      44.887  25.695  26.614  1.00  0.00     0.029 A 
ATOM     22  C   UNL A   1      44.959  27.062  27.102  1.00  0.00     0.049 A 
ATOM     23  H   UNL A   1      43.487  28.135  28.118  1.00  0.00     0.167 HD
ATOM     24  C   UNL A   1      40.022  30.131  30.183  1.00  0.00     0.034 A 
ATOM     25  C   UNL A   1      46.014  27.884  26.976  1.00  0.00     0.034 A 
ATOM     26  C   UNL A   1      41.079  31.096  30.084  1.00  0.00     0.049 A 
ATOM     27  C   UNL A   1      45.842  29.282  27.498  1.00  0.00     0.074 A 
ATOM     28  C   UNL A   1      41.097  32.407  30.512  1.00  0.00     0.029 A 
ATOM     29  N   UNL A   1      42.315  30.840  29.499  1.00  0.00    -0.354 N 
ATOM     30  N   UNL A   1      44.819  29.799  28.138  1.00  0.00    -0.248 NA
ATOM     31  C   UNL A   1      46.956  30.210  27.285  1.00  0.00     0.031 C 
ATOM     32  C   UNL A   1      42.334  32.953  30.154  1.00  0.00     0.029 A 
ATOM     33  C   UNL A   1      43.104  31.971  29.546  1.00  0.00     0.049 A 
ATOM     34  H   UNL A   1      42.586  29.978  29.108  1.00  0.00     0.167 HD
ATOM     35  C   UNL A   1      45.172  31.107  28.432  1.00  0.00     0.074 A 
ATOM     36  C   UNL A   1      46.518  31.291  27.917  1.00  0.00     0.031 C 
ATOM     37  C   UNL A   1      44.456  32.075  29.053  1.00  0.00     0.034 A 
BRANCH  24  38
ATOM     38  C   UNL A   1      38.715  30.495  30.824  1.00  0.00     0.023 A 
ATOM     39  C   UNL A   1      38.427  30.103  32.147  1.00  0.00     0.012 A 
ATOM     40  C   UNL A   1      37.743  31.194  30.083  1.00  0.00     0.148 A 
ATOM     41  C   UNL A   1      37.177  30.367  32.707  1.00  0.00     0.002 A 
ATOM     42  C   UNL A   1      36.518  31.495  30.664  1.00  0.00     0.091 A 
ATOM     43  F   UNL A   1      38.023  31.522  28.813  1.00  0.00    -0.205 F 
ATOM     44  C   UNL A   1      36.228  31.069  31.970  1.00  0.00     0.022 A 
BRANCH  42  45
ATOM     45  S   UNL A   1      35.254  32.445  29.815  1.00  0.00     0.127 S 
ATOM     46  O   UNL A   1      34.844  31.516  28.762  1.00  0.00    -0.237 OA
ATOM     47  O   UNL A   1      34.264  32.643  30.874  1.00  0.00    -0.237 OA
ATOM     48  O   UNL A   1      35.903  33.662  29.349  1.00  0.00    -0.744 OA
ENDBRANCH  42  45
ENDBRANCH  24  38
BRANCH  25  49
ATOM     49  C   UNL A   1      47.265  27.431  26.302  1.00  0.00     0.023 A 
ATOM     50  C   UNL A   1      47.495  27.767  24.955  1.00  0.00     0.012 A 
ATOM     51  C   UNL A   1      48.238  26.677  26.992  1.00  0.00     0.148 A 
ATOM     52  C   UNL A   1      48.649  27.333  24.299  1.00  0.00     0.002 A 
ATOM     53  C   UNL A   1      49.411  26.295  26.350  1.00  0.00     0.091 A 
ATOM     54  F   UNL A   1      48.003  26.351  28.271  1.00  0.00    -0.205 F 
ATOM     55  C   UNL A   1      49.609  26.606  24.997  1.00  0.00     0.022 A 
BRANCH  53  56
ATOM     56  S   UNL A   1      50.753  25.460  27.204  1.00  0.00     0.127 S 
ATOM     57  O   UNL A   1      51.715  25.259  26.124  1.00  0.00    -0.237 OA
ATOM     58  O   UNL A   1      51.144  26.458  28.201  1.00  0.00    -0.237 OA
ATOM     59  O   UNL A   1      50.171  24.248  27.765  1.00  0.00    -0.744 OA
ENDBRANCH  53  56
ENDBRANCH  25  49
BRANCH  37  60
ATOM     60  C   UNL A   1      45.141  33.395  29.256  1.00  0.00     0.023 A 
ATOM     61  C   UNL A   1      45.923  33.615  30.405  1.00  0.00     0.012 A 
ATOM     62  C   UNL A   1      45.076  34.377  28.250  1.00  0.00     0.148 A 
ATOM     63  C   UNL A   1      46.610  34.815  30.564  1.00  0.00     0.002 A 
ATOM     64  C   UNL A   1      45.812  35.543  28.387  1.00  0.00     0.091 A 
ATOM     65  F   UNL A   1      44.306  34.145  27.176  1.00  0.00    -0.205 F 
ATOM     66  C   UNL A   1      46.568  35.771  29.549  1.00  0.00     0.022 A 
BRANCH  64  67
ATOM     67  S   UNL A   1      45.910  36.769  27.082  1.00  0.00     0.127 S 
ATOM     68  O   UNL A   1      44.521  37.212  26.985  1.00  0.00    -0.237 OA
ATOM     69  O   UNL A   1      46.829  37.754  27.654  1.00  0.00    -0.237 OA
ATOM     70  O   UNL A   1      46.426  36.072  25.911  1.00  0.00    -0.744 OA
ENDBRANCH  64  67
ENDBRANCH  37  60
ENDBRANCH  11  12
ENDBRANCH   4   6
ENDBRANCH   3   4
ENDBRANCH   2   3
ENDBRANCH   1   2
BRANCH   1  71
ATOM     71  O   UNL A   1      35.302  23.262  23.901  1.00  0.00    -0.374 OA
BRANCH  71  72
ATOM     72  C   UNL A   1      35.193  24.521  24.558  1.00  0.00     0.202 C 
BRANCH  72  73
ATOM     73  C   UNL A   1      34.702  24.263  25.983  1.00  0.00     0.261 C 
BRANCH  73  74
ATOM     74  O   UNL A   1      34.592  22.842  26.183  1.00  0.00    -0.462 OA
BRANCH  74  75
ATOM     75  C   UNL A   1      33.360  22.390  26.539  1.00  0.00     0.329 C 
ATOM     76  O   UNL A   1      32.999  22.173  27.689  1.00  0.00    -0.250 OA
BRANCH  75  77
ATOM     77  C   UNL A   1      32.476  22.104  25.305  1.00  0.00     0.206 C 
BRANCH  77  78
ATOM     78  C   UNL A   1      31.976  20.633  25.260  1.00  0.00     0.073 C 
BRANCH  78  79
ATOM     79  C   UNL A   1      32.686  19.509  24.520  1.00  0.00    -0.045 A 
ATOM     80  C   UNL A   1      32.109  19.036  23.325  1.00  0.00     0.004 A 
ATOM     81  C   UNL A   1      33.853  18.876  24.967  1.00  0.00     0.004 A 
ATOM     82  C   UNL A   1      32.690  17.989  22.601  1.00  0.00     0.000 A 
ATOM     83  C   UNL A   1      34.446  17.843  24.233  1.00  0.00     0.000 A 
ATOM     84  C   UNL A   1      33.862  17.395  23.053  1.00  0.00     0.000 A 
ENDBRANCH  78  79
ENDBRANCH  77  78
BRANCH  77  85
ATOM     85  N   UNL A   1      31.515  23.215  25.223  1.00  0.00    -0.278 N 
ATOM     86  C   UNL A   1      31.555  23.938  24.038  1.00  0.00     0.267 C 
ATOM     87  C   UNL A   1      30.430  23.523  26.007  1.00  0.00     0.149 C 
ATOM     88  O   UNL A   1      32.017  23.576  22.962  1.00  0.00    -0.268 OA
ATOM     89  C   UNL A   1      30.903  25.232  24.234  1.00  0.00     0.081 C 
ATOM     90  S   UNL A   1      29.834  25.123  25.567  1.00  0.00    -0.054 SA
ATOM     91  S   UNL A   1      29.639  22.649  27.183  1.00  0.00    -0.052 S 
ATOM     92  C   UNL A   1      31.237  26.296  23.494  1.00  0.00     0.029 C 
BRANCH  92  93
ATOM     93  C   UNL A   1      30.648  27.603  23.745  1.00  0.00    -0.024 A 
ATOM     94  C   UNL A   1      31.344  28.523  24.520  1.00  0.00     0.010 A 
ATOM     95  C   UNL A   1      29.481  27.986  23.080  1.00  0.00     0.018 A 
ATOM     96  C   UNL A   1      30.907  29.847  24.572  1.00  0.00     0.029 A 
ATOM     97  C   UNL A   1      29.075  29.324  23.101  1.00  0.00     0.001 A 
ATOM     98  C   UNL A   1      29.799  30.276  23.851  1.00  0.00     0.070 A 
ATOM     99  C   UNL A   1      27.981  29.760  22.346  1.00  0.00     0.012 A 
ATOM    100  N   UNL A   1      29.467  31.576  23.863  1.00  0.00    -0.256 NA
ATOM    101  C   UNL A   1      27.648  31.107  22.343  1.00  0.00     0.021 A 
ATOM    102  C   UNL A   1      28.414  31.964  23.111  1.00  0.00     0.112 A 
ENDBRANCH  92  93
ENDBRANCH  77  85
ENDBRANCH  75  77
ENDBRANCH  74  75
ENDBRANCH  73  74
ENDBRANCH  72  73
ENDBRANCH  71  72
ENDBRANCH   1  71
TORSDOF 21
ENDMDL
MODEL 2
REMARK VINA RESULT:     -12.0      1.912      5.474
REMARK SMILES O=C(OCCOCCOC(=O)[C@@H](Cc1ccccc1)N1C(=O)/C(=C/c2ccc3ncccc3c2)SC1=S)c1ccc(-c2c3nc(c(-c4cccc(S(=O)(=O)[O-])c4F)c4ccc([nH]4)c(-c4cccc(S(=O)(=O)[O-])c4F)c4nc(c(-c5cccc(S(=O)(=O)[O-])c5F)c5ccc2[nH]5)C=C4)C=C3)cc1
REMARK SMILES IDX 5 1 4 2 3 3 2 4 1 5 38 6 39 7 100 8 40 9 99 10 41 11 42 12
REMARK SMILES IDX 43 13 93 14 44 15 98 16 92 17 94 18 45 19 97 20 91 21 90 22
REMARK SMILES IDX 46 24 78 25 58 26 77 27 59 28 62 29 76 30 95 31 60 32 61 33
REMARK SMILES IDX 75 35 96 36 63 37 47 38 48 39 56 40 49 41 51 42 57 43 50 44
REMARK SMILES IDX 52 45 53 46 54 47 55 48 79 49 80 50 88 51 81 52 83 53 89 54
REMARK SMILES IDX 82 55 84 56 85 57 86 58 87 59 64 60 65 61 73 62 66 63 68 64
REMARK SMILES IDX 74 65 67 66 69 67 70 68 71 69 72 70 6 71 7 72 8 73 9 74
REMARK SMILES IDX 10 75 11 76 12 77 13 78 14 79 15 80 19 81 16 82 18 83 17 84
REMARK SMILES IDX 20 85 21 86 36 87 22 88 23 89 35 90 37 91 24 92 25 93 26 94
REMARK SMILES IDX 34 95 27 96 33 97 28 98 32 99 29 100 31 101 30 102
REMARK H PARENT 94 23 62 34
REMARK Flexibility Score: inf
ROOT
ATOM      1  C   UNL A   1      36.007  23.473  24.331  1.00  0.00     0.202 C 
ENDROOT
BRANCH   1   2
ATOM      2  C   UNL A   1      36.092  22.002  24.757  1.00  0.00     0.261 C 
BRANCH   2   3
ATOM      3  O   UNL A   1      36.907  21.791  25.924  1.00  0.00    -0.460 OA
BRANCH   3   4
ATOM      4  C   UNL A   1      38.269  21.719  25.933  1.00  0.00     0.338 C 
ATOM      5  O   UNL A   1      38.838  20.717  25.518  1.00  0.00    -0.246 OA
BRANCH   4   6
ATOM      6  C   UNL A   1      39.073  22.861  26.446  1.00  0.00     0.060 A 
ATOM      7  C   UNL A   1      38.767  24.166  26.093  1.00  0.00     0.016 A 
ATOM      8  C   UNL A   1      40.127  22.660  27.334  1.00  0.00     0.016 A 
ATOM      9  C   UNL A   1      39.550  25.236  26.408  1.00  0.00     0.010 A 
ATOM     10  C   UNL A   1      40.857  23.764  27.796  1.00  0.00     0.010 A 
ATOM     11  C   UNL A   1      40.569  25.050  27.312  1.00  0.00    -0.014 A 
BRANCH  11  12
ATOM     12  C   UNL A   1      41.332  26.260  27.617  1.00  0.00     0.031 A 
ATOM     13  C   UNL A   1      40.722  27.238  28.557  1.00  0.00     0.074 A 
ATOM     14  C   UNL A   1      42.619  26.329  27.222  1.00  0.00     0.049 A 
ATOM     15  N   UNL A   1      41.171  28.397  28.933  1.00  0.00    -0.248 NA
ATOM     16  C   UNL A   1      39.436  26.853  29.172  1.00  0.00     0.031 C 
ATOM     17  C   UNL A   1      43.334  25.290  26.463  1.00  0.00     0.029 A 
ATOM     18  N   UNL A   1      43.569  27.285  27.436  1.00  0.00    -0.354 N 
ATOM     19  C   UNL A   1      40.186  28.923  29.754  1.00  0.00     0.074 A 
ATOM     20  C   UNL A   1      39.132  27.942  29.858  1.00  0.00     0.031 C 
ATOM     21  C   UNL A   1      44.608  25.664  26.290  1.00  0.00     0.029 A 
ATOM     22  C   UNL A   1      44.769  27.006  26.823  1.00  0.00     0.049 A 
ATOM     23  H   UNL A   1      43.412  28.094  27.975  1.00  0.00     0.167 HD
ATOM     24  C   UNL A   1      40.174  30.137  30.341  1.00  0.00     0.034 A 
ATOM     25  C   UNL A   1      45.847  27.791  26.659  1.00  0.00     0.034 A 
ATOM     26  C   UNL A   1      41.261  31.063  30.208  1.00  0.00     0.049 A 
ATOM     27  C   UNL A   1      45.767  29.173  27.243  1.00  0.00     0.074 A 
ATOM     28  C   UNL A   1      41.361  32.354  30.683  1.00  0.00     0.029 A 
ATOM     29  N   UNL A   1      42.445  30.784  29.533  1.00  0.00    -0.354 N 
ATOM     30  N   UNL A   1      44.809  29.702  27.969  1.00  0.00    -0.248 NA
ATOM     31  C   UNL A   1      46.902  30.065  26.992  1.00  0.00     0.031 C 
ATOM     32  C   UNL A   1      42.594  32.866  30.264  1.00  0.00     0.029 A 
ATOM     33  C   UNL A   1      43.281  31.880  29.569  1.00  0.00     0.049 A 
ATOM     34  H   UNL A   1      42.654  29.928  29.092  1.00  0.00     0.167 HD
ATOM     35  C   UNL A   1      45.235  30.982  28.288  1.00  0.00     0.074 A 
ATOM     36  C   UNL A   1      46.551  31.135  27.692  1.00  0.00     0.031 C 
ATOM     37  C   UNL A   1      44.602  31.952  28.992  1.00  0.00     0.034 A 
BRANCH  24  38
ATOM     38  C   UNL A   1      38.927  30.525  31.080  1.00  0.00     0.023 A 
ATOM     39  C   UNL A   1      38.754  30.173  32.434  1.00  0.00     0.012 A 
ATOM     40  C   UNL A   1      37.897  31.206  30.405  1.00  0.00     0.148 A 
ATOM     41  C   UNL A   1      37.557  30.458  33.092  1.00  0.00     0.002 A 
ATOM     42  C   UNL A   1      36.727  31.529  31.080  1.00  0.00     0.091 A 
ATOM     43  F   UNL A   1      38.067  31.495  29.107  1.00  0.00    -0.205 F 
ATOM     44  C   UNL A   1      36.550  31.143  32.418  1.00  0.00     0.022 A 
BRANCH  42  45
ATOM     45  S   UNL A   1      35.396  32.460  30.316  1.00  0.00     0.127 S 
ATOM     46  O   UNL A   1      36.066  33.718  29.987  1.00  0.00    -0.237 OA
ATOM     47  O   UNL A   1      35.068  31.623  29.161  1.00  0.00    -0.237 OA
ATOM     48  O   UNL A   1      34.344  32.561  31.317  1.00  0.00    -0.744 OA
ENDBRANCH  42  45
ENDBRANCH  24  38
BRANCH  25  49
ATOM     49  C   UNL A   1      47.031  27.318  25.886  1.00  0.00     0.023 A 
ATOM     50  C   UNL A   1      47.974  26.471  26.499  1.00  0.00     0.012 A 
ATOM     51  C   UNL A   1      47.225  27.692  24.540  1.00  0.00     0.148 A 
ATOM     52  C   UNL A   1      49.102  26.036  25.800  1.00  0.00     0.002 A 
ATOM     53  C   UNL A   1      48.321  27.211  23.831  1.00  0.00     0.091 A 
ATOM     54  F   UNL A   1      46.329  28.510  23.970  1.00  0.00    -0.205 F 
ATOM     55  C   UNL A   1      49.271  26.399  24.466  1.00  0.00     0.022 A 
BRANCH  53  56
ATOM     56  S   UNL A   1      48.555  27.529  22.079  1.00  0.00     0.127 S 
ATOM     57  O   UNL A   1      49.743  28.378  22.085  1.00  0.00    -0.237 OA
ATOM     58  O   UNL A   1      48.763  26.180  21.551  1.00  0.00    -0.237 OA
ATOM     59  O   UNL A   1      47.326  28.167  21.625  1.00  0.00    -0.744 OA
ENDBRANCH  53  56
ENDBRANCH  25  49
BRANCH  37  60
ATOM     60  C   UNL A   1      45.352  33.235  29.198  1.00  0.00     0.023 A 
ATOM     61  C   UNL A   1      46.211  33.380  30.304  1.00  0.00     0.012 A 
ATOM     62  C   UNL A   1      45.268  34.257  28.234  1.00  0.00     0.148 A 
ATOM     63  C   UNL A   1      46.956  34.545  30.462  1.00  0.00     0.002 A 
ATOM     64  C   UNL A   1      46.058  35.387  28.367  1.00  0.00     0.091 A 
ATOM     65  F   UNL A   1      44.424  34.096  27.203  1.00  0.00    -0.205 F 
ATOM     66  C   UNL A   1      46.892  35.540  29.487  1.00  0.00     0.022 A 
BRANCH  64  67
ATOM     67  S   UNL A   1      46.128  36.656  27.102  1.00  0.00     0.127 S 
ATOM     68  O   UNL A   1      44.763  37.179  27.131  1.00  0.00    -0.237 OA
ATOM     69  O   UNL A   1      47.143  37.565  27.635  1.00  0.00    -0.237 OA
ATOM     70  O   UNL A   1      46.511  35.979  25.870  1.00  0.00    -0.744 OA
ENDBRANCH  64  67
ENDBRANCH  37  60
ENDBRANCH  11  12
ENDBRANCH   4   6
ENDBRANCH   3   4
ENDBRANCH   2   3
ENDBRANCH   1   2
BRANCH   1  71
ATOM     71  O   UNL A   1      34.776  24.171  24.458  1.00  0.00    -0.374 OA
BRANCH  71  72
ATOM     72  C   UNL A   1      34.522  24.994  25.593  1.00  0.00     0.202 C 
BRANCH  72  73
ATOM     73  C   UNL A   1      34.379  26.436  25.101  1.00  0.00     0.261 C 
BRANCH  73  74
ATOM     74  O   UNL A   1      33.024  26.868  25.329  1.00  0.00    -0.462 OA
BRANCH  74  75
ATOM     75  C   UNL A   1      32.511  27.712  24.395  1.00  0.00     0.329 C 
ATOM     76  O   UNL A   1      32.969  28.814  24.120  1.00  0.00    -0.250 OA
BRANCH  75  77
ATOM     77  C   UNL A   1      31.218  27.151  23.764  1.00  0.00     0.206 C 
BRANCH  77  78
ATOM     78  C   UNL A   1      30.609  28.110  22.703  1.00  0.00     0.073 C 
BRANCH  78  79
ATOM     79  C   UNL A   1      29.519  29.130  22.996  1.00  0.00    -0.045 A 
ATOM     80  C   UNL A   1      29.904  30.374  23.533  1.00  0.00     0.004 A 
ATOM     81  C   UNL A   1      28.149  28.904  22.813  1.00  0.00     0.004 A 
ATOM     82  C   UNL A   1      28.958  31.355  23.852  1.00  0.00     0.000 A 
ATOM     83  C   UNL A   1      27.204  29.891  23.111  1.00  0.00     0.000 A 
ATOM     84  C   UNL A   1      27.606  31.114  23.636  1.00  0.00     0.000 A 
ENDBRANCH  78  79
ENDBRANCH  77  78
BRANCH  77  85
ATOM     85  N   UNL A   1      31.505  25.751  23.419  1.00  0.00    -0.278 N 
ATOM     86  C   UNL A   1      30.877  24.807  24.222  1.00  0.00     0.267 C 
ATOM     87  C   UNL A   1      32.095  25.204  22.305  1.00  0.00     0.149 C 
ATOM     88  O   UNL A   1      29.886  24.971  24.925  1.00  0.00    -0.268 OA
ATOM     89  C   UNL A   1      31.554  23.519  24.081  1.00  0.00     0.081 C 
ATOM     90  S   UNL A   1      32.401  23.492  22.593  1.00  0.00    -0.054 SA
ATOM     91  S   UNL A   1      32.484  25.868  20.828  1.00  0.00    -0.052 S 
ATOM     92  C   UNL A   1      31.531  22.613  25.066  1.00  0.00     0.029 C 
BRANCH  92  93
ATOM     93  C   UNL A   1      32.274  21.366  24.958  1.00  0.00    -0.024 A 
ATOM     94  C   UNL A   1      32.916  20.860  26.082  1.00  0.00     0.010 A 
ATOM     95  C   UNL A   1      32.202  20.604  23.789  1.00  0.00     0.018 A 
ATOM     96  C   UNL A   1      33.427  19.562  26.054  1.00  0.00     0.029 A 
ATOM     97  C   UNL A   1      32.676  19.289  23.785  1.00  0.00     0.001 A 
ATOM     98  C   UNL A   1      33.293  18.751  24.934  1.00  0.00     0.070 A 
ATOM     99  C   UNL A   1      32.507  18.463  22.668  1.00  0.00     0.012 A 
ATOM    100  N   UNL A   1      33.722  17.480  24.985  1.00  0.00    -0.256 NA
ATOM    101  C   UNL A   1      32.934  17.144  22.725  1.00  0.00     0.021 A 
ATOM    102  C   UNL A   1      33.531  16.707  23.893  1.00  0.00     0.112 A 
ENDBRANCH  92  93
ENDBRANCH  77  85
ENDBRANCH  75  77
ENDBRANCH  74  75
ENDBRANCH  73  74
ENDBRANCH  72  73
ENDBRANCH  71  72
ENDBRANCH   1  71
TORSDOF 21
ENDMDL
MODEL 3
REMARK VINA RESULT:     -11.5      1.956      5.480
REMARK SMILES O=C(OCCOCCOC(=O)[C@@H](Cc1ccccc1)N1C(=O)/C(=C/c2ccc3ncccc3c2)SC1=S)c1ccc(-c2c3nc(c(-c4cccc(S(=O)(=O)[O-])c4F)c4ccc([nH]4)c(-c4cccc(S(=O)(=O)[O-])c4F)c4nc(c(-c5cccc(S(=O)(=O)[O-])c5F)c5ccc2[nH]5)C=C4)C=C3)cc1
REMARK SMILES IDX 5 1 4 2 3 3 2 4 1 5 38 6 39 7 100 8 40 9 99 10 41 11 42 12
REMARK SMILES IDX 43 13 93 14 44 15 98 16 92 17 94 18 45 19 97 20 91 21 90 22
REMARK SMILES IDX 46 24 78 25 58 26 77 27 59 28 62 29 76 30 95 31 60 32 61 33
REMARK SMILES IDX 75 35 96 36 63 37 47 38 48 39 56 40 49 41 51 42 57 43 50 44
REMARK SMILES IDX 52 45 53 46 54 47 55 48 79 49 80 50 88 51 81 52 83 53 89 54
REMARK SMILES IDX 82 55 84 56 85 57 86 58 87 59 64 60 65 61 73 62 66 63 68 64
REMARK SMILES IDX 74 65 67 66 69 67 70 68 71 69 72 70 6 71 7 72 8 73 9 74
REMARK SMILES IDX 10 75 11 76 12 77 13 78 14 79 15 80 19 81 16 82 18 83 17 84
REMARK SMILES IDX 20 85 21 86 36 87 22 88 23 89 35 90 37 91 24 92 25 93 26 94
REMARK SMILES IDX 34 95 27 96 33 97 28 98 32 99 29 100 31 101 30 102
REMARK H PARENT 94 23 62 34
REMARK Flexibility Score: inf
ROOT
ATOM      1  C   UNL A   1      35.933  23.819  24.584  1.00  0.00     0.202 C 
ENDROOT
BRANCH   1   2
ATOM      2  C   UNL A   1      35.905  22.307  24.836  1.00  0.00     0.261 C 
BRANCH   2   3
ATOM      3  O   UNL A   1      36.749  21.893  25.926  1.00  0.00    -0.460 OA
BRANCH   3   4
ATOM      4  C   UNL A   1      38.109  21.811  25.884  1.00  0.00     0.338 C 
ATOM      5  O   UNL A   1      38.655  20.832  25.389  1.00  0.00    -0.246 OA
BRANCH   4   6
ATOM      6  C   UNL A   1      38.941  22.913  26.437  1.00  0.00     0.060 A 
ATOM      7  C   UNL A   1      38.625  24.240  26.191  1.00  0.00     0.016 A 
ATOM      8  C   UNL A   1      40.034  22.650  27.259  1.00  0.00     0.016 A 
ATOM      9  C   UNL A   1      39.426  25.284  26.543  1.00  0.00     0.010 A 
ATOM     10  C   UNL A   1      40.790  23.718  27.763  1.00  0.00     0.010 A 
ATOM     11  C   UNL A   1      40.485  25.036  27.383  1.00  0.00    -0.014 A 
BRANCH  11  12
ATOM     12  C   UNL A   1      41.266  26.220  27.737  1.00  0.00     0.031 A 
ATOM     13  C   UNL A   1      40.633  27.215  28.644  1.00  0.00     0.074 A 
ATOM     14  C   UNL A   1      42.576  26.250  27.416  1.00  0.00     0.049 A 
ATOM     15  N   UNL A   1      41.096  28.359  29.048  1.00  0.00    -0.248 NA
ATOM     16  C   UNL A   1      39.303  26.869  29.182  1.00  0.00     0.031 C 
ATOM     17  C   UNL A   1      43.300  25.190  26.696  1.00  0.00     0.029 A 
ATOM     18  N   UNL A   1      43.540  27.175  27.689  1.00  0.00    -0.354 N 
ATOM     19  C   UNL A   1      40.082  28.913  29.813  1.00  0.00     0.074 A 
ATOM     20  C   UNL A   1      38.993  27.966  29.853  1.00  0.00     0.031 C 
ATOM     21  C   UNL A   1      44.594  25.524  26.598  1.00  0.00     0.029 A 
ATOM     22  C   UNL A   1      44.764  26.860  27.145  1.00  0.00     0.049 A 
ATOM     23  H   UNL A   1      43.378  27.987  28.221  1.00  0.00     0.167 HD
ATOM     24  C   UNL A   1      40.074  30.126  30.403  1.00  0.00     0.034 A 
ATOM     25  C   UNL A   1      45.874  27.611  27.046  1.00  0.00     0.034 A 
ATOM     26  C   UNL A   1      41.195  31.018  30.336  1.00  0.00     0.049 A 
ATOM     27  C   UNL A   1      45.804  28.993  27.629  1.00  0.00     0.074 A 
ATOM     28  C   UNL A   1      41.308  32.305  30.822  1.00  0.00     0.029 A 
ATOM     29  N   UNL A   1      42.407  30.703  29.729  1.00  0.00    -0.354 N 
ATOM     30  N   UNL A   1      44.823  29.551  28.301  1.00  0.00    -0.248 NA
ATOM     31  C   UNL A   1      46.978  29.850  27.448  1.00  0.00     0.031 C 
ATOM     32  C   UNL A   1      42.578  32.779  30.476  1.00  0.00     0.029 A 
ATOM     33  C   UNL A   1      43.273  31.773  29.819  1.00  0.00     0.049 A 
ATOM     34  H   UNL A   1      42.614  29.843  29.299  1.00  0.00     0.167 HD
ATOM     35  C   UNL A   1      45.269  30.817  28.649  1.00  0.00     0.074 A 
ATOM     36  C   UNL A   1      46.621  30.930  28.130  1.00  0.00     0.031 C 
ATOM     37  C   UNL A   1      44.626  31.804  29.319  1.00  0.00     0.034 A 
BRANCH  24  38
ATOM     38  C   UNL A   1      38.799  30.552  31.071  1.00  0.00     0.023 A 
ATOM     39  C   UNL A   1      38.559  30.246  32.426  1.00  0.00     0.012 A 
ATOM     40  C   UNL A   1      37.809  31.222  30.327  1.00  0.00     0.148 A 
ATOM     41  C   UNL A   1      37.337  30.566  33.017  1.00  0.00     0.002 A 
ATOM     42  C   UNL A   1      36.614  31.579  30.936  1.00  0.00     0.091 A 
ATOM     43  F   UNL A   1      38.042  31.466  29.029  1.00  0.00    -0.205 F 
ATOM     44  C   UNL A   1      36.370  31.239  32.276  1.00  0.00     0.022 A 
BRANCH  42  45
ATOM     45  S   UNL A   1      35.330  32.498  30.080  1.00  0.00     0.127 S 
ATOM     46  O   UNL A   1      34.957  31.563  29.019  1.00  0.00    -0.237 OA
ATOM     47  O   UNL A   1      34.325  32.660  31.131  1.00  0.00    -0.237 OA
ATOM     48  O   UNL A   1      35.949  33.735  29.627  1.00  0.00    -0.744 OA
ENDBRANCH  42  45
ENDBRANCH  24  38
BRANCH  25  49
ATOM     49  C   UNL A   1      47.086  27.102  26.341  1.00  0.00     0.023 A 
ATOM     50  C   UNL A   1      47.216  27.286  24.952  1.00  0.00     0.012 A 
ATOM     51  C   UNL A   1      48.120  26.446  27.042  1.00  0.00     0.148 A 
ATOM     52  C   UNL A   1      48.332  26.797  24.270  1.00  0.00     0.002 A 
ATOM     53  C   UNL A   1      49.255  26.011  26.366  1.00  0.00     0.091 A 
ATOM     54  F   UNL A   1      47.980  26.264  28.363  1.00  0.00    -0.205 F 
ATOM     55  C   UNL A   1      49.354  26.167  24.977  1.00  0.00     0.022 A 
BRANCH  53  56
ATOM     56  S   UNL A   1      50.671  25.298  27.213  1.00  0.00     0.127 S 
ATOM     57  O   UNL A   1      51.069  26.388  28.098  1.00  0.00    -0.237 OA
ATOM     58  O   UNL A   1      50.071  24.144  27.885  1.00  0.00    -0.237 OA
ATOM     59  O   UNL A   1      51.624  24.952  26.167  1.00  0.00    -0.744 OA
ENDBRANCH  53  56
ENDBRANCH  25  49
BRANCH  37  60
ATOM     60  C   UNL A   1      45.403  33.063  29.573  1.00  0.00     0.023 A 
ATOM     61  C   UNL A   1      45.332  34.132  28.661  1.00  0.00     0.012 A 
ATOM     62  C   UNL A   1      46.128  33.207  30.770  1.00  0.00     0.148 A 
ATOM     63  C   UNL A   1      46.001  35.323  28.926  1.00  0.00     0.002 A 
ATOM     64  C   UNL A   1      46.740  34.417  31.056  1.00  0.00     0.091 A 
ATOM     65  F   UNL A   1      46.193  32.162  31.609  1.00  0.00    -0.205 F 
ATOM     66  C   UNL A   1      46.691  35.472  30.129  1.00  0.00     0.022 A 
BRANCH  64  67
ATOM     67  S   UNL A   1      47.543  34.733  32.628  1.00  0.00     0.127 S 
ATOM     68  O   UNL A   1      46.403  34.777  33.540  1.00  0.00    -0.237 OA
ATOM     69  O   UNL A   1      48.401  33.556  32.776  1.00  0.00    -0.237 OA
ATOM     70  O   UNL A   1      48.264  35.989  32.468  1.00  0.00    -0.744 OA
ENDBRANCH  64  67
ENDBRANCH  37  60
ENDBRANCH  11  12
ENDBRANCH   4   6
ENDBRANCH   3   4
ENDBRANCH   2   3
ENDBRANCH   1   2
BRANCH   1  71
ATOM     71  O   UNL A   1      34.720  24.559  24.615  1.00  0.00    -0.374 OA
BRANCH  71  72
ATOM     72  C   UNL A   1      34.229  25.097  25.839  1.00  0.00     0.202 C 
BRANCH  72  73
ATOM     73  C   UNL A   1      34.166  26.617  25.690  1.00  0.00     0.261 C 
BRANCH  73  74
ATOM     74  O   UNL A   1      32.786  27.013  25.585  1.00  0.00    -0.462 OA
BRANCH  74  75
ATOM     75  C   UNL A   1      32.449  27.680  24.449  1.00  0.00     0.329 C 
ATOM     76  O   UNL A   1      33.041  28.658  24.010  1.00  0.00    -0.250 OA
BRANCH  75  77
ATOM     77  C   UNL A   1      31.170  27.104  23.804  1.00  0.00     0.206 C 
BRANCH  77  78
ATOM     78  C   UNL A   1      30.554  28.063  22.747  1.00  0.00     0.073 C 
BRANCH  78  79
ATOM     79  C   UNL A   1      29.553  29.163  23.068  1.00  0.00    -0.045 A 
ATOM     80  C   UNL A   1      28.186  28.898  22.854  1.00  0.00     0.004 A 
ATOM     81  C   UNL A   1      29.898  30.444  23.518  1.00  0.00     0.004 A 
ATOM     82  C   UNL A   1      27.208  29.868  23.102  1.00  0.00     0.000 A 
ATOM     83  C   UNL A   1      28.920  31.407  23.787  1.00  0.00     0.000 A 
ATOM     84  C   UNL A   1      27.576  31.122  23.574  1.00  0.00     0.000 A 
ENDBRANCH  78  79
ENDBRANCH  77  78
BRANCH  77  85
ATOM     85  N   UNL A   1      31.481  25.712  23.448  1.00  0.00    -0.278 N 
ATOM     86  C   UNL A   1      30.844  24.752  24.224  1.00  0.00     0.267 C 
ATOM     87  C   UNL A   1      32.104  25.186  22.342  1.00  0.00     0.149 C 
ATOM     88  O   UNL A   1      29.835  24.896  24.904  1.00  0.00    -0.268 OA
ATOM     89  C   UNL A   1      31.539  23.473  24.084  1.00  0.00     0.081 C 
ATOM     90  S   UNL A   1      32.422  23.474  22.617  1.00  0.00    -0.054 SA
ATOM     91  S   UNL A   1      32.522  25.873  20.884  1.00  0.00    -0.052 S 
ATOM     92  C   UNL A   1      31.503  22.554  25.056  1.00  0.00     0.029 C 
BRANCH  92  93
ATOM     93  C   UNL A   1      32.262  21.316  24.952  1.00  0.00    -0.024 A 
ATOM     94  C   UNL A   1      32.905  20.818  26.079  1.00  0.00     0.010 A 
ATOM     95  C   UNL A   1      32.205  20.555  23.782  1.00  0.00     0.018 A 
ATOM     96  C   UNL A   1      33.433  19.527  26.053  1.00  0.00     0.029 A 
ATOM     97  C   UNL A   1      32.697  19.246  23.779  1.00  0.00     0.001 A 
ATOM     98  C   UNL A   1      33.315  18.715  24.932  1.00  0.00     0.070 A 
ATOM     99  C   UNL A   1      32.544  18.419  22.661  1.00  0.00     0.012 A 
ATOM    100  N   UNL A   1      33.760  17.450  24.983  1.00  0.00    -0.256 NA
ATOM    101  C   UNL A   1      32.988  17.106  22.719  1.00  0.00     0.021 A 
ATOM    102  C   UNL A   1      33.584  16.675  23.890  1.00  0.00     0.112 A 
ENDBRANCH  92  93
ENDBRANCH  77  85
ENDBRANCH  75  77
ENDBRANCH  74  75
ENDBRANCH  73  74
ENDBRANCH  72  73
ENDBRANCH  71  72
ENDBRANCH   1  71
TORSDOF 21
ENDMDL
