MODEL 1
REMARK VINA RESULT:     -11.3      0.000      0.000
REMARK SMILES CC[NH2+][C@@]1(C(=O)OCCOCCOC(=O)c2ccc(-c3c4nc(c(-c5cccc(S(=O)(=O)[O-])c5F)c5ccc([nH]5)c(-c5cccc(S(=O)(=O)[O-])c5F)c5nc(c(-c6cccc(S(=O)(=O)[O-])c6F)c6ccc3[nH]6)C=C5)C=C4)cc2)CC[C@H]([NH+]2CCC(C(C)(C)C)CC2)C1
REMARK SMILES IDX 11 1 10 2 9 3 8 4 7 5 5 6 6 7 4 8 79 9 92 10 80 11 81 12
REMARK SMILES IDX 3 13 2 16 1 17 82 18 83 19 91 20 84 22 90 23 85 24 86 25
REMARK SMILES IDX 87 26 88 27 89 28 12 29 13 30 14 31 15 32 16 33 17 34 78 35
REMARK SMILES IDX 18 36 77 37 19 38 20 39 21 40 71 41 22 42 76 43 70 44 72 45
REMARK SMILES IDX 23 46 75 47 69 48 68 49 24 51 56 52 36 53 55 54 37 55 40 56
REMARK SMILES IDX 54 57 73 58 38 59 39 60 53 62 74 63 41 64 25 65 26 66 34 67
REMARK SMILES IDX 27 68 29 69 35 70 28 71 30 72 31 73 32 74 33 75 57 76 58 77
REMARK SMILES IDX 66 78 59 79 61 80 67 81 60 82 62 83 63 84 64 85 65 86 42 87
REMARK SMILES IDX 43 88 51 89 44 90 46 91 52 92 45 93 47 94 48 95 49 96 50 97
REMARK H PARENT 3 14 3 15 82 21 72 50 40 61
REMARK Flexibility Score: inf
ROOT
ATOM      1  C   UNL A   1      35.978  21.218  25.003  1.00  0.00     0.202 C 
ENDROOT
BRANCH   1   2
ATOM      2  O   UNL A   1      35.309  21.816  26.115  1.00  0.00    -0.374 OA
BRANCH   2   3
ATOM      3  C   UNL A   1      35.559  23.203  26.367  1.00  0.00     0.202 C 
BRANCH   3   4
ATOM      4  C   UNL A   1      35.942  24.034  25.143  1.00  0.00     0.261 C 
BRANCH   4   5
ATOM      5  O   UNL A   1      34.800  24.810  24.763  1.00  0.00    -0.459 OA
BRANCH   5   6
ATOM      6  C   UNL A   1      33.994  24.302  23.802  1.00  0.00     0.368 C 
ATOM      7  O   UNL A   1      34.405  23.808  22.757  1.00  0.00    -0.245 OA
BRANCH   6   8
ATOM      8  C   UNL A   1      32.505  24.284  24.272  1.00  0.00     0.200 C 
ATOM      9  C   UNL A   1      31.569  23.832  23.143  1.00  0.00     0.087 C 
ATOM     10  C   UNL A   1      31.923  25.683  24.607  1.00  0.00     0.146 C 
ATOM     11  C   UNL A   1      31.326  25.093  22.322  1.00  0.00     0.072 C 
ATOM     12  C   UNL A   1      31.357  26.278  23.292  1.00  0.00     0.191 C 
BRANCH   8  13
ATOM     13  N   UNL A   1      32.394  23.407  25.480  1.00  0.00    -0.332 N 
ATOM     14  H   UNL A   1      33.312  23.007  25.673  1.00  0.00     0.347 HD
ATOM     15  H   UNL A   1      32.056  23.993  26.244  1.00  0.00     0.347 HD
BRANCH  13  16
ATOM     16  C   UNL A   1      31.433  22.309  25.327  1.00  0.00     0.257 C 
ATOM     17  C   UNL A   1      32.165  21.003  25.062  1.00  0.00     0.071 C 
ENDBRANCH  13  16
ENDBRANCH   8  13
BRANCH  12  18
ATOM     18  N   UNL A   1      31.893  27.562  22.818  1.00  0.00    -0.332 N 
ATOM     19  C   UNL A   1      33.330  27.797  23.015  1.00  0.00     0.262 C 
ATOM     20  C   UNL A   1      31.187  28.795  23.130  1.00  0.00     0.262 C 
ATOM     21  H   UNL A   1      31.707  27.367  21.834  1.00  0.00     0.348 HD
ATOM     22  C   UNL A   1      33.742  28.317  24.405  1.00  0.00     0.066 C 
ATOM     23  C   UNL A   1      31.346  29.236  24.571  1.00  0.00     0.066 C 
ATOM     24  C   UNL A   1      32.795  29.361  25.057  1.00  0.00     0.005 C 
BRANCH  24  25
ATOM     25  C   UNL A   1      32.866  29.411  26.645  1.00  0.00    -0.035 C 
ATOM     26  C   UNL A   1      32.634  30.854  27.127  1.00  0.00     0.011 C 
ATOM     27  C   UNL A   1      31.773  28.511  27.269  1.00  0.00     0.011 C 
ATOM     28  C   UNL A   1      34.211  28.934  27.239  1.00  0.00     0.011 C 
ENDBRANCH  24  25
ENDBRANCH  12  18
ENDBRANCH   6   8
ENDBRANCH   5   6
ENDBRANCH   4   5
ENDBRANCH   3   4
ENDBRANCH   2   3
ENDBRANCH   1   2
BRANCH   1  29
ATOM     29  C   UNL A   1      37.231  20.383  25.312  1.00  0.00     0.261 C 
BRANCH  29  30
ATOM     30  O   UNL A   1      38.474  21.057  25.048  1.00  0.00    -0.460 OA
BRANCH  30  31
ATOM     31  C   UNL A   1      39.436  20.878  25.983  1.00  0.00     0.338 C 
ATOM     32  O   UNL A   1      40.046  19.841  26.220  1.00  0.00    -0.246 OA
BRANCH  31  33
ATOM     33  C   UNL A   1      39.795  22.162  26.617  1.00  0.00     0.060 A 
ATOM     34  C   UNL A   1      39.164  23.321  26.150  1.00  0.00     0.016 A 
ATOM     35  C   UNL A   1      40.801  22.248  27.582  1.00  0.00     0.016 A 
ATOM     36  C   UNL A   1      39.575  24.575  26.604  1.00  0.00     0.010 A 
ATOM     37  C   UNL A   1      41.203  23.509  28.044  1.00  0.00     0.010 A 
ATOM     38  C   UNL A   1      40.627  24.683  27.524  1.00  0.00    -0.014 A 
BRANCH  38  39
ATOM     39  C   UNL A   1      41.226  26.016  27.807  1.00  0.00     0.031 A 
ATOM     40  C   UNL A   1      42.620  26.315  27.314  1.00  0.00     0.074 A 
ATOM     41  C   UNL A   1      40.544  26.966  28.475  1.00  0.00     0.049 A 
ATOM     42  N   UNL A   1      43.339  27.398  27.460  1.00  0.00    -0.248 NA
ATOM     43  C   UNL A   1      43.295  25.246  26.558  1.00  0.00     0.031 C 
ATOM     44  C   UNL A   1      39.188  26.820  29.004  1.00  0.00     0.029 A 
ATOM     45  N   UNL A   1      40.911  28.239  28.840  1.00  0.00    -0.354 N 
ATOM     46  C   UNL A   1      44.560  27.131  26.849  1.00  0.00     0.074 A 
ATOM     47  C   UNL A   1      44.491  25.777  26.346  1.00  0.00     0.031 C 
ATOM     48  C   UNL A   1      38.846  27.951  29.645  1.00  0.00     0.029 A 
ATOM     49  C   UNL A   1      39.966  28.891  29.596  1.00  0.00     0.049 A 
ATOM     50  H   UNL A   1      41.771  28.645  28.585  1.00  0.00     0.167 HD
ATOM     51  C   UNL A   1      45.636  27.940  26.701  1.00  0.00     0.034 A 
ATOM     52  C   UNL A   1      40.006  30.097  30.200  1.00  0.00     0.034 A 
ATOM     53  C   UNL A   1      45.703  29.297  27.174  1.00  0.00     0.049 A 
ATOM     54  C   UNL A   1      41.226  30.971  30.042  1.00  0.00     0.074 A 
ATOM     55  C   UNL A   1      46.732  30.209  27.018  1.00  0.00     0.029 A 
ATOM     56  N   UNL A   1      44.712  29.931  27.905  1.00  0.00    -0.354 N 
ATOM     57  N   UNL A   1      42.323  30.747  29.360  1.00  0.00    -0.248 NA
ATOM     58  C   UNL A   1      41.199  32.281  30.712  1.00  0.00     0.031 C 
ATOM     59  C   UNL A   1      46.379  31.385  27.690  1.00  0.00     0.029 A 
ATOM     60  C   UNL A   1      45.111  31.218  28.225  1.00  0.00     0.049 A 
ATOM     61  H   UNL A   1      43.851  29.527  28.159  1.00  0.00     0.167 HD
ATOM     62  C   UNL A   1      43.094  31.898  29.485  1.00  0.00     0.074 A 
ATOM     63  C   UNL A   1      42.333  32.826  30.293  1.00  0.00     0.031 C 
ATOM     64  C   UNL A   1      44.328  32.159  28.984  1.00  0.00     0.034 A 
BRANCH  51  65
ATOM     65  C   UNL A   1      46.836  27.383  25.980  1.00  0.00     0.023 A 
ATOM     66  C   UNL A   1      47.680  26.460  26.629  1.00  0.00     0.012 A 
ATOM     67  C   UNL A   1      47.095  27.732  24.639  1.00  0.00     0.148 A 
ATOM     68  C   UNL A   1      48.784  25.920  25.968  1.00  0.00     0.002 A 
ATOM     69  C   UNL A   1      48.167  27.153  23.972  1.00  0.00     0.091 A 
ATOM     70  F   UNL A   1      46.292  28.626  24.044  1.00  0.00    -0.205 F 
ATOM     71  C   UNL A   1      49.020  26.258  24.638  1.00  0.00     0.022 A 
BRANCH  69  72
ATOM     72  S   UNL A   1      48.507  27.458  22.234  1.00  0.00     0.127 S 
ATOM     73  O   UNL A   1      49.753  28.220  22.307  1.00  0.00    -0.237 OA
ATOM     74  O   UNL A   1      48.652  26.101  21.707  1.00  0.00    -0.237 OA
ATOM     75  O   UNL A   1      47.357  28.190  21.721  1.00  0.00    -0.744 OA
ENDBRANCH  69  72
ENDBRANCH  51  65
BRANCH  52  76
ATOM     76  C   UNL A   1      38.839  30.570  31.000  1.00  0.00     0.023 A 
ATOM     77  C   UNL A   1      38.804  30.341  32.390  1.00  0.00     0.012 A 
ATOM     78  C   UNL A   1      37.765  31.244  30.388  1.00  0.00     0.148 A 
ATOM     79  C   UNL A   1      37.705  30.744  33.148  1.00  0.00     0.002 A 
ATOM     80  C   UNL A   1      36.700  31.696  31.159  1.00  0.00     0.091 A 
ATOM     81  F   UNL A   1      37.808  31.435  29.062  1.00  0.00    -0.205 F 
ATOM     82  C   UNL A   1      36.659  31.429  32.536  1.00  0.00     0.022 A 
BRANCH  80  83
ATOM     83  S   UNL A   1      35.375  32.698  30.478  1.00  0.00     0.127 S 
ATOM     84  O   UNL A   1      34.986  31.922  29.304  1.00  0.00    -0.237 OA
ATOM     85  O   UNL A   1      34.404  32.693  31.573  1.00  0.00    -0.237 OA
ATOM     86  O   UNL A   1      35.965  34.002  30.206  1.00  0.00    -0.744 OA
ENDBRANCH  80  83
ENDBRANCH  52  76
BRANCH  64  87
ATOM     87  C   UNL A   1      44.927  33.519  29.244  1.00  0.00     0.023 A 
ATOM     88  C   UNL A   1      45.682  33.749  30.412  1.00  0.00     0.012 A 
ATOM     89  C   UNL A   1      44.808  34.549  28.288  1.00  0.00     0.148 A 
ATOM     90  C   UNL A   1      46.277  34.990  30.641  1.00  0.00     0.002 A 
ATOM     91  C   UNL A   1      45.447  35.765  28.497  1.00  0.00     0.091 A 
ATOM     92  F   UNL A   1      44.074  34.318  27.189  1.00  0.00    -0.205 F 
ATOM     93  C   UNL A   1      46.169  35.993  29.679  1.00  0.00     0.022 A 
BRANCH  91  94
ATOM     94  S   UNL A   1      45.446  37.080  27.272  1.00  0.00     0.127 S 
ATOM     95  O   UNL A   1      46.079  36.422  26.129  1.00  0.00    -0.237 OA
ATOM     96  O   UNL A   1      44.017  37.347  27.107  1.00  0.00    -0.237 OA
ATOM     97  O   UNL A   1      46.203  38.177  27.858  1.00  0.00    -0.744 OA
ENDBRANCH  91  94
ENDBRANCH  64  87
ENDBRANCH  38  39
ENDBRANCH  31  33
ENDBRANCH  30  31
ENDBRANCH  29  30
ENDBRANCH   1  29
TORSDOF 21
ENDMDL
MODEL 2
REMARK VINA RESULT:     -11.2      1.729      7.743
REMARK SMILES CC[NH2+][C@@]1(C(=O)OCCOCCOC(=O)c2ccc(-c3c4nc(c(-c5cccc(S(=O)(=O)[O-])c5F)c5ccc([nH]5)c(-c5cccc(S(=O)(=O)[O-])c5F)c5nc(c(-c6cccc(S(=O)(=O)[O-])c6F)c6ccc3[nH]6)C=C5)C=C4)cc2)CC[C@H]([NH+]2CCC(C(C)(C)C)CC2)C1
REMARK SMILES IDX 11 1 10 2 9 3 8 4 7 5 5 6 6 7 4 8 79 9 92 10 80 11 81 12
REMARK SMILES IDX 3 13 2 16 1 17 82 18 83 19 91 20 84 22 90 23 85 24 86 25
REMARK SMILES IDX 87 26 88 27 89 28 12 29 13 30 14 31 15 32 16 33 17 34 78 35
REMARK SMILES IDX 18 36 77 37 19 38 20 39 21 40 71 41 22 42 76 43 70 44 72 45
REMARK SMILES IDX 23 46 75 47 69 48 68 49 24 51 56 52 36 53 55 54 37 55 40 56
REMARK SMILES IDX 54 57 73 58 38 59 39 60 53 62 74 63 41 64 25 65 26 66 34 67
REMARK SMILES IDX 27 68 29 69 35 70 28 71 30 72 31 73 32 74 33 75 57 76 58 77
REMARK SMILES IDX 66 78 59 79 61 80 67 81 60 82 62 83 63 84 64 85 65 86 42 87
REMARK SMILES IDX 43 88 51 89 44 90 46 91 52 92 45 93 47 94 48 95 49 96 50 97
REMARK H PARENT 3 14 3 15 82 21 72 50 40 61
REMARK Flexibility Score: inf
ROOT
ATOM      1  C   UNL A   1      35.313  21.349  24.995  1.00  0.00     0.202 C 
ENDROOT
BRANCH   1   2
ATOM      2  O   UNL A   1      34.132  20.683  24.543  1.00  0.00    -0.374 OA
BRANCH   2   3
ATOM      3  C   UNL A   1      33.162  21.465  23.837  1.00  0.00     0.202 C 
BRANCH   3   4
ATOM      4  C   UNL A   1      33.607  22.878  23.459  1.00  0.00     0.261 C 
BRANCH   4   5
ATOM      5  O   UNL A   1      32.652  23.798  23.998  1.00  0.00    -0.459 OA
BRANCH   5   6
ATOM      6  C   UNL A   1      33.049  24.575  25.032  1.00  0.00     0.368 C 
ATOM      7  O   UNL A   1      34.195  24.991  25.172  1.00  0.00    -0.245 OA
BRANCH   6   8
ATOM      8  C   UNL A   1      31.833  24.994  25.918  1.00  0.00     0.200 C 
ATOM      9  C   UNL A   1      30.509  24.829  25.161  1.00  0.00     0.087 C 
ATOM     10  C   UNL A   1      31.793  26.503  26.276  1.00  0.00     0.146 C 
ATOM     11  C   UNL A   1      30.383  26.102  24.332  1.00  0.00     0.072 C 
ATOM     12  C   UNL A   1      31.037  27.231  25.134  1.00  0.00     0.191 C 
BRANCH   8  13
ATOM     13  N   UNL A   1      31.861  24.193  27.182  1.00  0.00    -0.332 N 
ATOM     14  H   UNL A   1      32.584  24.578  27.790  1.00  0.00     0.347 HD
ATOM     15  H   UNL A   1      30.931  24.255  27.595  1.00  0.00     0.347 HD
BRANCH  13  16
ATOM     16  C   UNL A   1      32.143  22.768  26.973  1.00  0.00     0.257 C 
ATOM     17  C   UNL A   1      33.255  22.311  27.903  1.00  0.00     0.071 C 
ENDBRANCH  13  16
ENDBRANCH   8  13
BRANCH  12  18
ATOM     18  N   UNL A   1      31.734  28.301  24.405  1.00  0.00    -0.332 N 
ATOM     19  C   UNL A   1      31.527  29.675  24.882  1.00  0.00     0.262 C 
ATOM     20  C   UNL A   1      31.705  28.318  22.951  1.00  0.00     0.262 C 
ATOM     21  H   UNL A   1      32.666  27.981  24.669  1.00  0.00     0.348 HD
ATOM     22  C   UNL A   1      30.252  30.377  24.377  1.00  0.00     0.066 C 
ATOM     23  C   UNL A   1      30.376  28.765  22.377  1.00  0.00     0.066 C 
ATOM     24  C   UNL A   1      29.863  30.113  22.896  1.00  0.00     0.005 C 
BRANCH  24  25
ATOM     25  C   UNL A   1      28.316  30.300  22.581  1.00  0.00    -0.035 C 
ATOM     26  C   UNL A   1      27.573  28.978  22.840  1.00  0.00     0.011 C 
ATOM     27  C   UNL A   1      27.699  31.388  23.493  1.00  0.00     0.011 C 
ATOM     28  C   UNL A   1      28.007  30.728  21.127  1.00  0.00     0.011 C 
ENDBRANCH  24  25
ENDBRANCH  12  18
ENDBRANCH   6   8
ENDBRANCH   5   6
ENDBRANCH   4   5
ENDBRANCH   3   4
ENDBRANCH   2   3
ENDBRANCH   1   2
BRANCH   1  29
ATOM     29  C   UNL A   1      36.631  20.564  24.907  1.00  0.00     0.261 C 
BRANCH  29  30
ATOM     30  O   UNL A   1      37.810  21.386  24.837  1.00  0.00    -0.460 OA
BRANCH  30  31
ATOM     31  C   UNL A   1      38.788  21.066  25.716  1.00  0.00     0.338 C 
ATOM     32  O   UNL A   1      39.294  19.960  25.880  1.00  0.00    -0.246 OA
BRANCH  31  33
ATOM     33  C   UNL A   1      39.310  22.275  26.381  1.00  0.00     0.060 A 
ATOM     34  C   UNL A   1      38.737  23.507  26.045  1.00  0.00     0.016 A 
ATOM     35  C   UNL A   1      40.406  22.221  27.246  1.00  0.00     0.016 A 
ATOM     36  C   UNL A   1      39.291  24.694  26.525  1.00  0.00     0.010 A 
ATOM     37  C   UNL A   1      40.953  23.415  27.735  1.00  0.00     0.010 A 
ATOM     38  C   UNL A   1      40.430  24.661  27.341  1.00  0.00    -0.014 A 
BRANCH  38  39
ATOM     39  C   UNL A   1      41.162  25.923  27.638  1.00  0.00     0.031 A 
ATOM     40  C   UNL A   1      40.453  27.023  28.391  1.00  0.00     0.074 A 
ATOM     41  C   UNL A   1      42.445  26.096  27.268  1.00  0.00     0.049 A 
ATOM     42  N   UNL A   1      40.891  28.204  28.742  1.00  0.00    -0.248 NA
ATOM     43  C   UNL A   1      39.064  26.753  28.798  1.00  0.00     0.031 C 
ATOM     44  C   UNL A   1      43.255  25.119  26.543  1.00  0.00     0.029 A 
ATOM     45  N   UNL A   1      43.285  27.171  27.437  1.00  0.00    -0.354 N 
ATOM     46  C   UNL A   1      39.824  28.833  29.377  1.00  0.00     0.074 A 
ATOM     47  C   UNL A   1      38.713  27.907  29.348  1.00  0.00     0.031 C 
ATOM     48  C   UNL A   1      44.469  25.647  26.308  1.00  0.00     0.029 A 
ATOM     49  C   UNL A   1      44.515  27.008  26.843  1.00  0.00     0.049 A 
ATOM     50  H   UNL A   1      43.031  27.980  27.935  1.00  0.00     0.167 HD
ATOM     51  C   UNL A   1      39.774  30.059  29.950  1.00  0.00     0.034 A 
ATOM     52  C   UNL A   1      45.550  27.865  26.723  1.00  0.00     0.034 A 
ATOM     53  C   UNL A   1      40.882  30.974  30.009  1.00  0.00     0.049 A 
ATOM     54  C   UNL A   1      45.462  29.235  27.348  1.00  0.00     0.074 A 
ATOM     55  C   UNL A   1      40.939  32.215  30.619  1.00  0.00     0.029 A 
ATOM     56  N   UNL A   1      42.120  30.758  29.425  1.00  0.00    -0.354 N 
ATOM     57  N   UNL A   1      44.488  29.766  28.047  1.00  0.00    -0.248 NA
ATOM     58  C   UNL A   1      46.631  30.115  27.194  1.00  0.00     0.031 C 
ATOM     59  C   UNL A   1      42.200  32.767  30.371  1.00  0.00     0.029 A 
ATOM     60  C   UNL A   1      42.943  31.851  29.645  1.00  0.00     0.049 A 
ATOM     61  H   UNL A   1      42.377  29.948  28.928  1.00  0.00     0.167 HD
ATOM     62  C   UNL A   1      44.941  31.018  28.449  1.00  0.00     0.074 A 
ATOM     63  C   UNL A   1      46.285  31.162  27.931  1.00  0.00     0.031 C 
ATOM     64  C   UNL A   1      44.299  31.968  29.174  1.00  0.00     0.034 A 
BRANCH  51  65
ATOM     65  C   UNL A   1      38.473  30.483  30.581  1.00  0.00     0.023 A 
ATOM     66  C   UNL A   1      38.216  30.181  31.934  1.00  0.00     0.012 A 
ATOM     67  C   UNL A   1      37.529  31.231  29.849  1.00  0.00     0.148 A 
ATOM     68  C   UNL A   1      37.025  30.583  32.538  1.00  0.00     0.002 A 
ATOM     69  C   UNL A   1      36.367  31.671  30.471  1.00  0.00     0.091 A 
ATOM     70  F   UNL A   1      37.782  31.492  28.559  1.00  0.00    -0.205 F 
ATOM     71  C   UNL A   1      36.108  31.337  31.810  1.00  0.00     0.022 A 
BRANCH  69  72
ATOM     72  S   UNL A   1      35.162  32.717  29.647  1.00  0.00     0.127 S 
ATOM     73  O   UNL A   1      34.546  31.777  28.711  1.00  0.00    -0.237 OA
ATOM     74  O   UNL A   1      34.300  33.126  30.756  1.00  0.00    -0.237 OA
ATOM     75  O   UNL A   1      35.920  33.799  29.034  1.00  0.00    -0.744 OA
ENDBRANCH  69  72
ENDBRANCH  51  65
BRANCH  52  76
ATOM     76  C   UNL A   1      46.783  27.448  25.993  1.00  0.00     0.023 A 
ATOM     77  C   UNL A   1      46.911  27.726  24.618  1.00  0.00     0.012 A 
ATOM     78  C   UNL A   1      47.827  26.777  26.658  1.00  0.00     0.148 A 
ATOM     79  C   UNL A   1      48.041  27.311  23.912  1.00  0.00     0.002 A 
ATOM     80  C   UNL A   1      48.976  26.420  25.962  1.00  0.00     0.091 A 
ATOM     81  F   UNL A   1      47.678  26.505  27.963  1.00  0.00    -0.205 F 
ATOM     82  C   UNL A   1      49.076  26.668  24.584  1.00  0.00     0.022 A 
BRANCH  80  83
ATOM     83  S   UNL A   1      50.410  25.707  26.773  1.00  0.00     0.127 S 
ATOM     84  O   UNL A   1      49.859  24.472  27.325  1.00  0.00    -0.237 OA
ATOM     85  O   UNL A   1      51.329  25.524  25.648  1.00  0.00    -0.237 OA
ATOM     86  O   UNL A   1      50.846  26.696  27.748  1.00  0.00    -0.744 OA
ENDBRANCH  80  83
ENDBRANCH  52  76
BRANCH  64  87
ATOM     87  C   UNL A   1      45.046  33.238  29.502  1.00  0.00     0.023 A 
ATOM     88  C   UNL A   1      45.848  33.308  30.659  1.00  0.00     0.012 A 
ATOM     89  C   UNL A   1      45.014  34.336  28.618  1.00  0.00     0.148 A 
ATOM     90  C   UNL A   1      46.577  34.462  30.949  1.00  0.00     0.002 A 
ATOM     91  C   UNL A   1      45.784  35.462  28.886  1.00  0.00     0.091 A 
ATOM     92  F   UNL A   1      44.235  34.257  27.530  1.00  0.00    -0.205 F 
ATOM     93  C   UNL A   1      46.554  35.533  30.057  1.00  0.00     0.022 A 
BRANCH  91  94
ATOM     94  S   UNL A   1      45.894  36.848  27.748  1.00  0.00     0.127 S 
ATOM     95  O   UNL A   1      46.723  37.788  28.504  1.00  0.00    -0.237 OA
ATOM     96  O   UNL A   1      46.557  36.246  26.591  1.00  0.00    -0.237 OA
ATOM     97  O   UNL A   1      44.526  37.280  27.504  1.00  0.00    -0.744 OA
ENDBRANCH  91  94
ENDBRANCH  64  87
ENDBRANCH  38  39
ENDBRANCH  31  33
ENDBRANCH  30  31
ENDBRANCH  29  30
ENDBRANCH   1  29
TORSDOF 21
ENDMDL
MODEL 3
REMARK VINA RESULT:     -10.8      1.303      2.208
REMARK SMILES CC[NH2+][C@@]1(C(=O)OCCOCCOC(=O)c2ccc(-c3c4nc(c(-c5cccc(S(=O)(=O)[O-])c5F)c5ccc([nH]5)c(-c5cccc(S(=O)(=O)[O-])c5F)c5nc(c(-c6cccc(S(=O)(=O)[O-])c6F)c6ccc3[nH]6)C=C5)C=C4)cc2)CC[C@H]([NH+]2CCC(C(C)(C)C)CC2)C1
REMARK SMILES IDX 11 1 10 2 9 3 8 4 7 5 5 6 6 7 4 8 79 9 92 10 80 11 81 12
REMARK SMILES IDX 3 13 2 16 1 17 82 18 83 19 91 20 84 22 90 23 85 24 86 25
REMARK SMILES IDX 87 26 88 27 89 28 12 29 13 30 14 31 15 32 16 33 17 34 78 35
REMARK SMILES IDX 18 36 77 37 19 38 20 39 21 40 71 41 22 42 76 43 70 44 72 45
REMARK SMILES IDX 23 46 75 47 69 48 68 49 24 51 56 52 36 53 55 54 37 55 40 56
REMARK SMILES IDX 54 57 73 58 38 59 39 60 53 62 74 63 41 64 25 65 26 66 34 67
REMARK SMILES IDX 27 68 29 69 35 70 28 71 30 72 31 73 32 74 33 75 57 76 58 77
REMARK SMILES IDX 66 78 59 79 61 80 67 81 60 82 62 83 63 84 64 85 65 86 42 87
REMARK SMILES IDX 43 88 51 89 44 90 46 91 52 92 45 93 47 94 48 95 49 96 50 97
REMARK H PARENT 3 14 3 15 82 21 72 50 40 61
REMARK Flexibility Score: inf
ROOT
ATOM      1  C   UNL A   1      37.354  19.325  24.461  1.00  0.00     0.202 C 
ENDROOT
BRANCH   1   2
ATOM      2  O   UNL A   1      36.051  19.379  25.047  1.00  0.00    -0.374 OA
BRANCH   2   3
ATOM      3  C   UNL A   1      35.110  18.373  24.658  1.00  0.00     0.202 C 
BRANCH   3   4
ATOM      4  C   UNL A   1      33.660  18.843  24.538  1.00  0.00     0.261 C 
BRANCH   4   5
ATOM      5  O   UNL A   1      33.469  19.920  25.462  1.00  0.00    -0.459 OA
BRANCH   5   6
ATOM      6  C   UNL A   1      32.790  21.005  25.022  1.00  0.00     0.368 C 
ATOM      7  O   UNL A   1      31.580  21.017  24.818  1.00  0.00    -0.245 OA
BRANCH   6   8
ATOM      8  C   UNL A   1      33.716  22.262  24.969  1.00  0.00     0.200 C 
ATOM      9  C   UNL A   1      33.975  22.823  26.373  1.00  0.00     0.087 C 
ATOM     10  C   UNL A   1      33.085  23.491  24.262  1.00  0.00     0.146 C 
ATOM     11  C   UNL A   1      32.759  23.694  26.666  1.00  0.00     0.072 C 
ATOM     12  C   UNL A   1      32.295  24.288  25.333  1.00  0.00     0.191 C 
BRANCH   8  13
ATOM     13  N   UNL A   1      34.985  21.894  24.267  1.00  0.00    -0.332 N 
ATOM     14  H   UNL A   1      35.656  21.569  24.964  1.00  0.00     0.347 HD
ATOM     15  H   UNL A   1      34.750  21.171  23.586  1.00  0.00     0.347 HD
BRANCH  13  16
ATOM     16  C   UNL A   1      35.592  23.003  23.522  1.00  0.00     0.257 C 
ATOM     17  C   UNL A   1      37.044  23.182  23.936  1.00  0.00     0.071 C 
ENDBRANCH  13  16
ENDBRANCH   8  13
BRANCH  12  18
ATOM     18  N   UNL A   1      30.857  24.507  25.121  1.00  0.00    -0.332 N 
ATOM     19  C   UNL A   1      30.415  24.735  23.739  1.00  0.00     0.262 C 
ATOM     20  C   UNL A   1      30.136  25.429  25.984  1.00  0.00     0.262 C 
ATOM     21  H   UNL A   1      30.590  23.569  25.419  1.00  0.00     0.348 HD
ATOM     22  C   UNL A   1      30.552  26.178  23.218  1.00  0.00     0.066 C 
ATOM     23  C   UNL A   1      30.423  26.887  25.687  1.00  0.00     0.066 C 
ATOM     24  C   UNL A   1      30.211  27.308  24.227  1.00  0.00     0.005 C 
BRANCH  24  25
ATOM     25  C   UNL A   1      30.919  28.698  23.921  1.00  0.00    -0.035 C 
ATOM     26  C   UNL A   1      29.871  29.718  23.443  1.00  0.00     0.011 C 
ATOM     27  C   UNL A   1      31.594  29.259  25.196  1.00  0.00     0.011 C 
ATOM     28  C   UNL A   1      32.024  28.628  22.842  1.00  0.00     0.011 C 
ENDBRANCH  24  25
ENDBRANCH  12  18
ENDBRANCH   6   8
ENDBRANCH   5   6
ENDBRANCH   4   5
ENDBRANCH   3   4
ENDBRANCH   2   3
ENDBRANCH   1   2
BRANCH   1  29
ATOM     29  C   UNL A   1      38.550  19.327  25.426  1.00  0.00     0.261 C 
BRANCH  29  30
ATOM     30  O   UNL A   1      39.106  20.630  25.680  1.00  0.00    -0.460 OA
BRANCH  30  31
ATOM     31  C   UNL A   1      40.229  20.638  26.436  1.00  0.00     0.338 C 
ATOM     32  O   UNL A   1      41.047  19.731  26.546  1.00  0.00    -0.246 OA
BRANCH  31  33
ATOM     33  C   UNL A   1      40.454  21.973  27.023  1.00  0.00     0.060 A 
ATOM     34  C   UNL A   1      39.768  23.058  26.466  1.00  0.00     0.016 A 
ATOM     35  C   UNL A   1      41.393  22.180  28.037  1.00  0.00     0.016 A 
ATOM     36  C   UNL A   1      40.058  24.359  26.879  1.00  0.00     0.010 A 
ATOM     37  C   UNL A   1      41.674  23.487  28.457  1.00  0.00     0.010 A 
ATOM     38  C   UNL A   1      41.044  24.589  27.849  1.00  0.00    -0.014 A 
BRANCH  38  39
ATOM     39  C   UNL A   1      41.525  25.976  28.098  1.00  0.00     0.031 A 
ATOM     40  C   UNL A   1      42.902  26.371  27.626  1.00  0.00     0.074 A 
ATOM     41  C   UNL A   1      40.751  26.888  28.717  1.00  0.00     0.049 A 
ATOM     42  N   UNL A   1      43.527  27.514  27.749  1.00  0.00    -0.248 NA
ATOM     43  C   UNL A   1      43.681  25.337  26.923  1.00  0.00     0.031 C 
ATOM     44  C   UNL A   1      39.399  26.649  29.220  1.00  0.00     0.029 A 
ATOM     45  N   UNL A   1      41.005  28.198  29.045  1.00  0.00    -0.354 N 
ATOM     46  C   UNL A   1      44.780  27.327  27.175  1.00  0.00     0.074 A 
ATOM     47  C   UNL A   1      44.834  25.956  26.719  1.00  0.00     0.031 C 
ATOM     48  C   UNL A   1      38.950  27.768  29.813  1.00  0.00     0.029 A 
ATOM     49  C   UNL A   1      39.990  28.795  29.756  1.00  0.00     0.049 A 
ATOM     50  H   UNL A   1      41.834  28.665  28.794  1.00  0.00     0.167 HD
ATOM     51  C   UNL A   1      45.790  28.217  27.023  1.00  0.00     0.034 A 
ATOM     52  C   UNL A   1      39.918  30.020  30.317  1.00  0.00     0.034 A 
ATOM     53  C   UNL A   1      45.735  29.590  27.449  1.00  0.00     0.049 A 
ATOM     54  C   UNL A   1      41.066  30.985  30.156  1.00  0.00     0.074 A 
ATOM     55  C   UNL A   1      46.689  30.578  27.284  1.00  0.00     0.029 A 
ATOM     56  N   UNL A   1      44.677  30.165  28.135  1.00  0.00    -0.354 N 
ATOM     57  N   UNL A   1      42.194  30.830  29.506  1.00  0.00    -0.248 NA
ATOM     58  C   UNL A   1      40.915  32.311  30.778  1.00  0.00     0.031 C 
ATOM     59  C   UNL A   1      46.225  31.743  27.906  1.00  0.00     0.029 A 
ATOM     60  C   UNL A   1      44.963  31.490  28.418  1.00  0.00     0.049 A 
ATOM     61  H   UNL A   1      43.846  29.700  28.384  1.00  0.00     0.167 HD
ATOM     62  C   UNL A   1      42.866  32.044  29.608  1.00  0.00     0.074 A 
ATOM     63  C   UNL A   1      42.012  32.932  30.366  1.00  0.00     0.031 C 
ATOM     64  C   UNL A   1      44.086  32.388  29.125  1.00  0.00     0.034 A 
BRANCH  51  65
ATOM     65  C   UNL A   1      47.049  27.737  26.348  1.00  0.00     0.023 A 
ATOM     66  C   UNL A   1      48.028  27.050  27.094  1.00  0.00     0.012 A 
ATOM     67  C   UNL A   1      47.236  27.917  24.963  1.00  0.00     0.148 A 
ATOM     68  C   UNL A   1      49.190  26.582  26.481  1.00  0.00     0.002 A 
ATOM     69  C   UNL A   1      48.373  27.405  24.350  1.00  0.00     0.091 A 
ATOM     70  F   UNL A   1      46.304  28.589  24.274  1.00  0.00    -0.205 F 
ATOM     71  C   UNL A   1      49.356  26.750  25.109  1.00  0.00     0.022 A 
BRANCH  69  72
ATOM     72  S   UNL A   1      48.642  27.495  22.576  1.00  0.00     0.127 S 
ATOM     73  O   UNL A   1      49.893  28.248  22.505  1.00  0.00    -0.237 OA
ATOM     74  O   UNL A   1      48.758  26.083  22.211  1.00  0.00    -0.237 OA
ATOM     75  O   UNL A   1      47.475  28.171  22.026  1.00  0.00    -0.744 OA
ENDBRANCH  69  72
ENDBRANCH  51  65
BRANCH  52  76
ATOM     76  C   UNL A   1      38.696  30.422  31.074  1.00  0.00     0.023 A 
ATOM     77  C   UNL A   1      38.595  30.127  32.449  1.00  0.00     0.012 A 
ATOM     78  C   UNL A   1      37.636  31.094  30.437  1.00  0.00     0.148 A 
ATOM     79  C   UNL A   1      37.446  30.463  33.164  1.00  0.00     0.002 A 
ATOM     80  C   UNL A   1      36.519  31.478  31.169  1.00  0.00     0.091 A 
ATOM     81  F   UNL A   1      37.742  31.348  29.124  1.00  0.00    -0.205 F 
ATOM     82  C   UNL A   1      36.413  31.146  32.528  1.00  0.00     0.022 A 
BRANCH  80  83
ATOM     83  S   UNL A   1      35.202  32.475  30.464  1.00  0.00     0.127 S 
ATOM     84  O   UNL A   1      34.254  32.546  31.573  1.00  0.00    -0.237 OA
ATOM     85  O   UNL A   1      35.900  33.726  30.166  1.00  0.00    -0.237 OA
ATOM     86  O   UNL A   1      34.743  31.749  29.287  1.00  0.00    -0.744 OA
ENDBRANCH  80  83
ENDBRANCH  52  76
BRANCH  64  87
ATOM     87  C   UNL A   1      44.567  33.801  29.350  1.00  0.00     0.023 A 
ATOM     88  C   UNL A   1      45.290  34.126  30.516  1.00  0.00     0.012 A 
ATOM     89  C   UNL A   1      44.368  34.790  28.365  1.00  0.00     0.148 A 
ATOM     90  C   UNL A   1      45.775  35.419  30.713  1.00  0.00     0.002 A 
ATOM     91  C   UNL A   1      44.900  36.062  28.544  1.00  0.00     0.091 A 
ATOM     92  F   UNL A   1      43.666  34.467  27.269  1.00  0.00    -0.205 F 
ATOM     93  C   UNL A   1      45.591  36.382  29.722  1.00  0.00     0.022 A 
BRANCH  91  94
ATOM     94  S   UNL A   1      44.799  37.337  27.282  1.00  0.00     0.127 S 
ATOM     95  O   UNL A   1      45.882  36.950  26.379  1.00  0.00    -0.237 OA
ATOM     96  O   UNL A   1      43.454  37.132  26.743  1.00  0.00    -0.237 OA
ATOM     97  O   UNL A   1      44.986  38.604  27.974  1.00  0.00    -0.744 OA
ENDBRANCH  91  94
ENDBRANCH  64  87
ENDBRANCH  38  39
ENDBRANCH  31  33
ENDBRANCH  30  31
ENDBRANCH  29  30
ENDBRANCH   1  29
TORSDOF 21
ENDMDL
