MODEL 1
REMARK VINA RESULT:     -10.5      0.000      0.000
REMARK SMILES C[C@H](NC(=O)N(CC(=O)OCCOCCOC(=O)c1ccc(-c2c3nc(c(-c4cccc(S(=O)(=O)[O-])c4F)c4ccc([nH]4)c(-c4cccc(S(=O)(=O)[O-])c4F)c4nc(c(-c5cccc(S(=O)(=O)[O-])c5F)c5ccc2[nH]5)C=C4)C=C3)cc1)C(C)(C)C)c1nncn1C
REMARK SMILES IDX 12 1 11 2 10 3 8 4 9 5 7 6 6 7 4 8 3 9 5 11 2 12 1 13 86 14
REMARK SMILES IDX 87 15 90 16 88 17 89 18 91 19 82 20 83 21 84 22 85 23 13 24
REMARK SMILES IDX 14 25 15 26 16 27 17 28 18 29 19 30 20 31 81 32 21 33 80 34
REMARK SMILES IDX 22 35 23 36 24 37 74 38 25 39 79 40 73 41 75 42 26 43 78 44
REMARK SMILES IDX 72 45 71 46 27 48 59 49 39 50 58 51 40 52 43 53 57 54 76 55
REMARK SMILES IDX 41 56 42 57 56 59 77 60 44 61 28 62 29 63 37 64 30 65 32 66
REMARK SMILES IDX 38 67 31 68 33 69 34 70 35 71 36 72 60 73 61 74 69 75 62 76
REMARK SMILES IDX 64 77 70 78 63 79 65 80 66 81 67 82 68 83 45 84 46 85 54 86
REMARK SMILES IDX 47 87 49 88 55 89 48 90 50 91 51 92 52 93 53 94
REMARK H PARENT 3 10 75 47 43 58
REMARK Flexibility Score: inf
ROOT
ATOM      1  C   UNL A   1      34.299  21.933  26.251  1.00  0.00     0.202 C 
ENDROOT
BRANCH   1   2
ATOM      2  C   UNL A   1      33.586  23.297  26.254  1.00  0.00     0.261 C 
BRANCH   2   3
ATOM      3  O   UNL A   1      32.277  23.321  26.863  1.00  0.00    -0.462 OA
BRANCH   3   4
ATOM      4  C   UNL A   1      31.554  24.438  26.592  1.00  0.00     0.325 C 
ATOM      5  O   UNL A   1      30.365  24.580  26.877  1.00  0.00    -0.250 OA
BRANCH   4   6
ATOM      6  C   UNL A   1      32.336  25.610  25.993  1.00  0.00     0.244 C 
BRANCH   6   7
ATOM      7  N   UNL A   1      31.712  26.822  25.426  1.00  0.00    -0.309 N 
BRANCH   7   8
ATOM      8  C   UNL A   1      30.782  26.806  24.414  1.00  0.00     0.318 C 
ATOM      9  N   UNL A   1      31.065  26.667  23.110  1.00  0.00    -0.328 N 
ATOM     10  H   UNL A   1      30.265  26.806  22.554  1.00  0.00     0.166 HD
ATOM     11  O   UNL A   1      29.566  26.833  24.630  1.00  0.00    -0.249 OA
BRANCH   9  12
ATOM     12  C   UNL A   1      32.229  26.368  22.292  1.00  0.00     0.149 C 
ATOM     13  C   UNL A   1      33.349  27.389  22.557  1.00  0.00     0.040 C 
BRANCH  12  14
ATOM     14  C   UNL A   1      32.815  24.982  22.476  1.00  0.00     0.154 A 
ATOM     15  N   UNL A   1      34.116  24.766  22.326  1.00  0.00    -0.133 NA
ATOM     16  N   UNL A   1      32.235  23.781  22.822  1.00  0.00    -0.319 N 
ATOM     17  N   UNL A   1      34.391  23.454  22.590  1.00  0.00    -0.139 NA
ATOM     18  C   UNL A   1      33.254  22.869  22.872  1.00  0.00     0.225 A 
ATOM     19  C   UNL A   1      30.870  23.440  23.120  1.00  0.00     0.152 C 
ENDBRANCH  12  14
ENDBRANCH   9  12
ENDBRANCH   7   8
BRANCH   7  20
ATOM     20  C   UNL A   1      32.129  28.189  25.954  1.00  0.00     0.037 C 
ATOM     21  C   UNL A   1      31.603  28.416  27.388  1.00  0.00     0.034 C 
ATOM     22  C   UNL A   1      33.677  28.316  25.939  1.00  0.00     0.034 C 
ATOM     23  C   UNL A   1      31.650  29.385  25.095  1.00  0.00     0.034 C 
ENDBRANCH   7  20
ENDBRANCH   6   7
ENDBRANCH   4   6
ENDBRANCH   3   4
ENDBRANCH   2   3
ENDBRANCH   1   2
BRANCH   1  24
ATOM     24  O   UNL A   1      35.495  21.788  25.491  1.00  0.00    -0.374 OA
BRANCH  24  25
ATOM     25  C   UNL A   1      35.819  20.479  25.029  1.00  0.00     0.202 C 
BRANCH  25  26
ATOM     26  C   UNL A   1      37.302  20.088  24.992  1.00  0.00     0.261 C 
BRANCH  26  27
ATOM     27  O   UNL A   1      38.161  21.224  25.178  1.00  0.00    -0.460 OA
BRANCH  27  28
ATOM     28  C   UNL A   1      39.223  20.999  25.987  1.00  0.00     0.338 C 
ATOM     29  O   UNL A   1      39.866  19.962  26.087  1.00  0.00    -0.246 OA
BRANCH  28  30
ATOM     30  C   UNL A   1      39.654  22.262  26.606  1.00  0.00     0.060 A 
ATOM     31  C   UNL A   1      39.036  23.441  26.167  1.00  0.00     0.016 A 
ATOM     32  C   UNL A   1      40.696  22.307  27.533  1.00  0.00     0.016 A 
ATOM     33  C   UNL A   1      39.489  24.675  26.622  1.00  0.00     0.010 A 
ATOM     34  C   UNL A   1      41.160  23.550  27.977  1.00  0.00     0.010 A 
ATOM     35  C   UNL A   1      40.582  24.738  27.497  1.00  0.00    -0.014 A 
BRANCH  35  36
ATOM     36  C   UNL A   1      41.186  26.057  27.799  1.00  0.00     0.031 A 
ATOM     37  C   UNL A   1      42.578  26.355  27.319  1.00  0.00     0.074 A 
ATOM     38  C   UNL A   1      40.491  26.985  28.481  1.00  0.00     0.049 A 
ATOM     39  N   UNL A   1      43.270  27.459  27.425  1.00  0.00    -0.248 NA
ATOM     40  C   UNL A   1      43.285  25.265  26.627  1.00  0.00     0.031 C 
ATOM     41  C   UNL A   1      39.141  26.801  29.011  1.00  0.00     0.029 A 
ATOM     42  N   UNL A   1      40.836  28.257  28.863  1.00  0.00    -0.354 N 
ATOM     43  C   UNL A   1      44.496  27.196  26.828  1.00  0.00     0.074 A 
ATOM     44  C   UNL A   1      44.461  25.823  26.374  1.00  0.00     0.031 C 
ATOM     45  C   UNL A   1      38.785  27.909  29.683  1.00  0.00     0.029 A 
ATOM     46  C   UNL A   1      39.884  28.874  29.638  1.00  0.00     0.049 A 
ATOM     47  H   UNL A   1      41.683  28.685  28.606  1.00  0.00     0.167 HD
ATOM     48  C   UNL A   1      45.550  28.029  26.658  1.00  0.00     0.034 A 
ATOM     49  C   UNL A   1      39.904  30.073  30.253  1.00  0.00     0.034 A 
ATOM     50  C   UNL A   1      45.576  29.397  27.099  1.00  0.00     0.049 A 
ATOM     51  C   UNL A   1      41.091  30.979  30.059  1.00  0.00     0.074 A 
ATOM     52  C   UNL A   1      46.564  30.346  26.904  1.00  0.00     0.029 A 
ATOM     53  N   UNL A   1      44.578  30.004  27.844  1.00  0.00    -0.354 N 
ATOM     54  N   UNL A   1      42.173  30.777  29.346  1.00  0.00    -0.248 NA
ATOM     55  C   UNL A   1      41.048  32.289  30.724  1.00  0.00     0.031 C 
ATOM     56  C   UNL A   1      46.174  31.521  27.557  1.00  0.00     0.029 A 
ATOM     57  C   UNL A   1      44.936  31.308  28.144  1.00  0.00     0.049 A 
ATOM     58  H   UNL A   1      43.737  29.573  28.121  1.00  0.00     0.167 HD
ATOM     59  C   UNL A   1      42.930  31.938  29.460  1.00  0.00     0.074 A 
ATOM     60  C   UNL A   1      42.169  32.851  30.289  1.00  0.00     0.031 C 
ATOM     61  C   UNL A   1      44.152  32.217  28.941  1.00  0.00     0.034 A 
BRANCH  48  62
ATOM     62  C   UNL A   1      46.754  27.489  25.935  1.00  0.00     0.023 A 
ATOM     63  C   UNL A   1      46.858  27.655  24.539  1.00  0.00     0.012 A 
ATOM     64  C   UNL A   1      47.801  26.860  26.636  1.00  0.00     0.148 A 
ATOM     65  C   UNL A   1      47.972  27.178  23.849  1.00  0.00     0.002 A 
ATOM     66  C   UNL A   1      48.924  26.419  25.946  1.00  0.00     0.091 A 
ATOM     67  F   UNL A   1      47.671  26.687  27.959  1.00  0.00    -0.205 F 
ATOM     68  C   UNL A   1      49.007  26.570  24.552  1.00  0.00     0.022 A 
BRANCH  66  69
ATOM     69  S   UNL A   1      50.336  25.682  26.776  1.00  0.00     0.127 S 
ATOM     70  O   UNL A   1      49.753  24.456  27.317  1.00  0.00    -0.237 OA
ATOM     71  O   UNL A   1      51.273  25.474  25.670  1.00  0.00    -0.237 OA
ATOM     72  O   UNL A   1      50.774  26.661  27.761  1.00  0.00    -0.744 OA
ENDBRANCH  66  69
ENDBRANCH  48  62
BRANCH  49  73
ATOM     73  C   UNL A   1      38.739  30.486  31.086  1.00  0.00     0.023 A 
ATOM     74  C   UNL A   1      38.739  30.226  32.469  1.00  0.00     0.012 A 
ATOM     75  C   UNL A   1      37.658  31.190  30.518  1.00  0.00     0.148 A 
ATOM     76  C   UNL A   1      37.674  30.645  33.269  1.00  0.00     0.002 A 
ATOM     77  C   UNL A   1      36.630  31.656  31.329  1.00  0.00     0.091 A 
ATOM     78  F   UNL A   1      37.664  31.408  29.195  1.00  0.00    -0.205 F 
ATOM     79  C   UNL A   1      36.628  31.371  32.703  1.00  0.00     0.022 A 
BRANCH  77  80
ATOM     80  S   UNL A   1      35.327  32.721  30.698  1.00  0.00     0.127 S 
ATOM     81  O   UNL A   1      34.852  31.964  29.543  1.00  0.00    -0.237 OA
ATOM     82  O   UNL A   1      34.397  32.772  31.827  1.00  0.00    -0.237 OA
ATOM     83  O   UNL A   1      35.969  33.996  30.403  1.00  0.00    -0.744 OA
ENDBRANCH  77  80
ENDBRANCH  49  73
BRANCH  61  84
ATOM     84  C   UNL A   1      44.756  33.560  29.257  1.00  0.00     0.023 A 
ATOM     85  C   UNL A   1      44.597  34.622  28.343  1.00  0.00     0.012 A 
ATOM     86  C   UNL A   1      45.400  33.797  30.488  1.00  0.00     0.148 A 
ATOM     87  C   UNL A   1      45.090  35.892  28.640  1.00  0.00     0.002 A 
ATOM     88  C   UNL A   1      45.849  35.077  30.795  1.00  0.00     0.091 A 
ATOM     89  F   UNL A   1      45.557  32.770  31.335  1.00  0.00    -0.205 F 
ATOM     90  C   UNL A   1      45.703  36.122  29.868  1.00  0.00     0.022 A 
BRANCH  88  91
ATOM     91  S   UNL A   1      46.569  35.487  32.389  1.00  0.00     0.127 S 
ATOM     92  O   UNL A   1      47.807  34.711  32.366  1.00  0.00    -0.237 OA
ATOM     93  O   UNL A   1      46.755  36.935  32.284  1.00  0.00    -0.237 OA
ATOM     94  O   UNL A   1      45.591  35.077  33.387  1.00  0.00    -0.744 OA
ENDBRANCH  88  91
ENDBRANCH  61  84
ENDBRANCH  35  36
ENDBRANCH  28  30
ENDBRANCH  27  28
ENDBRANCH  26  27
ENDBRANCH  25  26
ENDBRANCH  24  25
ENDBRANCH   1  24
TORSDOF 22
ENDMDL
MODEL 2
REMARK VINA RESULT:     -10.3      1.939      3.038
REMARK SMILES C[C@H](NC(=O)N(CC(=O)OCCOCCOC(=O)c1ccc(-c2c3nc(c(-c4cccc(S(=O)(=O)[O-])c4F)c4ccc([nH]4)c(-c4cccc(S(=O)(=O)[O-])c4F)c4nc(c(-c5cccc(S(=O)(=O)[O-])c5F)c5ccc2[nH]5)C=C4)C=C3)cc1)C(C)(C)C)c1nncn1C
REMARK SMILES IDX 12 1 11 2 10 3 8 4 9 5 7 6 6 7 4 8 3 9 5 11 2 12 1 13 86 14
REMARK SMILES IDX 87 15 90 16 88 17 89 18 91 19 82 20 83 21 84 22 85 23 13 24
REMARK SMILES IDX 14 25 15 26 16 27 17 28 18 29 19 30 20 31 81 32 21 33 80 34
REMARK SMILES IDX 22 35 23 36 24 37 74 38 25 39 79 40 73 41 75 42 26 43 78 44
REMARK SMILES IDX 72 45 71 46 27 48 59 49 39 50 58 51 40 52 43 53 57 54 76 55
REMARK SMILES IDX 41 56 42 57 56 59 77 60 44 61 28 62 29 63 37 64 30 65 32 66
REMARK SMILES IDX 38 67 31 68 33 69 34 70 35 71 36 72 60 73 61 74 69 75 62 76
REMARK SMILES IDX 64 77 70 78 63 79 65 80 66 81 67 82 68 83 45 84 46 85 54 86
REMARK SMILES IDX 47 87 49 88 55 89 48 90 50 91 51 92 52 93 53 94
REMARK H PARENT 3 10 75 47 43 58
REMARK Flexibility Score: inf
ROOT
ATOM      1  C   UNL A   1      33.102  22.062  24.587  1.00  0.00     0.202 C 
ENDROOT
BRANCH   1   2
ATOM      2  C   UNL A   1      32.385  23.129  23.741  1.00  0.00     0.261 C 
BRANCH   2   3
ATOM      3  O   UNL A   1      33.013  23.461  22.484  1.00  0.00    -0.462 OA
BRANCH   3   4
ATOM      4  C   UNL A   1      32.834  24.750  22.093  1.00  0.00     0.325 C 
ATOM      5  O   UNL A   1      33.125  25.181  20.978  1.00  0.00    -0.250 OA
BRANCH   4   6
ATOM      6  C   UNL A   1      32.121  25.659  23.097  1.00  0.00     0.244 C 
BRANCH   6   7
ATOM      7  N   UNL A   1      32.754  26.812  23.768  1.00  0.00    -0.309 N 
BRANCH   7   8
ATOM      8  C   UNL A   1      32.943  28.038  23.176  1.00  0.00     0.318 C 
ATOM      9  N   UNL A   1      32.042  29.032  23.159  1.00  0.00    -0.328 N 
ATOM     10  H   UNL A   1      32.337  29.771  22.578  1.00  0.00     0.166 HD
ATOM     11  O   UNL A   1      34.019  28.370  22.668  1.00  0.00    -0.249 OA
BRANCH   9  12
ATOM     12  C   UNL A   1      30.752  29.318  23.762  1.00  0.00     0.149 C 
ATOM     13  C   UNL A   1      30.917  30.266  24.962  1.00  0.00     0.040 C 
BRANCH  12  14
ATOM     14  C   UNL A   1      29.719  29.925  22.833  1.00  0.00     0.154 A 
ATOM     15  N   UNL A   1      29.331  29.289  21.734  1.00  0.00    -0.133 NA
ATOM     16  N   UNL A   1      29.007  31.103  22.900  1.00  0.00    -0.319 N 
ATOM     17  N   UNL A   1      28.367  30.023  21.102  1.00  0.00    -0.139 NA
ATOM     18  C   UNL A   1      28.191  31.115  21.802  1.00  0.00     0.225 A 
ATOM     19  C   UNL A   1      29.011  32.158  23.878  1.00  0.00     0.152 C 
ENDBRANCH  12  14
ENDBRANCH   9  12
ENDBRANCH   7   8
BRANCH   7  20
ATOM     20  C   UNL A   1      33.264  26.653  25.194  1.00  0.00     0.037 C 
ATOM     21  C   UNL A   1      33.771  27.998  25.759  1.00  0.00     0.034 C 
ATOM     22  C   UNL A   1      32.135  26.098  26.106  1.00  0.00     0.034 C 
ATOM     23  C   UNL A   1      34.412  25.626  25.358  1.00  0.00     0.034 C 
ENDBRANCH   7  20
ENDBRANCH   6   7
ENDBRANCH   4   6
ENDBRANCH   3   4
ENDBRANCH   2   3
ENDBRANCH   1   2
BRANCH   1  24
ATOM     24  O   UNL A   1      34.405  21.641  24.196  1.00  0.00    -0.374 OA
BRANCH  24  25
ATOM     25  C   UNL A   1      35.475  21.905  25.100  1.00  0.00     0.202 C 
BRANCH  25  26
ATOM     26  C   UNL A   1      36.627  20.893  25.150  1.00  0.00     0.261 C 
BRANCH  26  27
ATOM     27  O   UNL A   1      37.901  21.519  24.929  1.00  0.00    -0.460 OA
BRANCH  27  28
ATOM     28  C   UNL A   1      38.848  21.204  25.844  1.00  0.00     0.338 C 
ATOM     29  O   UNL A   1      39.380  20.114  26.007  1.00  0.00    -0.246 OA
BRANCH  28  30
ATOM     30  C   UNL A   1      39.324  22.427  26.509  1.00  0.00     0.060 A 
ATOM     31  C   UNL A   1      38.723  23.638  26.141  1.00  0.00     0.016 A 
ATOM     32  C   UNL A   1      40.391  22.404  27.408  1.00  0.00     0.016 A 
ATOM     33  C   UNL A   1      39.218  24.840  26.640  1.00  0.00     0.010 A 
ATOM     34  C   UNL A   1      40.895  23.615  27.897  1.00  0.00     0.010 A 
ATOM     35  C   UNL A   1      40.334  24.837  27.487  1.00  0.00    -0.014 A 
BRANCH  35  36
ATOM     36  C   UNL A   1      40.977  26.126  27.834  1.00  0.00     0.031 A 
ATOM     37  C   UNL A   1      42.397  26.376  27.411  1.00  0.00     0.074 A 
ATOM     38  C   UNL A   1      40.293  27.070  28.504  1.00  0.00     0.049 A 
ATOM     39  N   UNL A   1      43.126  27.451  27.560  1.00  0.00    -0.248 NA
ATOM     40  C   UNL A   1      43.086  25.270  26.727  1.00  0.00     0.031 C 
ATOM     41  C   UNL A   1      38.918  26.932  28.981  1.00  0.00     0.029 A 
ATOM     42  N   UNL A   1      40.672  28.322  28.920  1.00  0.00    -0.354 N 
ATOM     43  C   UNL A   1      44.363  27.149  27.006  1.00  0.00     0.074 A 
ATOM     44  C   UNL A   1      44.291  25.785  26.528  1.00  0.00     0.031 C 
ATOM     45  C   UNL A   1      38.580  28.043  29.657  1.00  0.00     0.029 A 
ATOM     46  C   UNL A   1      39.716  28.965  29.669  1.00  0.00     0.049 A 
ATOM     47  H   UNL A   1      41.545  28.721  28.702  1.00  0.00     0.167 HD
ATOM     48  C   UNL A   1      45.454  27.941  26.888  1.00  0.00     0.034 A 
ATOM     49  C   UNL A   1      39.760  30.152  30.304  1.00  0.00     0.034 A 
ATOM     50  C   UNL A   1      45.516  29.301  27.353  1.00  0.00     0.049 A 
ATOM     51  C   UNL A   1      40.987  31.013  30.170  1.00  0.00     0.074 A 
ATOM     52  C   UNL A   1      46.547  30.213  27.211  1.00  0.00     0.029 A 
ATOM     53  N   UNL A   1      44.515  29.936  28.071  1.00  0.00    -0.354 N 
ATOM     54  N   UNL A   1      42.087  30.780  29.494  1.00  0.00    -0.248 NA
ATOM     55  C   UNL A   1      40.970  32.314  30.854  1.00  0.00     0.031 C 
ATOM     56  C   UNL A   1      46.178  31.393  27.868  1.00  0.00     0.029 A 
ATOM     57  C   UNL A   1      44.912  31.220  28.405  1.00  0.00     0.049 A 
ATOM     58  H   UNL A   1      43.648  29.534  28.308  1.00  0.00     0.167 HD
ATOM     59  C   UNL A   1      42.883  31.908  29.656  1.00  0.00     0.074 A 
ATOM     60  C   UNL A   1      42.127  32.838  30.470  1.00  0.00     0.031 C 
ATOM     61  C   UNL A   1      44.134  32.147  29.187  1.00  0.00     0.034 A 
BRANCH  48  62
ATOM     62  C   UNL A   1      46.663  27.366  26.202  1.00  0.00     0.023 A 
ATOM     63  C   UNL A   1      46.780  27.469  24.801  1.00  0.00     0.012 A 
ATOM     64  C   UNL A   1      47.700  26.765  26.941  1.00  0.00     0.148 A 
ATOM     65  C   UNL A   1      47.899  26.958  24.144  1.00  0.00     0.002 A 
ATOM     66  C   UNL A   1      48.828  26.289  26.282  1.00  0.00     0.091 A 
ATOM     67  F   UNL A   1      47.557  26.651  28.269  1.00  0.00    -0.205 F 
ATOM     68  C   UNL A   1      48.925  26.378  24.884  1.00  0.00     0.022 A 
BRANCH  66  69
ATOM     69  S   UNL A   1      50.229  25.584  27.157  1.00  0.00     0.127 S 
ATOM     70  O   UNL A   1      51.260  25.594  26.121  1.00  0.00    -0.237 OA
ATOM     71  O   UNL A   1      50.441  26.552  28.236  1.00  0.00    -0.237 OA
ATOM     72  O   UNL A   1      49.797  24.268  27.604  1.00  0.00    -0.744 OA
ENDBRANCH  66  69
ENDBRANCH  48  62
BRANCH  49  73
ATOM     73  C   UNL A   1      38.581  30.599  31.100  1.00  0.00     0.023 A 
ATOM     74  C   UNL A   1      38.569  30.418  32.495  1.00  0.00     0.012 A 
ATOM     75  C   UNL A   1      37.498  31.256  30.481  1.00  0.00     0.148 A 
ATOM     76  C   UNL A   1      37.490  30.869  33.259  1.00  0.00     0.002 A 
ATOM     77  C   UNL A   1      36.455  31.754  31.254  1.00  0.00     0.091 A 
ATOM     78  F   UNL A   1      37.516  31.397  29.148  1.00  0.00    -0.205 F 
ATOM     79  C   UNL A   1      36.442  31.549  32.641  1.00  0.00     0.022 A 
BRANCH  77  80
ATOM     80  S   UNL A   1      35.148  32.765  30.549  1.00  0.00     0.127 S 
ATOM     81  O   UNL A   1      34.190  32.831  31.649  1.00  0.00    -0.237 OA
ATOM     82  O   UNL A   1      35.847  34.019  30.263  1.00  0.00    -0.237 OA
ATOM     83  O   UNL A   1      34.700  32.055  29.357  1.00  0.00    -0.744 OA
ENDBRANCH  77  80
ENDBRANCH  49  73
BRANCH  61  84
ATOM     84  C   UNL A   1      44.777  33.460  29.547  1.00  0.00     0.023 A 
ATOM     85  C   UNL A   1      45.595  33.538  30.693  1.00  0.00     0.012 A 
ATOM     86  C   UNL A   1      44.649  34.587  28.711  1.00  0.00     0.148 A 
ATOM     87  C   UNL A   1      46.256  34.723  31.013  1.00  0.00     0.002 A 
ATOM     88  C   UNL A   1      45.347  35.752  29.013  1.00  0.00     0.091 A 
ATOM     89  F   UNL A   1      43.853  34.498  27.636  1.00  0.00    -0.205 F 
ATOM     90  C   UNL A   1      46.142  35.824  30.168  1.00  0.00     0.022 A 
BRANCH  88  91
ATOM     91  S   UNL A   1      45.332  37.189  27.935  1.00  0.00     0.127 S 
ATOM     92  O   UNL A   1      45.765  38.248  28.845  1.00  0.00    -0.237 OA
ATOM     93  O   UNL A   1      46.314  36.823  26.914  1.00  0.00    -0.237 OA
ATOM     94  O   UNL A   1      43.966  37.305  27.443  1.00  0.00    -0.744 OA
ENDBRANCH  88  91
ENDBRANCH  61  84
ENDBRANCH  35  36
ENDBRANCH  28  30
ENDBRANCH  27  28
ENDBRANCH  26  27
ENDBRANCH  25  26
ENDBRANCH  24  25
ENDBRANCH   1  24
TORSDOF 22
ENDMDL
MODEL 3
REMARK VINA RESULT:      -9.8      1.981      2.899
REMARK SMILES C[C@H](NC(=O)N(CC(=O)OCCOCCOC(=O)c1ccc(-c2c3nc(c(-c4cccc(S(=O)(=O)[O-])c4F)c4ccc([nH]4)c(-c4cccc(S(=O)(=O)[O-])c4F)c4nc(c(-c5cccc(S(=O)(=O)[O-])c5F)c5ccc2[nH]5)C=C4)C=C3)cc1)C(C)(C)C)c1nncn1C
REMARK SMILES IDX 12 1 11 2 10 3 8 4 9 5 7 6 6 7 4 8 3 9 5 11 2 12 1 13 86 14
REMARK SMILES IDX 87 15 90 16 88 17 89 18 91 19 82 20 83 21 84 22 85 23 13 24
REMARK SMILES IDX 14 25 15 26 16 27 17 28 18 29 19 30 20 31 81 32 21 33 80 34
REMARK SMILES IDX 22 35 23 36 24 37 74 38 25 39 79 40 73 41 75 42 26 43 78 44
REMARK SMILES IDX 72 45 71 46 27 48 59 49 39 50 58 51 40 52 43 53 57 54 76 55
REMARK SMILES IDX 41 56 42 57 56 59 77 60 44 61 28 62 29 63 37 64 30 65 32 66
REMARK SMILES IDX 38 67 31 68 33 69 34 70 35 71 36 72 60 73 61 74 69 75 62 76
REMARK SMILES IDX 64 77 70 78 63 79 65 80 66 81 67 82 68 83 45 84 46 85 54 86
REMARK SMILES IDX 47 87 49 88 55 89 48 90 50 91 51 92 52 93 53 94
REMARK H PARENT 3 10 75 47 43 58
REMARK Flexibility Score: inf
ROOT
ATOM      1  C   UNL A   1      33.642  22.061  24.609  1.00  0.00     0.202 C 
ENDROOT
BRANCH   1   2
ATOM      2  C   UNL A   1      32.919  23.304  24.057  1.00  0.00     0.261 C 
BRANCH   2   3
ATOM      3  O   UNL A   1      33.310  23.720  22.730  1.00  0.00    -0.462 OA
BRANCH   3   4
ATOM      4  C   UNL A   1      33.207  25.057  22.510  1.00  0.00     0.325 C 
ATOM      5  O   UNL A   1      33.655  25.631  21.518  1.00  0.00    -0.250 OA
BRANCH   4   6
ATOM      6  C   UNL A   1      32.379  25.839  23.532  1.00  0.00     0.244 C 
BRANCH   6   7
ATOM      7  N   UNL A   1      32.756  27.161  24.071  1.00  0.00    -0.309 N 
BRANCH   7   8
ATOM      8  C   UNL A   1      32.807  28.312  23.321  1.00  0.00     0.318 C 
ATOM      9  N   UNL A   1      31.847  29.249  23.284  1.00  0.00    -0.328 N 
ATOM     10  H   UNL A   1      32.034  29.923  22.592  1.00  0.00     0.166 HD
ATOM     11  O   UNL A   1      33.802  28.632  22.664  1.00  0.00    -0.249 OA
BRANCH   9  12
ATOM     12  C   UNL A   1      30.609  29.542  23.985  1.00  0.00     0.149 C 
ATOM     13  C   UNL A   1      30.858  30.550  25.120  1.00  0.00     0.040 C 
BRANCH  12  14
ATOM     14  C   UNL A   1      29.485  30.085  23.124  1.00  0.00     0.154 A 
ATOM     15  N   UNL A   1      29.594  31.264  22.524  1.00  0.00    -0.133 NA
ATOM     16  N   UNL A   1      28.261  29.557  22.775  1.00  0.00    -0.319 N 
ATOM     17  N   UNL A   1      28.474  31.497  21.777  1.00  0.00    -0.139 NA
ATOM     18  C   UNL A   1      27.675  30.474  21.947  1.00  0.00     0.225 A 
ATOM     19  C   UNL A   1      27.636  28.308  23.120  1.00  0.00     0.152 C 
ENDBRANCH  12  14
ENDBRANCH   9  12
ENDBRANCH   7   8
BRANCH   7  20
ATOM     20  C   UNL A   1      33.148  27.281  25.538  1.00  0.00     0.037 C 
ATOM     21  C   UNL A   1      31.902  27.287  26.450  1.00  0.00     0.034 C 
ATOM     22  C   UNL A   1      34.081  26.105  25.938  1.00  0.00     0.034 C 
ATOM     23  C   UNL A   1      33.975  28.544  25.884  1.00  0.00     0.034 C 
ENDBRANCH   7  20
ENDBRANCH   6   7
ENDBRANCH   4   6
ENDBRANCH   3   4
ENDBRANCH   2   3
ENDBRANCH   1   2
BRANCH   1  24
ATOM     24  O   UNL A   1      34.966  21.786  24.163  1.00  0.00    -0.374 OA
BRANCH  24  25
ATOM     25  C   UNL A   1      36.038  22.210  25.002  1.00  0.00     0.202 C 
BRANCH  25  26
ATOM     26  C   UNL A   1      37.144  21.192  25.307  1.00  0.00     0.261 C 
BRANCH  26  27
ATOM     27  O   UNL A   1      38.454  21.752  25.120  1.00  0.00    -0.460 OA
BRANCH  27  28
ATOM     28  C   UNL A   1      39.326  21.490  26.122  1.00  0.00     0.338 C 
ATOM     29  O   UNL A   1      39.868  20.420  26.364  1.00  0.00    -0.246 OA
BRANCH  28  30
ATOM     30  C   UNL A   1      39.712  22.744  26.786  1.00  0.00     0.060 A 
ATOM     31  C   UNL A   1      39.064  23.918  26.378  1.00  0.00     0.016 A 
ATOM     32  C   UNL A   1      40.742  22.789  27.726  1.00  0.00     0.016 A 
ATOM     33  C   UNL A   1      39.476  25.149  26.877  1.00  0.00     0.010 A 
ATOM     34  C   UNL A   1      41.164  24.030  28.216  1.00  0.00     0.010 A 
ATOM     35  C   UNL A   1      40.557  25.216  27.767  1.00  0.00    -0.014 A 
BRANCH  35  36
ATOM     36  C   UNL A   1      41.118  26.541  28.119  1.00  0.00     0.031 A 
ATOM     37  C   UNL A   1      42.561  26.832  27.816  1.00  0.00     0.074 A 
ATOM     38  C   UNL A   1      40.342  27.481  28.687  1.00  0.00     0.049 A 
ATOM     39  N   UNL A   1      43.234  27.939  27.988  1.00  0.00    -0.248 NA
ATOM     40  C   UNL A   1      43.350  25.730  27.241  1.00  0.00     0.031 C 
ATOM     41  C   UNL A   1      38.935  27.306  29.043  1.00  0.00     0.029 A 
ATOM     42  N   UNL A   1      40.636  28.761  29.085  1.00  0.00    -0.354 N 
ATOM     43  C   UNL A   1      44.527  27.667  27.559  1.00  0.00     0.074 A 
ATOM     44  C   UNL A   1      44.549  26.285  27.131  1.00  0.00     0.031 C 
ATOM     45  C   UNL A   1      38.497  28.426  29.642  1.00  0.00     0.029 A 
ATOM     46  C   UNL A   1      39.594  29.392  29.719  1.00  0.00     0.049 A 
ATOM     47  H   UNL A   1      41.510  29.186  28.931  1.00  0.00     0.167 HD
ATOM     48  C   UNL A   1      45.595  28.497  27.509  1.00  0.00     0.034 A 
ATOM     49  C   UNL A   1      39.536  30.602  30.309  1.00  0.00     0.034 A 
ATOM     50  C   UNL A   1      45.565  29.874  27.924  1.00  0.00     0.049 A 
ATOM     51  C   UNL A   1      40.739  31.506  30.252  1.00  0.00     0.074 A 
ATOM     52  C   UNL A   1      46.570  30.820  27.839  1.00  0.00     0.029 A 
ATOM     53  N   UNL A   1      44.480  30.494  28.523  1.00  0.00    -0.354 N 
ATOM     54  N   UNL A   1      41.903  31.292  29.687  1.00  0.00    -0.248 NA
ATOM     55  C   UNL A   1      40.612  32.829  30.879  1.00  0.00     0.031 C 
ATOM     56  C   UNL A   1      46.101  32.007  28.414  1.00  0.00     0.029 A 
ATOM     57  C   UNL A   1      44.798  31.804  28.840  1.00  0.00     0.049 A 
ATOM     58  H   UNL A   1      43.610  30.067  28.697  1.00  0.00     0.167 HD
ATOM     59  C   UNL A   1      42.640  32.456  29.875  1.00  0.00     0.074 A 
ATOM     60  C   UNL A   1      41.779  33.384  30.581  1.00  0.00     0.031 C 
ATOM     61  C   UNL A   1      43.919  32.727  29.512  1.00  0.00     0.034 A 
BRANCH  48  62
ATOM     62  C   UNL A   1      46.881  27.945  26.958  1.00  0.00     0.023 A 
ATOM     63  C   UNL A   1      47.861  27.453  27.844  1.00  0.00     0.012 A 
ATOM     64  C   UNL A   1      47.104  27.871  25.570  1.00  0.00     0.148 A 
ATOM     65  C   UNL A   1      49.055  26.921  27.357  1.00  0.00     0.002 A 
ATOM     66  C   UNL A   1      48.281  27.307  25.091  1.00  0.00     0.091 A 
ATOM     67  F   UNL A   1      46.173  28.370  24.745  1.00  0.00    -0.205 F 
ATOM     68  C   UNL A   1      49.260  26.839  25.983  1.00  0.00     0.022 A 
BRANCH  66  69
ATOM     69  S   UNL A   1      48.606  27.102  23.336  1.00  0.00     0.127 S 
ATOM     70  O   UNL A   1      48.072  25.763  23.093  1.00  0.00    -0.237 OA
ATOM     71  O   UNL A   1      47.822  28.187  22.745  1.00  0.00    -0.237 OA
ATOM     72  O   UNL A   1      50.047  27.244  23.179  1.00  0.00    -0.744 OA
ENDBRANCH  66  69
ENDBRANCH  48  62
BRANCH  49  73
ATOM     73  C   UNL A   1      38.274  31.030  30.977  1.00  0.00     0.023 A 
ATOM     74  C   UNL A   1      38.112  30.831  32.360  1.00  0.00     0.012 A 
ATOM     75  C   UNL A   1      37.259  31.687  30.252  1.00  0.00     0.148 A 
ATOM     76  C   UNL A   1      36.953  31.265  33.007  1.00  0.00     0.002 A 
ATOM     77  C   UNL A   1      36.135  32.169  30.912  1.00  0.00     0.091 A 
ATOM     78  F   UNL A   1      37.420  31.846  28.931  1.00  0.00    -0.205 F 
ATOM     79  C   UNL A   1      35.972  31.945  32.288  1.00  0.00     0.022 A 
BRANCH  77  80
ATOM     80  S   UNL A   1      34.903  33.180  30.082  1.00  0.00     0.127 S 
ATOM     81  O   UNL A   1      33.981  33.489  31.172  1.00  0.00    -0.237 OA
ATOM     82  O   UNL A   1      35.701  34.312  29.609  1.00  0.00    -0.237 OA
ATOM     83  O   UNL A   1      34.367  32.347  29.012  1.00  0.00    -0.744 OA
ENDBRANCH  77  80
ENDBRANCH  49  73
BRANCH  61  84
ATOM     84  C   UNL A   1      44.479  34.076  29.877  1.00  0.00     0.023 A 
ATOM     85  C   UNL A   1      44.439  35.120  28.930  1.00  0.00     0.012 A 
ATOM     86  C   UNL A   1      44.960  34.338  31.175  1.00  0.00     0.148 A 
ATOM     87  C   UNL A   1      44.891  36.397  29.263  1.00  0.00     0.002 A 
ATOM     88  C   UNL A   1      45.367  35.625  31.513  1.00  0.00     0.091 A 
ATOM     89  F   UNL A   1      45.006  33.328  32.055  1.00  0.00    -0.205 F 
ATOM     90  C   UNL A   1      45.342  36.652  30.555  1.00  0.00     0.022 A 
BRANCH  88  91
ATOM     91  S   UNL A   1      45.877  36.067  33.178  1.00  0.00     0.127 S 
ATOM     92  O   UNL A   1      47.147  35.353  33.300  1.00  0.00    -0.237 OA
ATOM     93  O   UNL A   1      46.001  37.522  33.090  1.00  0.00    -0.237 OA
ATOM     94  O   UNL A   1      44.812  35.606  34.058  1.00  0.00    -0.744 OA
ENDBRANCH  88  91
ENDBRANCH  61  84
ENDBRANCH  35  36
ENDBRANCH  28  30
ENDBRANCH  27  28
ENDBRANCH  26  27
ENDBRANCH  25  26
ENDBRANCH  24  25
ENDBRANCH   1  24
TORSDOF 22
ENDMDL
