MODEL 1
REMARK VINA RESULT:     -12.0      0.000      0.000
REMARK SMILES O=C(OCCOCCOC(=O)c1nccnc1C(=O)Nc1ccc2c(c1)OCO2)c1ccc(-c2c3nc(c(-c4cccc(S(=O)(=O)[O-])c4F)c4ccc([nH]4)c(-c4cccc(S(=O)(=O)[O-])c4F)c4nc(c(-c5cccc(S(=O)(=O)[O-])c5F)c5ccc2[nH]5)C=C4)C=C3)cc1
REMARK SMILES IDX 5 1 4 2 3 3 2 4 1 5 30 6 31 7 92 8 32 9 91 10 33 11 34 12
REMARK SMILES IDX 35 13 85 14 36 15 90 16 84 17 86 18 37 19 89 20 83 21 82 22
REMARK SMILES IDX 38 24 70 25 50 26 69 27 51 28 54 29 68 30 87 31 52 32 53 33
REMARK SMILES IDX 67 35 88 36 55 37 39 38 40 39 48 40 41 41 43 42 49 43 42 44
REMARK SMILES IDX 44 45 45 46 46 47 47 48 71 49 72 50 80 51 73 52 75 53 81 54
REMARK SMILES IDX 74 55 76 56 77 57 78 58 79 59 56 60 57 61 65 62 58 63 60 64
REMARK SMILES IDX 66 65 59 66 61 67 62 68 63 69 64 70 6 71 7 72 8 73 9 74
REMARK SMILES IDX 10 75 11 76 12 77 13 78 17 79 14 80 16 81 15 82 18 83 19 84
REMARK SMILES IDX 20 85 21 87 22 88 26 89 23 90 25 91 24 92 27 93 29 94 28 95
REMARK H PARENT 86 23 54 34 20 86
REMARK Flexibility Score: inf
ROOT
ATOM      1  C   UNL A   1      31.539  28.554  27.332  1.00  0.00     0.202 C 
ENDROOT
BRANCH   1   2
ATOM      2  C   UNL A   1      31.700  29.392  26.061  1.00  0.00     0.261 C 
BRANCH   2   3
ATOM      3  O   UNL A   1      32.843  30.269  26.007  1.00  0.00    -0.460 OA
BRANCH   3   4
ATOM      4  C   UNL A   1      33.315  31.140  26.922  1.00  0.00     0.338 C 
ATOM      5  O   UNL A   1      32.677  32.148  27.206  1.00  0.00    -0.246 OA
BRANCH   4   6
ATOM      6  C   UNL A   1      34.598  30.889  27.600  1.00  0.00     0.060 A 
ATOM      7  C   UNL A   1      35.061  29.605  27.896  1.00  0.00     0.016 A 
ATOM      8  C   UNL A   1      35.430  31.988  27.808  1.00  0.00     0.016 A 
ATOM      9  C   UNL A   1      36.267  29.425  28.567  1.00  0.00     0.010 A 
ATOM     10  C   UNL A   1      36.683  31.800  28.381  1.00  0.00     0.010 A 
ATOM     11  C   UNL A   1      37.088  30.524  28.812  1.00  0.00    -0.014 A 
BRANCH  11  12
ATOM     12  C   UNL A   1      38.353  30.399  29.566  1.00  0.00     0.031 A 
ATOM     13  C   UNL A   1      39.418  29.512  28.997  1.00  0.00     0.074 A 
ATOM     14  C   UNL A   1      38.504  30.986  30.766  1.00  0.00     0.049 A 
ATOM     15  N   UNL A   1      40.428  28.943  29.591  1.00  0.00    -0.248 NA
ATOM     16  C   UNL A   1      39.295  29.188  27.564  1.00  0.00     0.031 C 
ATOM     17  C   UNL A   1      37.552  31.907  31.387  1.00  0.00     0.029 A 
ATOM     18  N   UNL A   1      39.500  30.852  31.701  1.00  0.00    -0.354 N 
ATOM     19  C   UNL A   1      40.996  28.107  28.637  1.00  0.00     0.074 A 
ATOM     20  C   UNL A   1      40.239  28.271  27.417  1.00  0.00     0.031 C 
ATOM     21  C   UNL A   1      37.996  32.241  32.608  1.00  0.00     0.029 A 
ATOM     22  C   UNL A   1      39.216  31.491  32.886  1.00  0.00     0.049 A 
ATOM     23  H   UNL A   1      40.332  30.352  31.539  1.00  0.00     0.167 HD
ATOM     24  C   UNL A   1      42.048  27.270  28.783  1.00  0.00     0.034 A 
ATOM     25  C   UNL A   1      39.834  31.420  34.081  1.00  0.00     0.034 A 
ATOM     26  C   UNL A   1      42.815  27.181  29.993  1.00  0.00     0.049 A 
ATOM     27  C   UNL A   1      41.034  30.520  34.210  1.00  0.00     0.074 A 
ATOM     28  C   UNL A   1      43.913  26.390  30.266  1.00  0.00     0.029 A 
ATOM     29  N   UNL A   1      42.562  27.932  31.133  1.00  0.00    -0.354 N 
ATOM     30  N   UNL A   1      41.575  29.739  33.306  1.00  0.00    -0.248 NA
ATOM     31  C   UNL A   1      41.713  30.495  35.512  1.00  0.00     0.031 C 
ATOM     32  C   UNL A   1      44.325  26.664  31.575  1.00  0.00     0.029 A 
ATOM     33  C   UNL A   1      43.493  27.637  32.110  1.00  0.00     0.049 A 
ATOM     34  H   UNL A   1      41.828  28.580  31.231  1.00  0.00     0.167 HD
ATOM     35  C   UNL A   1      42.674  29.148  33.917  1.00  0.00     0.074 A 
ATOM     36  C   UNL A   1      42.728  29.675  35.268  1.00  0.00     0.031 C 
ATOM     37  C   UNL A   1      43.549  28.240  33.419  1.00  0.00     0.034 A 
BRANCH  24  38
ATOM     38  C   UNL A   1      42.401  26.397  27.610  1.00  0.00     0.023 A 
ATOM     39  C   UNL A   1      43.121  26.932  26.523  1.00  0.00     0.012 A 
ATOM     40  C   UNL A   1      41.995  25.048  27.571  1.00  0.00     0.148 A 
ATOM     41  C   UNL A   1      43.388  26.155  25.395  1.00  0.00     0.002 A 
ATOM     42  C   UNL A   1      42.302  24.268  26.461  1.00  0.00     0.091 A 
ATOM     43  F   UNL A   1      41.282  24.563  28.597  1.00  0.00    -0.205 F 
ATOM     44  C   UNL A   1      42.985  24.822  25.367  1.00  0.00     0.022 A 
BRANCH  42  45
ATOM     45  S   UNL A   1      41.872  22.526  26.370  1.00  0.00     0.127 S 
ATOM     46  O   UNL A   1      42.511  22.128  25.117  1.00  0.00    -0.237 OA
ATOM     47  O   UNL A   1      42.503  21.984  27.575  1.00  0.00    -0.237 OA
ATOM     48  O   UNL A   1      40.417  22.480  26.383  1.00  0.00    -0.744 OA
ENDBRANCH  42  45
ENDBRANCH  24  38
BRANCH  25  49
ATOM     49  C   UNL A   1      39.326  32.234  35.222  1.00  0.00     0.023 A 
ATOM     50  C   UNL A   1      38.454  31.644  36.156  1.00  0.00     0.012 A 
ATOM     51  C   UNL A   1      39.774  33.553  35.442  1.00  0.00     0.148 A 
ATOM     52  C   UNL A   1      38.030  32.353  37.282  1.00  0.00     0.002 A 
ATOM     53  C   UNL A   1      39.398  34.231  36.596  1.00  0.00     0.091 A 
ATOM     54  F   UNL A   1      40.595  34.104  34.536  1.00  0.00    -0.205 F 
ATOM     55  C   UNL A   1      38.513  33.638  37.510  1.00  0.00     0.022 A 
BRANCH  53  56
ATOM     56  S   UNL A   1      40.100  35.820  37.055  1.00  0.00     0.127 S 
ATOM     57  O   UNL A   1      39.719  36.655  35.918  1.00  0.00    -0.237 OA
ATOM     58  O   UNL A   1      39.389  36.113  38.301  1.00  0.00    -0.237 OA
ATOM     59  O   UNL A   1      41.527  35.587  37.220  1.00  0.00    -0.744 OA
ENDBRANCH  53  56
ENDBRANCH  25  49
BRANCH  37  60
ATOM     60  C   UNL A   1      44.673  27.794  34.311  1.00  0.00     0.023 A 
ATOM     61  C   UNL A   1      45.882  28.512  34.321  1.00  0.00     0.012 A 
ATOM     62  C   UNL A   1      44.472  26.746  35.230  1.00  0.00     0.148 A 
ATOM     63  C   UNL A   1      46.885  28.187  35.232  1.00  0.00     0.002 A 
ATOM     64  C   UNL A   1      45.458  26.456  36.162  1.00  0.00     0.091 A 
ATOM     65  F   UNL A   1      43.317  26.067  35.182  1.00  0.00    -0.205 F 
ATOM     66  C   UNL A   1      46.667  27.171  36.162  1.00  0.00     0.022 A 
BRANCH  64  67
ATOM     67  S   UNL A   1      45.221  25.234  37.457  1.00  0.00     0.127 S 
ATOM     68  O   UNL A   1      46.501  25.294  38.160  1.00  0.00    -0.237 OA
ATOM     69  O   UNL A   1      44.088  25.785  38.202  1.00  0.00    -0.237 OA
ATOM     70  O   UNL A   1      44.938  23.977  36.775  1.00  0.00    -0.744 OA
ENDBRANCH  64  67
ENDBRANCH  37  60
ENDBRANCH  11  12
ENDBRANCH   4   6
ENDBRANCH   3   4
ENDBRANCH   2   3
ENDBRANCH   1   2
BRANCH   1  71
ATOM     71  O   UNL A   1      31.115  27.200  27.267  1.00  0.00    -0.374 OA
BRANCH  71  72
ATOM     72  C   UNL A   1      30.962  26.556  26.002  1.00  0.00     0.202 C 
BRANCH  72  73
ATOM     73  C   UNL A   1      30.437  25.151  26.241  1.00  0.00     0.261 C 
BRANCH  73  74
ATOM     74  O   UNL A   1      31.576  24.300  26.090  1.00  0.00    -0.458 OA
BRANCH  74  75
ATOM     75  C   UNL A   1      31.261  23.002  25.957  1.00  0.00     0.359 C 
ATOM     76  O   UNL A   1      30.184  22.483  26.220  1.00  0.00    -0.244 OA
BRANCH  75  77
ATOM     77  C   UNL A   1      32.474  22.253  25.636  1.00  0.00     0.179 A 
ATOM     78  N   UNL A   1      33.245  22.050  26.761  1.00  0.00    -0.245 NA
ATOM     79  C   UNL A   1      32.847  21.792  24.377  1.00  0.00     0.161 A 
ATOM     80  C   UNL A   1      34.418  21.419  26.584  1.00  0.00     0.132 A 
ATOM     81  N   UNL A   1      34.027  21.083  24.260  1.00  0.00    -0.247 NA
ATOM     82  C   UNL A   1      34.799  20.935  25.356  1.00  0.00     0.132 A 
BRANCH  79  83
ATOM     83  C   UNL A   1      32.374  22.191  23.018  1.00  0.00     0.276 C 
ATOM     84  O   UNL A   1      32.097  21.243  22.258  1.00  0.00    -0.267 OA
ATOM     85  N   UNL A   1      32.132  23.410  22.444  1.00  0.00    -0.320 N 
ATOM     86  H   UNL A   1      31.715  23.284  21.560  1.00  0.00     0.170 HD
BRANCH  85  87
ATOM     87  C   UNL A   1      32.283  24.772  22.702  1.00  0.00     0.045 A 
ATOM     88  C   UNL A   1      33.455  25.389  23.127  1.00  0.00     0.030 A 
ATOM     89  C   UNL A   1      31.146  25.563  22.440  1.00  0.00     0.076 A 
ATOM     90  C   UNL A   1      33.567  26.791  23.115  1.00  0.00     0.053 A 
ATOM     91  C   UNL A   1      31.271  26.935  22.466  1.00  0.00     0.167 A 
ATOM     92  C   UNL A   1      32.463  27.536  22.763  1.00  0.00     0.165 A 
ATOM     93  O   UNL A   1      30.291  27.829  22.171  1.00  0.00    -0.454 OA
ATOM     94  O   UNL A   1      32.397  28.890  22.671  1.00  0.00    -0.454 OA
ATOM     95  C   UNL A   1      31.009  29.077  22.309  1.00  0.00     0.468 C 
ENDBRANCH  85  87
ENDBRANCH  79  83
ENDBRANCH  75  77
ENDBRANCH  74  75
ENDBRANCH  73  74
ENDBRANCH  72  73
ENDBRANCH  71  72
ENDBRANCH   1  71
TORSDOF 19
ENDMDL
MODEL 2
REMARK VINA RESULT:     -11.7      1.658      3.589
REMARK SMILES O=C(OCCOCCOC(=O)c1nccnc1C(=O)Nc1ccc2c(c1)OCO2)c1ccc(-c2c3nc(c(-c4cccc(S(=O)(=O)[O-])c4F)c4ccc([nH]4)c(-c4cccc(S(=O)(=O)[O-])c4F)c4nc(c(-c5cccc(S(=O)(=O)[O-])c5F)c5ccc2[nH]5)C=C4)C=C3)cc1
REMARK SMILES IDX 5 1 4 2 3 3 2 4 1 5 30 6 31 7 92 8 32 9 91 10 33 11 34 12
REMARK SMILES IDX 35 13 85 14 36 15 90 16 84 17 86 18 37 19 89 20 83 21 82 22
REMARK SMILES IDX 38 24 70 25 50 26 69 27 51 28 54 29 68 30 87 31 52 32 53 33
REMARK SMILES IDX 67 35 88 36 55 37 39 38 40 39 48 40 41 41 43 42 49 43 42 44
REMARK SMILES IDX 44 45 45 46 46 47 47 48 71 49 72 50 80 51 73 52 75 53 81 54
REMARK SMILES IDX 74 55 76 56 77 57 78 58 79 59 56 60 57 61 65 62 58 63 60 64
REMARK SMILES IDX 66 65 59 66 61 67 62 68 63 69 64 70 6 71 7 72 8 73 9 74
REMARK SMILES IDX 10 75 11 76 12 77 13 78 17 79 14 80 16 81 15 82 18 83 19 84
REMARK SMILES IDX 20 85 21 87 22 88 26 89 23 90 25 91 24 92 27 93 29 94 28 95
REMARK H PARENT 86 23 54 34 20 86
REMARK Flexibility Score: inf
ROOT
ATOM      1  C   UNL A   1      32.013  28.466  23.627  1.00  0.00     0.202 C 
ENDROOT
BRANCH   1   2
ATOM      2  C   UNL A   1      33.041  29.340  24.350  1.00  0.00     0.261 C 
BRANCH   2   3
ATOM      3  O   UNL A   1      32.921  29.424  25.784  1.00  0.00    -0.460 OA
BRANCH   3   4
ATOM      4  C   UNL A   1      33.166  30.455  26.618  1.00  0.00     0.338 C 
ATOM      5  O   UNL A   1      32.340  31.350  26.758  1.00  0.00    -0.246 OA
BRANCH   4   6
ATOM      6  C   UNL A   1      34.424  30.516  27.381  1.00  0.00     0.060 A 
ATOM      7  C   UNL A   1      35.089  31.714  27.655  1.00  0.00     0.016 A 
ATOM      8  C   UNL A   1      34.866  29.332  27.970  1.00  0.00     0.016 A 
ATOM      9  C   UNL A   1      36.291  31.713  28.354  1.00  0.00     0.010 A 
ATOM     10  C   UNL A   1      36.010  29.345  28.760  1.00  0.00     0.010 A 
ATOM     11  C   UNL A   1      36.760  30.525  28.914  1.00  0.00    -0.014 A 
BRANCH  11  12
ATOM     12  C   UNL A   1      38.056  30.454  29.621  1.00  0.00     0.031 A 
ATOM     13  C   UNL A   1      39.131  29.600  29.021  1.00  0.00     0.074 A 
ATOM     14  C   UNL A   1      38.229  31.058  30.809  1.00  0.00     0.049 A 
ATOM     15  N   UNL A   1      40.182  29.075  29.582  1.00  0.00    -0.248 NA
ATOM     16  C   UNL A   1      38.967  29.257  27.596  1.00  0.00     0.031 C 
ATOM     17  C   UNL A   1      37.268  31.950  31.457  1.00  0.00     0.029 A 
ATOM     18  N   UNL A   1      39.263  30.970  31.707  1.00  0.00    -0.354 N 
ATOM     19  C   UNL A   1      40.745  28.250  28.614  1.00  0.00     0.074 A 
ATOM     20  C   UNL A   1      39.937  28.373  27.422  1.00  0.00     0.031 C 
ATOM     21  C   UNL A   1      37.744  32.313  32.657  1.00  0.00     0.029 A 
ATOM     22  C   UNL A   1      39.000  31.610  32.896  1.00  0.00     0.049 A 
ATOM     23  H   UNL A   1      40.106  30.499  31.519  1.00  0.00     0.167 HD
ATOM     24  C   UNL A   1      41.831  27.453  28.728  1.00  0.00     0.034 A 
ATOM     25  C   UNL A   1      39.665  31.574  34.068  1.00  0.00     0.034 A 
ATOM     26  C   UNL A   1      42.645  27.404  29.909  1.00  0.00     0.049 A 
ATOM     27  C   UNL A   1      40.900  30.720  34.160  1.00  0.00     0.074 A 
ATOM     28  C   UNL A   1      43.781  26.656  30.149  1.00  0.00     0.029 A 
ATOM     29  N   UNL A   1      42.407  28.158  31.052  1.00  0.00    -0.354 N 
ATOM     30  N   UNL A   1      41.436  29.949  33.243  1.00  0.00    -0.248 NA
ATOM     31  C   UNL A   1      41.628  30.733  35.435  1.00  0.00     0.031 C 
ATOM     32  C   UNL A   1      44.230  26.959  31.439  1.00  0.00     0.029 A 
ATOM     33  C   UNL A   1      43.383  27.906  31.996  1.00  0.00     0.049 A 
ATOM     34  H   UNL A   1      41.654  28.779  31.171  1.00  0.00     0.167 HD
ATOM     35  C   UNL A   1      42.577  29.406  33.818  1.00  0.00     0.074 A 
ATOM     36  C   UNL A   1      42.662  29.948  35.161  1.00  0.00     0.031 C 
ATOM     37  C   UNL A   1      43.466  28.525  33.296  1.00  0.00     0.034 A 
BRANCH  24  38
ATOM     38  C   UNL A   1      42.172  26.581  27.551  1.00  0.00     0.023 A 
ATOM     39  C   UNL A   1      42.813  27.135  26.424  1.00  0.00     0.012 A 
ATOM     40  C   UNL A   1      41.832  25.213  27.547  1.00  0.00     0.148 A 
ATOM     41  C   UNL A   1      43.066  26.355  25.295  1.00  0.00     0.002 A 
ATOM     42  C   UNL A   1      42.126  24.433  26.435  1.00  0.00     0.091 A 
ATOM     43  F   UNL A   1      41.193  24.708  28.612  1.00  0.00    -0.205 F 
ATOM     44  C   UNL A   1      42.728  25.004  25.303  1.00  0.00     0.022 A 
BRANCH  42  45
ATOM     45  S   UNL A   1      41.779  22.670  26.386  1.00  0.00     0.127 S 
ATOM     46  O   UNL A   1      42.446  22.272  25.148  1.00  0.00    -0.237 OA
ATOM     47  O   UNL A   1      42.425  22.190  27.608  1.00  0.00    -0.237 OA
ATOM     48  O   UNL A   1      40.328  22.556  26.390  1.00  0.00    -0.744 OA
ENDBRANCH  42  45
ENDBRANCH  24  38
BRANCH  25  49
ATOM     49  C   UNL A   1      39.170  32.382  35.220  1.00  0.00     0.023 A 
ATOM     50  C   UNL A   1      38.260  31.805  36.126  1.00  0.00     0.012 A 
ATOM     51  C   UNL A   1      39.665  33.677  35.478  1.00  0.00     0.148 A 
ATOM     52  C   UNL A   1      37.845  32.504  37.261  1.00  0.00     0.002 A 
ATOM     53  C   UNL A   1      39.296  34.342  36.642  1.00  0.00     0.091 A 
ATOM     54  F   UNL A   1      40.521  34.216  34.598  1.00  0.00    -0.205 F 
ATOM     55  C   UNL A   1      38.374  33.763  37.527  1.00  0.00     0.022 A 
BRANCH  53  56
ATOM     56  S   UNL A   1      40.051  35.891  37.149  1.00  0.00     0.127 S 
ATOM     57  O   UNL A   1      39.753  36.756  36.010  1.00  0.00    -0.237 OA
ATOM     58  O   UNL A   1      39.307  36.201  38.371  1.00  0.00    -0.237 OA
ATOM     59  O   UNL A   1      41.459  35.590  37.365  1.00  0.00    -0.744 OA
ENDBRANCH  53  56
ENDBRANCH  25  49
BRANCH  37  60
ATOM     60  C   UNL A   1      44.637  28.129  34.149  1.00  0.00     0.023 A 
ATOM     61  C   UNL A   1      45.810  28.906  34.128  1.00  0.00     0.012 A 
ATOM     62  C   UNL A   1      44.518  27.066  35.066  1.00  0.00     0.148 A 
ATOM     63  C   UNL A   1      46.855  28.625  35.005  1.00  0.00     0.002 A 
ATOM     64  C   UNL A   1      45.545  26.819  35.965  1.00  0.00     0.091 A 
ATOM     65  F   UNL A   1      43.397  26.331  35.048  1.00  0.00    -0.205 F 
ATOM     66  C   UNL A   1      46.717  27.593  35.933  1.00  0.00     0.022 A 
BRANCH  64  67
ATOM     67  S   UNL A   1      45.409  25.579  37.256  1.00  0.00     0.127 S 
ATOM     68  O   UNL A   1      45.055  24.387  36.487  1.00  0.00    -0.237 OA
ATOM     69  O   UNL A   1      46.760  25.564  37.819  1.00  0.00    -0.237 OA
ATOM     70  O   UNL A   1      44.381  26.062  38.170  1.00  0.00    -0.744 OA
ENDBRANCH  64  67
ENDBRANCH  37  60
ENDBRANCH  11  12
ENDBRANCH   4   6
ENDBRANCH   3   4
ENDBRANCH   2   3
ENDBRANCH   1   2
BRANCH   1  71
ATOM     71  O   UNL A   1      32.243  27.078  23.429  1.00  0.00    -0.374 OA
BRANCH  71  72
ATOM     72  C   UNL A   1      31.200  26.134  23.677  1.00  0.00     0.202 C 
BRANCH  72  73
ATOM     73  C   UNL A   1      31.547  24.840  22.962  1.00  0.00     0.261 C 
BRANCH  73  74
ATOM     74  O   UNL A   1      32.971  24.860  22.831  1.00  0.00    -0.458 OA
BRANCH  74  75
ATOM     75  C   UNL A   1      33.485  23.695  22.408  1.00  0.00     0.359 C 
ATOM     76  O   UNL A   1      33.110  23.039  21.446  1.00  0.00    -0.244 OA
BRANCH  75  77
ATOM     77  C   UNL A   1      34.448  23.217  23.399  1.00  0.00     0.179 A 
ATOM     78  N   UNL A   1      35.738  23.301  22.918  1.00  0.00    -0.245 NA
ATOM     79  C   UNL A   1      34.150  22.729  24.666  1.00  0.00     0.161 A 
ATOM     80  C   UNL A   1      36.713  22.837  23.718  1.00  0.00     0.132 A 
ATOM     81  N   UNL A   1      35.195  22.334  25.481  1.00  0.00    -0.247 NA
ATOM     82  C   UNL A   1      36.447  22.370  24.982  1.00  0.00     0.132 A 
BRANCH  79  83
ATOM     83  C   UNL A   1      32.864  22.228  25.237  1.00  0.00     0.276 C 
ATOM     84  O   UNL A   1      32.229  23.060  25.913  1.00  0.00    -0.267 OA
ATOM     85  N   UNL A   1      32.205  21.033  25.123  1.00  0.00    -0.320 N 
ATOM     86  H   UNL A   1      31.318  21.101  25.547  1.00  0.00     0.170 HD
BRANCH  85  87
ATOM     87  C   UNL A   1      32.381  19.751  24.604  1.00  0.00     0.045 A 
ATOM     88  C   UNL A   1      32.204  19.386  23.273  1.00  0.00     0.030 A 
ATOM     89  C   UNL A   1      32.837  18.787  25.526  1.00  0.00     0.076 A 
ATOM     90  C   UNL A   1      32.648  18.134  22.813  1.00  0.00     0.053 A 
ATOM     91  C   UNL A   1      33.236  17.555  25.057  1.00  0.00     0.167 A 
ATOM     92  C   UNL A   1      33.175  17.246  23.725  1.00  0.00     0.165 A 
ATOM     93  O   UNL A   1      33.759  16.549  25.805  1.00  0.00    -0.454 OA
ATOM     94  O   UNL A   1      33.675  16.012  23.457  1.00  0.00    -0.454 OA
ATOM     95  C   UNL A   1      34.032  15.561  24.784  1.00  0.00     0.468 C 
ENDBRANCH  85  87
ENDBRANCH  79  83
ENDBRANCH  75  77
ENDBRANCH  74  75
ENDBRANCH  73  74
ENDBRANCH  72  73
ENDBRANCH  71  72
ENDBRANCH   1  71
TORSDOF 19
ENDMDL
MODEL 3
REMARK VINA RESULT:     -11.6      4.792      9.803
REMARK SMILES O=C(OCCOCCOC(=O)c1nccnc1C(=O)Nc1ccc2c(c1)OCO2)c1ccc(-c2c3nc(c(-c4cccc(S(=O)(=O)[O-])c4F)c4ccc([nH]4)c(-c4cccc(S(=O)(=O)[O-])c4F)c4nc(c(-c5cccc(S(=O)(=O)[O-])c5F)c5ccc2[nH]5)C=C4)C=C3)cc1
REMARK SMILES IDX 5 1 4 2 3 3 2 4 1 5 30 6 31 7 92 8 32 9 91 10 33 11 34 12
REMARK SMILES IDX 35 13 85 14 36 15 90 16 84 17 86 18 37 19 89 20 83 21 82 22
REMARK SMILES IDX 38 24 70 25 50 26 69 27 51 28 54 29 68 30 87 31 52 32 53 33
REMARK SMILES IDX 67 35 88 36 55 37 39 38 40 39 48 40 41 41 43 42 49 43 42 44
REMARK SMILES IDX 44 45 45 46 46 47 47 48 71 49 72 50 80 51 73 52 75 53 81 54
REMARK SMILES IDX 74 55 76 56 77 57 78 58 79 59 56 60 57 61 65 62 58 63 60 64
REMARK SMILES IDX 66 65 59 66 61 67 62 68 63 69 64 70 6 71 7 72 8 73 9 74
REMARK SMILES IDX 10 75 11 76 12 77 13 78 17 79 14 80 16 81 15 82 18 83 19 84
REMARK SMILES IDX 20 85 21 87 22 88 26 89 23 90 25 91 24 92 27 93 29 94 28 95
REMARK H PARENT 86 23 54 34 20 86
REMARK Flexibility Score: inf
ROOT
ATOM      1  C   UNL A   1      35.553  22.748  23.996  1.00  0.00     0.202 C 
ENDROOT
BRANCH   1   2
ATOM      2  C   UNL A   1      36.011  21.416  24.596  1.00  0.00     0.261 C 
BRANCH   2   3
ATOM      3  O   UNL A   1      36.879  21.491  25.745  1.00  0.00    -0.460 OA
BRANCH   3   4
ATOM      4  C   UNL A   1      38.225  21.473  25.820  1.00  0.00     0.338 C 
ATOM      5  O   UNL A   1      38.854  20.487  25.451  1.00  0.00    -0.246 OA
BRANCH   4   6
ATOM      6  C   UNL A   1      38.960  22.639  26.337  1.00  0.00     0.060 A 
ATOM      7  C   UNL A   1      38.537  23.954  26.131  1.00  0.00     0.016 A 
ATOM      8  C   UNL A   1      40.034  22.385  27.189  1.00  0.00     0.016 A 
ATOM      9  C   UNL A   1      39.285  25.023  26.615  1.00  0.00     0.010 A 
ATOM     10  C   UNL A   1      40.721  23.450  27.761  1.00  0.00     0.010 A 
ATOM     11  C   UNL A   1      40.384  24.776  27.437  1.00  0.00    -0.014 A 
BRANCH  11  12
ATOM     12  C   UNL A   1      41.246  25.868  27.935  1.00  0.00     0.031 A 
ATOM     13  C   UNL A   1      40.603  26.940  28.762  1.00  0.00     0.074 A 
ATOM     14  C   UNL A   1      42.539  25.947  27.579  1.00  0.00     0.049 A 
ATOM     15  N   UNL A   1      41.008  28.153  29.007  1.00  0.00    -0.248 NA
ATOM     16  C   UNL A   1      39.297  26.604  29.358  1.00  0.00     0.031 C 
ATOM     17  C   UNL A   1      43.274  24.935  26.820  1.00  0.00     0.029 A 
ATOM     18  N   UNL A   1      43.454  26.952  27.769  1.00  0.00    -0.354 N 
ATOM     19  C   UNL A   1      39.961  28.763  29.688  1.00  0.00     0.074 A 
ATOM     20  C   UNL A   1      38.918  27.775  29.848  1.00  0.00     0.031 C 
ATOM     21  C   UNL A   1      44.519  25.376  26.590  1.00  0.00     0.029 A 
ATOM     22  C   UNL A   1      44.640  26.734  27.108  1.00  0.00     0.049 A 
ATOM     23  H   UNL A   1      43.278  27.747  28.322  1.00  0.00     0.167 HD
ATOM     24  C   UNL A   1      39.882  30.040  30.124  1.00  0.00     0.034 A 
ATOM     25  C   UNL A   1      45.678  27.565  26.889  1.00  0.00     0.034 A 
ATOM     26  C   UNL A   1      40.963  30.977  30.002  1.00  0.00     0.049 A 
ATOM     27  C   UNL A   1      45.592  28.969  27.424  1.00  0.00     0.074 A 
ATOM     28  C   UNL A   1      41.021  32.293  30.417  1.00  0.00     0.029 A 
ATOM     29  N   UNL A   1      42.192  30.678  29.428  1.00  0.00    -0.354 N 
ATOM     30  N   UNL A   1      44.607  29.540  28.076  1.00  0.00    -0.248 NA
ATOM     31  C   UNL A   1      46.755  29.839  27.207  1.00  0.00     0.031 C 
ATOM     32  C   UNL A   1      42.288  32.790  30.094  1.00  0.00     0.029 A 
ATOM     33  C   UNL A   1      43.024  31.779  29.491  1.00  0.00     0.049 A 
ATOM     34  H   UNL A   1      42.435  29.810  29.034  1.00  0.00     0.167 HD
ATOM     35  C   UNL A   1      45.039  30.827  28.371  1.00  0.00     0.074 A 
ATOM     36  C   UNL A   1      46.382  30.946  27.837  1.00  0.00     0.031 C 
ATOM     37  C   UNL A   1      44.382  31.828  29.007  1.00  0.00     0.034 A 
BRANCH  24  38
ATOM     38  C   UNL A   1      38.586  30.476  30.751  1.00  0.00     0.023 A 
ATOM     39  C   UNL A   1      38.324  30.183  32.105  1.00  0.00     0.012 A 
ATOM     40  C   UNL A   1      37.612  31.153  29.992  1.00  0.00     0.148 A 
ATOM     41  C   UNL A   1      37.095  30.512  32.678  1.00  0.00     0.002 A 
ATOM     42  C   UNL A   1      36.406  31.515  30.582  1.00  0.00     0.091 A 
ATOM     43  F   UNL A   1      37.861  31.395  28.697  1.00  0.00    -0.205 F 
ATOM     44  C   UNL A   1      36.140  31.184  31.919  1.00  0.00     0.022 A 
BRANCH  42  45
ATOM     45  S   UNL A   1      35.145  32.436  29.692  1.00  0.00     0.127 S 
ATOM     46  O   UNL A   1      34.213  32.775  30.766  1.00  0.00    -0.237 OA
ATOM     47  O   UNL A   1      35.902  33.571  29.161  1.00  0.00    -0.237 OA
ATOM     48  O   UNL A   1      34.638  31.524  28.677  1.00  0.00    -0.744 OA
ENDBRANCH  42  45
ENDBRANCH  24  38
BRANCH  25  49
ATOM     49  C   UNL A   1      46.870  27.071  26.141  1.00  0.00     0.023 A 
ATOM     50  C   UNL A   1      46.978  27.334  24.763  1.00  0.00     0.012 A 
ATOM     51  C   UNL A   1      47.940  26.431  26.801  1.00  0.00     0.148 A 
ATOM     52  C   UNL A   1      48.121  26.962  24.053  1.00  0.00     0.002 A 
ATOM     53  C   UNL A   1      49.100  26.119  26.102  1.00  0.00     0.091 A 
ATOM     54  F   UNL A   1      47.816  26.177  28.112  1.00  0.00    -0.205 F 
ATOM     55  C   UNL A   1      49.187  26.370  24.724  1.00  0.00     0.022 A 
BRANCH  53  56
ATOM     56  S   UNL A   1      50.582  25.509  26.915  1.00  0.00     0.127 S 
ATOM     57  O   UNL A   1      50.922  26.624  27.794  1.00  0.00    -0.237 OA
ATOM     58  O   UNL A   1      50.078  24.316  27.597  1.00  0.00    -0.237 OA
ATOM     59  O   UNL A   1      51.531  25.231  25.846  1.00  0.00    -0.744 OA
ENDBRANCH  53  56
ENDBRANCH  25  49
BRANCH  37  60
ATOM     60  C   UNL A   1      45.116  33.122  29.214  1.00  0.00     0.023 A 
ATOM     61  C   UNL A   1      45.948  33.280  30.337  1.00  0.00     0.012 A 
ATOM     62  C   UNL A   1      45.081  34.121  28.222  1.00  0.00     0.148 A 
ATOM     63  C   UNL A   1      46.731  34.424  30.476  1.00  0.00     0.002 A 
ATOM     64  C   UNL A   1      45.896  35.238  28.345  1.00  0.00     0.091 A 
ATOM     65  F   UNL A   1      44.263  33.951  27.173  1.00  0.00    -0.205 F 
ATOM     66  C   UNL A   1      46.717  35.394  29.474  1.00  0.00     0.022 A 
BRANCH  64  67
ATOM     67  S   UNL A   1      46.015  36.482  27.057  1.00  0.00     0.127 S 
ATOM     68  O   UNL A   1      44.653  37.014  27.031  1.00  0.00    -0.237 OA
ATOM     69  O   UNL A   1      47.018  37.399  27.600  1.00  0.00    -0.237 OA
ATOM     70  O   UNL A   1      46.434  35.775  25.854  1.00  0.00    -0.744 OA
ENDBRANCH  64  67
ENDBRANCH  37  60
ENDBRANCH  11  12
ENDBRANCH   4   6
ENDBRANCH   3   4
ENDBRANCH   2   3
ENDBRANCH   1   2
BRANCH   1  71
ATOM     71  O   UNL A   1      34.279  22.873  23.379  1.00  0.00    -0.374 OA
BRANCH  71  72
ATOM     72  C   UNL A   1      33.949  24.054  22.647  1.00  0.00     0.202 C 
BRANCH  72  73
ATOM     73  C   UNL A   1      33.927  25.225  23.614  1.00  0.00     0.261 C 
BRANCH  73  74
ATOM     74  O   UNL A   1      32.632  25.811  23.455  1.00  0.00    -0.458 OA
BRANCH  74  75
ATOM     75  C   UNL A   1      32.622  27.142  23.630  1.00  0.00     0.359 C 
ATOM     76  O   UNL A   1      32.991  27.986  22.826  1.00  0.00    -0.244 OA
BRANCH  75  77
ATOM     77  C   UNL A   1      32.285  27.430  25.023  1.00  0.00     0.179 A 
ATOM     78  N   UNL A   1      33.236  28.241  25.606  1.00  0.00    -0.245 NA
ATOM     79  C   UNL A   1      31.169  26.967  25.713  1.00  0.00     0.161 A 
ATOM     80  C   UNL A   1      33.067  28.532  26.907  1.00  0.00     0.132 A 
ATOM     81  N   UNL A   1      31.000  27.357  27.028  1.00  0.00    -0.247 NA
ATOM     82  C   UNL A   1      31.963  28.105  27.604  1.00  0.00     0.132 A 
BRANCH  79  83
ATOM     83  C   UNL A   1      30.240  25.838  25.410  1.00  0.00     0.276 C 
ATOM     84  O   UNL A   1      29.086  26.177  25.086  1.00  0.00    -0.267 OA
ATOM     85  N   UNL A   1      30.418  24.480  25.369  1.00  0.00    -0.320 N 
ATOM     86  H   UNL A   1      29.605  24.049  25.017  1.00  0.00     0.170 HD
BRANCH  85  87
ATOM     87  C   UNL A   1      31.375  23.510  25.663  1.00  0.00     0.045 A 
ATOM     88  C   UNL A   1      32.351  23.609  26.649  1.00  0.00     0.030 A 
ATOM     89  C   UNL A   1      31.270  22.318  24.918  1.00  0.00     0.076 A 
ATOM     90  C   UNL A   1      33.097  22.479  27.029  1.00  0.00     0.053 A 
ATOM     91  C   UNL A   1      32.036  21.234  25.286  1.00  0.00     0.167 A 
ATOM     92  C   UNL A   1      32.906  21.301  26.340  1.00  0.00     0.165 A 
ATOM     93  O   UNL A   1      32.000  20.002  24.714  1.00  0.00    -0.454 OA
ATOM     94  O   UNL A   1      33.515  20.113  26.585  1.00  0.00    -0.454 OA
ATOM     95  C   UNL A   1      32.950  19.289  25.539  1.00  0.00     0.468 C 
ENDBRANCH  85  87
ENDBRANCH  79  83
ENDBRANCH  75  77
ENDBRANCH  74  75
ENDBRANCH  73  74
ENDBRANCH  72  73
ENDBRANCH  71  72
ENDBRANCH   1  71
TORSDOF 19
ENDMDL
