MODEL 1
REMARK VINA RESULT:      -9.8      0.000      0.000
REMARK SMILES CC[C@H](CCO)CNc1cc(C(=O)OCCOCCOC(=O)c2ccc(-c3c4nc(c(-c5cccc(S(=O)(=O)[O-])c5F)c5ccc([nH]5)c(-c5cccc(S(=O)(=O)[O-])c5F)c5nc(c(-c6cccc(S(=O)(=O)[O-])c6F)c6ccc3[nH]6)C=C5)C=C4)cc2)ccn1
REMARK SMILES IDX 15 1 14 2 12 3 13 4 11 5 9 6 10 7 88 8 87 9 86 10 8 11 7 13
REMARK SMILES IDX 3 14 2 15 1 16 4 17 5 18 6 19 16 21 17 22 18 23 19 24 20 25
REMARK SMILES IDX 21 26 22 27 23 28 24 29 85 30 25 31 84 32 26 33 27 34 28 35
REMARK SMILES IDX 78 36 29 37 83 38 77 39 79 40 30 41 82 42 76 43 75 44 31 46
REMARK SMILES IDX 63 47 43 48 62 49 44 50 47 51 61 52 80 53 45 54 46 55 60 57
REMARK SMILES IDX 81 58 48 59 32 60 33 61 41 62 34 63 36 64 42 65 35 66 37 67
REMARK SMILES IDX 38 68 39 69 40 70 64 71 65 72 73 73 66 74 68 75 74 76 67 77
REMARK SMILES IDX 69 78 70 79 71 80 72 81 49 82 50 83 58 84 51 85 53 86 59 87
REMARK SMILES IDX 52 88 54 89 55 90 56 91 57 92
REMARK H PARENT 8 12 6 20 79 45 47 56
REMARK Flexibility Score: inf
ROOT
ATOM      1  C   UNL A   1      32.857  20.190  25.522  1.00  0.00     0.261 C 
ENDROOT
BRANCH   1   2
ATOM      2  O   UNL A   1      32.222  20.942  24.475  1.00  0.00    -0.460 OA
BRANCH   2   3
ATOM      3  C   UNL A   1      31.717  22.142  24.843  1.00  0.00     0.338 C 
ATOM      4  O   UNL A   1      30.895  22.358  25.724  1.00  0.00    -0.246 OA
BRANCH   3   5
ATOM      5  C   UNL A   1      32.439  23.227  24.149  1.00  0.00     0.065 A 
ATOM      6  C   UNL A   1      33.299  25.452  23.995  1.00  0.00     0.126 A 
ATOM      7  C   UNL A   1      32.579  24.499  24.700  1.00  0.00     0.062 A 
ATOM      8  N   UNL A   1      33.783  25.203  22.760  1.00  0.00    -0.240 NA
ATOM      9  C   UNL A   1      33.615  23.971  22.238  1.00  0.00     0.114 A 
ATOM     10  C   UNL A   1      32.973  22.947  22.895  1.00  0.00     0.036 A 
BRANCH   6  11
ATOM     11  N   UNL A   1      33.589  26.700  24.484  1.00  0.00    -0.370 N 
ATOM     12  H   UNL A   1      33.704  26.806  25.456  1.00  0.00     0.162 HD
BRANCH  11  13
ATOM     13  C   UNL A   1      33.732  27.875  23.642  1.00  0.00     0.118 C 
BRANCH  13  14
ATOM     14  C   UNL A   1      32.457  28.758  23.695  1.00  0.00     0.010 C 
BRANCH  14  15
ATOM     15  C   UNL A   1      31.941  28.804  25.154  1.00  0.00     0.002 C 
ATOM     16  C   UNL A   1      31.848  30.214  25.728  1.00  0.00     0.004 C 
ENDBRANCH  14  15
BRANCH  14  17
ATOM     17  C   UNL A   1      31.408  28.194  22.699  1.00  0.00     0.033 C 
BRANCH  17  18
ATOM     18  C   UNL A   1      30.227  29.095  22.362  1.00  0.00     0.156 C 
BRANCH  18  19
ATOM     19  O   UNL A   1      30.576  30.057  21.376  1.00  0.00    -0.396 OA
ATOM     20  H   UNL A   1      31.139  30.739  21.775  1.00  0.00     0.210 HD
ENDBRANCH  18  19
ENDBRANCH  17  18
ENDBRANCH  14  17
ENDBRANCH  13  14
ENDBRANCH  11  13
ENDBRANCH   6  11
ENDBRANCH   3   5
ENDBRANCH   2   3
ENDBRANCH   1   2
BRANCH   1  21
ATOM     21  C   UNL A   1      33.762  21.079  26.380  1.00  0.00     0.202 C 
BRANCH  21  22
ATOM     22  O   UNL A   1      35.106  21.244  25.922  1.00  0.00    -0.374 OA
BRANCH  22  23
ATOM     23  C   UNL A   1      35.641  20.201  25.106  1.00  0.00     0.202 C 
BRANCH  23  24
ATOM     24  C   UNL A   1      37.080  20.383  24.606  1.00  0.00     0.261 C 
BRANCH  24  25
ATOM     25  O   UNL A   1      37.736  21.496  25.236  1.00  0.00    -0.460 OA
BRANCH  25  26
ATOM     26  C   UNL A   1      38.867  21.179  25.908  1.00  0.00     0.338 C 
ATOM     27  O   UNL A   1      39.463  20.111  25.886  1.00  0.00    -0.246 OA
BRANCH  26  28
ATOM     28  C   UNL A   1      39.417  22.379  26.565  1.00  0.00     0.060 A 
ATOM     29  C   UNL A   1      38.906  23.622  26.169  1.00  0.00     0.016 A 
ATOM     30  C   UNL A   1      40.456  22.302  27.495  1.00  0.00     0.016 A 
ATOM     31  C   UNL A   1      39.470  24.797  26.659  1.00  0.00     0.010 A 
ATOM     32  C   UNL A   1      41.025  23.483  27.982  1.00  0.00     0.010 A 
ATOM     33  C   UNL A   1      40.561  24.734  27.536  1.00  0.00    -0.014 A 
BRANCH  33  34
ATOM     34  C   UNL A   1      41.298  25.976  27.878  1.00  0.00     0.031 A 
ATOM     35  C   UNL A   1      40.587  27.065  28.632  1.00  0.00     0.074 A 
ATOM     36  C   UNL A   1      42.586  26.128  27.525  1.00  0.00     0.049 A 
ATOM     37  N   UNL A   1      41.031  28.235  29.013  1.00  0.00    -0.248 NA
ATOM     38  C   UNL A   1      39.186  26.805  29.006  1.00  0.00     0.031 C 
ATOM     39  C   UNL A   1      43.383  25.143  26.794  1.00  0.00     0.029 A 
ATOM     40  N   UNL A   1      43.444  27.182  27.714  1.00  0.00    -0.354 N 
ATOM     41  C   UNL A   1      39.961  28.861  29.641  1.00  0.00     0.074 A 
ATOM     42  C   UNL A   1      38.841  27.947  29.580  1.00  0.00     0.031 C 
ATOM     43  C   UNL A   1      44.607  25.652  26.572  1.00  0.00     0.029 A 
ATOM     44  C   UNL A   1      44.672  27.005  27.121  1.00  0.00     0.049 A 
ATOM     45  H   UNL A   1      43.203  27.989  28.224  1.00  0.00     0.167 HD
ATOM     46  C   UNL A   1      39.919  30.079  30.230  1.00  0.00     0.034 A 
ATOM     47  C   UNL A   1      45.720  27.847  27.017  1.00  0.00     0.034 A 
ATOM     48  C   UNL A   1      41.040  30.977  30.308  1.00  0.00     0.049 A 
ATOM     49  C   UNL A   1      45.641  29.204  27.666  1.00  0.00     0.074 A 
ATOM     50  C   UNL A   1      41.111  32.212  30.930  1.00  0.00     0.029 A 
ATOM     51  N   UNL A   1      42.281  30.745  29.737  1.00  0.00    -0.354 N 
ATOM     52  N   UNL A   1      44.663  29.732  28.361  1.00  0.00    -0.248 NA
ATOM     53  C   UNL A   1      46.824  30.070  27.544  1.00  0.00     0.031 C 
ATOM     54  C   UNL A   1      42.387  32.739  30.708  1.00  0.00     0.029 A 
ATOM     55  C   UNL A   1      43.122  31.818  29.979  1.00  0.00     0.049 A 
ATOM     56  H   UNL A   1      42.529  29.936  29.235  1.00  0.00     0.167 HD
ATOM     57  C   UNL A   1      45.126  30.972  28.793  1.00  0.00     0.074 A 
ATOM     58  C   UNL A   1      46.479  31.107  28.295  1.00  0.00     0.031 C 
ATOM     59  C   UNL A   1      44.486  31.917  29.524  1.00  0.00     0.034 A 
BRANCH  46  60
ATOM     60  C   UNL A   1      38.619  30.508  30.859  1.00  0.00     0.023 A 
ATOM     61  C   UNL A   1      38.386  30.251  32.226  1.00  0.00     0.012 A 
ATOM     62  C   UNL A   1      37.655  31.215  30.115  1.00  0.00     0.148 A 
ATOM     63  C   UNL A   1      37.201  30.662  32.834  1.00  0.00     0.002 A 
ATOM     64  C   UNL A   1      36.496  31.662  30.739  1.00  0.00     0.091 A 
ATOM     65  F   UNL A   1      37.885  31.431  28.813  1.00  0.00    -0.205 F 
ATOM     66  C   UNL A   1      36.261  31.376  32.094  1.00  0.00     0.022 A 
BRANCH  64  67
ATOM     67  S   UNL A   1      35.262  32.657  29.893  1.00  0.00     0.127 S 
ATOM     68  O   UNL A   1      34.857  31.763  28.808  1.00  0.00    -0.237 OA
ATOM     69  O   UNL A   1      34.254  32.847  30.935  1.00  0.00    -0.237 OA
ATOM     70  O   UNL A   1      35.945  33.874  29.477  1.00  0.00    -0.744 OA
ENDBRANCH  64  67
ENDBRANCH  46  60
BRANCH  47  71
ATOM     71  C   UNL A   1      46.950  27.416  26.295  1.00  0.00     0.023 A 
ATOM     72  C   UNL A   1      47.109  27.741  24.933  1.00  0.00     0.012 A 
ATOM     73  C   UNL A   1      47.969  26.701  26.954  1.00  0.00     0.148 A 
ATOM     74  C   UNL A   1      48.244  27.334  24.233  1.00  0.00     0.002 A 
ATOM     75  C   UNL A   1      49.125  26.349  26.265  1.00  0.00     0.091 A 
ATOM     76  F   UNL A   1      47.793  26.387  28.244  1.00  0.00    -0.205 F 
ATOM     77  C   UNL A   1      49.256  26.648  24.900  1.00  0.00     0.022 A 
BRANCH  75  78
ATOM     78  S   UNL A   1      50.532  25.583  27.077  1.00  0.00     0.127 S 
ATOM     79  O   UNL A   1      49.954  24.336  27.567  1.00  0.00    -0.237 OA
ATOM     80  O   UNL A   1      51.474  25.432  25.967  1.00  0.00    -0.237 OA
ATOM     81  O   UNL A   1      50.960  26.528  28.099  1.00  0.00    -0.744 OA
ENDBRANCH  75  78
ENDBRANCH  47  71
BRANCH  59  82
ATOM     82  C   UNL A   1      45.247  33.169  29.876  1.00  0.00     0.023 A 
ATOM     83  C   UNL A   1      46.033  33.212  31.044  1.00  0.00     0.012 A 
ATOM     84  C   UNL A   1      45.241  34.279  29.007  1.00  0.00     0.148 A 
ATOM     85  C   UNL A   1      46.775  34.350  31.359  1.00  0.00     0.002 A 
ATOM     86  C   UNL A   1      46.023  35.391  29.301  1.00  0.00     0.091 A 
ATOM     87  F   UNL A   1      44.473  34.228  27.909  1.00  0.00    -0.205 F 
ATOM     88  C   UNL A   1      46.780  35.433  30.483  1.00  0.00     0.022 A 
BRANCH  86  89
ATOM     89  S   UNL A   1      46.167  36.790  28.184  1.00  0.00     0.127 S 
ATOM     90  O   UNL A   1      44.802  37.315  28.187  1.00  0.00    -0.237 OA
ATOM     91  O   UNL A   1      47.147  37.634  28.868  1.00  0.00    -0.237 OA
ATOM     92  O   UNL A   1      46.624  36.243  26.912  1.00  0.00    -0.744 OA
ENDBRANCH  86  89
ENDBRANCH  59  82
ENDBRANCH  33  34
ENDBRANCH  26  28
ENDBRANCH  25  26
ENDBRANCH  24  25
ENDBRANCH  23  24
ENDBRANCH  22  23
ENDBRANCH  21  22
ENDBRANCH   1  21
TORSDOF 24
ENDMDL
MODEL 2
REMARK VINA RESULT:      -9.4      4.585      7.983
REMARK SMILES CC[C@H](CCO)CNc1cc(C(=O)OCCOCCOC(=O)c2ccc(-c3c4nc(c(-c5cccc(S(=O)(=O)[O-])c5F)c5ccc([nH]5)c(-c5cccc(S(=O)(=O)[O-])c5F)c5nc(c(-c6cccc(S(=O)(=O)[O-])c6F)c6ccc3[nH]6)C=C5)C=C4)cc2)ccn1
REMARK SMILES IDX 15 1 14 2 12 3 13 4 11 5 9 6 10 7 88 8 87 9 86 10 8 11 7 13
REMARK SMILES IDX 3 14 2 15 1 16 4 17 5 18 6 19 16 21 17 22 18 23 19 24 20 25
REMARK SMILES IDX 21 26 22 27 23 28 24 29 85 30 25 31 84 32 26 33 27 34 28 35
REMARK SMILES IDX 78 36 29 37 83 38 77 39 79 40 30 41 82 42 76 43 75 44 31 46
REMARK SMILES IDX 63 47 43 48 62 49 44 50 47 51 61 52 80 53 45 54 46 55 60 57
REMARK SMILES IDX 81 58 48 59 32 60 33 61 41 62 34 63 36 64 42 65 35 66 37 67
REMARK SMILES IDX 38 68 39 69 40 70 64 71 65 72 73 73 66 74 68 75 74 76 67 77
REMARK SMILES IDX 69 78 70 79 71 80 72 81 49 82 50 83 58 84 51 85 53 86 59 87
REMARK SMILES IDX 52 88 54 89 55 90 56 91 57 92
REMARK H PARENT 8 12 6 20 79 45 47 56
REMARK Flexibility Score: inf
ROOT
ATOM      1  C   UNL A   1      31.809  27.873  27.523  1.00  0.00     0.261 C 
ENDROOT
BRANCH   1   2
ATOM      2  O   UNL A   1      30.888  27.022  26.823  1.00  0.00    -0.460 OA
BRANCH   2   3
ATOM      3  C   UNL A   1      31.450  26.081  26.031  1.00  0.00     0.338 C 
ATOM      4  O   UNL A   1      31.894  24.993  26.376  1.00  0.00    -0.246 OA
BRANCH   3   5
ATOM      5  C   UNL A   1      31.299  26.461  24.612  1.00  0.00     0.065 A 
ATOM      6  C   UNL A   1      30.347  27.765  22.849  1.00  0.00     0.126 A 
ATOM      7  C   UNL A   1      30.406  27.447  24.197  1.00  0.00     0.062 A 
ATOM      8  N   UNL A   1      31.063  27.084  21.929  1.00  0.00    -0.240 NA
ATOM      9  C   UNL A   1      31.904  26.118  22.353  1.00  0.00     0.114 A 
ATOM     10  C   UNL A   1      32.073  25.783  23.676  1.00  0.00     0.036 A 
BRANCH   6  11
ATOM     11  N   UNL A   1      29.585  28.785  22.341  1.00  0.00    -0.370 N 
ATOM     12  H   UNL A   1      30.019  29.444  21.751  1.00  0.00     0.162 HD
BRANCH  11  13
ATOM     13  C   UNL A   1      28.171  28.947  22.629  1.00  0.00     0.118 C 
BRANCH  13  14
ATOM     14  C   UNL A   1      27.702  30.395  22.324  1.00  0.00     0.010 C 
BRANCH  14  15
ATOM     15  C   UNL A   1      28.565  30.969  21.174  1.00  0.00     0.002 C 
ATOM     16  C   UNL A   1      27.850  32.026  20.339  1.00  0.00     0.004 C 
ENDBRANCH  14  15
BRANCH  14  17
ATOM     17  C   UNL A   1      27.787  31.239  23.624  1.00  0.00     0.033 C 
BRANCH  17  18
ATOM     18  C   UNL A   1      29.079  32.012  23.857  1.00  0.00     0.156 C 
BRANCH  18  19
ATOM     19  O   UNL A   1      30.086  31.180  24.414  1.00  0.00    -0.396 OA
ATOM     20  H   UNL A   1      30.805  31.731  24.762  1.00  0.00     0.210 HD
ENDBRANCH  18  19
ENDBRANCH  17  18
ENDBRANCH  14  17
ENDBRANCH  13  14
ENDBRANCH  11  13
ENDBRANCH   6  11
ENDBRANCH   3   5
ENDBRANCH   2   3
ENDBRANCH   1   2
BRANCH   1  21
ATOM     21  C   UNL A   1      31.428  29.350  27.379  1.00  0.00     0.202 C 
BRANCH  21  22
ATOM     22  O   UNL A   1      32.082  30.073  26.334  1.00  0.00    -0.374 OA
BRANCH  22  23
ATOM     23  C   UNL A   1      33.457  29.765  26.099  1.00  0.00     0.202 C 
BRANCH  23  24
ATOM     24  C   UNL A   1      34.463  30.242  27.153  1.00  0.00     0.261 C 
BRANCH  24  25
ATOM     25  O   UNL A   1      34.142  31.549  27.657  1.00  0.00    -0.460 OA
BRANCH  25  26
ATOM     26  C   UNL A   1      34.760  31.876  28.816  1.00  0.00     0.338 C 
ATOM     27  O   UNL A   1      34.328  32.596  29.705  1.00  0.00    -0.246 OA
BRANCH  26  28
ATOM     28  C   UNL A   1      35.997  31.086  28.968  1.00  0.00     0.060 A 
ATOM     29  C   UNL A   1      35.931  29.932  29.759  1.00  0.00     0.016 A 
ATOM     30  C   UNL A   1      37.208  31.496  28.408  1.00  0.00     0.016 A 
ATOM     31  C   UNL A   1      37.090  29.214  30.043  1.00  0.00     0.010 A 
ATOM     32  C   UNL A   1      38.372  30.776  28.698  1.00  0.00     0.010 A 
ATOM     33  C   UNL A   1      38.324  29.656  29.548  1.00  0.00    -0.014 A 
BRANCH  33  34
ATOM     34  C   UNL A   1      39.576  29.025  30.032  1.00  0.00     0.031 A 
ATOM     35  C   UNL A   1      40.237  29.564  31.271  1.00  0.00     0.074 A 
ATOM     36  C   UNL A   1      40.114  27.980  29.379  1.00  0.00     0.049 A 
ATOM     37  N   UNL A   1      41.343  29.179  31.854  1.00  0.00    -0.248 NA
ATOM     38  C   UNL A   1      39.566  30.691  31.941  1.00  0.00     0.031 C 
ATOM     39  C   UNL A   1      39.565  27.366  28.170  1.00  0.00     0.029 A 
ATOM     40  N   UNL A   1      41.258  27.265  29.630  1.00  0.00    -0.354 N 
ATOM     41  C   UNL A   1      41.516  30.031  32.938  1.00  0.00     0.074 A 
ATOM     42  C   UNL A   1      40.409  30.963  32.925  1.00  0.00     0.031 C 
ATOM     43  C   UNL A   1      40.390  26.385  27.768  1.00  0.00     0.029 A 
ATOM     44  C   UNL A   1      41.535  26.315  28.674  1.00  0.00     0.049 A 
ATOM     45  H   UNL A   1      41.828  27.418  30.418  1.00  0.00     0.167 HD
ATOM     46  C   UNL A   1      42.499  30.029  33.869  1.00  0.00     0.034 A 
ATOM     47  C   UNL A   1      42.599  25.500  28.537  1.00  0.00     0.034 A 
ATOM     48  C   UNL A   1      43.587  29.089  33.892  1.00  0.00     0.049 A 
ATOM     49  C   UNL A   1      43.688  25.529  29.577  1.00  0.00     0.074 A 
ATOM     50  C   UNL A   1      44.604  28.973  34.824  1.00  0.00     0.029 A 
ATOM     51  N   UNL A   1      43.809  28.112  32.934  1.00  0.00    -0.354 N 
ATOM     52  N   UNL A   1      43.775  26.259  30.663  1.00  0.00    -0.248 NA
ATOM     53  C   UNL A   1      44.811  24.598  29.392  1.00  0.00     0.031 C 
ATOM     54  C   UNL A   1      45.457  27.944  34.413  1.00  0.00     0.029 A 
ATOM     55  C   UNL A   1      44.953  27.397  33.243  1.00  0.00     0.049 A 
ATOM     56  H   UNL A   1      43.237  27.950  32.150  1.00  0.00     0.167 HD
ATOM     57  C   UNL A   1      44.937  25.849  31.309  1.00  0.00     0.074 A 
ATOM     58  C   UNL A   1      45.511  24.793  30.501  1.00  0.00     0.031 C 
ATOM     59  C   UNL A   1      45.486  26.311  32.460  1.00  0.00     0.034 A 
BRANCH  46  60
ATOM     60  C   UNL A   1      42.433  31.067  34.960  1.00  0.00     0.023 A 
ATOM     61  C   UNL A   1      41.966  30.705  36.240  1.00  0.00     0.012 A 
ATOM     62  C   UNL A   1      42.884  32.381  34.734  1.00  0.00     0.148 A 
ATOM     63  C   UNL A   1      41.922  31.644  37.270  1.00  0.00     0.002 A 
ATOM     64  C   UNL A   1      42.879  33.299  35.779  1.00  0.00     0.091 A 
ATOM     65  F   UNL A   1      43.303  32.712  33.505  1.00  0.00    -0.205 F 
ATOM     66  C   UNL A   1      42.387  32.936  37.043  1.00  0.00     0.022 A 
BRANCH  64  67
ATOM     67  S   UNL A   1      43.530  34.965  35.607  1.00  0.00     0.127 S 
ATOM     68  O   UNL A   1      42.631  35.531  34.603  1.00  0.00    -0.237 OA
ATOM     69  O   UNL A   1      43.355  35.503  36.955  1.00  0.00    -0.237 OA
ATOM     70  O   UNL A   1      44.917  34.812  35.189  1.00  0.00    -0.744 OA
ENDBRANCH  64  67
ENDBRANCH  46  60
BRANCH  47  71
ATOM     71  C   UNL A   1      42.671  24.560  27.383  1.00  0.00     0.023 A 
ATOM     72  C   UNL A   1      43.322  24.958  26.199  1.00  0.00     0.012 A 
ATOM     73  C   UNL A   1      42.111  23.269  27.459  1.00  0.00     0.148 A 
ATOM     74  C   UNL A   1      43.386  24.101  25.101  1.00  0.00     0.002 A 
ATOM     75  C   UNL A   1      42.230  22.398  26.382  1.00  0.00     0.091 A 
ATOM     76  F   UNL A   1      41.482  22.914  28.588  1.00  0.00    -0.205 F 
ATOM     77  C   UNL A   1      42.851  22.818  25.195  1.00  0.00     0.022 A 
BRANCH  75  78
ATOM     78  S   UNL A   1      41.688  20.687  26.464  1.00  0.00     0.127 S 
ATOM     79  O   UNL A   1      42.413  20.089  25.347  1.00  0.00    -0.237 OA
ATOM     80  O   UNL A   1      42.158  20.286  27.791  1.00  0.00    -0.237 OA
ATOM     81  O   UNL A   1      40.238  20.727  26.330  1.00  0.00    -0.744 OA
ENDBRANCH  75  78
ENDBRANCH  47  71
BRANCH  59  82
ATOM     82  C   UNL A   1      46.751  25.655  32.949  1.00  0.00     0.023 A 
ATOM     83  C   UNL A   1      48.005  26.190  32.593  1.00  0.00     0.012 A 
ATOM     84  C   UNL A   1      46.694  24.551  33.823  1.00  0.00     0.148 A 
ATOM     85  C   UNL A   1      49.182  25.617  33.072  1.00  0.00     0.002 A 
ATOM     86  C   UNL A   1      47.870  24.017  34.338  1.00  0.00     0.091 A 
ATOM     87  F   UNL A   1      45.493  24.045  34.137  1.00  0.00    -0.205 F 
ATOM     88  C   UNL A   1      49.115  24.540  33.953  1.00  0.00     0.022 A 
BRANCH  86  89
ATOM     89  S   UNL A   1      47.876  22.694  35.553  1.00  0.00     0.127 S 
ATOM     90  O   UNL A   1      47.297  21.588  34.791  1.00  0.00    -0.237 OA
ATOM     91  O   UNL A   1      49.302  22.550  35.849  1.00  0.00    -0.237 OA
ATOM     92  O   UNL A   1      47.072  23.171  36.670  1.00  0.00    -0.744 OA
ENDBRANCH  86  89
ENDBRANCH  59  82
ENDBRANCH  33  34
ENDBRANCH  26  28
ENDBRANCH  25  26
ENDBRANCH  24  25
ENDBRANCH  23  24
ENDBRANCH  22  23
ENDBRANCH  21  22
ENDBRANCH   1  21
TORSDOF 24
ENDMDL
MODEL 3
REMARK VINA RESULT:      -9.2      5.236      8.457
REMARK SMILES CC[C@H](CCO)CNc1cc(C(=O)OCCOCCOC(=O)c2ccc(-c3c4nc(c(-c5cccc(S(=O)(=O)[O-])c5F)c5ccc([nH]5)c(-c5cccc(S(=O)(=O)[O-])c5F)c5nc(c(-c6cccc(S(=O)(=O)[O-])c6F)c6ccc3[nH]6)C=C5)C=C4)cc2)ccn1
REMARK SMILES IDX 15 1 14 2 12 3 13 4 11 5 9 6 10 7 88 8 87 9 86 10 8 11 7 13
REMARK SMILES IDX 3 14 2 15 1 16 4 17 5 18 6 19 16 21 17 22 18 23 19 24 20 25
REMARK SMILES IDX 21 26 22 27 23 28 24 29 85 30 25 31 84 32 26 33 27 34 28 35
REMARK SMILES IDX 78 36 29 37 83 38 77 39 79 40 30 41 82 42 76 43 75 44 31 46
REMARK SMILES IDX 63 47 43 48 62 49 44 50 47 51 61 52 80 53 45 54 46 55 60 57
REMARK SMILES IDX 81 58 48 59 32 60 33 61 41 62 34 63 36 64 42 65 35 66 37 67
REMARK SMILES IDX 38 68 39 69 40 70 64 71 65 72 73 73 66 74 68 75 74 76 67 77
REMARK SMILES IDX 69 78 70 79 71 80 72 81 49 82 50 83 58 84 51 85 53 86 59 87
REMARK SMILES IDX 52 88 54 89 55 90 56 91 57 92
REMARK H PARENT 8 12 6 20 79 45 47 56
REMARK Flexibility Score: inf
ROOT
ATOM      1  C   UNL A   1      32.966  28.342  27.231  1.00  0.00     0.261 C 
ENDROOT
BRANCH   1   2
ATOM      2  O   UNL A   1      31.623  27.843  27.127  1.00  0.00    -0.460 OA
BRANCH   2   3
ATOM      3  C   UNL A   1      31.488  26.664  26.476  1.00  0.00     0.338 C 
ATOM      4  O   UNL A   1      31.247  25.571  26.970  1.00  0.00    -0.246 OA
BRANCH   3   5
ATOM      5  C   UNL A   1      31.490  26.892  25.016  1.00  0.00     0.065 A 
ATOM      6  C   UNL A   1      30.769  28.027  23.040  1.00  0.00     0.126 A 
ATOM      7  C   UNL A   1      30.684  27.855  24.413  1.00  0.00     0.062 A 
ATOM      8  N   UNL A   1      31.540  27.227  22.273  1.00  0.00    -0.240 NA
ATOM      9  C   UNL A   1      32.294  26.286  22.878  1.00  0.00     0.114 A 
ATOM     10  C   UNL A   1      32.321  26.092  24.239  1.00  0.00     0.036 A 
BRANCH   6  11
ATOM     11  N   UNL A   1      30.103  29.010  22.354  1.00  0.00    -0.370 N 
ATOM     12  H   UNL A   1      29.790  28.812  21.441  1.00  0.00     0.162 HD
BRANCH  11  13
ATOM     13  C   UNL A   1      29.838  30.328  22.902  1.00  0.00     0.118 C 
BRANCH  13  14
ATOM     14  C   UNL A   1      28.353  30.464  23.333  1.00  0.00     0.010 C 
BRANCH  14  15
ATOM     15  C   UNL A   1      27.503  29.454  22.524  1.00  0.00     0.002 C 
ATOM     16  C   UNL A   1      26.805  28.409  23.387  1.00  0.00     0.004 C 
ENDBRANCH  14  15
BRANCH  14  17
ATOM     17  C   UNL A   1      27.900  31.935  23.131  1.00  0.00     0.033 C 
BRANCH  17  18
ATOM     18  C   UNL A   1      28.538  32.699  21.978  1.00  0.00     0.156 C 
BRANCH  18  19
ATOM     19  O   UNL A   1      27.590  33.524  21.316  1.00  0.00    -0.396 OA
ATOM     20  H   UNL A   1      26.883  32.971  20.946  1.00  0.00     0.210 HD
ENDBRANCH  18  19
ENDBRANCH  17  18
ENDBRANCH  14  17
ENDBRANCH  13  14
ENDBRANCH  11  13
ENDBRANCH   6  11
ENDBRANCH   3   5
ENDBRANCH   2   3
ENDBRANCH   1   2
BRANCH   1  21
ATOM     21  C   UNL A   1      32.992  29.873  27.286  1.00  0.00     0.202 C 
BRANCH  21  22
ATOM     22  O   UNL A   1      32.326  30.556  26.221  1.00  0.00    -0.374 OA
BRANCH  22  23
ATOM     23  C   UNL A   1      31.370  31.551  26.592  1.00  0.00     0.202 C 
BRANCH  23  24
ATOM     24  C   UNL A   1      31.883  32.991  26.716  1.00  0.00     0.261 C 
BRANCH  24  25
ATOM     25  O   UNL A   1      32.484  33.244  27.997  1.00  0.00    -0.460 OA
BRANCH  25  26
ATOM     26  C   UNL A   1      33.591  34.021  27.957  1.00  0.00     0.338 C 
ATOM     27  O   UNL A   1      33.718  35.097  27.387  1.00  0.00    -0.246 OA
BRANCH  26  28
ATOM     28  C   UNL A   1      34.619  33.482  28.866  1.00  0.00     0.060 A 
ATOM     29  C   UNL A   1      35.897  34.053  28.807  1.00  0.00     0.016 A 
ATOM     30  C   UNL A   1      34.364  32.398  29.709  1.00  0.00     0.016 A 
ATOM     31  C   UNL A   1      36.941  33.506  29.548  1.00  0.00     0.010 A 
ATOM     32  C   UNL A   1      35.415  31.847  30.449  1.00  0.00     0.010 A 
ATOM     33  C   UNL A   1      36.715  32.374  30.342  1.00  0.00    -0.014 A 
BRANCH  33  34
ATOM     34  C   UNL A   1      37.867  31.664  30.949  1.00  0.00     0.031 A 
ATOM     35  C   UNL A   1      38.249  31.970  32.372  1.00  0.00     0.074 A 
ATOM     36  C   UNL A   1      38.562  30.753  30.245  1.00  0.00     0.049 A 
ATOM     37  N   UNL A   1      39.229  31.485  33.089  1.00  0.00    -0.248 NA
ATOM     38  C   UNL A   1      37.418  32.958  33.081  1.00  0.00     0.031 C 
ATOM     39  C   UNL A   1      38.287  30.369  28.860  1.00  0.00     0.029 A 
ATOM     40  N   UNL A   1      39.658  30.004  30.591  1.00  0.00    -0.354 N 
ATOM     41  C   UNL A   1      39.153  32.127  34.319  1.00  0.00     0.074 A 
ATOM     42  C   UNL A   1      38.038  33.047  34.248  1.00  0.00     0.031 C 
ATOM     43  C   UNL A   1      39.210  29.475  28.466  1.00  0.00     0.029 A 
ATOM     44  C   UNL A   1      40.152  29.242  29.559  1.00  0.00     0.049 A 
ATOM     45  H   UNL A   1      40.053  30.011  31.493  1.00  0.00     0.167 HD
ATOM     46  C   UNL A   1      39.930  31.956  35.415  1.00  0.00     0.034 A 
ATOM     47  C   UNL A   1      41.251  28.464  29.497  1.00  0.00     0.034 A 
ATOM     48  C   UNL A   1      41.024  31.026  35.490  1.00  0.00     0.049 A 
ATOM     49  C   UNL A   1      42.109  28.304  30.725  1.00  0.00     0.074 A 
ATOM     50  C   UNL A   1      41.838  30.742  36.573  1.00  0.00     0.029 A 
ATOM     51  N   UNL A   1      41.467  30.238  34.440  1.00  0.00    -0.354 N 
ATOM     52  N   UNL A   1      41.952  28.826  31.917  1.00  0.00    -0.248 NA
ATOM     53  C   UNL A   1      43.279  27.420  30.608  1.00  0.00     0.031 C 
ATOM     54  C   UNL A   1      42.793  29.804  36.168  1.00  0.00     0.029 A 
ATOM     55  C   UNL A   1      42.551  29.478  34.842  1.00  0.00     0.049 A 
ATOM     56  H   UNL A   1      41.069  30.221  33.540  1.00  0.00     0.167 HD
ATOM     57  C   UNL A   1      42.976  28.304  32.702  1.00  0.00     0.074 A 
ATOM     58  C   UNL A   1      43.737  27.412  31.853  1.00  0.00     0.031 C 
ATOM     59  C   UNL A   1      43.268  28.551  34.003  1.00  0.00     0.034 A 
BRANCH  46  60
ATOM     60  C   UNL A   1      39.611  32.780  36.635  1.00  0.00     0.023 A 
ATOM     61  C   UNL A   1      38.659  32.312  37.564  1.00  0.00     0.012 A 
ATOM     62  C   UNL A   1      40.292  33.985  36.892  1.00  0.00     0.148 A 
ATOM     63  C   UNL A   1      38.368  33.046  38.713  1.00  0.00     0.002 A 
ATOM     64  C   UNL A   1      40.030  34.688  38.062  1.00  0.00     0.091 A 
ATOM     65  F   UNL A   1      41.177  34.425  35.986  1.00  0.00    -0.205 F 
ATOM     66  C   UNL A   1      39.060  34.227  38.967  1.00  0.00     0.022 A 
BRANCH  64  67
ATOM     67  S   UNL A   1      40.924  36.179  38.516  1.00  0.00     0.127 S 
ATOM     68  O   UNL A   1      42.016  36.177  37.544  1.00  0.00    -0.237 OA
ATOM     69  O   UNL A   1      39.917  37.218  38.300  1.00  0.00    -0.237 OA
ATOM     70  O   UNL A   1      41.323  36.000  39.905  1.00  0.00    -0.744 OA
ENDBRANCH  64  67
ENDBRANCH  46  60
BRANCH  47  71
ATOM     71  C   UNL A   1      41.584  27.748  28.234  1.00  0.00     0.023 A 
ATOM     72  C   UNL A   1      42.224  28.441  27.187  1.00  0.00     0.012 A 
ATOM     73  C   UNL A   1      41.286  26.381  28.070  1.00  0.00     0.148 A 
ATOM     74  C   UNL A   1      42.531  27.795  25.990  1.00  0.00     0.002 A 
ATOM     75  C   UNL A   1      41.646  25.728  26.897  1.00  0.00     0.091 A 
ATOM     76  F   UNL A   1      40.662  25.742  29.070  1.00  0.00    -0.205 F 
ATOM     77  C   UNL A   1      42.252  26.437  25.848  1.00  0.00     0.022 A 
BRANCH  75  78
ATOM     78  S   UNL A   1      41.446  23.956  26.682  1.00  0.00     0.127 S 
ATOM     79  O   UNL A   1      42.334  23.688  25.555  1.00  0.00    -0.237 OA
ATOM     80  O   UNL A   1      41.912  23.442  27.970  1.00  0.00    -0.237 OA
ATOM     81  O   UNL A   1      40.026  23.747  26.434  1.00  0.00    -0.744 OA
ENDBRANCH  75  78
ENDBRANCH  47  71
BRANCH  59  82
ATOM     82  C   UNL A   1      44.433  27.816  34.614  1.00  0.00     0.023 A 
ATOM     83  C   UNL A   1      45.723  28.381  34.571  1.00  0.00     0.012 A 
ATOM     84  C   UNL A   1      44.234  26.599  35.297  1.00  0.00     0.148 A 
ATOM     85  C   UNL A   1      46.802  27.731  35.169  1.00  0.00     0.002 A 
ATOM     86  C   UNL A   1      45.305  25.982  35.934  1.00  0.00     0.091 A 
ATOM     87  F   UNL A   1      43.003  26.068  35.312  1.00  0.00    -0.205 F 
ATOM     88  C   UNL A   1      46.592  26.539  35.859  1.00  0.00     0.022 A 
BRANCH  86  89
ATOM     89  S   UNL A   1      45.110  24.499  36.928  1.00  0.00     0.127 S 
ATOM     90  O   UNL A   1      46.491  24.216  37.316  1.00  0.00    -0.237 OA
ATOM     91  O   UNL A   1      44.253  24.966  38.019  1.00  0.00    -0.237 OA
ATOM     92  O   UNL A   1      44.491  23.509  36.055  1.00  0.00    -0.744 OA
ENDBRANCH  86  89
ENDBRANCH  59  82
ENDBRANCH  33  34
ENDBRANCH  26  28
ENDBRANCH  25  26
ENDBRANCH  24  25
ENDBRANCH  23  24
ENDBRANCH  22  23
ENDBRANCH  21  22
ENDBRANCH   1  21
TORSDOF 24
ENDMDL
