MODEL 1
REMARK VINA RESULT:     -11.3      0.000      0.000
REMARK SMILES Cc1c(Cl)ccc2c(OCC(=O)OCCOCCOC(=O)c3ccc(-c4c5nc(c(-c6cccc(S(=O)(=O)[O-])c6F)c6ccc([nH]6)c(-c6cccc(S(=O)(=O)[O-])c6F)c6nc(c(-c7cccc(S(=O)(=O)[O-])c7F)c7ccc4[nH]7)C=C6)C=C5)cc3)ccnc12
REMARK SMILES IDX 17 1 16 2 15 3 14 4 13 5 11 6 12 7 10 8 9 9 8 10 1 11 2 12
REMARK SMILES IDX 3 13 88 14 4 15 5 16 7 17 87 18 6 19 86 20 85 21 18 22 19 23
REMARK SMILES IDX 20 24 21 25 22 26 23 27 84 28 24 29 83 30 25 31 26 32 27 33
REMARK SMILES IDX 77 34 28 35 82 36 76 37 78 38 29 39 81 40 75 41 74 42 30 44
REMARK SMILES IDX 62 45 42 46 61 47 43 48 46 49 60 50 79 51 44 52 45 53 59 55
REMARK SMILES IDX 80 56 47 57 31 58 32 59 40 60 33 61 35 62 41 63 34 64 36 65
REMARK SMILES IDX 37 66 38 67 39 68 63 69 64 70 72 71 65 72 67 73 73 74 66 75
REMARK SMILES IDX 68 76 69 77 70 78 71 79 48 80 49 81 57 82 50 83 52 84 58 85
REMARK SMILES IDX 51 86 53 87 54 88 55 89 56 90
REMARK H PARENT 78 43 46 54
REMARK Flexibility Score: inf
ROOT
ATOM      1  C   UNL A   1      31.902  29.803  25.206  1.00  0.00     0.202 C 
ENDROOT
BRANCH   1   2
ATOM      2  O   UNL A   1      30.729  29.487  24.460  1.00  0.00    -0.374 OA
BRANCH   2   3
ATOM      3  C   UNL A   1      30.702  28.213  23.819  1.00  0.00     0.202 C 
BRANCH   3   4
ATOM      4  C   UNL A   1      31.269  27.023  24.603  1.00  0.00     0.261 C 
BRANCH   4   5
ATOM      5  O   UNL A   1      30.489  26.660  25.762  1.00  0.00    -0.461 OA
BRANCH   5   6
ATOM      6  C   UNL A   1      30.197  25.336  25.895  1.00  0.00     0.344 C 
ATOM      7  O   UNL A   1      29.608  24.839  26.850  1.00  0.00    -0.248 OA
BRANCH   6   8
ATOM      8  C   UNL A   1      30.727  24.482  24.740  1.00  0.00     0.352 C 
BRANCH   8   9
ATOM      9  O   UNL A   1      31.386  23.254  24.979  1.00  0.00    -0.481 OA
BRANCH   9  10
ATOM     10  C   UNL A   1      32.742  23.140  24.804  1.00  0.00     0.131 A 
ATOM     11  C   UNL A   1      36.601  20.051  25.073  1.00  0.00     0.048 C 
ATOM     12  C   UNL A   1      35.142  20.305  24.781  1.00  0.00    -0.006 A 
ATOM     13  C   UNL A   1      34.270  19.217  24.590  1.00  0.00     0.046 A 
ATOM     14  C   UNL A   1      34.642  21.619  24.754  1.00  0.00     0.078 A 
ATOM     15  Cl  UNL A   1      34.846  17.588  24.514  1.00  0.00    -0.084 Cl
ATOM     16  C   UNL A   1      32.902  19.419  24.450  1.00  0.00     0.022 A 
ATOM     17  C   UNL A   1      33.242  21.818  24.702  1.00  0.00     0.043 A 
ATOM     18  N   UNL A   1      35.484  22.672  24.783  1.00  0.00    -0.256 NA
ATOM     19  C   UNL A   1      32.389  20.707  24.546  1.00  0.00     0.016 A 
ATOM     20  C   UNL A   1      34.978  23.921  24.745  1.00  0.00     0.115 A 
ATOM     21  C   UNL A   1      33.628  24.208  24.769  1.00  0.00     0.067 A 
ENDBRANCH   9  10
ENDBRANCH   8   9
ENDBRANCH   6   8
ENDBRANCH   5   6
ENDBRANCH   4   5
ENDBRANCH   3   4
ENDBRANCH   2   3
ENDBRANCH   1   2
BRANCH   1  22
ATOM     22  C   UNL A   1      31.779  30.891  26.277  1.00  0.00     0.261 C 
BRANCH  22  23
ATOM     23  O   UNL A   1      32.712  30.699  27.347  1.00  0.00    -0.460 OA
BRANCH  23  24
ATOM     24  C   UNL A   1      33.484  31.777  27.609  1.00  0.00     0.338 C 
ATOM     25  O   UNL A   1      33.119  32.935  27.774  1.00  0.00    -0.246 OA
BRANCH  24  26
ATOM     26  C   UNL A   1      34.862  31.344  27.863  1.00  0.00     0.060 A 
ATOM     27  C   UNL A   1      35.089  29.968  27.977  1.00  0.00     0.016 A 
ATOM     28  C   UNL A   1      35.884  32.268  28.090  1.00  0.00     0.016 A 
ATOM     29  C   UNL A   1      36.333  29.507  28.388  1.00  0.00     0.010 A 
ATOM     30  C   UNL A   1      37.129  31.806  28.519  1.00  0.00     0.010 A 
ATOM     31  C   UNL A   1      37.334  30.429  28.716  1.00  0.00    -0.014 A 
BRANCH  31  32
ATOM     32  C   UNL A   1      38.515  29.949  29.461  1.00  0.00     0.031 A 
ATOM     33  C   UNL A   1      38.726  30.451  30.861  1.00  0.00     0.074 A 
ATOM     34  C   UNL A   1      39.340  29.039  28.920  1.00  0.00     0.049 A 
ATOM     35  N   UNL A   1      39.654  30.130  31.721  1.00  0.00    -0.248 NA
ATOM     36  C   UNL A   1      37.754  31.441  31.362  1.00  0.00     0.031 C 
ATOM     37  C   UNL A   1      39.203  28.471  27.580  1.00  0.00     0.029 A 
ATOM     38  N   UNL A   1      40.456  28.436  29.436  1.00  0.00    -0.354 N 
ATOM     39  C   UNL A   1      39.380  30.872  32.862  1.00  0.00     0.074 A 
ATOM     40  C   UNL A   1      38.215  31.681  32.581  1.00  0.00     0.031 C 
ATOM     41  C   UNL A   1      40.207  27.602  27.375  1.00  0.00     0.029 A 
ATOM     42  C   UNL A   1      41.059  27.564  28.563  1.00  0.00     0.049 A 
ATOM     43  H   UNL A   1      40.793  28.610  30.344  1.00  0.00     0.167 HD
ATOM     44  C   UNL A   1      40.024  30.859  34.051  1.00  0.00     0.034 A 
ATOM     45  C   UNL A   1      42.172  26.822  28.710  1.00  0.00     0.034 A 
ATOM     46  C   UNL A   1      41.179  30.052  34.322  1.00  0.00     0.049 A 
ATOM     47  C   UNL A   1      42.911  26.861  30.019  1.00  0.00     0.074 A 
ATOM     48  C   UNL A   1      41.913  29.966  35.490  1.00  0.00     0.029 A 
ATOM     49  N   UNL A   1      41.771  29.194  33.407  1.00  0.00    -0.354 N 
ATOM     50  N   UNL A   1      42.608  27.524  31.111  1.00  0.00    -0.248 NA
ATOM     51  C   UNL A   1      44.124  26.040  30.130  1.00  0.00     0.031 C 
ATOM     52  C   UNL A   1      42.956  29.059  35.279  1.00  0.00     0.029 A 
ATOM     53  C   UNL A   1      42.863  28.572  33.983  1.00  0.00     0.049 A 
ATOM     54  H   UNL A   1      41.459  29.048  32.485  1.00  0.00     0.167 HD
ATOM     55  C   UNL A   1      43.580  27.188  32.045  1.00  0.00     0.074 A 
ATOM     56  C   UNL A   1      44.477  26.253  31.394  1.00  0.00     0.031 C 
ATOM     57  C   UNL A   1      43.720  27.620  33.323  1.00  0.00     0.034 A 
BRANCH  44  58
ATOM     58  C   UNL A   1      39.457  31.706  35.155  1.00  0.00     0.023 A 
ATOM     59  C   UNL A   1      38.492  31.148  36.018  1.00  0.00     0.012 A 
ATOM     60  C   UNL A   1      39.891  33.029  35.361  1.00  0.00     0.148 A 
ATOM     61  C   UNL A   1      37.953  31.901  37.059  1.00  0.00     0.002 A 
ATOM     62  C   UNL A   1      39.370  33.764  36.419  1.00  0.00     0.091 A 
ATOM     63  F   UNL A   1      40.791  33.546  34.511  1.00  0.00    -0.205 F 
ATOM     64  C   UNL A   1      38.397  33.204  37.264  1.00  0.00     0.022 A 
BRANCH  62  65
ATOM     65  S   UNL A   1      39.904  35.436  36.797  1.00  0.00     0.127 S 
ATOM     66  O   UNL A   1      39.191  35.698  38.047  1.00  0.00    -0.237 OA
ATOM     67  O   UNL A   1      41.351  35.271  36.943  1.00  0.00    -0.237 OA
ATOM     68  O   UNL A   1      39.496  36.256  35.665  1.00  0.00    -0.744 OA
ENDBRANCH  62  65
ENDBRANCH  44  58
BRANCH  45  69
ATOM     69  C   UNL A   1      42.591  25.934  27.594  1.00  0.00     0.023 A 
ATOM     70  C   UNL A   1      43.580  26.380  26.697  1.00  0.00     0.012 A 
ATOM     71  C   UNL A   1      42.112  24.613  27.498  1.00  0.00     0.148 A 
ATOM     72  C   UNL A   1      44.092  25.519  25.724  1.00  0.00     0.002 A 
ATOM     73  C   UNL A   1      42.653  23.751  26.551  1.00  0.00     0.091 A 
ATOM     74  F   UNL A   1      41.176  24.216  28.371  1.00  0.00    -0.205 F 
ATOM     75  C   UNL A   1      43.638  24.204  25.659  1.00  0.00     0.022 A 
BRANCH  73  76
ATOM     76  S   UNL A   1      42.213  22.012  26.457  1.00  0.00     0.127 S 
ATOM     77  O   UNL A   1      40.812  22.077  26.049  1.00  0.00    -0.237 OA
ATOM     78  O   UNL A   1      43.133  21.531  25.426  1.00  0.00    -0.237 OA
ATOM     79  O   UNL A   1      42.446  21.468  27.787  1.00  0.00    -0.744 OA
ENDBRANCH  73  76
ENDBRANCH  45  69
BRANCH  57  80
ATOM     80  C   UNL A   1      44.883  27.099  34.120  1.00  0.00     0.023 A 
ATOM     81  C   UNL A   1      46.082  27.835  34.145  1.00  0.00     0.012 A 
ATOM     82  C   UNL A   1      44.735  25.973  34.954  1.00  0.00     0.148 A 
ATOM     83  C   UNL A   1      47.125  27.454  34.989  1.00  0.00     0.002 A 
ATOM     84  C   UNL A   1      45.765  25.620  35.817  1.00  0.00     0.091 A 
ATOM     85  F   UNL A   1      43.582  25.291  34.905  1.00  0.00    -0.205 F 
ATOM     86  C   UNL A   1      46.961  26.357  35.833  1.00  0.00     0.022 A 
BRANCH  84  87
ATOM     87  S   UNL A   1      45.622  24.274  36.997  1.00  0.00     0.127 S 
ATOM     88  O   UNL A   1      46.988  24.186  37.513  1.00  0.00    -0.237 OA
ATOM     89  O   UNL A   1      44.643  24.799  37.947  1.00  0.00    -0.237 OA
ATOM     90  O   UNL A   1      45.174  23.115  36.236  1.00  0.00    -0.744 OA
ENDBRANCH  84  87
ENDBRANCH  57  80
ENDBRANCH  31  32
ENDBRANCH  24  26
ENDBRANCH  23  24
ENDBRANCH  22  23
ENDBRANCH   1  22
TORSDOF 19
ENDMDL
MODEL 2
REMARK VINA RESULT:     -11.3      4.975      8.068
REMARK SMILES Cc1c(Cl)ccc2c(OCC(=O)OCCOCCOC(=O)c3ccc(-c4c5nc(c(-c6cccc(S(=O)(=O)[O-])c6F)c6ccc([nH]6)c(-c6cccc(S(=O)(=O)[O-])c6F)c6nc(c(-c7cccc(S(=O)(=O)[O-])c7F)c7ccc4[nH]7)C=C6)C=C5)cc3)ccnc12
REMARK SMILES IDX 17 1 16 2 15 3 14 4 13 5 11 6 12 7 10 8 9 9 8 10 1 11 2 12
REMARK SMILES IDX 3 13 88 14 4 15 5 16 7 17 87 18 6 19 86 20 85 21 18 22 19 23
REMARK SMILES IDX 20 24 21 25 22 26 23 27 84 28 24 29 83 30 25 31 26 32 27 33
REMARK SMILES IDX 77 34 28 35 82 36 76 37 78 38 29 39 81 40 75 41 74 42 30 44
REMARK SMILES IDX 62 45 42 46 61 47 43 48 46 49 60 50 79 51 44 52 45 53 59 55
REMARK SMILES IDX 80 56 47 57 31 58 32 59 40 60 33 61 35 62 41 63 34 64 36 65
REMARK SMILES IDX 37 66 38 67 39 68 63 69 64 70 72 71 65 72 67 73 73 74 66 75
REMARK SMILES IDX 68 76 69 77 70 78 71 79 48 80 49 81 57 82 50 83 52 84 58 85
REMARK SMILES IDX 51 86 53 87 54 88 55 89 56 90
REMARK H PARENT 78 43 46 54
REMARK Flexibility Score: inf
ROOT
ATOM      1  C   UNL A   1      35.675  20.950  24.981  1.00  0.00     0.202 C 
ENDROOT
BRANCH   1   2
ATOM      2  O   UNL A   1      34.558  20.063  24.963  1.00  0.00    -0.374 OA
BRANCH   2   3
ATOM      3  C   UNL A   1      33.430  20.439  25.753  1.00  0.00     0.202 C 
BRANCH   3   4
ATOM      4  C   UNL A   1      32.554  21.581  25.223  1.00  0.00     0.261 C 
BRANCH   4   5
ATOM      5  O   UNL A   1      32.440  21.612  23.784  1.00  0.00    -0.461 OA
BRANCH   5   6
ATOM      6  C   UNL A   1      32.067  22.804  23.241  1.00  0.00     0.344 C 
ATOM      7  O   UNL A   1      30.912  23.219  23.183  1.00  0.00    -0.248 OA
BRANCH   6   8
ATOM      8  C   UNL A   1      33.237  23.589  22.642  1.00  0.00     0.352 C 
BRANCH   8   9
ATOM      9  O   UNL A   1      33.203  25.000  22.548  1.00  0.00    -0.481 OA
BRANCH   9  10
ATOM     10  C   UNL A   1      33.139  25.776  23.676  1.00  0.00     0.131 A 
ATOM     11  C   UNL A   1      31.577  30.097  25.521  1.00  0.00     0.048 C 
ATOM     12  C   UNL A   1      31.396  28.929  24.580  1.00  0.00    -0.006 A 
ATOM     13  C   UNL A   1      30.413  28.990  23.574  1.00  0.00     0.046 A 
ATOM     14  C   UNL A   1      32.240  27.808  24.670  1.00  0.00     0.078 A 
ATOM     15  Cl  UNL A   1      29.285  30.297  23.479  1.00  0.00    -0.084 Cl
ATOM     16  C   UNL A   1      30.314  27.988  22.618  1.00  0.00     0.022 A 
ATOM     17  C   UNL A   1      32.198  26.835  23.645  1.00  0.00     0.043 A 
ATOM     18  N   UNL A   1      33.080  27.667  25.716  1.00  0.00    -0.256 NA
ATOM     19  C   UNL A   1      31.225  26.940  22.630  1.00  0.00     0.016 A 
ATOM     20  C   UNL A   1      33.871  26.577  25.782  1.00  0.00     0.115 A 
ATOM     21  C   UNL A   1      33.949  25.618  24.792  1.00  0.00     0.067 A 
ENDBRANCH   9  10
ENDBRANCH   8   9
ENDBRANCH   6   8
ENDBRANCH   5   6
ENDBRANCH   4   5
ENDBRANCH   3   4
ENDBRANCH   2   3
ENDBRANCH   1   2
BRANCH   1  22
ATOM     22  C   UNL A   1      37.069  20.318  25.012  1.00  0.00     0.261 C 
BRANCH  22  23
ATOM     23  O   UNL A   1      38.106  21.307  25.051  1.00  0.00    -0.460 OA
BRANCH  23  24
ATOM     24  C   UNL A   1      39.097  21.036  25.928  1.00  0.00     0.338 C 
ATOM     25  O   UNL A   1      39.685  19.972  26.086  1.00  0.00    -0.246 OA
BRANCH  24  26
ATOM     26  C   UNL A   1      39.533  22.277  26.577  1.00  0.00     0.060 A 
ATOM     27  C   UNL A   1      38.945  23.469  26.137  1.00  0.00     0.016 A 
ATOM     28  C   UNL A   1      40.566  22.282  27.517  1.00  0.00     0.016 A 
ATOM     29  C   UNL A   1      39.438  24.686  26.586  1.00  0.00     0.010 A 
ATOM     30  C   UNL A   1      41.072  23.506  27.955  1.00  0.00     0.010 A 
ATOM     31  C   UNL A   1      40.540  24.706  27.451  1.00  0.00    -0.014 A 
BRANCH  31  32
ATOM     32  C   UNL A   1      41.255  25.982  27.649  1.00  0.00     0.031 A 
ATOM     33  C   UNL A   1      40.553  27.084  28.389  1.00  0.00     0.074 A 
ATOM     34  C   UNL A   1      42.522  26.126  27.233  1.00  0.00     0.049 A 
ATOM     35  N   UNL A   1      40.998  28.263  28.729  1.00  0.00    -0.248 NA
ATOM     36  C   UNL A   1      39.166  26.817  28.813  1.00  0.00     0.031 C 
ATOM     37  C   UNL A   1      43.298  25.105  26.530  1.00  0.00     0.029 A 
ATOM     38  N   UNL A   1      43.377  27.191  27.342  1.00  0.00    -0.354 N 
ATOM     39  C   UNL A   1      39.952  28.877  29.406  1.00  0.00     0.074 A 
ATOM     40  C   UNL A   1      38.840  27.955  29.409  1.00  0.00     0.031 C 
ATOM     41  C   UNL A   1      44.519  25.598  26.262  1.00  0.00     0.029 A 
ATOM     42  C   UNL A   1      44.603  26.969  26.765  1.00  0.00     0.049 A 
ATOM     43  H   UNL A   1      43.136  28.033  27.791  1.00  0.00     0.167 HD
ATOM     44  C   UNL A   1      39.931  30.092  30.000  1.00  0.00     0.034 A 
ATOM     45  C   UNL A   1      45.670  27.783  26.657  1.00  0.00     0.034 A 
ATOM     46  C   UNL A   1      41.041  31.002  29.993  1.00  0.00     0.049 A 
ATOM     47  C   UNL A   1      45.610  29.153  27.273  1.00  0.00     0.074 A 
ATOM     48  C   UNL A   1      41.126  32.260  30.559  1.00  0.00     0.029 A 
ATOM     49  N   UNL A   1      42.261  30.749  29.384  1.00  0.00    -0.354 N 
ATOM     50  N   UNL A   1      44.635  29.701  27.960  1.00  0.00    -0.248 NA
ATOM     51  C   UNL A   1      46.796  30.008  27.122  1.00  0.00     0.031 C 
ATOM     52  C   UNL A   1      42.397  32.772  30.284  1.00  0.00     0.029 A 
ATOM     53  C   UNL A   1      43.107  31.827  29.558  1.00  0.00     0.049 A 
ATOM     54  H   UNL A   1      42.491  29.923  28.900  1.00  0.00     0.167 HD
ATOM     55  C   UNL A   1      45.094  30.956  28.342  1.00  0.00     0.074 A 
ATOM     56  C   UNL A   1      46.439  31.084  27.816  1.00  0.00     0.031 C 
ATOM     57  C   UNL A   1      44.454  31.916  29.054  1.00  0.00     0.034 A 
BRANCH  44  58
ATOM     58  C   UNL A   1      38.684  30.477  30.745  1.00  0.00     0.023 A 
ATOM     59  C   UNL A   1      38.562  30.118  32.103  1.00  0.00     0.012 A 
ATOM     60  C   UNL A   1      37.656  31.210  30.124  1.00  0.00     0.148 A 
ATOM     61  C   UNL A   1      37.425  30.468  32.828  1.00  0.00     0.002 A 
ATOM     62  C   UNL A   1      36.538  31.580  30.862  1.00  0.00     0.091 A 
ATOM     63  F   UNL A   1      37.784  31.517  28.825  1.00  0.00    -0.205 F 
ATOM     64  C   UNL A   1      36.418  31.204  32.211  1.00  0.00     0.022 A 
BRANCH  62  65
ATOM     65  S   UNL A   1      35.203  32.565  30.175  1.00  0.00     0.127 S 
ATOM     66  O   UNL A   1      34.723  31.700  29.097  1.00  0.00    -0.237 OA
ATOM     67  O   UNL A   1      34.291  32.683  31.313  1.00  0.00    -0.237 OA
ATOM     68  O   UNL A   1      35.807  33.818  29.744  1.00  0.00    -0.744 OA
ENDBRANCH  62  65
ENDBRANCH  44  58
BRANCH  45  69
ATOM     69  C   UNL A   1      46.896  27.269  25.991  1.00  0.00     0.023 A 
ATOM     70  C   UNL A   1      47.131  27.591  24.642  1.00  0.00     0.012 A 
ATOM     71  C   UNL A   1      47.883  26.579  26.722  1.00  0.00     0.148 A 
ATOM     72  C   UNL A   1      48.336  27.241  24.031  1.00  0.00     0.002 A 
ATOM     73  C   UNL A   1      49.095  26.266  26.117  1.00  0.00     0.091 A 
ATOM     74  F   UNL A   1      47.633  26.294  28.008  1.00  0.00    -0.205 F 
ATOM     75  C   UNL A   1      49.320  26.590  24.770  1.00  0.00     0.022 A 
BRANCH  73  76
ATOM     76  S   UNL A   1      50.465  25.526  27.013  1.00  0.00     0.127 S 
ATOM     77  O   UNL A   1      51.444  25.320  25.948  1.00  0.00    -0.237 OA
ATOM     78  O   UNL A   1      50.803  26.586  27.963  1.00  0.00    -0.237 OA
ATOM     79  O   UNL A   1      49.939  24.309  27.614  1.00  0.00    -0.744 OA
ENDBRANCH  73  76
ENDBRANCH  45  69
BRANCH  57  80
ATOM     80  C   UNL A   1      45.186  33.203  29.319  1.00  0.00     0.023 A 
ATOM     81  C   UNL A   1      46.033  33.292  30.439  1.00  0.00     0.012 A 
ATOM     82  C   UNL A   1      45.150  34.255  28.383  1.00  0.00     0.148 A 
ATOM     83  C   UNL A   1      46.834  34.418  30.628  1.00  0.00     0.002 A 
ATOM     84  C   UNL A   1      45.975  35.358  28.560  1.00  0.00     0.091 A 
ATOM     85  F   UNL A   1      44.330  34.142  27.327  1.00  0.00    -0.205 F 
ATOM     86  C   UNL A   1      46.815  35.442  29.683  1.00  0.00     0.022 A 
BRANCH  84  87
ATOM     87  S   UNL A   1      46.082  36.692  27.362  1.00  0.00     0.127 S 
ATOM     88  O   UNL A   1      47.093  37.556  27.970  1.00  0.00    -0.237 OA
ATOM     89  O   UNL A   1      46.524  35.989  26.157  1.00  0.00    -0.237 OA
ATOM     90  O   UNL A   1      44.747  37.267  27.277  1.00  0.00    -0.744 OA
ENDBRANCH  84  87
ENDBRANCH  57  80
ENDBRANCH  31  32
ENDBRANCH  24  26
ENDBRANCH  23  24
ENDBRANCH  22  23
ENDBRANCH   1  22
TORSDOF 19
ENDMDL
MODEL 3
REMARK VINA RESULT:     -11.2      5.275      8.120
REMARK SMILES Cc1c(Cl)ccc2c(OCC(=O)OCCOCCOC(=O)c3ccc(-c4c5nc(c(-c6cccc(S(=O)(=O)[O-])c6F)c6ccc([nH]6)c(-c6cccc(S(=O)(=O)[O-])c6F)c6nc(c(-c7cccc(S(=O)(=O)[O-])c7F)c7ccc4[nH]7)C=C6)C=C5)cc3)ccnc12
REMARK SMILES IDX 17 1 16 2 15 3 14 4 13 5 11 6 12 7 10 8 9 9 8 10 1 11 2 12
REMARK SMILES IDX 3 13 88 14 4 15 5 16 7 17 87 18 6 19 86 20 85 21 18 22 19 23
REMARK SMILES IDX 20 24 21 25 22 26 23 27 84 28 24 29 83 30 25 31 26 32 27 33
REMARK SMILES IDX 77 34 28 35 82 36 76 37 78 38 29 39 81 40 75 41 74 42 30 44
REMARK SMILES IDX 62 45 42 46 61 47 43 48 46 49 60 50 79 51 44 52 45 53 59 55
REMARK SMILES IDX 80 56 47 57 31 58 32 59 40 60 33 61 35 62 41 63 34 64 36 65
REMARK SMILES IDX 37 66 38 67 39 68 63 69 64 70 72 71 65 72 67 73 73 74 66 75
REMARK SMILES IDX 68 76 69 77 70 78 71 79 48 80 49 81 57 82 50 83 52 84 58 85
REMARK SMILES IDX 51 86 53 87 54 88 55 89 56 90
REMARK H PARENT 78 43 46 54
REMARK Flexibility Score: inf
ROOT
ATOM      1  C   UNL A   1      36.107  20.320  25.019  1.00  0.00     0.202 C 
ENDROOT
BRANCH   1   2
ATOM      2  O   UNL A   1      35.700  21.366  25.899  1.00  0.00    -0.374 OA
BRANCH   2   3
ATOM      3  C   UNL A   1      35.291  22.591  25.291  1.00  0.00     0.202 C 
BRANCH   3   4
ATOM      4  C   UNL A   1      34.373  22.491  24.065  1.00  0.00     0.261 C 
BRANCH   4   5
ATOM      5  O   UNL A   1      32.994  22.821  24.339  1.00  0.00    -0.461 OA
BRANCH   5   6
ATOM      6  C   UNL A   1      32.145  22.763  23.275  1.00  0.00     0.344 C 
ATOM      7  O   UNL A   1      32.380  22.182  22.219  1.00  0.00    -0.248 OA
BRANCH   6   8
ATOM      8  C   UNL A   1      30.851  23.553  23.491  1.00  0.00     0.352 C 
BRANCH   8   9
ATOM      9  O   UNL A   1      30.719  24.466  24.563  1.00  0.00    -0.481 OA
BRANCH   9  10
ATOM     10  C   UNL A   1      30.661  25.816  24.331  1.00  0.00     0.131 A 
ATOM     11  C   UNL A   1      32.248  30.249  25.860  1.00  0.00     0.048 C 
ATOM     12  C   UNL A   1      32.484  28.773  25.645  1.00  0.00    -0.006 A 
ATOM     13  C   UNL A   1      33.620  28.160  26.206  1.00  0.00     0.046 A 
ATOM     14  C   UNL A   1      31.547  28.001  24.935  1.00  0.00     0.078 A 
ATOM     15  Cl  UNL A   1      34.851  29.076  27.002  1.00  0.00    -0.084 Cl
ATOM     16  C   UNL A   1      33.793  26.784  26.133  1.00  0.00     0.022 A 
ATOM     17  C   UNL A   1      31.678  26.592  24.940  1.00  0.00     0.043 A 
ATOM     18  N   UNL A   1      30.539  28.594  24.265  1.00  0.00    -0.256 NA
ATOM     19  C   UNL A   1      32.808  26.002  25.540  1.00  0.00     0.016 A 
ATOM     20  C   UNL A   1      29.662  27.830  23.584  1.00  0.00     0.115 A 
ATOM     21  C   UNL A   1      29.669  26.450  23.595  1.00  0.00     0.067 A 
ENDBRANCH   9  10
ENDBRANCH   8   9
ENDBRANCH   6   8
ENDBRANCH   5   6
ENDBRANCH   4   5
ENDBRANCH   3   4
ENDBRANCH   2   3
ENDBRANCH   1   2
BRANCH   1  22
ATOM     22  C   UNL A   1      37.608  20.040  24.913  1.00  0.00     0.261 C 
BRANCH  22  23
ATOM     23  O   UNL A   1      38.393  21.204  25.200  1.00  0.00    -0.460 OA
BRANCH  23  24
ATOM     24  C   UNL A   1      39.403  20.990  26.072  1.00  0.00     0.338 C 
ATOM     25  O   UNL A   1      40.037  19.955  26.241  1.00  0.00    -0.246 OA
BRANCH  24  26
ATOM     26  C   UNL A   1      39.789  22.258  26.698  1.00  0.00     0.060 A 
ATOM     27  C   UNL A   1      39.171  23.420  26.223  1.00  0.00     0.016 A 
ATOM     28  C   UNL A   1      40.808  22.318  27.651  1.00  0.00     0.016 A 
ATOM     29  C   UNL A   1      39.618  24.663  26.651  1.00  0.00     0.010 A 
ATOM     30  C   UNL A   1      41.269  23.567  28.069  1.00  0.00     0.010 A 
ATOM     31  C   UNL A   1      40.706  24.737  27.529  1.00  0.00    -0.014 A 
BRANCH  31  32
ATOM     32  C   UNL A   1      41.378  26.039  27.708  1.00  0.00     0.031 A 
ATOM     33  C   UNL A   1      40.646  27.122  28.448  1.00  0.00     0.074 A 
ATOM     34  C   UNL A   1      42.634  26.225  27.275  1.00  0.00     0.049 A 
ATOM     35  N   UNL A   1      41.053  28.320  28.773  1.00  0.00    -0.248 NA
ATOM     36  C   UNL A   1      39.275  26.810  28.891  1.00  0.00     0.031 C 
ATOM     37  C   UNL A   1      43.438  25.226  26.571  1.00  0.00     0.029 A 
ATOM     38  N   UNL A   1      43.452  27.320  27.365  1.00  0.00    -0.354 N 
ATOM     39  C   UNL A   1      39.994  28.902  29.457  1.00  0.00     0.074 A 
ATOM     40  C   UNL A   1      38.916  27.940  29.482  1.00  0.00     0.031 C 
ATOM     41  C   UNL A   1      44.636  25.760  26.285  1.00  0.00     0.029 A 
ATOM     42  C   UNL A   1      44.678  27.137  26.775  1.00  0.00     0.049 A 
ATOM     43  H   UNL A   1      43.186  28.157  27.810  1.00  0.00     0.167 HD
ATOM     44  C   UNL A   1      39.937  30.120  30.041  1.00  0.00     0.034 A 
ATOM     45  C   UNL A   1      45.713  27.988  26.647  1.00  0.00     0.034 A 
ATOM     46  C   UNL A   1      41.014  31.069  30.013  1.00  0.00     0.049 A 
ATOM     47  C   UNL A   1      45.612  29.360  27.252  1.00  0.00     0.074 A 
ATOM     48  C   UNL A   1      41.060  32.335  30.567  1.00  0.00     0.029 A 
ATOM     49  N   UNL A   1      42.235  30.854  29.391  1.00  0.00    -0.354 N 
ATOM     50  N   UNL A   1      44.627  29.879  27.946  1.00  0.00    -0.248 NA
ATOM     51  C   UNL A   1      46.765  30.255  27.080  1.00  0.00     0.031 C 
ATOM     52  C   UNL A   1      42.309  32.889  30.272  1.00  0.00     0.029 A 
ATOM     53  C   UNL A   1      43.043  31.963  29.546  1.00  0.00     0.049 A 
ATOM     54  H   UNL A   1      42.488  30.033  28.911  1.00  0.00     0.167 HD
ATOM     55  C   UNL A   1      45.045  31.153  28.312  1.00  0.00     0.074 A 
ATOM     56  C   UNL A   1      46.378  31.325  27.769  1.00  0.00     0.031 C 
ATOM     57  C   UNL A   1      44.380  32.096  29.024  1.00  0.00     0.034 A 
BRANCH  44  58
ATOM     58  C   UNL A   1      38.686  30.467  30.798  1.00  0.00     0.023 A 
ATOM     59  C   UNL A   1      38.556  30.038  32.135  1.00  0.00     0.012 A 
ATOM     60  C   UNL A   1      37.662  31.234  30.211  1.00  0.00     0.148 A 
ATOM     61  C   UNL A   1      37.415  30.350  32.871  1.00  0.00     0.002 A 
ATOM     62  C   UNL A   1      36.540  31.565  30.961  1.00  0.00     0.091 A 
ATOM     63  F   UNL A   1      37.798  31.608  28.931  1.00  0.00    -0.205 F 
ATOM     64  C   UNL A   1      36.412  31.120  32.288  1.00  0.00     0.022 A 
BRANCH  62  65
ATOM     65  S   UNL A   1      35.210  32.587  30.319  1.00  0.00     0.127 S 
ATOM     66  O   UNL A   1      34.740  31.784  29.190  1.00  0.00    -0.237 OA
ATOM     67  O   UNL A   1      34.288  32.641  31.454  1.00  0.00    -0.237 OA
ATOM     68  O   UNL A   1      35.816  33.863  29.965  1.00  0.00    -0.744 OA
ENDBRANCH  62  65
ENDBRANCH  44  58
BRANCH  45  69
ATOM     69  C   UNL A   1      46.949  27.512  25.970  1.00  0.00     0.023 A 
ATOM     70  C   UNL A   1      47.806  26.627  26.650  1.00  0.00     0.012 A 
ATOM     71  C   UNL A   1      47.205  27.827  24.622  1.00  0.00     0.148 A 
ATOM     72  C   UNL A   1      48.897  26.055  25.993  1.00  0.00     0.002 A 
ATOM     73  C   UNL A   1      48.272  27.226  23.964  1.00  0.00     0.091 A 
ATOM     74  F   UNL A   1      46.366  28.667  23.999  1.00  0.00    -0.205 F 
ATOM     75  C   UNL A   1      49.123  26.345  24.650  1.00  0.00     0.022 A 
BRANCH  73  76
ATOM     76  S   UNL A   1      48.583  27.450  22.209  1.00  0.00     0.127 S 
ATOM     77  O   UNL A   1      47.388  28.175  21.782  1.00  0.00    -0.237 OA
ATOM     78  O   UNL A   1      49.811  28.245  22.226  1.00  0.00    -0.237 OA
ATOM     79  O   UNL A   1      48.726  26.112  21.654  1.00  0.00    -0.744 OA
ENDBRANCH  73  76
ENDBRANCH  45  69
BRANCH  57  80
ATOM     80  C   UNL A   1      45.069  33.410  29.269  1.00  0.00     0.023 A 
ATOM     81  C   UNL A   1      45.891  33.553  30.402  1.00  0.00     0.012 A 
ATOM     82  C   UNL A   1      45.019  34.437  28.306  1.00  0.00     0.148 A 
ATOM     83  C   UNL A   1      46.655  34.706  30.577  1.00  0.00     0.002 A 
ATOM     84  C   UNL A   1      45.809  35.568  28.469  1.00  0.00     0.091 A 
ATOM     85  F   UNL A   1      44.224  34.273  27.239  1.00  0.00    -0.205 F 
ATOM     86  C   UNL A   1      46.624  35.706  29.605  1.00  0.00     0.022 A 
BRANCH  84  87
ATOM     87  S   UNL A   1      45.900  36.874  27.240  1.00  0.00     0.127 S 
ATOM     88  O   UNL A   1      46.405  36.149  26.074  1.00  0.00    -0.237 OA
ATOM     89  O   UNL A   1      44.503  37.298  27.137  1.00  0.00    -0.237 OA
ATOM     90  O   UNL A   1      46.804  37.878  27.782  1.00  0.00    -0.744 OA
ENDBRANCH  84  87
ENDBRANCH  57  80
ENDBRANCH  31  32
ENDBRANCH  24  26
ENDBRANCH  23  24
ENDBRANCH  22  23
ENDBRANCH   1  22
TORSDOF 19
ENDMDL
