MODEL 1
REMARK VINA RESULT:     -10.5      0.000      0.000
REMARK SMILES O=C(Cc1ccc(F)cc1F)N[C@H](CCO)C(=O)OCCOCCOC(=O)c1ccc(-c2c3nc(c(-c4cccc(S(=O)(=O)[O-])c4F)c4ccc([nH]4)c(-c4cccc(S(=O)(=O)[O-])c4F)c4nc(c(-c5cccc(S(=O)(=O)[O-])c5F)c5ccc2[nH]5)C=C4)C=C3)cc1
REMARK SMILES IDX 22 1 21 2 20 3 19 4 17 5 18 6 13 7 12 8 1 9 2 10 3 12 4 13
REMARK SMILES IDX 5 14 10 15 6 16 9 17 11 18 7 19 8 20 14 21 15 22 16 23 23 25
REMARK SMILES IDX 24 26 25 27 26 28 27 29 28 30 29 31 90 32 30 33 89 34 31 35
REMARK SMILES IDX 32 36 33 37 83 38 34 39 88 40 82 41 84 42 35 43 87 44 81 45
REMARK SMILES IDX 80 46 36 48 68 49 48 50 67 51 49 52 52 53 66 54 85 55 50 56
REMARK SMILES IDX 51 57 65 59 86 60 53 61 37 62 38 63 46 64 39 65 41 66 47 67
REMARK SMILES IDX 40 68 42 69 43 70 44 71 45 72 69 73 70 74 78 75 71 76 73 77
REMARK SMILES IDX 79 78 72 79 74 80 75 81 76 82 77 83 54 84 55 85 63 86 56 87
REMARK SMILES IDX 58 88 64 89 57 90 59 91 60 92 61 93 62 94
REMARK H PARENT 12 11 16 24 84 47 52 58
REMARK Flexibility Score: inf
ROOT
ATOM      1  O   UNL A   1      31.880  30.085  27.229  1.00  0.00    -0.374 OA
ENDROOT
BRANCH   1   2
ATOM      2  C   UNL A   1      31.818  28.731  26.783  1.00  0.00     0.202 C 
BRANCH   2   3
ATOM      3  C   UNL A   1      33.139  27.979  26.634  1.00  0.00     0.261 C 
BRANCH   3   4
ATOM      4  O   UNL A   1      33.078  26.866  25.717  1.00  0.00    -0.462 OA
BRANCH   4   5
ATOM      5  C   UNL A   1      33.435  27.175  24.438  1.00  0.00     0.328 C 
ATOM      6  O   UNL A   1      34.151  28.120  24.117  1.00  0.00    -0.250 OA
BRANCH   5   7
ATOM      7  C   UNL A   1      32.854  26.197  23.406  1.00  0.00     0.194 C 
BRANCH   7   8
ATOM      8  N   UNL A   1      33.006  24.777  23.744  1.00  0.00    -0.342 N 
ATOM      9  O   UNL A   1      30.825  24.293  24.315  1.00  0.00    -0.275 OA
ATOM     10  C   UNL A   1      31.980  23.935  24.108  1.00  0.00     0.225 C 
ATOM     11  H   UNL A   1      33.913  24.396  23.707  1.00  0.00     0.164 HD
BRANCH  10  12
ATOM     12  C   UNL A   1      32.395  22.480  24.171  1.00  0.00     0.138 C 
BRANCH  12  13
ATOM     13  C   UNL A   1      33.885  22.401  24.368  1.00  0.00    -0.003 A 
ATOM     14  C   UNL A   1      34.752  22.705  23.307  1.00  0.00     0.010 A 
ATOM     15  C   UNL A   1      34.425  22.147  25.633  1.00  0.00     0.129 A 
ATOM     16  C   UNL A   1      36.128  22.741  23.520  1.00  0.00     0.040 A 
ATOM     17  C   UNL A   1      35.795  22.167  25.849  1.00  0.00     0.078 A 
ATOM     18  F   UNL A   1      33.606  21.936  26.674  1.00  0.00    -0.207 F 
ATOM     19  C   UNL A   1      36.636  22.467  24.787  1.00  0.00     0.126 A 
ATOM     20  F   UNL A   1      37.959  22.518  24.988  1.00  0.00    -0.207 F 
ENDBRANCH  12  13
ENDBRANCH  10  12
ENDBRANCH   7   8
BRANCH   7  21
ATOM     21  C   UNL A   1      33.284  26.385  21.933  1.00  0.00     0.065 C 
BRANCH  21  22
ATOM     22  C   UNL A   1      32.538  25.639  20.841  1.00  0.00     0.159 C 
BRANCH  22  23
ATOM     23  O   UNL A   1      33.101  25.890  19.568  1.00  0.00    -0.396 OA
ATOM     24  H   UNL A   1      33.840  25.280  19.414  1.00  0.00     0.210 HD
ENDBRANCH  22  23
ENDBRANCH  21  22
ENDBRANCH   7  21
ENDBRANCH   5   7
ENDBRANCH   4   5
ENDBRANCH   3   4
ENDBRANCH   2   3
ENDBRANCH   1   2
BRANCH   1  25
ATOM     25  C   UNL A   1      31.440  31.094  26.326  1.00  0.00     0.202 C 
BRANCH  25  26
ATOM     26  C   UNL A   1      31.471  32.539  26.838  1.00  0.00     0.261 C 
BRANCH  26  27
ATOM     27  O   UNL A   1      32.785  33.115  26.753  1.00  0.00    -0.460 OA
BRANCH  27  28
ATOM     28  C   UNL A   1      33.317  33.491  27.942  1.00  0.00     0.338 C 
ATOM     29  O   UNL A   1      32.771  34.151  28.809  1.00  0.00    -0.246 OA
BRANCH  28  30
ATOM     30  C   UNL A   1      34.617  32.825  28.161  1.00  0.00     0.060 A 
ATOM     31  C   UNL A   1      34.583  31.476  28.536  1.00  0.00     0.016 A 
ATOM     32  C   UNL A   1      35.833  33.510  28.096  1.00  0.00     0.016 A 
ATOM     33  C   UNL A   1      35.749  30.832  28.937  1.00  0.00     0.010 A 
ATOM     34  C   UNL A   1      37.005  32.860  28.505  1.00  0.00     0.010 A 
ATOM     35  C   UNL A   1      36.959  31.536  28.980  1.00  0.00    -0.014 A 
BRANCH  35  36
ATOM     36  C   UNL A   1      38.116  30.927  29.685  1.00  0.00     0.031 A 
ATOM     37  C   UNL A   1      38.359  31.276  31.131  1.00  0.00     0.074 A 
ATOM     38  C   UNL A   1      38.909  30.031  29.071  1.00  0.00     0.049 A 
ATOM     39  N   UNL A   1      39.264  30.816  31.954  1.00  0.00    -0.248 NA
ATOM     40  C   UNL A   1      37.460  32.277  31.727  1.00  0.00     0.031 C 
ATOM     41  C   UNL A   1      38.768  29.589  27.685  1.00  0.00     0.029 A 
ATOM     42  N   UNL A   1      39.993  29.332  29.541  1.00  0.00    -0.354 N 
ATOM     43  C   UNL A   1      39.068  31.491  33.152  1.00  0.00     0.074 A 
ATOM     44  C   UNL A   1      37.964  32.404  32.945  1.00  0.00     0.031 C 
ATOM     45  C   UNL A   1      39.734  28.695  27.414  1.00  0.00     0.029 A 
ATOM     46  C   UNL A   1      40.575  28.519  28.596  1.00  0.00     0.049 A 
ATOM     47  H   UNL A   1      40.323  29.406  30.465  1.00  0.00     0.167 HD
ATOM     48  C   UNL A   1      39.733  31.358  34.324  1.00  0.00     0.034 A 
ATOM     49  C   UNL A   1      41.666  27.732  28.676  1.00  0.00     0.034 A 
ATOM     50  C   UNL A   1      40.816  30.435  34.539  1.00  0.00     0.049 A 
ATOM     51  C   UNL A   1      42.414  27.630  29.981  1.00  0.00     0.074 A 
ATOM     52  C   UNL A   1      41.508  30.180  35.709  1.00  0.00     0.029 A 
ATOM     53  N   UNL A   1      41.381  29.634  33.559  1.00  0.00    -0.354 N 
ATOM     54  N   UNL A   1      42.136  28.179  31.138  1.00  0.00    -0.248 NA
ATOM     55  C   UNL A   1      43.608  26.772  29.995  1.00  0.00     0.031 C 
ATOM     56  C   UNL A   1      42.522  29.259  35.425  1.00  0.00     0.029 A 
ATOM     57  C   UNL A   1      42.432  28.906  34.088  1.00  0.00     0.049 A 
ATOM     58  H   UNL A   1      41.077  29.589  32.623  1.00  0.00     0.167 HD
ATOM     59  C   UNL A   1      43.096  27.702  32.028  1.00  0.00     0.074 A 
ATOM     60  C   UNL A   1      43.952  26.809  31.276  1.00  0.00     0.031 C 
ATOM     61  C   UNL A   1      43.255  27.985  33.345  1.00  0.00     0.034 A 
BRANCH  48  62
ATOM     62  C   UNL A   1      39.308  32.239  35.472  1.00  0.00     0.023 A 
ATOM     63  C   UNL A   1      38.400  31.755  36.437  1.00  0.00     0.012 A 
ATOM     64  C   UNL A   1      39.834  33.538  35.611  1.00  0.00     0.148 A 
ATOM     65  C   UNL A   1      37.989  32.565  37.495  1.00  0.00     0.002 A 
ATOM     66  C   UNL A   1      39.457  34.322  36.695  1.00  0.00     0.091 A 
ATOM     67  F   UNL A   1      40.677  33.992  34.673  1.00  0.00    -0.205 F 
ATOM     68  C   UNL A   1      38.524  33.843  37.629  1.00  0.00     0.022 A 
BRANCH  66  69
ATOM     69  S   UNL A   1      40.155  35.950  36.996  1.00  0.00     0.127 S 
ATOM     70  O   UNL A   1      39.490  36.331  38.240  1.00  0.00    -0.237 OA
ATOM     71  O   UNL A   1      41.581  35.653  37.133  1.00  0.00    -0.237 OA
ATOM     72  O   UNL A   1      39.814  36.752  35.829  1.00  0.00    -0.744 OA
ENDBRANCH  66  69
ENDBRANCH  48  62
BRANCH  49  73
ATOM     73  C   UNL A   1      42.090  26.931  27.492  1.00  0.00     0.023 A 
ATOM     74  C   UNL A   1      42.742  27.573  26.420  1.00  0.00     0.012 A 
ATOM     75  C   UNL A   1      41.872  25.541  27.433  1.00  0.00     0.148 A 
ATOM     76  C   UNL A   1      43.145  26.847  25.299  1.00  0.00     0.002 A 
ATOM     77  C   UNL A   1      42.327  24.816  26.338  1.00  0.00     0.091 A 
ATOM     78  F   UNL A   1      41.239  24.954  28.457  1.00  0.00    -0.205 F 
ATOM     79  C   UNL A   1      42.949  25.470  25.262  1.00  0.00     0.022 A 
BRANCH  77  80
ATOM     80  S   UNL A   1      42.229  23.025  26.255  1.00  0.00     0.127 S 
ATOM     81  O   UNL A   1      40.789  22.799  26.350  1.00  0.00    -0.237 OA
ATOM     82  O   UNL A   1      42.810  22.754  24.940  1.00  0.00    -0.237 OA
ATOM     83  O   UNL A   1      43.017  22.531  27.376  1.00  0.00    -0.744 OA
ENDBRANCH  77  80
ENDBRANCH  49  73
BRANCH  61  84
ATOM     84  C   UNL A   1      44.376  27.295  34.083  1.00  0.00     0.023 A 
ATOM     85  C   UNL A   1      45.661  27.872  34.117  1.00  0.00     0.012 A 
ATOM     86  C   UNL A   1      44.134  26.110  34.808  1.00  0.00     0.148 A 
ATOM     87  C   UNL A   1      46.695  27.261  34.828  1.00  0.00     0.002 A 
ATOM     88  C   UNL A   1      45.154  25.536  35.557  1.00  0.00     0.091 A 
ATOM     89  F   UNL A   1      42.909  25.565  34.752  1.00  0.00    -0.205 F 
ATOM     90  C   UNL A   1      46.439  26.103  35.557  1.00  0.00     0.022 A 
BRANCH  88  91
ATOM     91  S   UNL A   1      44.894  24.100  36.606  1.00  0.00     0.127 S 
ATOM     92  O   UNL A   1      46.255  23.802  37.048  1.00  0.00    -0.237 OA
ATOM     93  O   UNL A   1      44.016  24.634  37.648  1.00  0.00    -0.237 OA
ATOM     94  O   UNL A   1      44.278  23.089  35.758  1.00  0.00    -0.744 OA
ENDBRANCH  88  91
ENDBRANCH  61  84
ENDBRANCH  35  36
ENDBRANCH  28  30
ENDBRANCH  27  28
ENDBRANCH  26  27
ENDBRANCH  25  26
ENDBRANCH   1  25
TORSDOF 23
ENDMDL
MODEL 2
REMARK VINA RESULT:     -10.5      1.771      2.499
REMARK SMILES O=C(Cc1ccc(F)cc1F)N[C@H](CCO)C(=O)OCCOCCOC(=O)c1ccc(-c2c3nc(c(-c4cccc(S(=O)(=O)[O-])c4F)c4ccc([nH]4)c(-c4cccc(S(=O)(=O)[O-])c4F)c4nc(c(-c5cccc(S(=O)(=O)[O-])c5F)c5ccc2[nH]5)C=C4)C=C3)cc1
REMARK SMILES IDX 22 1 21 2 20 3 19 4 17 5 18 6 13 7 12 8 1 9 2 10 3 12 4 13
REMARK SMILES IDX 5 14 10 15 6 16 9 17 11 18 7 19 8 20 14 21 15 22 16 23 23 25
REMARK SMILES IDX 24 26 25 27 26 28 27 29 28 30 29 31 90 32 30 33 89 34 31 35
REMARK SMILES IDX 32 36 33 37 83 38 34 39 88 40 82 41 84 42 35 43 87 44 81 45
REMARK SMILES IDX 80 46 36 48 68 49 48 50 67 51 49 52 52 53 66 54 85 55 50 56
REMARK SMILES IDX 51 57 65 59 86 60 53 61 37 62 38 63 46 64 39 65 41 66 47 67
REMARK SMILES IDX 40 68 42 69 43 70 44 71 45 72 69 73 70 74 78 75 71 76 73 77
REMARK SMILES IDX 79 78 72 79 74 80 75 81 76 82 77 83 54 84 55 85 63 86 56 87
REMARK SMILES IDX 58 88 64 89 57 90 59 91 60 92 61 93 62 94
REMARK H PARENT 12 11 16 24 84 47 52 58
REMARK Flexibility Score: inf
ROOT
ATOM      1  O   UNL A   1      32.021  30.497  27.007  1.00  0.00    -0.374 OA
ENDROOT
BRANCH   1   2
ATOM      2  C   UNL A   1      32.209  29.267  26.310  1.00  0.00     0.202 C 
BRANCH   2   3
ATOM      3  C   UNL A   1      32.161  29.310  24.783  1.00  0.00     0.261 C 
BRANCH   3   4
ATOM      4  O   UNL A   1      32.239  28.012  24.159  1.00  0.00    -0.462 OA
BRANCH   4   5
ATOM      5  C   UNL A   1      31.135  27.234  24.347  1.00  0.00     0.328 C 
ATOM      6  O   UNL A   1      30.016  27.484  23.908  1.00  0.00    -0.250 OA
BRANCH   5   7
ATOM      7  C   UNL A   1      31.431  25.971  25.170  1.00  0.00     0.194 C 
BRANCH   7   8
ATOM      8  N   UNL A   1      32.252  24.965  24.488  1.00  0.00    -0.342 N 
ATOM      9  O   UNL A   1      30.674  24.111  23.040  1.00  0.00    -0.275 OA
ATOM     10  C   UNL A   1      31.829  24.168  23.449  1.00  0.00     0.225 C 
ATOM     11  H   UNL A   1      33.181  24.850  24.798  1.00  0.00     0.164 HD
BRANCH  10  12
ATOM     12  C   UNL A   1      32.953  23.395  22.793  1.00  0.00     0.138 C 
BRANCH  12  13
ATOM     13  C   UNL A   1      33.068  22.042  23.445  1.00  0.00    -0.003 A 
ATOM     14  C   UNL A   1      33.817  21.890  24.621  1.00  0.00     0.010 A 
ATOM     15  C   UNL A   1      32.332  20.954  22.964  1.00  0.00     0.129 A 
ATOM     16  C   UNL A   1      33.831  20.665  25.285  1.00  0.00     0.040 A 
ATOM     17  C   UNL A   1      32.352  19.728  23.612  1.00  0.00     0.078 A 
ATOM     18  F   UNL A   1      31.546  21.107  21.888  1.00  0.00    -0.207 F 
ATOM     19  C   UNL A   1      33.103  19.596  24.772  1.00  0.00     0.126 A 
ATOM     20  F   UNL A   1      33.108  18.426  25.423  1.00  0.00    -0.207 F 
ENDBRANCH  12  13
ENDBRANCH  10  12
ENDBRANCH   7   8
BRANCH   7  21
ATOM     21  C   UNL A   1      30.225  25.247  25.812  1.00  0.00     0.065 C 
BRANCH  21  22
ATOM     22  C   UNL A   1      30.439  23.905  26.490  1.00  0.00     0.159 C 
BRANCH  22  23
ATOM     23  O   UNL A   1      29.376  23.596  27.370  1.00  0.00    -0.396 OA
ATOM     24  H   UNL A   1      29.699  23.612  28.285  1.00  0.00     0.210 HD
ENDBRANCH  22  23
ENDBRANCH  21  22
ENDBRANCH   7  21
ENDBRANCH   5   7
ENDBRANCH   4   5
ENDBRANCH   3   4
ENDBRANCH   2   3
ENDBRANCH   1   2
BRANCH   1  25
ATOM     25  C   UNL A   1      31.427  31.574  26.290  1.00  0.00     0.202 C 
BRANCH  25  26
ATOM     26  C   UNL A   1      31.642  32.982  26.856  1.00  0.00     0.261 C 
BRANCH  26  27
ATOM     27  O   UNL A   1      33.034  33.338  26.907  1.00  0.00    -0.460 OA
BRANCH  27  28
ATOM     28  C   UNL A   1      33.518  33.556  28.154  1.00  0.00     0.338 C 
ATOM     29  O   UNL A   1      32.943  34.114  29.073  1.00  0.00    -0.246 OA
BRANCH  28  30
ATOM     30  C   UNL A   1      34.800  32.848  28.344  1.00  0.00     0.060 A 
ATOM     31  C   UNL A   1      34.729  31.509  28.750  1.00  0.00     0.016 A 
ATOM     32  C   UNL A   1      36.037  33.484  28.222  1.00  0.00     0.016 A 
ATOM     33  C   UNL A   1      35.884  30.830  29.126  1.00  0.00     0.010 A 
ATOM     34  C   UNL A   1      37.198  32.800  28.605  1.00  0.00     0.010 A 
ATOM     35  C   UNL A   1      37.119  31.489  29.111  1.00  0.00    -0.014 A 
BRANCH  35  36
ATOM     36  C   UNL A   1      38.278  30.852  29.789  1.00  0.00     0.031 A 
ATOM     37  C   UNL A   1      38.557  31.189  31.232  1.00  0.00     0.074 A 
ATOM     38  C   UNL A   1      39.038  29.942  29.157  1.00  0.00     0.049 A 
ATOM     39  N   UNL A   1      39.469  30.705  32.034  1.00  0.00    -0.248 NA
ATOM     40  C   UNL A   1      37.692  32.206  31.851  1.00  0.00     0.031 C 
ATOM     41  C   UNL A   1      38.860  29.510  27.771  1.00  0.00     0.029 A 
ATOM     42  N   UNL A   1      40.117  29.218  29.601  1.00  0.00    -0.354 N 
ATOM     43  C   UNL A   1      39.311  31.379  33.239  1.00  0.00     0.074 A 
ATOM     44  C   UNL A   1      38.223  32.316  33.059  1.00  0.00     0.031 C 
ATOM     45  C   UNL A   1      39.800  28.597  27.477  1.00  0.00     0.029 A 
ATOM     46  C   UNL A   1      40.662  28.398  28.641  1.00  0.00     0.049 A 
ATOM     47  H   UNL A   1      40.467  29.280  30.518  1.00  0.00     0.167 HD
ATOM     48  C   UNL A   1      39.997  31.226  34.397  1.00  0.00     0.034 A 
ATOM     49  C   UNL A   1      41.737  27.586  28.695  1.00  0.00     0.034 A 
ATOM     50  C   UNL A   1      41.064  30.280  34.586  1.00  0.00     0.049 A 
ATOM     51  C   UNL A   1      42.508  27.462  29.984  1.00  0.00     0.074 A 
ATOM     52  C   UNL A   1      41.774  30.004  35.741  1.00  0.00     0.029 A 
ATOM     53  N   UNL A   1      41.591  29.470  33.591  1.00  0.00    -0.354 N 
ATOM     54  N   UNL A   1      42.266  28.011  31.149  1.00  0.00    -0.248 NA
ATOM     55  C   UNL A   1      43.684  26.580  29.970  1.00  0.00     0.031 C 
ATOM     56  C   UNL A   1      42.762  29.063  35.432  1.00  0.00     0.029 A 
ATOM     57  C   UNL A   1      42.637  28.718  34.095  1.00  0.00     0.049 A 
ATOM     58  H   UNL A   1      41.268  29.437  32.661  1.00  0.00     0.167 HD
ATOM     59  C   UNL A   1      43.234  27.510  32.017  1.00  0.00     0.074 A 
ATOM     60  C   UNL A   1      44.055  26.602  31.244  1.00  0.00     0.031 C 
ATOM     61  C   UNL A   1      43.425  27.783  33.332  1.00  0.00     0.034 A 
BRANCH  48  62
ATOM     62  C   UNL A   1      39.614  32.110  35.557  1.00  0.00     0.023 A 
ATOM     63  C   UNL A   1      40.136  33.417  35.653  1.00  0.00     0.012 A 
ATOM     64  C   UNL A   1      38.709  31.656  36.535  1.00  0.00     0.148 A 
ATOM     65  C   UNL A   1      39.799  34.239  36.727  1.00  0.00     0.002 A 
ATOM     66  C   UNL A   1      38.340  32.499  37.577  1.00  0.00     0.091 A 
ATOM     67  F   UNL A   1      38.239  30.404  36.442  1.00  0.00    -0.205 F 
ATOM     68  C   UNL A   1      38.894  33.785  37.683  1.00  0.00     0.022 A 
BRANCH  66  69
ATOM     69  S   UNL A   1      37.119  32.030  38.810  1.00  0.00     0.127 S 
ATOM     70  O   UNL A   1      35.958  32.809  38.387  1.00  0.00    -0.237 OA
ATOM     71  O   UNL A   1      36.998  30.588  38.591  1.00  0.00    -0.237 OA
ATOM     72  O   UNL A   1      37.690  32.400  40.097  1.00  0.00    -0.744 OA
ENDBRANCH  66  69
ENDBRANCH  48  62
BRANCH  49  73
ATOM     73  C   UNL A   1      42.120  26.782  27.500  1.00  0.00     0.023 A 
ATOM     74  C   UNL A   1      42.791  27.408  26.431  1.00  0.00     0.012 A 
ATOM     75  C   UNL A   1      41.843  25.404  27.426  1.00  0.00     0.148 A 
ATOM     76  C   UNL A   1      43.157  26.680  25.298  1.00  0.00     0.002 A 
ATOM     77  C   UNL A   1      42.260  24.673  26.319  1.00  0.00     0.091 A 
ATOM     78  F   UNL A   1      41.192  24.832  28.447  1.00  0.00    -0.205 F 
ATOM     79  C   UNL A   1      42.902  25.312  25.247  1.00  0.00     0.022 A 
BRANCH  77  80
ATOM     80  S   UNL A   1      42.086  22.889  26.217  1.00  0.00     0.127 S 
ATOM     81  O   UNL A   1      42.692  22.602  24.919  1.00  0.00    -0.237 OA
ATOM     82  O   UNL A   1      42.866  22.446  27.373  1.00  0.00    -0.237 OA
ATOM     83  O   UNL A   1      40.658  22.621  26.316  1.00  0.00    -0.744 OA
ENDBRANCH  77  80
ENDBRANCH  49  73
BRANCH  61  84
ATOM     84  C   UNL A   1      44.546  27.066  34.044  1.00  0.00     0.023 A 
ATOM     85  C   UNL A   1      45.834  27.634  34.087  1.00  0.00     0.012 A 
ATOM     86  C   UNL A   1      44.300  25.862  34.736  1.00  0.00     0.148 A 
ATOM     87  C   UNL A   1      46.868  26.998  34.776  1.00  0.00     0.002 A 
ATOM     88  C   UNL A   1      45.321  25.262  35.463  1.00  0.00     0.091 A 
ATOM     89  F   UNL A   1      43.072  25.326  34.672  1.00  0.00    -0.205 F 
ATOM     90  C   UNL A   1      46.609  25.820  35.473  1.00  0.00     0.022 A 
BRANCH  88  91
ATOM     91  S   UNL A   1      45.057  23.798  36.472  1.00  0.00     0.127 S 
ATOM     92  O   UNL A   1      44.316  24.347  37.606  1.00  0.00    -0.237 OA
ATOM     93  O   UNL A   1      44.268  22.947  35.581  1.00  0.00    -0.237 OA
ATOM     94  O   UNL A   1      46.382  23.280  36.785  1.00  0.00    -0.744 OA
ENDBRANCH  88  91
ENDBRANCH  61  84
ENDBRANCH  35  36
ENDBRANCH  28  30
ENDBRANCH  27  28
ENDBRANCH  26  27
ENDBRANCH  25  26
ENDBRANCH   1  25
TORSDOF 23
ENDMDL
MODEL 3
REMARK VINA RESULT:     -10.4      5.147     10.362
REMARK SMILES O=C(Cc1ccc(F)cc1F)N[C@H](CCO)C(=O)OCCOCCOC(=O)c1ccc(-c2c3nc(c(-c4cccc(S(=O)(=O)[O-])c4F)c4ccc([nH]4)c(-c4cccc(S(=O)(=O)[O-])c4F)c4nc(c(-c5cccc(S(=O)(=O)[O-])c5F)c5ccc2[nH]5)C=C4)C=C3)cc1
REMARK SMILES IDX 22 1 21 2 20 3 19 4 17 5 18 6 13 7 12 8 1 9 2 10 3 12 4 13
REMARK SMILES IDX 5 14 10 15 6 16 9 17 11 18 7 19 8 20 14 21 15 22 16 23 23 25
REMARK SMILES IDX 24 26 25 27 26 28 27 29 28 30 29 31 90 32 30 33 89 34 31 35
REMARK SMILES IDX 32 36 33 37 83 38 34 39 88 40 82 41 84 42 35 43 87 44 81 45
REMARK SMILES IDX 80 46 36 48 68 49 48 50 67 51 49 52 52 53 66 54 85 55 50 56
REMARK SMILES IDX 51 57 65 59 86 60 53 61 37 62 38 63 46 64 39 65 41 66 47 67
REMARK SMILES IDX 40 68 42 69 43 70 44 71 45 72 69 73 70 74 78 75 71 76 73 77
REMARK SMILES IDX 79 78 72 79 74 80 75 81 76 82 77 83 54 84 55 85 63 86 56 87
REMARK SMILES IDX 58 88 64 89 57 90 59 91 60 92 61 93 62 94
REMARK H PARENT 12 11 16 24 84 47 52 58
REMARK Flexibility Score: inf
ROOT
ATOM      1  O   UNL A   1      34.617  20.810  25.299  1.00  0.00    -0.374 OA
ENDROOT
BRANCH   1   2
ATOM      2  C   UNL A   1      34.465  21.150  26.676  1.00  0.00     0.202 C 
BRANCH   2   3
ATOM      3  C   UNL A   1      33.487  22.273  27.019  1.00  0.00     0.261 C 
BRANCH   3   4
ATOM      4  O   UNL A   1      32.706  22.732  25.896  1.00  0.00    -0.462 OA
BRANCH   4   5
ATOM      5  C   UNL A   1      33.246  23.797  25.237  1.00  0.00     0.328 C 
ATOM      6  O   UNL A   1      34.198  24.462  25.637  1.00  0.00    -0.250 OA
BRANCH   5   7
ATOM      7  C   UNL A   1      32.543  24.089  23.903  1.00  0.00     0.194 C 
BRANCH   7   8
ATOM      8  N   UNL A   1      31.790  25.348  23.863  1.00  0.00    -0.342 N 
ATOM      9  O   UNL A   1      30.236  24.908  25.510  1.00  0.00    -0.275 OA
ATOM     10  C   UNL A   1      30.748  25.675  24.702  1.00  0.00     0.225 C 
ATOM     11  H   UNL A   1      32.050  26.012  23.184  1.00  0.00     0.164 HD
BRANCH  10  12
ATOM     12  C   UNL A   1      30.319  27.123  24.584  1.00  0.00     0.138 C 
BRANCH  12  13
ATOM     13  C   UNL A   1      31.367  28.001  25.215  1.00  0.00    -0.003 A 
ATOM     14  C   UNL A   1      31.569  27.967  26.603  1.00  0.00     0.010 A 
ATOM     15  C   UNL A   1      32.231  28.762  24.422  1.00  0.00     0.129 A 
ATOM     16  C   UNL A   1      32.612  28.694  27.173  1.00  0.00     0.040 A 
ATOM     17  C   UNL A   1      33.263  29.500  24.985  1.00  0.00     0.078 A 
ATOM     18  F   UNL A   1      32.102  28.740  23.088  1.00  0.00    -0.207 F 
ATOM     19  C   UNL A   1      33.445  29.456  26.360  1.00  0.00     0.126 A 
ATOM     20  F   UNL A   1      34.454  30.141  26.912  1.00  0.00    -0.207 F 
ENDBRANCH  12  13
ENDBRANCH  10  12
ENDBRANCH   7   8
BRANCH   7  21
ATOM     21  C   UNL A   1      31.642  22.977  23.320  1.00  0.00     0.065 C 
BRANCH  21  22
ATOM     22  C   UNL A   1      32.285  21.730  22.739  1.00  0.00     0.159 C 
BRANCH  22  23
ATOM     23  O   UNL A   1      32.348  20.689  23.695  1.00  0.00    -0.396 OA
ATOM     24  H   UNL A   1      32.204  21.055  24.582  1.00  0.00     0.210 HD
ENDBRANCH  22  23
ENDBRANCH  21  22
ENDBRANCH   7  21
ENDBRANCH   5   7
ENDBRANCH   4   5
ENDBRANCH   3   4
ENDBRANCH   2   3
ENDBRANCH   1   2
BRANCH   1  25
ATOM     25  C   UNL A   1      35.827  21.203  24.657  1.00  0.00     0.202 C 
BRANCH  25  26
ATOM     26  C   UNL A   1      37.111  20.507  25.121  1.00  0.00     0.261 C 
BRANCH  26  27
ATOM     27  O   UNL A   1      38.257  21.371  25.031  1.00  0.00    -0.460 OA
BRANCH  27  28
ATOM     28  C   UNL A   1      39.254  21.083  25.903  1.00  0.00     0.338 C 
ATOM     29  O   UNL A   1      39.875  20.037  25.981  1.00  0.00    -0.246 OA
BRANCH  28  30
ATOM     30  C   UNL A   1      39.651  22.291  26.654  1.00  0.00     0.060 A 
ATOM     31  C   UNL A   1      38.976  23.479  26.344  1.00  0.00     0.016 A 
ATOM     32  C   UNL A   1      40.709  22.297  27.565  1.00  0.00     0.016 A 
ATOM     33  C   UNL A   1      39.413  24.690  26.871  1.00  0.00     0.010 A 
ATOM     34  C   UNL A   1      41.150  23.518  28.091  1.00  0.00     0.010 A 
ATOM     35  C   UNL A   1      40.539  24.726  27.702  1.00  0.00    -0.014 A 
BRANCH  35  36
ATOM     36  C   UNL A   1      41.161  26.040  28.009  1.00  0.00     0.031 A 
ATOM     37  C   UNL A   1      42.549  26.329  27.497  1.00  0.00     0.074 A 
ATOM     38  C   UNL A   1      40.485  26.988  28.680  1.00  0.00     0.049 A 
ATOM     39  N   UNL A   1      43.254  27.426  27.590  1.00  0.00    -0.248 NA
ATOM     40  C   UNL A   1      43.231  25.236  26.786  1.00  0.00     0.031 C 
ATOM     41  C   UNL A   1      39.129  26.844  29.207  1.00  0.00     0.029 A 
ATOM     42  N   UNL A   1      40.852  28.262  29.033  1.00  0.00    -0.354 N 
ATOM     43  C   UNL A   1      44.472  27.148  26.981  1.00  0.00     0.074 A 
ATOM     44  C   UNL A   1      44.415  25.773  26.534  1.00  0.00     0.031 C 
ATOM     45  C   UNL A   1      38.778  27.986  29.821  1.00  0.00     0.029 A 
ATOM     46  C   UNL A   1      39.891  28.933  29.753  1.00  0.00     0.049 A 
ATOM     47  H   UNL A   1      41.720  28.660  28.794  1.00  0.00     0.167 HD
ATOM     48  C   UNL A   1      45.538  27.963  26.797  1.00  0.00     0.034 A 
ATOM     49  C   UNL A   1      39.911  30.164  30.301  1.00  0.00     0.034 A 
ATOM     50  C   UNL A   1      45.589  29.337  27.221  1.00  0.00     0.049 A 
ATOM     51  C   UNL A   1      41.124  31.038  30.116  1.00  0.00     0.074 A 
ATOM     52  C   UNL A   1      46.598  30.262  27.020  1.00  0.00     0.029 A 
ATOM     53  N   UNL A   1      44.599  29.978  27.951  1.00  0.00    -0.354 N 
ATOM     54  N   UNL A   1      42.216  30.804  29.428  1.00  0.00    -0.248 NA
ATOM     55  C   UNL A   1      41.093  32.361  30.758  1.00  0.00     0.031 C 
ATOM     56  C   UNL A   1      46.239  31.448  27.670  1.00  0.00     0.029 A 
ATOM     57  C   UNL A   1      44.986  31.276  28.237  1.00  0.00     0.049 A 
ATOM     58  H   UNL A   1      43.747  29.569  28.226  1.00  0.00     0.167 HD
ATOM     59  C   UNL A   1      42.982  31.963  29.521  1.00  0.00     0.074 A 
ATOM     60  C   UNL A   1      42.222  32.902  30.319  1.00  0.00     0.031 C 
ATOM     61  C   UNL A   1      44.207  32.221  28.996  1.00  0.00     0.034 A 
BRANCH  48  62
ATOM     62  C   UNL A   1      46.746  27.385  26.105  1.00  0.00     0.023 A 
ATOM     63  C   UNL A   1      47.589  26.482  26.788  1.00  0.00     0.012 A 
ATOM     64  C   UNL A   1      47.029  27.711  24.765  1.00  0.00     0.148 A 
ATOM     65  C   UNL A   1      48.716  25.951  26.163  1.00  0.00     0.002 A 
ATOM     66  C   UNL A   1      48.127  27.140  24.133  1.00  0.00     0.091 A 
ATOM     67  F   UNL A   1      46.232  28.588  24.137  1.00  0.00    -0.205 F 
ATOM     68  C   UNL A   1      48.980  26.272  24.834  1.00  0.00     0.022 A 
BRANCH  66  69
ATOM     69  S   UNL A   1      48.500  27.430  22.399  1.00  0.00     0.127 S 
ATOM     70  O   UNL A   1      49.752  28.178  22.487  1.00  0.00    -0.237 OA
ATOM     71  O   UNL A   1      48.639  26.068  21.881  1.00  0.00    -0.237 OA
ATOM     72  O   UNL A   1      47.364  28.167  21.864  1.00  0.00    -0.744 OA
ENDBRANCH  66  69
ENDBRANCH  48  62
BRANCH  49  73
ATOM     73  C   UNL A   1      38.717  30.668  31.037  1.00  0.00     0.023 A 
ATOM     74  C   UNL A   1      38.658  30.530  32.438  1.00  0.00     0.012 A 
ATOM     75  C   UNL A   1      37.654  31.298  30.363  1.00  0.00     0.148 A 
ATOM     76  C   UNL A   1      37.550  30.989  33.151  1.00  0.00     0.002 A 
ATOM     77  C   UNL A   1      36.578  31.803  31.085  1.00  0.00     0.091 A 
ATOM     78  F   UNL A   1      37.723  31.406  29.030  1.00  0.00    -0.205 F 
ATOM     79  C   UNL A   1      36.517  31.634  32.478  1.00  0.00     0.022 A 
BRANCH  77  80
ATOM     80  S   UNL A   1      35.262  32.755  30.322  1.00  0.00     0.127 S 
ATOM     81  O   UNL A   1      35.990  33.910  29.802  1.00  0.00    -0.237 OA
ATOM     82  O   UNL A   1      34.773  31.826  29.303  1.00  0.00    -0.237 OA
ATOM     83  O   UNL A   1      34.308  33.040  31.384  1.00  0.00    -0.744 OA
ENDBRANCH  77  80
ENDBRANCH  49  73
BRANCH  61  84
ATOM     84  C   UNL A   1      44.798  33.590  29.230  1.00  0.00     0.023 A 
ATOM     85  C   UNL A   1      45.627  33.820  30.346  1.00  0.00     0.012 A 
ATOM     86  C   UNL A   1      44.592  34.628  28.299  1.00  0.00     0.148 A 
ATOM     87  C   UNL A   1      46.210  35.071  30.551  1.00  0.00     0.002 A 
ATOM     88  C   UNL A   1      45.219  35.855  28.481  1.00  0.00     0.091 A 
ATOM     89  F   UNL A   1      43.788  34.397  27.250  1.00  0.00    -0.205 F 
ATOM     90  C   UNL A   1      46.017  36.083  29.614  1.00  0.00     0.022 A 
BRANCH  88  91
ATOM     91  S   UNL A   1      45.109  37.185  27.277  1.00  0.00     0.127 S 
ATOM     92  O   UNL A   1      45.943  36.675  26.191  1.00  0.00    -0.237 OA
ATOM     93  O   UNL A   1      43.676  37.218  26.983  1.00  0.00    -0.237 OA
ATOM     94  O   UNL A   1      45.615  38.376  27.946  1.00  0.00    -0.744 OA
ENDBRANCH  88  91
ENDBRANCH  61  84
ENDBRANCH  35  36
ENDBRANCH  28  30
ENDBRANCH  27  28
ENDBRANCH  26  27
ENDBRANCH  25  26
ENDBRANCH   1  25
TORSDOF 23
ENDMDL
