MODEL 1
REMARK VINA RESULT:     -11.5      0.000      0.000
REMARK SMILES O=C(OCCOCCOC(=O)c1ccc(-c2c3nc(c(-c4cccc(S(=O)(=O)[O-])c4F)c4ccc([nH]4)c(-c4cccc(S(=O)(=O)[O-])c4F)c4nc(c(-c5cccc(S(=O)(=O)[O-])c5F)c5ccc2[nH]5)C=C4)C=C3)cc1)c1ccc(NS(=O)(=O)C2=Cc3ccccc3CC2)cc1
REMARK SMILES IDX 6 1 5 2 4 3 3 4 2 5 1 6 75 7 76 8 94 9 77 10 93 11 78 12
REMARK SMILES IDX 79 13 80 15 81 16 82 17 83 18 84 19 92 20 85 21 91 22 86 23
REMARK SMILES IDX 90 24 87 25 89 26 88 27 7 28 8 29 9 30 10 31 11 32 12 33
REMARK SMILES IDX 13 34 74 35 14 36 73 37 15 38 16 39 17 40 67 41 18 42 72 43
REMARK SMILES IDX 66 44 68 45 19 46 71 47 65 48 64 49 20 51 52 52 32 53 51 54
REMARK SMILES IDX 33 55 36 56 50 57 69 58 34 59 35 60 49 62 70 63 37 64 21 65
REMARK SMILES IDX 22 66 30 67 23 68 25 69 31 70 24 71 26 72 27 73 28 74 29 75
REMARK SMILES IDX 53 76 54 77 62 78 55 79 57 80 63 81 56 82 58 83 59 84 60 85
REMARK SMILES IDX 61 86 38 87 39 88 47 89 40 90 42 91 48 92 41 93 43 94 44 95
REMARK SMILES IDX 45 96 46 97
REMARK H PARENT 79 14 68 50 36 61
REMARK Flexibility Score: inf
ROOT
ATOM      1  O   UNL A   1      38.105  21.367  25.428  1.00  0.00    -0.374 OA
ENDROOT
BRANCH   1   2
ATOM      2  C   UNL A   1      36.758  21.754  25.706  1.00  0.00     0.202 C 
BRANCH   2   3
ATOM      3  C   UNL A   1      35.711  21.165  24.759  1.00  0.00     0.261 C 
BRANCH   3   4
ATOM      4  O   UNL A   1      34.794  20.258  25.397  1.00  0.00    -0.460 OA
BRANCH   4   5
ATOM      5  C   UNL A   1      33.448  20.154  25.328  1.00  0.00     0.338 C 
ATOM      6  O   UNL A   1      32.922  19.145  25.801  1.00  0.00    -0.246 OA
BRANCH   5   7
ATOM      7  C   UNL A   1      32.535  21.139  24.662  1.00  0.00     0.060 A 
ATOM      8  C   UNL A   1      31.833  22.160  25.284  1.00  0.00     0.018 A 
ATOM      9  C   UNL A   1      32.397  21.043  23.261  1.00  0.00     0.018 A 
ATOM     10  C   UNL A   1      31.165  23.120  24.532  1.00  0.00     0.027 A 
ATOM     11  C   UNL A   1      31.822  22.081  22.512  1.00  0.00     0.027 A 
ATOM     12  C   UNL A   1      31.314  23.196  23.166  1.00  0.00     0.049 A 
BRANCH  12  13
ATOM     13  N   UNL A   1      31.287  24.448  22.486  1.00  0.00    -0.280 N 
ATOM     14  H   UNL A   1      31.192  24.437  21.506  1.00  0.00     0.180 HD
BRANCH  13  15
ATOM     15  S   UNL A   1      31.411  25.956  23.249  1.00  0.00     0.258 S 
ATOM     16  O   UNL A   1      31.074  26.882  22.183  1.00  0.00    -0.202 OA
ATOM     17  O   UNL A   1      30.538  25.872  24.405  1.00  0.00    -0.202 OA
BRANCH  15  18
ATOM     18  C   UNL A   1      33.117  26.251  23.783  1.00  0.00     0.066 C 
ATOM     19  C   UNL A   1      33.467  27.562  23.835  1.00  0.00     0.026 C 
ATOM     20  C   UNL A   1      33.593  25.530  25.045  1.00  0.00     0.055 C 
ATOM     21  C   UNL A   1      33.021  28.248  25.096  1.00  0.00    -0.021 A 
ATOM     22  C   UNL A   1      32.791  25.999  26.261  1.00  0.00     0.041 C 
ATOM     23  C   UNL A   1      33.031  29.640  25.174  1.00  0.00     0.008 A 
ATOM     24  C   UNL A   1      32.589  27.496  26.215  1.00  0.00    -0.040 A 
ATOM     25  C   UNL A   1      32.504  30.276  26.302  1.00  0.00     0.001 A 
ATOM     26  C   UNL A   1      31.995  28.139  27.303  1.00  0.00     0.004 A 
ATOM     27  C   UNL A   1      31.943  29.529  27.339  1.00  0.00     0.000 A 
ENDBRANCH  15  18
ENDBRANCH  13  15
ENDBRANCH  12  13
ENDBRANCH   5   7
ENDBRANCH   4   5
ENDBRANCH   3   4
ENDBRANCH   2   3
ENDBRANCH   1   2
BRANCH   1  28
ATOM     28  C   UNL A   1      38.254  19.966  25.145  1.00  0.00     0.202 C 
BRANCH  28  29
ATOM     29  C   UNL A   1      39.573  19.368  25.654  1.00  0.00     0.261 C 
BRANCH  29  30
ATOM     30  O   UNL A   1      39.919  19.922  26.928  1.00  0.00    -0.460 OA
BRANCH  30  31
ATOM     31  C   UNL A   1      41.240  20.186  27.110  1.00  0.00     0.338 C 
ATOM     32  O   UNL A   1      42.173  19.432  26.959  1.00  0.00    -0.246 OA
BRANCH  31  33
ATOM     33  C   UNL A   1      41.371  21.648  27.299  1.00  0.00     0.060 A 
ATOM     34  C   UNL A   1      40.880  22.486  26.287  1.00  0.00     0.016 A 
ATOM     35  C   UNL A   1      41.904  22.185  28.474  1.00  0.00     0.016 A 
ATOM     36  C   UNL A   1      40.937  23.870  26.439  1.00  0.00     0.010 A 
ATOM     37  C   UNL A   1      41.964  23.565  28.623  1.00  0.00     0.010 A 
ATOM     38  C   UNL A   1      41.511  24.409  27.593  1.00  0.00    -0.014 A 
BRANCH  38  39
ATOM     39  C   UNL A   1      41.848  25.843  27.676  1.00  0.00     0.031 A 
ATOM     40  C   UNL A   1      43.227  26.251  27.252  1.00  0.00     0.074 A 
ATOM     41  C   UNL A   1      40.995  26.724  28.222  1.00  0.00     0.049 A 
ATOM     42  N   UNL A   1      43.845  27.387  27.422  1.00  0.00    -0.248 NA
ATOM     43  C   UNL A   1      44.029  25.218  26.573  1.00  0.00     0.031 C 
ATOM     44  C   UNL A   1      39.640  26.417  28.673  1.00  0.00     0.029 A 
ATOM     45  N   UNL A   1      41.175  28.044  28.549  1.00  0.00    -0.354 N 
ATOM     46  C   UNL A   1      45.128  27.188  26.929  1.00  0.00     0.074 A 
ATOM     47  C   UNL A   1      45.199  25.824  26.455  1.00  0.00     0.031 C 
ATOM     48  C   UNL A   1      39.128  27.505  29.274  1.00  0.00     0.029 A 
ATOM     49  C   UNL A   1      40.137  28.563  29.284  1.00  0.00     0.049 A 
ATOM     50  H   UNL A   1      41.967  28.565  28.283  1.00  0.00     0.167 HD
ATOM     51  C   UNL A   1      46.155  28.066  26.879  1.00  0.00     0.034 A 
ATOM     52  C   UNL A   1      40.040  29.739  29.936  1.00  0.00     0.034 A 
ATOM     53  C   UNL A   1      46.061  29.418  27.354  1.00  0.00     0.049 A 
ATOM     54  C   UNL A   1      41.190  30.708  29.868  1.00  0.00     0.074 A 
ATOM     55  C   UNL A   1      47.008  30.421  27.290  1.00  0.00     0.029 A 
ATOM     56  N   UNL A   1      44.956  29.946  28.007  1.00  0.00    -0.354 N 
ATOM     57  N   UNL A   1      42.360  30.559  29.292  1.00  0.00    -0.248 NA
ATOM     58  C   UNL A   1      40.999  32.015  30.509  1.00  0.00     0.031 C 
ATOM     59  C   UNL A   1      46.492  31.544  27.944  1.00  0.00     0.029 A 
ATOM     60  C   UNL A   1      45.202  31.257  28.367  1.00  0.00     0.049 A 
ATOM     61  H   UNL A   1      44.120  29.458  28.187  1.00  0.00     0.167 HD
ATOM     62  C   UNL A   1      43.029  31.764  29.465  1.00  0.00     0.074 A 
ATOM     63  C   UNL A   1      42.132  32.635  30.198  1.00  0.00     0.031 C 
ATOM     64  C   UNL A   1      44.274  32.119  29.055  1.00  0.00     0.034 A 
BRANCH  51  65
ATOM     65  C   UNL A   1      47.460  27.575  26.307  1.00  0.00     0.023 A 
ATOM     66  C   UNL A   1      47.803  27.870  24.971  1.00  0.00     0.012 A 
ATOM     67  C   UNL A   1      48.346  26.815  27.095  1.00  0.00     0.148 A 
ATOM     68  C   UNL A   1      48.979  27.370  24.413  1.00  0.00     0.002 A 
ATOM     69  C   UNL A   1      49.541  26.367  26.548  1.00  0.00     0.091 A 
ATOM     70  F   UNL A   1      47.991  26.518  28.353  1.00  0.00    -0.205 F 
ATOM     71  C   UNL A   1      49.852  26.626  25.203  1.00  0.00     0.022 A 
BRANCH  69  72
ATOM     72  S   UNL A   1      50.767  25.476  27.512  1.00  0.00     0.127 S 
ATOM     73  O   UNL A   1      51.852  25.327  26.544  1.00  0.00    -0.237 OA
ATOM     74  O   UNL A   1      51.043  26.414  28.600  1.00  0.00    -0.237 OA
ATOM     75  O   UNL A   1      50.124  24.238  27.929  1.00  0.00    -0.744 OA
ENDBRANCH  69  72
ENDBRANCH  51  65
BRANCH  52  76
ATOM     76  C   UNL A   1      38.796  30.053  30.691  1.00  0.00     0.023 A 
ATOM     77  C   UNL A   1      38.672  29.644  32.031  1.00  0.00     0.012 A 
ATOM     78  C   UNL A   1      37.770  30.824  30.107  1.00  0.00     0.148 A 
ATOM     79  C   UNL A   1      37.542  29.986  32.776  1.00  0.00     0.002 A 
ATOM     80  C   UNL A   1      36.674  31.207  30.871  1.00  0.00     0.091 A 
ATOM     81  F   UNL A   1      37.909  31.197  28.827  1.00  0.00    -0.205 F 
ATOM     82  C   UNL A   1      36.551  30.777  32.200  1.00  0.00     0.022 A 
BRANCH  80  83
ATOM     83  S   UNL A   1      35.416  32.335  30.261  1.00  0.00     0.127 S 
ATOM     84  O   UNL A   1      36.197  33.543  30.006  1.00  0.00    -0.237 OA
ATOM     85  O   UNL A   1      34.949  31.637  29.062  1.00  0.00    -0.237 OA
ATOM     86  O   UNL A   1      34.426  32.440  31.325  1.00  0.00    -0.744 OA
ENDBRANCH  80  83
ENDBRANCH  52  76
BRANCH  64  87
ATOM     87  C   UNL A   1      44.729  33.529  29.325  1.00  0.00     0.023 A 
ATOM     88  C   UNL A   1      45.414  33.841  30.516  1.00  0.00     0.012 A 
ATOM     89  C   UNL A   1      44.576  34.518  28.333  1.00  0.00     0.148 A 
ATOM     90  C   UNL A   1      45.920  35.123  30.723  1.00  0.00     0.002 A 
ATOM     91  C   UNL A   1      45.130  35.777  28.523  1.00  0.00     0.091 A 
ATOM     92  F   UNL A   1      43.907  34.201  27.215  1.00  0.00    -0.205 F 
ATOM     93  C   UNL A   1      45.792  36.085  29.722  1.00  0.00     0.022 A 
BRANCH  91  94
ATOM     94  S   UNL A   1      45.110  37.040  27.246  1.00  0.00     0.127 S 
ATOM     95  O   UNL A   1      45.934  36.425  26.206  1.00  0.00    -0.237 OA
ATOM     96  O   UNL A   1      43.685  37.130  26.925  1.00  0.00    -0.237 OA
ATOM     97  O   UNL A   1      45.672  38.239  27.854  1.00  0.00    -0.744 OA
ENDBRANCH  91  94
ENDBRANCH  64  87
ENDBRANCH  38  39
ENDBRANCH  31  33
ENDBRANCH  30  31
ENDBRANCH  29  30
ENDBRANCH  28  29
ENDBRANCH   1  28
TORSDOF 20
ENDMDL
MODEL 2
REMARK VINA RESULT:     -11.4      1.694      2.500
REMARK SMILES O=C(OCCOCCOC(=O)c1ccc(-c2c3nc(c(-c4cccc(S(=O)(=O)[O-])c4F)c4ccc([nH]4)c(-c4cccc(S(=O)(=O)[O-])c4F)c4nc(c(-c5cccc(S(=O)(=O)[O-])c5F)c5ccc2[nH]5)C=C4)C=C3)cc1)c1ccc(NS(=O)(=O)C2=Cc3ccccc3CC2)cc1
REMARK SMILES IDX 6 1 5 2 4 3 3 4 2 5 1 6 75 7 76 8 94 9 77 10 93 11 78 12
REMARK SMILES IDX 79 13 80 15 81 16 82 17 83 18 84 19 92 20 85 21 91 22 86 23
REMARK SMILES IDX 90 24 87 25 89 26 88 27 7 28 8 29 9 30 10 31 11 32 12 33
REMARK SMILES IDX 13 34 74 35 14 36 73 37 15 38 16 39 17 40 67 41 18 42 72 43
REMARK SMILES IDX 66 44 68 45 19 46 71 47 65 48 64 49 20 51 52 52 32 53 51 54
REMARK SMILES IDX 33 55 36 56 50 57 69 58 34 59 35 60 49 62 70 63 37 64 21 65
REMARK SMILES IDX 22 66 30 67 23 68 25 69 31 70 24 71 26 72 27 73 28 74 29 75
REMARK SMILES IDX 53 76 54 77 62 78 55 79 57 80 63 81 56 82 58 83 59 84 60 85
REMARK SMILES IDX 61 86 38 87 39 88 47 89 40 90 42 91 48 92 41 93 43 94 44 95
REMARK SMILES IDX 45 96 46 97
REMARK H PARENT 79 14 68 50 36 61
REMARK Flexibility Score: inf
ROOT
ATOM      1  O   UNL A   1      36.815  19.887  24.866  1.00  0.00    -0.374 OA
ENDROOT
BRANCH   1   2
ATOM      2  C   UNL A   1      35.704  20.779  24.765  1.00  0.00     0.202 C 
BRANCH   2   3
ATOM      3  C   UNL A   1      35.239  21.381  26.092  1.00  0.00     0.261 C 
BRANCH   3   4
ATOM      4  O   UNL A   1      33.919  20.966  26.489  1.00  0.00    -0.460 OA
BRANCH   4   5
ATOM      5  C   UNL A   1      32.708  21.180  25.927  1.00  0.00     0.338 C 
ATOM      6  O   UNL A   1      32.167  20.238  25.346  1.00  0.00    -0.246 OA
BRANCH   5   7
ATOM      7  C   UNL A   1      31.988  22.494  25.893  1.00  0.00     0.060 A 
ATOM      8  C   UNL A   1      32.124  23.529  26.805  1.00  0.00     0.018 A 
ATOM      9  C   UNL A   1      31.111  22.718  24.812  1.00  0.00     0.018 A 
ATOM     10  C   UNL A   1      31.540  24.767  26.562  1.00  0.00     0.027 A 
ATOM     11  C   UNL A   1      30.627  24.004  24.519  1.00  0.00     0.027 A 
ATOM     12  C   UNL A   1      30.962  25.065  25.349  1.00  0.00     0.049 A 
BRANCH  12  13
ATOM     13  N   UNL A   1      31.015  26.381  24.806  1.00  0.00    -0.280 N 
ATOM     14  H   UNL A   1      30.581  26.537  23.936  1.00  0.00     0.180 HD
BRANCH  13  15
ATOM     15  S   UNL A   1      31.777  27.697  25.555  1.00  0.00     0.258 S 
ATOM     16  O   UNL A   1      31.025  28.832  25.049  1.00  0.00    -0.202 OA
ATOM     17  O   UNL A   1      31.734  27.406  26.975  1.00  0.00    -0.202 OA
BRANCH  15  18
ATOM     18  C   UNL A   1      33.497  27.823  25.002  1.00  0.00     0.066 C 
ATOM     19  C   UNL A   1      34.194  26.659  25.072  1.00  0.00     0.026 C 
ATOM     20  C   UNL A   1      33.756  28.509  23.660  1.00  0.00     0.055 C 
ATOM     21  C   UNL A   1      33.951  25.749  23.901  1.00  0.00    -0.021 A 
ATOM     22  C   UNL A   1      33.111  27.714  22.522  1.00  0.00     0.041 C 
ATOM     23  C   UNL A   1      34.342  24.412  23.964  1.00  0.00     0.008 A 
ATOM     24  C   UNL A   1      33.328  26.232  22.725  1.00  0.00    -0.040 A 
ATOM     25  C   UNL A   1      34.008  23.541  22.923  1.00  0.00     0.001 A 
ATOM     26  C   UNL A   1      32.930  25.340  21.727  1.00  0.00     0.004 A 
ATOM     27  C   UNL A   1      33.263  23.993  21.833  1.00  0.00     0.000 A 
ENDBRANCH  15  18
ENDBRANCH  13  15
ENDBRANCH  12  13
ENDBRANCH   5   7
ENDBRANCH   4   5
ENDBRANCH   3   4
ENDBRANCH   2   3
ENDBRANCH   1   2
BRANCH   1  28
ATOM     28  C   UNL A   1      37.977  20.482  25.467  1.00  0.00     0.202 C 
BRANCH  28  29
ATOM     29  C   UNL A   1      39.120  19.489  25.719  1.00  0.00     0.261 C 
BRANCH  29  30
ATOM     30  O   UNL A   1      40.363  20.182  25.879  1.00  0.00    -0.460 OA
BRANCH  30  31
ATOM     31  C   UNL A   1      40.779  20.344  27.163  1.00  0.00     0.338 C 
ATOM     32  O   UNL A   1      41.112  19.486  27.948  1.00  0.00    -0.246 OA
BRANCH  31  33
ATOM     33  C   UNL A   1      40.990  21.794  27.374  1.00  0.00     0.060 A 
ATOM     34  C   UNL A   1      40.289  22.685  26.548  1.00  0.00     0.016 A 
ATOM     35  C   UNL A   1      41.806  22.268  28.403  1.00  0.00     0.016 A 
ATOM     36  C   UNL A   1      40.416  24.059  26.737  1.00  0.00     0.010 A 
ATOM     37  C   UNL A   1      41.937  23.639  28.589  1.00  0.00     0.010 A 
ATOM     38  C   UNL A   1      41.268  24.536  27.738  1.00  0.00    -0.014 A 
BRANCH  38  39
ATOM     39  C   UNL A   1      41.651  25.959  27.794  1.00  0.00     0.031 A 
ATOM     40  C   UNL A   1      43.025  26.322  27.316  1.00  0.00     0.074 A 
ATOM     41  C   UNL A   1      40.847  26.871  28.363  1.00  0.00     0.049 A 
ATOM     42  N   UNL A   1      43.684  27.439  27.452  1.00  0.00    -0.248 NA
ATOM     43  C   UNL A   1      43.769  25.259  26.617  1.00  0.00     0.031 C 
ATOM     44  C   UNL A   1      39.500  26.610  28.866  1.00  0.00     0.029 A 
ATOM     45  N   UNL A   1      41.079  28.187  28.670  1.00  0.00    -0.354 N 
ATOM     46  C   UNL A   1      44.941  27.196  26.913  1.00  0.00     0.074 A 
ATOM     47  C   UNL A   1      44.952  25.827  26.450  1.00  0.00     0.031 C 
ATOM     48  C   UNL A   1      39.044  27.718  29.476  1.00  0.00     0.029 A 
ATOM     49  C   UNL A   1      40.085  28.745  29.438  1.00  0.00     0.049 A 
ATOM     50  H   UNL A   1      41.875  28.682  28.370  1.00  0.00     0.167 HD
ATOM     51  C   UNL A   1      45.992  28.042  26.817  1.00  0.00     0.034 A 
ATOM     52  C   UNL A   1      40.048  29.928  30.082  1.00  0.00     0.034 A 
ATOM     53  C   UNL A   1      45.957  29.400  27.283  1.00  0.00     0.049 A 
ATOM     54  C   UNL A   1      41.224  30.860  29.962  1.00  0.00     0.074 A 
ATOM     55  C   UNL A   1      46.931  30.373  27.174  1.00  0.00     0.029 A 
ATOM     56  N   UNL A   1      44.893  29.968  27.971  1.00  0.00    -0.354 N 
ATOM     57  N   UNL A   1      42.366  30.671  29.345  1.00  0.00    -0.248 NA
ATOM     58  C   UNL A   1      41.097  32.179  30.597  1.00  0.00     0.031 C 
ATOM     59  C   UNL A   1      46.474  31.517  27.836  1.00  0.00     0.029 A 
ATOM     60  C   UNL A   1      45.192  31.273  28.309  1.00  0.00     0.049 A 
ATOM     61  H   UNL A   1      44.050  29.507  28.186  1.00  0.00     0.167 HD
ATOM     62  C   UNL A   1      43.078  31.856  29.481  1.00  0.00     0.074 A 
ATOM     63  C   UNL A   1      42.236  32.760  30.239  1.00  0.00     0.031 C 
ATOM     64  C   UNL A   1      44.317  32.169  29.023  1.00  0.00     0.034 A 
BRANCH  51  65
ATOM     65  C   UNL A   1      47.258  27.506  26.203  1.00  0.00     0.023 A 
ATOM     66  C   UNL A   1      47.529  27.724  24.836  1.00  0.00     0.012 A 
ATOM     67  C   UNL A   1      48.181  26.780  26.981  1.00  0.00     0.148 A 
ATOM     68  C   UNL A   1      48.668  27.181  24.242  1.00  0.00     0.002 A 
ATOM     69  C   UNL A   1      49.340  26.290  26.395  1.00  0.00     0.091 A 
ATOM     70  F   UNL A   1      47.894  26.557  28.272  1.00  0.00    -0.205 F 
ATOM     71  C   UNL A   1      49.578  26.472  25.022  1.00  0.00     0.022 A 
BRANCH  69  72
ATOM     72  S   UNL A   1      50.610  25.439  27.337  1.00  0.00     0.127 S 
ATOM     73  O   UNL A   1      51.008  26.470  28.294  1.00  0.00    -0.237 OA
ATOM     74  O   UNL A   1      49.866  24.322  27.919  1.00  0.00    -0.237 OA
ATOM     75  O   UNL A   1      51.629  25.050  26.373  1.00  0.00    -0.744 OA
ENDBRANCH  69  72
ENDBRANCH  51  65
BRANCH  52  76
ATOM     76  C   UNL A   1      38.843  30.287  30.879  1.00  0.00     0.023 A 
ATOM     77  C   UNL A   1      38.794  29.970  32.249  1.00  0.00     0.012 A 
ATOM     78  C   UNL A   1      37.781  31.011  30.300  1.00  0.00     0.148 A 
ATOM     79  C   UNL A   1      37.702  30.356  33.028  1.00  0.00     0.002 A 
ATOM     80  C   UNL A   1      36.724  31.440  31.093  1.00  0.00     0.091 A 
ATOM     81  F   UNL A   1      37.849  31.296  28.992  1.00  0.00    -0.205 F 
ATOM     82  C   UNL A   1      36.675  31.101  32.454  1.00  0.00     0.022 A 
BRANCH  80  83
ATOM     83  S   UNL A   1      35.426  32.518  30.477  1.00  0.00     0.127 S 
ATOM     84  O   UNL A   1      34.523  32.585  31.623  1.00  0.00    -0.237 OA
ATOM     85  O   UNL A   1      36.169  33.749  30.204  1.00  0.00    -0.237 OA
ATOM     86  O   UNL A   1      34.890  31.859  29.293  1.00  0.00    -0.744 OA
ENDBRANCH  80  83
ENDBRANCH  52  76
BRANCH  64  87
ATOM     87  C   UNL A   1      44.825  33.566  29.262  1.00  0.00     0.023 A 
ATOM     88  C   UNL A   1      44.555  34.591  28.336  1.00  0.00     0.012 A 
ATOM     89  C   UNL A   1      45.473  33.879  30.475  1.00  0.00     0.148 A 
ATOM     90  C   UNL A   1      44.942  35.904  28.604  1.00  0.00     0.002 A 
ATOM     91  C   UNL A   1      45.806  35.196  30.759  1.00  0.00     0.091 A 
ATOM     92  F   UNL A   1      45.732  32.883  31.334  1.00  0.00    -0.205 F 
ATOM     93  C   UNL A   1      45.553  36.209  29.819  1.00  0.00     0.022 A 
BRANCH  91  94
ATOM     94  S   UNL A   1      46.493  35.696  32.341  1.00  0.00     0.127 S 
ATOM     95  O   UNL A   1      45.623  34.987  33.279  1.00  0.00    -0.237 OA
ATOM     96  O   UNL A   1      47.858  35.178  32.262  1.00  0.00    -0.237 OA
ATOM     97  O   UNL A   1      46.396  37.150  32.384  1.00  0.00    -0.744 OA
ENDBRANCH  91  94
ENDBRANCH  64  87
ENDBRANCH  38  39
ENDBRANCH  31  33
ENDBRANCH  30  31
ENDBRANCH  29  30
ENDBRANCH  28  29
ENDBRANCH   1  28
TORSDOF 20
ENDMDL
MODEL 3
REMARK VINA RESULT:     -11.3      2.301      7.706
REMARK SMILES O=C(OCCOCCOC(=O)c1ccc(-c2c3nc(c(-c4cccc(S(=O)(=O)[O-])c4F)c4ccc([nH]4)c(-c4cccc(S(=O)(=O)[O-])c4F)c4nc(c(-c5cccc(S(=O)(=O)[O-])c5F)c5ccc2[nH]5)C=C4)C=C3)cc1)c1ccc(NS(=O)(=O)C2=Cc3ccccc3CC2)cc1
REMARK SMILES IDX 6 1 5 2 4 3 3 4 2 5 1 6 75 7 76 8 94 9 77 10 93 11 78 12
REMARK SMILES IDX 79 13 80 15 81 16 82 17 83 18 84 19 92 20 85 21 91 22 86 23
REMARK SMILES IDX 90 24 87 25 89 26 88 27 7 28 8 29 9 30 10 31 11 32 12 33
REMARK SMILES IDX 13 34 74 35 14 36 73 37 15 38 16 39 17 40 67 41 18 42 72 43
REMARK SMILES IDX 66 44 68 45 19 46 71 47 65 48 64 49 20 51 52 52 32 53 51 54
REMARK SMILES IDX 33 55 36 56 50 57 69 58 34 59 35 60 49 62 70 63 37 64 21 65
REMARK SMILES IDX 22 66 30 67 23 68 25 69 31 70 24 71 26 72 27 73 28 74 29 75
REMARK SMILES IDX 53 76 54 77 62 78 55 79 57 80 63 81 56 82 58 83 59 84 60 85
REMARK SMILES IDX 61 86 38 87 39 88 47 89 40 90 42 91 48 92 41 93 43 94 44 95
REMARK SMILES IDX 45 96 46 97
REMARK H PARENT 79 14 68 50 36 61
REMARK Flexibility Score: inf
ROOT
ATOM      1  O   UNL A   1      38.992  22.687  26.164  1.00  0.00    -0.374 OA
ENDROOT
BRANCH   1   2
ATOM      2  C   UNL A   1      38.185  23.834  26.437  1.00  0.00     0.202 C 
BRANCH   2   3
ATOM      3  C   UNL A   1      36.721  23.706  26.015  1.00  0.00     0.261 C 
BRANCH   3   4
ATOM      4  O   UNL A   1      36.486  24.010  24.628  1.00  0.00    -0.460 OA
BRANCH   4   5
ATOM      5  C   UNL A   1      35.753  23.375  23.686  1.00  0.00     0.338 C 
ATOM      6  O   UNL A   1      36.352  22.856  22.743  1.00  0.00    -0.246 OA
BRANCH   5   7
ATOM      7  C   UNL A   1      34.256  23.300  23.655  1.00  0.00     0.060 A 
ATOM      8  C   UNL A   1      33.428  22.971  24.717  1.00  0.00     0.018 A 
ATOM      9  C   UNL A   1      33.621  23.629  22.439  1.00  0.00     0.018 A 
ATOM     10  C   UNL A   1      32.049  23.116  24.610  1.00  0.00     0.027 A 
ATOM     11  C   UNL A   1      32.242  23.885  22.383  1.00  0.00     0.027 A 
ATOM     12  C   UNL A   1      31.473  23.746  23.530  1.00  0.00     0.049 A 
BRANCH  12  13
ATOM     13  N   UNL A   1      30.289  24.526  23.672  1.00  0.00    -0.280 N 
ATOM     14  H   UNL A   1      29.450  24.156  23.313  1.00  0.00     0.180 HD
BRANCH  13  15
ATOM     15  S   UNL A   1      30.227  26.048  24.414  1.00  0.00     0.258 S 
ATOM     16  O   UNL A   1      28.803  26.335  24.435  1.00  0.00    -0.202 OA
ATOM     17  O   UNL A   1      30.927  25.888  25.674  1.00  0.00    -0.202 OA
BRANCH  15  18
ATOM     18  C   UNL A   1      31.071  27.280  23.390  1.00  0.00     0.066 C 
ATOM     19  C   UNL A   1      30.874  28.565  23.784  1.00  0.00     0.026 C 
ATOM     20  C   UNL A   1      32.552  27.047  23.087  1.00  0.00     0.055 C 
ATOM     21  C   UNL A   1      31.769  28.985  24.915  1.00  0.00    -0.021 A 
ATOM     22  C   UNL A   1      33.372  27.086  24.377  1.00  0.00     0.041 C 
ATOM     23  C   UNL A   1      31.491  30.150  25.630  1.00  0.00     0.008 A 
ATOM     24  C   UNL A   1      32.900  28.211  25.270  1.00  0.00    -0.040 A 
ATOM     25  C   UNL A   1      32.254  30.474  26.755  1.00  0.00     0.001 A 
ATOM     26  C   UNL A   1      33.607  28.500  26.438  1.00  0.00     0.004 A 
ATOM     27  C   UNL A   1      33.276  29.626  27.185  1.00  0.00     0.000 A 
ENDBRANCH  15  18
ENDBRANCH  13  15
ENDBRANCH  12  13
ENDBRANCH   5   7
ENDBRANCH   4   5
ENDBRANCH   3   4
ENDBRANCH   2   3
ENDBRANCH   1   2
BRANCH   1  28
ATOM     28  C   UNL A   1      38.236  21.540  25.741  1.00  0.00     0.202 C 
BRANCH  28  29
ATOM     29  C   UNL A   1      39.095  20.296  25.477  1.00  0.00     0.261 C 
BRANCH  29  30
ATOM     30  O   UNL A   1      40.058  20.118  26.522  1.00  0.00    -0.460 OA
BRANCH  30  31
ATOM     31  C   UNL A   1      41.340  19.942  26.109  1.00  0.00     0.338 C 
ATOM     32  O   UNL A   1      41.777  19.064  25.402  1.00  0.00    -0.246 OA
BRANCH  31  33
ATOM     33  C   UNL A   1      42.090  21.163  26.481  1.00  0.00     0.060 A 
ATOM     34  C   UNL A   1      42.474  21.313  27.822  1.00  0.00     0.016 A 
ATOM     35  C   UNL A   1      42.466  22.106  25.521  1.00  0.00     0.016 A 
ATOM     36  C   UNL A   1      43.222  22.421  28.213  1.00  0.00     0.010 A 
ATOM     37  C   UNL A   1      43.209  23.214  25.913  1.00  0.00     0.010 A 
ATOM     38  C   UNL A   1      43.560  23.389  27.263  1.00  0.00    -0.014 A 
BRANCH  38  39
ATOM     39  C   UNL A   1      44.099  24.700  27.673  1.00  0.00     0.031 A 
ATOM     40  C   UNL A   1      43.116  25.734  28.135  1.00  0.00     0.074 A 
ATOM     41  C   UNL A   1      45.400  24.992  27.521  1.00  0.00     0.049 A 
ATOM     42  N   UNL A   1      43.289  27.010  28.342  1.00  0.00    -0.248 NA
ATOM     43  C   UNL A   1      41.738  25.262  28.361  1.00  0.00     0.031 C 
ATOM     44  C   UNL A   1      46.427  24.057  27.068  1.00  0.00     0.029 A 
ATOM     45  N   UNL A   1      46.063  26.183  27.672  1.00  0.00    -0.354 N 
ATOM     46  C   UNL A   1      42.032  27.507  28.661  1.00  0.00     0.074 A 
ATOM     47  C   UNL A   1      41.107  26.396  28.619  1.00  0.00     0.031 C 
ATOM     48  C   UNL A   1      47.584  24.724  26.918  1.00  0.00     0.029 A 
ATOM     49  C   UNL A   1      47.362  26.136  27.226  1.00  0.00     0.049 A 
ATOM     50  H   UNL A   1      45.651  26.989  28.059  1.00  0.00     0.167 HD
ATOM     51  C   UNL A   1      41.682  28.779  28.960  1.00  0.00     0.034 A 
ATOM     52  C   UNL A   1      48.250  27.133  27.037  1.00  0.00     0.034 A 
ATOM     53  C   UNL A   1      42.619  29.866  28.998  1.00  0.00     0.049 A 
ATOM     54  C   UNL A   1      47.847  28.543  27.378  1.00  0.00     0.074 A 
ATOM     55  C   UNL A   1      42.398  31.181  29.359  1.00  0.00     0.029 A 
ATOM     56  N   UNL A   1      43.955  29.766  28.636  1.00  0.00    -0.354 N 
ATOM     57  N   UNL A   1      46.687  28.990  27.798  1.00  0.00    -0.248 NA
ATOM     58  C   UNL A   1      48.879  29.581  27.251  1.00  0.00     0.031 C 
ATOM     59  C   UNL A   1      43.591  31.886  29.173  1.00  0.00     0.029 A 
ATOM     60  C   UNL A   1      44.569  30.998  28.748  1.00  0.00     0.049 A 
ATOM     61  H   UNL A   1      44.399  28.937  28.343  1.00  0.00     0.167 HD
ATOM     62  C   UNL A   1      46.858  30.350  28.024  1.00  0.00     0.074 A 
ATOM     63  C   UNL A   1      48.236  30.654  27.697  1.00  0.00     0.031 C 
ATOM     64  C   UNL A   1      45.956  31.265  28.462  1.00  0.00     0.034 A 
BRANCH  51  65
ATOM     65  C   UNL A   1      40.228  29.048  29.247  1.00  0.00     0.023 A 
ATOM     66  C   UNL A   1      39.333  29.308  28.188  1.00  0.00     0.012 A 
ATOM     67  C   UNL A   1      39.748  29.047  30.571  1.00  0.00     0.148 A 
ATOM     68  C   UNL A   1      37.998  29.618  28.447  1.00  0.00     0.002 A 
ATOM     69  C   UNL A   1      38.405  29.303  30.816  1.00  0.00     0.091 A 
ATOM     70  F   UNL A   1      40.618  28.827  31.568  1.00  0.00    -0.205 F 
ATOM     71  C   UNL A   1      37.532  29.607  29.759  1.00  0.00     0.022 A 
BRANCH  69  72
ATOM     72  S   UNL A   1      37.695  29.226  32.464  1.00  0.00     0.127 S 
ATOM     73  O   UNL A   1      38.548  30.160  33.197  1.00  0.00    -0.237 OA
ATOM     74  O   UNL A   1      36.330  29.699  32.233  1.00  0.00    -0.237 OA
ATOM     75  O   UNL A   1      37.791  27.832  32.875  1.00  0.00    -0.744 OA
ENDBRANCH  69  72
ENDBRANCH  51  65
BRANCH  52  76
ATOM     76  C   UNL A   1      49.606  26.812  26.513  1.00  0.00     0.023 A 
ATOM     77  C   UNL A   1      50.484  26.032  27.288  1.00  0.00     0.012 A 
ATOM     78  C   UNL A   1      49.996  27.210  25.218  1.00  0.00     0.148 A 
ATOM     79  C   UNL A   1      51.735  25.665  26.788  1.00  0.00     0.002 A 
ATOM     80  C   UNL A   1      51.219  26.794  24.706  1.00  0.00     0.091 A 
ATOM     81  F   UNL A   1      49.142  27.956  24.502  1.00  0.00    -0.205 F 
ATOM     82  C   UNL A   1      52.096  26.034  25.494  1.00  0.00     0.022 A 
BRANCH  80  83
ATOM     83  S   UNL A   1      51.712  27.102  23.007  1.00  0.00     0.127 S 
ATOM     84  O   UNL A   1      50.503  26.737  22.273  1.00  0.00    -0.237 OA
ATOM     85  O   UNL A   1      52.006  28.536  23.040  1.00  0.00    -0.237 OA
ATOM     86  O   UNL A   1      52.871  26.253  22.769  1.00  0.00    -0.744 OA
ENDBRANCH  80  83
ENDBRANCH  52  76
BRANCH  64  87
ATOM     87  C   UNL A   1      46.435  32.677  28.681  1.00  0.00     0.023 A 
ATOM     88  C   UNL A   1      46.887  33.086  29.950  1.00  0.00     0.012 A 
ATOM     89  C   UNL A   1      46.541  33.559  27.587  1.00  0.00     0.148 A 
ATOM     90  C   UNL A   1      47.419  34.363  30.130  1.00  0.00     0.002 A 
ATOM     91  C   UNL A   1      47.122  34.807  27.763  1.00  0.00     0.091 A 
ATOM     92  F   UNL A   1      46.089  33.151  26.392  1.00  0.00    -0.205 F 
ATOM     93  C   UNL A   1      47.551  35.216  29.036  1.00  0.00     0.022 A 
BRANCH  91  94
ATOM     94  S   UNL A   1      47.432  35.927  26.393  1.00  0.00     0.127 S 
ATOM     95  O   UNL A   1      48.273  35.105  25.522  1.00  0.00    -0.237 OA
ATOM     96  O   UNL A   1      46.083  36.172  25.884  1.00  0.00    -0.237 OA
ATOM     97  O   UNL A   1      48.088  37.095  26.964  1.00  0.00    -0.744 OA
ENDBRANCH  91  94
ENDBRANCH  64  87
ENDBRANCH  38  39
ENDBRANCH  31  33
ENDBRANCH  30  31
ENDBRANCH  29  30
ENDBRANCH  28  29
ENDBRANCH   1  28
TORSDOF 20
ENDMDL
