MODEL 1
REMARK VINA RESULT:     -10.9      0.000      0.000
REMARK SMILES O=C(OCCOCCOC(=O)[C@H]1CC[C@@H](CNC(=O)[C@@H]2CSc3ccccc32)O1)c1ccc(-c2c3nc(c(-c4cccc(S(=O)(=O)[O-])c4F)c4ccc([nH]4)c(-c4cccc(S(=O)(=O)[O-])c4F)c4nc(c(-c5cccc(S(=O)(=O)[O-])c5F)c5ccc2[nH]5)C=C4)C=C3)cc1
REMARK SMILES IDX 6 1 5 2 4 3 3 4 2 5 1 6 30 7 31 8 92 9 32 10 91 11 33 12
REMARK SMILES IDX 34 13 35 14 85 15 36 16 90 17 84 18 86 19 37 20 89 21 83 22
REMARK SMILES IDX 82 23 38 25 70 26 50 27 69 28 51 29 54 30 68 31 87 32 52 33
REMARK SMILES IDX 53 34 67 36 88 37 55 38 39 39 40 40 48 41 41 42 43 43 49 44
REMARK SMILES IDX 42 45 44 46 45 47 46 48 47 49 71 50 72 51 80 52 73 53 75 54
REMARK SMILES IDX 81 55 74 56 76 57 77 58 78 59 79 60 56 61 57 62 65 63 58 64
REMARK SMILES IDX 60 65 66 66 59 67 61 68 62 69 63 70 64 71 7 72 8 73 9 74
REMARK SMILES IDX 10 75 11 76 12 77 13 78 29 79 14 80 15 81 16 82 17 83 18 84
REMARK SMILES IDX 19 86 20 87 21 88 28 89 22 90 23 91 27 92 24 93 26 94 25 95
REMARK H PARENT 86 24 54 35 17 85
REMARK Flexibility Score: inf
ROOT
ATOM      1  O   UNL A   1      37.863  21.599  25.361  1.00  0.00    -0.374 OA
ENDROOT
BRANCH   1   2
ATOM      2  C   UNL A   1      39.152  21.130  25.753  1.00  0.00     0.202 C 
BRANCH   2   3
ATOM      3  C   UNL A   1      39.320  19.610  25.751  1.00  0.00     0.261 C 
BRANCH   3   4
ATOM      4  O   UNL A   1      40.681  19.240  25.499  1.00  0.00    -0.460 OA
BRANCH   4   5
ATOM      5  C   UNL A   1      41.804  19.610  26.150  1.00  0.00     0.338 C 
ATOM      6  O   UNL A   1      42.492  18.710  26.635  1.00  0.00    -0.246 OA
BRANCH   5   7
ATOM      7  C   UNL A   1      42.248  21.025  26.385  1.00  0.00     0.060 A 
ATOM      8  C   UNL A   1      42.272  21.449  27.728  1.00  0.00     0.016 A 
ATOM      9  C   UNL A   1      42.535  21.982  25.408  1.00  0.00     0.016 A 
ATOM     10  C   UNL A   1      42.502  22.784  28.065  1.00  0.00     0.010 A 
ATOM     11  C   UNL A   1      42.716  23.320  25.726  1.00  0.00     0.010 A 
ATOM     12  C   UNL A   1      42.695  23.725  27.054  1.00  0.00    -0.014 A 
BRANCH  12  13
ATOM     13  C   UNL A   1      43.061  25.118  27.329  1.00  0.00     0.031 A 
ATOM     14  C   UNL A   1      44.480  25.575  27.244  1.00  0.00     0.074 A 
ATOM     15  C   UNL A   1      42.090  25.892  27.840  1.00  0.00     0.049 A 
ATOM     16  N   UNL A   1      44.969  26.758  27.495  1.00  0.00    -0.248 NA
ATOM     17  C   UNL A   1      45.485  24.575  26.846  1.00  0.00     0.031 C 
ATOM     18  C   UNL A   1      40.710  25.450  28.076  1.00  0.00     0.029 A 
ATOM     19  N   UNL A   1      42.118  27.175  28.304  1.00  0.00    -0.354 N 
ATOM     20  C   UNL A   1      46.335  26.658  27.270  1.00  0.00     0.074 A 
ATOM     21  C   UNL A   1      46.606  25.285  26.901  1.00  0.00     0.031 C 
ATOM     22  C   UNL A   1      40.029  26.443  28.660  1.00  0.00     0.029 A 
ATOM     23  C   UNL A   1      40.919  27.584  28.828  1.00  0.00     0.049 A 
ATOM     24  H   UNL A   1      42.918  27.748  28.265  1.00  0.00     0.167 HD
ATOM     25  C   UNL A   1      47.261  27.643  27.338  1.00  0.00     0.034 A 
ATOM     26  C   UNL A   1      40.574  28.763  29.372  1.00  0.00     0.034 A 
ATOM     27  C   UNL A   1      46.948  28.990  27.739  1.00  0.00     0.049 A 
ATOM     28  C   UNL A   1      41.600  29.850  29.402  1.00  0.00     0.074 A 
ATOM     29  C   UNL A   1      47.779  30.094  27.784  1.00  0.00     0.029 A 
ATOM     30  N   UNL A   1      45.700  29.411  28.180  1.00  0.00    -0.354 N 
ATOM     31  N   UNL A   1      42.858  29.794  29.030  1.00  0.00    -0.248 NA
ATOM     32  C   UNL A   1      41.161  31.166  29.874  1.00  0.00     0.031 C 
ATOM     33  C   UNL A   1      47.035  31.178  28.263  1.00  0.00     0.029 A 
ATOM     34  C   UNL A   1      45.735  30.756  28.499  1.00  0.00     0.049 A 
ATOM     35  H   UNL A   1      44.905  28.835  28.254  1.00  0.00     0.167 HD
ATOM     36  C   UNL A   1      43.363  31.073  29.205  1.00  0.00     0.074 A 
ATOM     37  C   UNL A   1      42.266  31.884  29.703  1.00  0.00     0.031 C 
ATOM     38  C   UNL A   1      44.618  31.533  28.982  1.00  0.00     0.034 A 
BRANCH  25  39
ATOM     39  C   UNL A   1      48.664  27.328  26.888  1.00  0.00     0.023 A 
ATOM     40  C   UNL A   1      49.533  26.683  27.791  1.00  0.00     0.012 A 
ATOM     41  C   UNL A   1      49.099  27.578  25.572  1.00  0.00     0.148 A 
ATOM     42  C   UNL A   1      50.818  26.305  27.402  1.00  0.00     0.002 A 
ATOM     43  C   UNL A   1      50.373  27.173  25.181  1.00  0.00     0.091 A 
ATOM     44  F   UNL A   1      48.264  28.200  24.729  1.00  0.00    -0.205 F 
ATOM     45  C   UNL A   1      51.233  26.541  26.096  1.00  0.00     0.022 A 
BRANCH  43  46
ATOM     46  S   UNL A   1      51.000  27.381  23.510  1.00  0.00     0.127 S 
ATOM     47  O   UNL A   1      52.280  26.677  23.585  1.00  0.00    -0.237 OA
ATOM     48  O   UNL A   1      49.978  26.701  22.712  1.00  0.00    -0.237 OA
ATOM     49  O   UNL A   1      51.095  28.817  23.289  1.00  0.00    -0.744 OA
ENDBRANCH  43  46
ENDBRANCH  25  39
BRANCH  26  50
ATOM     50  C   UNL A   1      39.157  28.958  29.768  1.00  0.00     0.023 A 
ATOM     51  C   UNL A   1      38.774  28.614  31.078  1.00  0.00     0.012 A 
ATOM     52  C   UNL A   1      38.259  29.660  28.942  1.00  0.00     0.148 A 
ATOM     53  C   UNL A   1      37.519  28.976  31.565  1.00  0.00     0.002 A 
ATOM     54  C   UNL A   1      37.021  30.045  29.445  1.00  0.00     0.091 A 
ATOM     55  F   UNL A   1      38.664  29.998  27.710  1.00  0.00    -0.205 F 
ATOM     56  C   UNL A   1      36.649  29.701  30.755  1.00  0.00     0.022 A 
BRANCH  54  57
ATOM     57  S   UNL A   1      35.875  31.079  28.525  1.00  0.00     0.127 S 
ATOM     58  O   UNL A   1      34.752  31.177  29.455  1.00  0.00    -0.237 OA
ATOM     59  O   UNL A   1      36.650  32.309  28.362  1.00  0.00    -0.237 OA
ATOM     60  O   UNL A   1      35.597  30.365  27.287  1.00  0.00    -0.744 OA
ENDBRANCH  54  57
ENDBRANCH  26  50
BRANCH  38  61
ATOM     61  C   UNL A   1      44.876  32.980  29.288  1.00  0.00     0.023 A 
ATOM     62  C   UNL A   1      45.366  33.339  30.559  1.00  0.00     0.012 A 
ATOM     63  C   UNL A   1      44.711  33.964  28.297  1.00  0.00     0.148 A 
ATOM     64  C   UNL A   1      45.671  34.667  30.845  1.00  0.00     0.002 A 
ATOM     65  C   UNL A   1      45.052  35.281  28.578  1.00  0.00     0.091 A 
ATOM     66  F   UNL A   1      44.233  33.593  27.101  1.00  0.00    -0.205 F 
ATOM     67  C   UNL A   1      45.525  35.635  29.853  1.00  0.00     0.022 A 
BRANCH  65  68
ATOM     68  S   UNL A   1      44.958  36.587  27.349  1.00  0.00     0.127 S 
ATOM     69  O   UNL A   1      45.356  37.756  28.130  1.00  0.00    -0.237 OA
ATOM     70  O   UNL A   1      45.940  36.148  26.359  1.00  0.00    -0.237 OA
ATOM     71  O   UNL A   1      43.580  36.598  26.876  1.00  0.00    -0.744 OA
ENDBRANCH  65  68
ENDBRANCH  38  61
ENDBRANCH  12  13
ENDBRANCH   5   7
ENDBRANCH   4   5
ENDBRANCH   3   4
ENDBRANCH   2   3
ENDBRANCH   1   2
BRANCH   1  72
ATOM     72  C   UNL A   1      37.501  22.913  25.805  1.00  0.00     0.202 C 
BRANCH  72  73
ATOM     73  C   UNL A   1      36.399  23.478  24.918  1.00  0.00     0.261 C 
BRANCH  73  74
ATOM     74  O   UNL A   1      35.913  22.390  24.124  1.00  0.00    -0.461 OA
BRANCH  74  75
ATOM     75  C   UNL A   1      34.558  22.270  24.070  1.00  0.00     0.335 C 
ATOM     76  O   UNL A   1      33.845  21.909  24.999  1.00  0.00    -0.249 OA
BRANCH  75  77
ATOM     77  C   UNL A   1      34.022  22.703  22.693  1.00  0.00     0.228 C 
ATOM     78  C   UNL A   1      32.555  22.415  22.435  1.00  0.00     0.047 C 
ATOM     79  O   UNL A   1      34.120  24.116  22.516  1.00  0.00    -0.361 OA
ATOM     80  C   UNL A   1      31.900  23.557  23.169  1.00  0.00     0.037 C 
ATOM     81  C   UNL A   1      32.921  24.689  23.071  1.00  0.00     0.138 C 
BRANCH  81  82
ATOM     82  C   UNL A   1      33.265  25.345  24.423  1.00  0.00     0.147 C 
BRANCH  82  83
ATOM     83  N   UNL A   1      32.612  24.642  25.511  1.00  0.00    -0.353 N 
ATOM     84  C   UNL A   1      31.615  24.947  26.366  1.00  0.00     0.228 C 
ATOM     85  H   UNL A   1      32.979  23.740  25.658  1.00  0.00     0.163 HD
ATOM     86  O   UNL A   1      31.401  24.100  27.247  1.00  0.00    -0.274 OA
BRANCH  84  87
ATOM     87  C   UNL A   1      30.683  26.143  26.276  1.00  0.00     0.120 C 
ATOM     88  C   UNL A   1      29.787  26.003  25.036  1.00  0.00     0.093 C 
ATOM     89  C   UNL A   1      31.226  27.547  26.289  1.00  0.00    -0.021 A 
ATOM     90  S   UNL A   1      30.317  27.250  23.826  1.00  0.00    -0.125 SA
ATOM     91  C   UNL A   1      31.086  28.231  25.076  1.00  0.00     0.011 A 
ATOM     92  C   UNL A   1      31.779  28.195  27.391  1.00  0.00     0.006 A 
ATOM     93  C   UNL A   1      31.527  29.536  24.927  1.00  0.00     0.015 A 
ATOM     94  C   UNL A   1      32.217  29.517  27.251  1.00  0.00     0.000 A 
ATOM     95  C   UNL A   1      32.097  30.181  26.025  1.00  0.00     0.001 A 
ENDBRANCH  84  87
ENDBRANCH  82  83
ENDBRANCH  81  82
ENDBRANCH  75  77
ENDBRANCH  74  75
ENDBRANCH  73  74
ENDBRANCH  72  73
ENDBRANCH   1  72
TORSDOF 20
ENDMDL
MODEL 2
REMARK VINA RESULT:     -10.8      1.339      7.615
REMARK SMILES O=C(OCCOCCOC(=O)[C@H]1CC[C@@H](CNC(=O)[C@@H]2CSc3ccccc32)O1)c1ccc(-c2c3nc(c(-c4cccc(S(=O)(=O)[O-])c4F)c4ccc([nH]4)c(-c4cccc(S(=O)(=O)[O-])c4F)c4nc(c(-c5cccc(S(=O)(=O)[O-])c5F)c5ccc2[nH]5)C=C4)C=C3)cc1
REMARK SMILES IDX 6 1 5 2 4 3 3 4 2 5 1 6 30 7 31 8 92 9 32 10 91 11 33 12
REMARK SMILES IDX 34 13 35 14 85 15 36 16 90 17 84 18 86 19 37 20 89 21 83 22
REMARK SMILES IDX 82 23 38 25 70 26 50 27 69 28 51 29 54 30 68 31 87 32 52 33
REMARK SMILES IDX 53 34 67 36 88 37 55 38 39 39 40 40 48 41 41 42 43 43 49 44
REMARK SMILES IDX 42 45 44 46 45 47 46 48 47 49 71 50 72 51 80 52 73 53 75 54
REMARK SMILES IDX 81 55 74 56 76 57 77 58 78 59 79 60 56 61 57 62 65 63 58 64
REMARK SMILES IDX 60 65 66 66 59 67 61 68 62 69 63 70 64 71 7 72 8 73 9 74
REMARK SMILES IDX 10 75 11 76 12 77 13 78 29 79 14 80 15 81 16 82 17 83 18 84
REMARK SMILES IDX 19 86 20 87 21 88 28 89 22 90 23 91 27 92 24 93 26 94 25 95
REMARK H PARENT 86 24 54 35 17 85
REMARK Flexibility Score: inf
ROOT
ATOM      1  O   UNL A   1      36.321  19.738  25.017  1.00  0.00    -0.374 OA
ENDROOT
BRANCH   1   2
ATOM      2  C   UNL A   1      37.709  19.603  24.719  1.00  0.00     0.202 C 
BRANCH   2   3
ATOM      3  C   UNL A   1      38.650  20.407  25.617  1.00  0.00     0.261 C 
BRANCH   3   4
ATOM      4  O   UNL A   1      39.787  19.627  26.006  1.00  0.00    -0.460 OA
BRANCH   4   5
ATOM      5  C   UNL A   1      41.003  20.035  26.429  1.00  0.00     0.338 C 
ATOM      6  O   UNL A   1      41.876  19.173  26.541  1.00  0.00    -0.246 OA
BRANCH   5   7
ATOM      7  C   UNL A   1      41.357  21.438  26.833  1.00  0.00     0.060 A 
ATOM      8  C   UNL A   1      41.515  22.361  25.781  1.00  0.00     0.016 A 
ATOM      9  C   UNL A   1      41.644  21.886  28.125  1.00  0.00     0.016 A 
ATOM     10  C   UNL A   1      42.006  23.648  26.010  1.00  0.00     0.010 A 
ATOM     11  C   UNL A   1      42.179  23.144  28.359  1.00  0.00     0.010 A 
ATOM     12  C   UNL A   1      42.366  24.026  27.303  1.00  0.00    -0.014 A 
BRANCH  12  13
ATOM     13  C   UNL A   1      42.774  25.393  27.643  1.00  0.00     0.031 A 
ATOM     14  C   UNL A   1      41.802  26.366  28.224  1.00  0.00     0.074 A 
ATOM     15  C   UNL A   1      43.995  25.764  27.226  1.00  0.00     0.049 A 
ATOM     16  N   UNL A   1      41.996  27.617  28.541  1.00  0.00    -0.248 NA
ATOM     17  C   UNL A   1      40.432  25.885  28.467  1.00  0.00     0.031 C 
ATOM     18  C   UNL A   1      44.938  24.886  26.523  1.00  0.00     0.029 A 
ATOM     19  N   UNL A   1      44.629  26.970  27.275  1.00  0.00    -0.354 N 
ATOM     20  C   UNL A   1      40.782  28.074  29.036  1.00  0.00     0.074 A 
ATOM     21  C   UNL A   1      39.844  26.976  28.942  1.00  0.00     0.031 C 
ATOM     22  C   UNL A   1      46.024  25.592  26.188  1.00  0.00     0.029 A 
ATOM     23  C   UNL A   1      45.855  26.960  26.661  1.00  0.00     0.049 A 
ATOM     24  H   UNL A   1      44.246  27.768  27.708  1.00  0.00     0.167 HD
ATOM     25  C   UNL A   1      40.503  29.294  29.551  1.00  0.00     0.034 A 
ATOM     26  C   UNL A   1      46.752  27.948  26.511  1.00  0.00     0.034 A 
ATOM     27  C   UNL A   1      41.464  30.366  29.598  1.00  0.00     0.049 A 
ATOM     28  C   UNL A   1      46.442  29.277  27.120  1.00  0.00     0.074 A 
ATOM     29  C   UNL A   1      41.329  31.625  30.153  1.00  0.00     0.029 A 
ATOM     30  N   UNL A   1      42.740  30.305  29.051  1.00  0.00    -0.354 N 
ATOM     31  N   UNL A   1      45.348  29.655  27.738  1.00  0.00    -0.248 NA
ATOM     32  C   UNL A   1      47.492  30.297  27.061  1.00  0.00     0.031 C 
ATOM     33  C   UNL A   1      42.519  32.327  29.931  1.00  0.00     0.029 A 
ATOM     34  C   UNL A   1      43.404  31.502  29.254  1.00  0.00     0.049 A 
ATOM     35  H   UNL A   1      43.117  29.523  28.586  1.00  0.00     0.167 HD
ATOM     36  C   UNL A   1      45.578  30.954  28.161  1.00  0.00     0.074 A 
ATOM     37  C   UNL A   1      46.927  31.290  27.739  1.00  0.00     0.031 C 
ATOM     38  C   UNL A   1      44.751  31.795  28.829  1.00  0.00     0.034 A 
BRANCH  25  39
ATOM     39  C   UNL A   1      39.152  29.505  30.182  1.00  0.00     0.023 A 
ATOM     40  C   UNL A   1      38.894  28.913  31.436  1.00  0.00     0.012 A 
ATOM     41  C   UNL A   1      38.180  30.343  29.603  1.00  0.00     0.148 A 
ATOM     42  C   UNL A   1      37.686  29.134  32.097  1.00  0.00     0.002 A 
ATOM     43  C   UNL A   1      36.987  30.583  30.281  1.00  0.00     0.091 A 
ATOM     44  F   UNL A   1      38.437  30.890  28.407  1.00  0.00    -0.205 F 
ATOM     45  C   UNL A   1      36.738  29.976  31.524  1.00  0.00     0.022 A 
BRANCH  43  46
ATOM     46  S   UNL A   1      35.711  31.687  29.663  1.00  0.00     0.127 S 
ATOM     47  O   UNL A   1      35.075  30.860  28.638  1.00  0.00    -0.237 OA
ATOM     48  O   UNL A   1      34.895  31.911  30.857  1.00  0.00    -0.237 OA
ATOM     49  O   UNL A   1      36.404  32.867  29.165  1.00  0.00    -0.744 OA
ENDBRANCH  43  46
ENDBRANCH  25  39
BRANCH  26  50
ATOM     50  C   UNL A   1      48.056  27.615  25.883  1.00  0.00     0.023 A 
ATOM     51  C   UNL A   1      49.033  26.975  26.668  1.00  0.00     0.012 A 
ATOM     52  C   UNL A   1      48.248  27.736  24.493  1.00  0.00     0.148 A 
ATOM     53  C   UNL A   1      50.181  26.450  26.076  1.00  0.00     0.002 A 
ATOM     54  C   UNL A   1      49.380  27.183  23.906  1.00  0.00     0.091 A 
ATOM     55  F   UNL A   1      47.286  28.325  23.770  1.00  0.00    -0.205 F 
ATOM     56  C   UNL A   1      50.348  26.543  24.697  1.00  0.00     0.022 A 
BRANCH  54  57
ATOM     57  S   UNL A   1      49.636  27.145  22.128  1.00  0.00     0.127 S 
ATOM     58  O   UNL A   1      48.656  26.145  21.708  1.00  0.00    -0.237 OA
ATOM     59  O   UNL A   1      49.312  28.522  21.753  1.00  0.00    -0.237 OA
ATOM     60  O   UNL A   1      51.029  26.772  21.932  1.00  0.00    -0.744 OA
ENDBRANCH  54  57
ENDBRANCH  26  50
BRANCH  38  61
ATOM     61  C   UNL A   1      45.279  33.167  29.134  1.00  0.00     0.023 A 
ATOM     62  C   UNL A   1      45.912  33.403  30.370  1.00  0.00     0.012 A 
ATOM     63  C   UNL A   1      45.218  34.191  28.172  1.00  0.00     0.148 A 
ATOM     64  C   UNL A   1      46.463  34.650  30.651  1.00  0.00     0.002 A 
ATOM     65  C   UNL A   1      45.802  35.421  28.445  1.00  0.00     0.091 A 
ATOM     66  F   UNL A   1      44.599  33.941  27.009  1.00  0.00    -0.205 F 
ATOM     67  C   UNL A   1      46.418  35.654  29.687  1.00  0.00     0.022 A 
BRANCH  65  68
ATOM     68  S   UNL A   1      45.850  36.756  27.245  1.00  0.00     0.127 S 
ATOM     69  O   UNL A   1      46.870  37.632  27.818  1.00  0.00    -0.237 OA
ATOM     70  O   UNL A   1      46.258  36.058  26.026  1.00  0.00    -0.237 OA
ATOM     71  O   UNL A   1      44.505  37.314  27.206  1.00  0.00    -0.744 OA
ENDBRANCH  65  68
ENDBRANCH  38  61
ENDBRANCH  12  13
ENDBRANCH   5   7
ENDBRANCH   4   5
ENDBRANCH   3   4
ENDBRANCH   2   3
ENDBRANCH   1   2
BRANCH   1  72
ATOM     72  C   UNL A   1      35.476  18.650  24.624  1.00  0.00     0.202 C 
BRANCH  72  73
ATOM     73  C   UNL A   1      34.018  19.092  24.632  1.00  0.00     0.261 C 
BRANCH  73  74
ATOM     74  O   UNL A   1      34.016  20.491  24.935  1.00  0.00    -0.461 OA
BRANCH  74  75
ATOM     75  C   UNL A   1      32.926  20.937  25.618  1.00  0.00     0.335 C 
ATOM     76  O   UNL A   1      31.763  20.661  25.345  1.00  0.00    -0.249 OA
BRANCH  75  77
ATOM     77  C   UNL A   1      33.345  21.796  26.825  1.00  0.00     0.228 C 
ATOM     78  C   UNL A   1      34.487  22.765  26.580  1.00  0.00     0.047 C 
ATOM     79  O   UNL A   1      32.279  22.640  27.260  1.00  0.00    -0.361 OA
ATOM     80  C   UNL A   1      33.767  23.895  25.889  1.00  0.00     0.037 C 
ATOM     81  C   UNL A   1      32.358  23.846  26.478  1.00  0.00     0.138 C 
BRANCH  81  82
ATOM     82  C   UNL A   1      31.235  23.828  25.423  1.00  0.00     0.147 C 
BRANCH  82  83
ATOM     83  N   UNL A   1      31.656  24.521  24.220  1.00  0.00    -0.353 N 
ATOM     84  C   UNL A   1      31.316  25.689  23.637  1.00  0.00     0.228 C 
ATOM     85  H   UNL A   1      32.343  24.028  23.715  1.00  0.00     0.163 HD
ATOM     86  O   UNL A   1      31.837  25.896  22.531  1.00  0.00    -0.274 OA
BRANCH  84  87
ATOM     87  C   UNL A   1      30.472  26.792  24.253  1.00  0.00     0.120 C 
ATOM     88  C   UNL A   1      29.861  27.654  23.137  1.00  0.00     0.093 C 
ATOM     89  C   UNL A   1      31.050  27.723  25.283  1.00  0.00    -0.021 A 
ATOM     90  S   UNL A   1      30.686  29.272  23.174  1.00  0.00    -0.125 SA
ATOM     91  C   UNL A   1      31.201  29.044  24.847  1.00  0.00     0.011 A 
ATOM     92  C   UNL A   1      31.374  27.385  26.595  1.00  0.00     0.006 A 
ATOM     93  C   UNL A   1      31.712  30.027  25.679  1.00  0.00     0.015 A 
ATOM     94  C   UNL A   1      31.881  28.375  27.446  1.00  0.00     0.000 A 
ATOM     95  C   UNL A   1      32.053  29.686  26.988  1.00  0.00     0.001 A 
ENDBRANCH  84  87
ENDBRANCH  82  83
ENDBRANCH  81  82
ENDBRANCH  75  77
ENDBRANCH  74  75
ENDBRANCH  73  74
ENDBRANCH  72  73
ENDBRANCH   1  72
TORSDOF 20
ENDMDL
MODEL 3
REMARK VINA RESULT:     -10.7      1.260      7.588
REMARK SMILES O=C(OCCOCCOC(=O)[C@H]1CC[C@@H](CNC(=O)[C@@H]2CSc3ccccc32)O1)c1ccc(-c2c3nc(c(-c4cccc(S(=O)(=O)[O-])c4F)c4ccc([nH]4)c(-c4cccc(S(=O)(=O)[O-])c4F)c4nc(c(-c5cccc(S(=O)(=O)[O-])c5F)c5ccc2[nH]5)C=C4)C=C3)cc1
REMARK SMILES IDX 6 1 5 2 4 3 3 4 2 5 1 6 30 7 31 8 92 9 32 10 91 11 33 12
REMARK SMILES IDX 34 13 35 14 85 15 36 16 90 17 84 18 86 19 37 20 89 21 83 22
REMARK SMILES IDX 82 23 38 25 70 26 50 27 69 28 51 29 54 30 68 31 87 32 52 33
REMARK SMILES IDX 53 34 67 36 88 37 55 38 39 39 40 40 48 41 41 42 43 43 49 44
REMARK SMILES IDX 42 45 44 46 45 47 46 48 47 49 71 50 72 51 80 52 73 53 75 54
REMARK SMILES IDX 81 55 74 56 76 57 77 58 78 59 79 60 56 61 57 62 65 63 58 64
REMARK SMILES IDX 60 65 66 66 59 67 61 68 62 69 63 70 64 71 7 72 8 73 9 74
REMARK SMILES IDX 10 75 11 76 12 77 13 78 29 79 14 80 15 81 16 82 17 83 18 84
REMARK SMILES IDX 19 86 20 87 21 88 28 89 22 90 23 91 27 92 24 93 26 94 25 95
REMARK H PARENT 86 24 54 35 17 85
REMARK Flexibility Score: inf
ROOT
ATOM      1  O   UNL A   1      37.748  22.693  25.251  1.00  0.00    -0.374 OA
ENDROOT
BRANCH   1   2
ATOM      2  C   UNL A   1      38.397  21.705  26.049  1.00  0.00     0.202 C 
BRANCH   2   3
ATOM      3  C   UNL A   1      38.831  20.445  25.301  1.00  0.00     0.261 C 
BRANCH   3   4
ATOM      4  O   UNL A   1      39.861  19.748  26.012  1.00  0.00    -0.460 OA
BRANCH   4   5
ATOM      5  C   UNL A   1      41.149  20.099  26.216  1.00  0.00     0.338 C 
ATOM      6  O   UNL A   1      41.985  19.195  26.197  1.00  0.00    -0.246 OA
BRANCH   5   7
ATOM      7  C   UNL A   1      41.634  21.487  26.526  1.00  0.00     0.060 A 
ATOM      8  C   UNL A   1      41.741  21.811  27.892  1.00  0.00     0.016 A 
ATOM      9  C   UNL A   1      41.887  22.506  25.604  1.00  0.00     0.016 A 
ATOM     10  C   UNL A   1      42.017  23.115  28.310  1.00  0.00     0.010 A 
ATOM     11  C   UNL A   1      42.113  23.814  26.006  1.00  0.00     0.010 A 
ATOM     12  C   UNL A   1      42.174  24.123  27.359  1.00  0.00    -0.014 A 
BRANCH  12  13
ATOM     13  C   UNL A   1      42.583  25.487  27.711  1.00  0.00     0.031 A 
ATOM     14  C   UNL A   1      41.604  26.467  28.267  1.00  0.00     0.074 A 
ATOM     15  C   UNL A   1      43.818  25.847  27.328  1.00  0.00     0.049 A 
ATOM     16  N   UNL A   1      41.800  27.716  28.589  1.00  0.00    -0.248 NA
ATOM     17  C   UNL A   1      40.224  25.997  28.471  1.00  0.00     0.031 C 
ATOM     18  C   UNL A   1      44.773  24.961  26.651  1.00  0.00     0.029 A 
ATOM     19  N   UNL A   1      44.462  27.048  27.396  1.00  0.00    -0.354 N 
ATOM     20  C   UNL A   1      40.577  28.183  29.052  1.00  0.00     0.074 A 
ATOM     21  C   UNL A   1      39.633  27.094  28.931  1.00  0.00     0.031 C 
ATOM     22  C   UNL A   1      45.874  25.658  26.346  1.00  0.00     0.029 A 
ATOM     23  C   UNL A   1      45.704  27.027  26.815  1.00  0.00     0.049 A 
ATOM     24  H   UNL A   1      44.073  27.848  27.818  1.00  0.00     0.167 HD
ATOM     25  C   UNL A   1      40.295  29.406  29.560  1.00  0.00     0.034 A 
ATOM     26  C   UNL A   1      46.613  28.008  26.690  1.00  0.00     0.034 A 
ATOM     27  C   UNL A   1      41.263  30.469  29.634  1.00  0.00     0.049 A 
ATOM     28  C   UNL A   1      46.297  29.340  27.292  1.00  0.00     0.074 A 
ATOM     29  C   UNL A   1      41.123  31.729  30.186  1.00  0.00     0.029 A 
ATOM     30  N   UNL A   1      42.552  30.398  29.121  1.00  0.00    -0.354 N 
ATOM     31  N   UNL A   1      45.189  29.726  27.880  1.00  0.00    -0.248 NA
ATOM     32  C   UNL A   1      47.357  30.351  27.262  1.00  0.00     0.031 C 
ATOM     33  C   UNL A   1      42.324  32.422  29.997  1.00  0.00     0.029 A 
ATOM     34  C   UNL A   1      43.221  31.588  29.343  1.00  0.00     0.049 A 
ATOM     35  H   UNL A   1      42.935  29.613  28.666  1.00  0.00     0.167 HD
ATOM     36  C   UNL A   1      45.419  31.024  28.310  1.00  0.00     0.074 A 
ATOM     37  C   UNL A   1      46.782  31.348  27.924  1.00  0.00     0.031 C 
ATOM     38  C   UNL A   1      44.581  31.871  28.955  1.00  0.00     0.034 A 
BRANCH  25  39
ATOM     39  C   UNL A   1      38.928  29.627  30.154  1.00  0.00     0.023 A 
ATOM     40  C   UNL A   1      38.640  29.059  31.412  1.00  0.00     0.012 A 
ATOM     41  C   UNL A   1      37.970  30.453  29.535  1.00  0.00     0.148 A 
ATOM     42  C   UNL A   1      37.417  29.293  32.040  1.00  0.00     0.002 A 
ATOM     43  C   UNL A   1      36.761  30.705  30.179  1.00  0.00     0.091 A 
ATOM     44  F   UNL A   1      38.256  30.977  28.336  1.00  0.00    -0.205 F 
ATOM     45  C   UNL A   1      36.483  30.122  31.428  1.00  0.00     0.022 A 
BRANCH  43  46
ATOM     46  S   UNL A   1      35.500  31.796  29.510  1.00  0.00     0.127 S 
ATOM     47  O   UNL A   1      34.758  32.164  30.716  1.00  0.00    -0.237 OA
ATOM     48  O   UNL A   1      36.304  32.877  28.937  1.00  0.00    -0.237 OA
ATOM     49  O   UNL A   1      34.755  31.007  28.540  1.00  0.00    -0.744 OA
ENDBRANCH  43  46
ENDBRANCH  25  39
BRANCH  26  50
ATOM     50  C   UNL A   1      47.930  27.665  26.097  1.00  0.00     0.023 A 
ATOM     51  C   UNL A   1      48.897  27.058  26.921  1.00  0.00     0.012 A 
ATOM     52  C   UNL A   1      48.147  27.741  24.709  1.00  0.00     0.148 A 
ATOM     53  C   UNL A   1      50.060  26.523  26.368  1.00  0.00     0.002 A 
ATOM     54  C   UNL A   1      49.294  27.177  24.161  1.00  0.00     0.091 A 
ATOM     55  F   UNL A   1      47.194  28.298  23.949  1.00  0.00    -0.205 F 
ATOM     56  C   UNL A   1      50.252  26.571  24.991  1.00  0.00     0.022 A 
BRANCH  54  57
ATOM     57  S   UNL A   1      49.583  27.083  22.390  1.00  0.00     0.127 S 
ATOM     58  O   UNL A   1      49.345  28.464  21.977  1.00  0.00    -0.237 OA
ATOM     59  O   UNL A   1      50.981  26.656  22.340  1.00  0.00    -0.237 OA
ATOM     60  O   UNL A   1      48.629  26.108  21.881  1.00  0.00    -0.744 OA
ENDBRANCH  54  57
ENDBRANCH  26  50
BRANCH  38  61
ATOM     61  C   UNL A   1      45.112  33.238  29.276  1.00  0.00     0.023 A 
ATOM     62  C   UNL A   1      45.773  33.451  30.501  1.00  0.00     0.012 A 
ATOM     63  C   UNL A   1      45.025  34.281  28.336  1.00  0.00     0.148 A 
ATOM     64  C   UNL A   1      46.327  34.695  30.794  1.00  0.00     0.002 A 
ATOM     65  C   UNL A   1      45.612  35.507  28.620  1.00  0.00     0.091 A 
ATOM     66  F   UNL A   1      44.380  34.052  27.183  1.00  0.00    -0.205 F 
ATOM     67  C   UNL A   1      46.257  35.718  29.852  1.00  0.00     0.022 A 
BRANCH  65  68
ATOM     68  S   UNL A   1      45.629  36.866  27.447  1.00  0.00     0.127 S 
ATOM     69  O   UNL A   1      44.217  37.243  27.411  1.00  0.00    -0.237 OA
ATOM     70  O   UNL A   1      46.504  37.833  28.109  1.00  0.00    -0.237 OA
ATOM     71  O   UNL A   1      46.156  36.320  26.203  1.00  0.00    -0.744 OA
ENDBRANCH  65  68
ENDBRANCH  38  61
ENDBRANCH  12  13
ENDBRANCH   5   7
ENDBRANCH   4   5
ENDBRANCH   3   4
ENDBRANCH   2   3
ENDBRANCH   1   2
BRANCH   1  72
ATOM     72  C   UNL A   1      36.877  22.208  24.220  1.00  0.00     0.202 C 
BRANCH  72  73
ATOM     73  C   UNL A   1      35.887  23.295  23.821  1.00  0.00     0.261 C 
BRANCH  73  74
ATOM     74  O   UNL A   1      34.870  22.656  23.041  1.00  0.00    -0.461 OA
BRANCH  74  75
ATOM     75  C   UNL A   1      33.750  23.399  22.825  1.00  0.00     0.335 C 
ATOM     76  O   UNL A   1      33.741  24.573  22.476  1.00  0.00    -0.249 OA
BRANCH  75  77
ATOM     77  C   UNL A   1      32.480  22.551  23.025  1.00  0.00     0.228 C 
ATOM     78  C   UNL A   1      32.698  21.157  23.585  1.00  0.00     0.047 C 
ATOM     79  O   UNL A   1      31.593  23.153  23.966  1.00  0.00    -0.361 OA
ATOM     80  C   UNL A   1      32.859  21.456  25.054  1.00  0.00     0.037 C 
ATOM     81  C   UNL A   1      32.001  22.700  25.271  1.00  0.00     0.138 C 
BRANCH  81  82
ATOM     82  C   UNL A   1      32.731  23.852  25.990  1.00  0.00     0.147 C 
BRANCH  82  83
ATOM     83  N   UNL A   1      31.776  24.808  26.520  1.00  0.00    -0.353 N 
ATOM     84  C   UNL A   1      31.294  25.993  26.094  1.00  0.00     0.228 C 
ATOM     85  H   UNL A   1      31.395  24.528  27.384  1.00  0.00     0.163 HD
ATOM     86  O   UNL A   1      30.546  26.574  26.895  1.00  0.00    -0.274 OA
BRANCH  84  87
ATOM     87  C   UNL A   1      31.488  26.602  24.716  1.00  0.00     0.120 C 
ATOM     88  C   UNL A   1      32.829  27.350  24.670  1.00  0.00     0.093 C 
ATOM     89  C   UNL A   1      30.443  27.504  24.117  1.00  0.00    -0.021 A 
ATOM     90  S   UNL A   1      32.469  29.129  24.601  1.00  0.00    -0.125 SA
ATOM     91  C   UNL A   1      30.836  28.841  23.995  1.00  0.00     0.011 A 
ATOM     92  C   UNL A   1      29.194  27.103  23.648  1.00  0.00     0.006 A 
ATOM     93  C   UNL A   1      29.991  29.797  23.454  1.00  0.00     0.015 A 
ATOM     94  C   UNL A   1      28.339  28.060  23.090  1.00  0.00     0.000 A 
ATOM     95  C   UNL A   1      28.734  29.400  22.999  1.00  0.00     0.001 A 
ENDBRANCH  84  87
ENDBRANCH  82  83
ENDBRANCH  81  82
ENDBRANCH  75  77
ENDBRANCH  74  75
ENDBRANCH  73  74
ENDBRANCH  72  73
ENDBRANCH   1  72
TORSDOF 20
ENDMDL
