MODEL 1
REMARK VINA RESULT:      -8.3      0.000      0.000
REMARK SMILES CC(C)c1ccc2c(c1)c(SC(C)(C)C)c(CC(C)(C)C(=O)OCCOCCOC(=O)c1ccc(-c3c4nc(c(-c5cccc(S(=O)(=O)[O-])c5F)c5ccc([nH]5)c(-c5cccc(S(=O)(=O)[O-])c5F)c5nc(c(-c6cccc(S(=O)(=O)[O-])c6F)c6ccc3[nH]6)C=C5)C=C4)cc1)n2Cc1ccc(Cl)cc1
REMARK SMILES IDX 25 1 24 2 23 3 21 4 22 5 18 6 19 7 20 8 17 9 16 10 4 11 5 12
REMARK SMILES IDX 9 13 6 14 8 15 7 16 10 17 95 18 2 19 1 20 3 21 11 22 12 23
REMARK SMILES IDX 13 24 14 25 15 26 96 27 97 28 98 29 103 30 99 31 102 32
REMARK SMILES IDX 100 33 101 34 26 35 27 36 28 37 29 38 30 39 31 40 32 41
REMARK SMILES IDX 33 42 94 43 34 44 93 45 35 46 36 47 37 48 87 49 38 50 92 51
REMARK SMILES IDX 86 52 88 53 39 54 91 55 85 56 84 57 40 59 72 60 52 61 71 62
REMARK SMILES IDX 53 63 56 64 70 65 89 66 54 67 55 68 69 70 90 71 57 72 41 73
REMARK SMILES IDX 42 74 50 75 43 76 45 77 51 78 44 79 46 80 47 81 48 82 49 83
REMARK SMILES IDX 73 84 74 85 82 86 75 87 77 88 83 89 76 90 78 91 79 92 80 93
REMARK SMILES IDX 81 94 58 95 59 96 67 97 60 98 62 99 68 100 61 101 63 102
REMARK SMILES IDX 64 103 65 104 66 105
REMARK H PARENT 88 58 56 69
REMARK Flexibility Score: inf
ROOT
ATOM      1  C   UNL A   1      46.999  31.899  26.913  1.00  0.00     0.202 C 
ENDROOT
BRANCH   1   2
ATOM      2  C   UNL A   1      45.786  31.254  27.595  1.00  0.00     0.261 C 
BRANCH   2   3
ATOM      3  O   UNL A   1      45.926  29.840  27.664  1.00  0.00    -0.463 OA
BRANCH   3   4
ATOM      4  C   UNL A   1      45.029  29.237  26.849  1.00  0.00     0.311 C 
ATOM      5  O   UNL A   1      44.234  29.860  26.165  1.00  0.00    -0.252 OA
BRANCH   4   6
ATOM      6  C   UNL A   1      45.110  27.722  26.924  1.00  0.00     0.068 C 
ATOM      7  C   UNL A   1      46.633  27.501  26.993  1.00  0.00     0.024 C 
ATOM      8  C   UNL A   1      44.592  27.004  25.660  1.00  0.00     0.024 C 
BRANCH   6   9
ATOM      9  C   UNL A   1      44.170  27.295  28.108  1.00  0.00     0.073 C 
BRANCH   9  10
ATOM     10  C   UNL A   1      44.809  26.392  29.099  1.00  0.00     0.034 A 
ATOM     11  C   UNL A   1      44.994  24.497  33.301  1.00  0.00    -0.045 A 
ATOM     12  C   UNL A   1      44.312  23.489  32.614  1.00  0.00     0.006 A 
ATOM     13  C   UNL A   1      45.508  25.590  32.572  1.00  0.00     0.015 A 
ATOM     14  C   UNL A   1      44.114  23.551  31.233  1.00  0.00     0.027 A 
ATOM     15  C   UNL A   1      45.306  25.700  31.170  1.00  0.00     0.014 A 
ATOM     16  C   UNL A   1      44.588  24.677  30.541  1.00  0.00     0.050 A 
ATOM     17  C   UNL A   1      45.608  26.716  30.181  1.00  0.00     0.037 A 
ATOM     18  N   UNL A   1      44.456  25.043  29.212  1.00  0.00    -0.339 N 
BRANCH  11  19
ATOM     19  C   UNL A   1      45.093  24.412  34.817  1.00  0.00     0.013 C 
ATOM     20  C   UNL A   1      46.282  25.191  35.382  1.00  0.00     0.012 C 
ATOM     21  C   UNL A   1      43.787  24.857  35.481  1.00  0.00     0.012 C 
ENDBRANCH  11  19
BRANCH  17  22
ATOM     22  S   UNL A   1      46.443  28.206  30.623  1.00  0.00    -0.118 SA
BRANCH  22  23
ATOM     23  C   UNL A   1      45.630  29.352  31.831  1.00  0.00     0.012 C 
ATOM     24  C   UNL A   1      44.151  29.529  31.484  1.00  0.00     0.023 C 
ATOM     25  C   UNL A   1      45.747  29.194  33.360  1.00  0.00     0.023 C 
ATOM     26  C   UNL A   1      46.398  30.674  31.571  1.00  0.00     0.023 C 
ENDBRANCH  22  23
ENDBRANCH  17  22
BRANCH  18  27
ATOM     27  C   UNL A   1      44.181  24.076  28.128  1.00  0.00     0.158 C 
BRANCH  27  28
ATOM     28  C   UNL A   1      42.763  23.830  27.636  1.00  0.00    -0.028 A 
ATOM     29  C   UNL A   1      42.542  22.948  26.560  1.00  0.00     0.007 A 
ATOM     30  C   UNL A   1      41.633  24.364  28.282  1.00  0.00     0.007 A 
ATOM     31  C   UNL A   1      41.248  22.626  26.134  1.00  0.00     0.021 A 
ATOM     32  C   UNL A   1      40.332  24.046  27.853  1.00  0.00     0.021 A 
ATOM     33  C   UNL A   1      40.147  23.177  26.782  1.00  0.00     0.041 A 
ATOM     34  Cl  UNL A   1      38.559  22.810  26.222  1.00  0.00    -0.084 Cl
ENDBRANCH  27  28
ENDBRANCH  18  27
ENDBRANCH   9  10
ENDBRANCH   6   9
ENDBRANCH   4   6
ENDBRANCH   3   4
ENDBRANCH   2   3
ENDBRANCH   1   2
BRANCH   1  35
ATOM     35  O   UNL A   1      46.828  32.937  25.950  1.00  0.00    -0.374 OA
BRANCH  35  36
ATOM     36  C   UNL A   1      45.953  33.995  26.332  1.00  0.00     0.202 C 
BRANCH  36  37
ATOM     37  C   UNL A   1      46.564  35.394  26.375  1.00  0.00     0.261 C 
BRANCH  37  38
ATOM     38  O   UNL A   1      45.732  36.212  27.224  1.00  0.00    -0.460 OA
BRANCH  38  39
ATOM     39  C   UNL A   1      46.214  36.349  28.481  1.00  0.00     0.338 C 
ATOM     40  O   UNL A   1      47.182  37.019  28.799  1.00  0.00    -0.246 OA
BRANCH  39  41
ATOM     41  C   UNL A   1      45.193  35.812  29.407  1.00  0.00     0.060 A 
ATOM     42  C   UNL A   1      45.254  34.486  29.862  1.00  0.00     0.016 A 
ATOM     43  C   UNL A   1      44.030  36.581  29.574  1.00  0.00     0.016 A 
ATOM     44  C   UNL A   1      44.112  33.912  30.410  1.00  0.00     0.010 A 
ATOM     45  C   UNL A   1      42.882  35.997  30.109  1.00  0.00     0.010 A 
ATOM     46  C   UNL A   1      42.914  34.653  30.497  1.00  0.00    -0.014 A 
BRANCH  46  47
ATOM     47  C   UNL A   1      41.817  34.053  31.258  1.00  0.00     0.031 A 
ATOM     48  C   UNL A   1      42.246  33.823  32.657  1.00  0.00     0.074 A 
ATOM     49  C   UNL A   1      40.531  33.844  30.909  1.00  0.00     0.049 A 
ATOM     50  N   UNL A   1      42.456  32.695  33.251  1.00  0.00    -0.248 NA
ATOM     51  C   UNL A   1      42.676  35.013  33.408  1.00  0.00     0.031 C 
ATOM     52  C   UNL A   1      39.831  34.335  29.723  1.00  0.00     0.029 A 
ATOM     53  N   UNL A   1      39.534  33.230  31.627  1.00  0.00    -0.354 N 
ATOM     54  C   UNL A   1      42.841  33.055  34.536  1.00  0.00     0.074 A 
ATOM     55  C   UNL A   1      43.162  34.460  34.514  1.00  0.00     0.031 C 
ATOM     56  C   UNL A   1      38.500  34.184  29.896  1.00  0.00     0.029 A 
ATOM     57  C   UNL A   1      38.253  33.519  31.163  1.00  0.00     0.049 A 
ATOM     58  H   UNL A   1      39.708  32.641  32.397  1.00  0.00     0.167 HD
ATOM     59  C   UNL A   1      42.577  32.274  35.612  1.00  0.00     0.034 A 
ATOM     60  C   UNL A   1      37.086  33.322  31.825  1.00  0.00     0.034 A 
ATOM     61  C   UNL A   1      42.148  30.955  35.267  1.00  0.00     0.049 A 
ATOM     62  C   UNL A   1      37.304  32.274  32.848  1.00  0.00     0.074 A 
ATOM     63  C   UNL A   1      42.727  29.775  34.861  1.00  0.00     0.029 A 
ATOM     64  N   UNL A   1      40.806  30.862  35.028  1.00  0.00    -0.354 N 
ATOM     65  N   UNL A   1      37.549  31.023  32.574  1.00  0.00    -0.248 NA
ATOM     66  C   UNL A   1      37.457  32.650  34.251  1.00  0.00     0.031 C 
ATOM     67  C   UNL A   1      41.692  29.014  34.241  1.00  0.00     0.029 A 
ATOM     68  C   UNL A   1      40.515  29.757  34.275  1.00  0.00     0.049 A 
ATOM     69  H   UNL A   1      40.136  31.506  35.354  1.00  0.00     0.167 HD
ATOM     70  C   UNL A   1      38.269  30.576  33.664  1.00  0.00     0.074 A 
ATOM     71  C   UNL A   1      38.013  31.535  34.726  1.00  0.00     0.031 C 
ATOM     72  C   UNL A   1      39.287  29.685  33.513  1.00  0.00     0.034 A 
BRANCH  59  73
ATOM     73  C   UNL A   1      42.267  32.871  36.952  1.00  0.00     0.023 A 
ATOM     74  C   UNL A   1      42.962  32.411  38.081  1.00  0.00     0.012 A 
ATOM     75  C   UNL A   1      41.153  33.717  37.163  1.00  0.00     0.148 A 
ATOM     76  C   UNL A   1      42.591  32.819  39.366  1.00  0.00     0.002 A 
ATOM     77  C   UNL A   1      40.854  34.200  38.426  1.00  0.00     0.091 A 
ATOM     78  F   UNL A   1      40.304  33.956  36.153  1.00  0.00    -0.205 F 
ATOM     79  C   UNL A   1      41.559  33.740  39.538  1.00  0.00     0.022 A 
BRANCH  77  80
ATOM     80  S   UNL A   1      39.600  35.463  38.652  1.00  0.00     0.127 S 
ATOM     81  O   UNL A   1      38.372  34.694  38.483  1.00  0.00    -0.237 OA
ATOM     82  O   UNL A   1      39.868  35.917  40.017  1.00  0.00    -0.237 OA
ATOM     83  O   UNL A   1      39.891  36.461  37.629  1.00  0.00    -0.744 OA
ENDBRANCH  77  80
ENDBRANCH  59  73
BRANCH  60  84
ATOM     84  C   UNL A   1      35.817  34.101  31.801  1.00  0.00     0.023 A 
ATOM     85  C   UNL A   1      35.521  34.950  32.892  1.00  0.00     0.012 A 
ATOM     86  C   UNL A   1      35.054  34.260  30.624  1.00  0.00     0.148 A 
ATOM     87  C   UNL A   1      34.569  35.969  32.786  1.00  0.00     0.002 A 
ATOM     88  C   UNL A   1      34.089  35.260  30.533  1.00  0.00     0.091 A 
ATOM     89  F   UNL A   1      35.334  33.509  29.553  1.00  0.00    -0.205 F 
ATOM     90  C   UNL A   1      33.860  36.133  31.602  1.00  0.00     0.022 A 
BRANCH  88  91
ATOM     91  S   UNL A   1      33.134  35.498  29.028  1.00  0.00     0.127 S 
ATOM     92  O   UNL A   1      34.160  35.905  28.066  1.00  0.00    -0.237 OA
ATOM     93  O   UNL A   1      32.579  34.168  28.806  1.00  0.00    -0.237 OA
ATOM     94  O   UNL A   1      32.175  36.550  29.348  1.00  0.00    -0.744 OA
ENDBRANCH  88  91
ENDBRANCH  60  84
BRANCH  72  95
ATOM     95  C   UNL A   1      39.230  28.752  32.345  1.00  0.00     0.023 A 
ATOM     96  C   UNL A   1      38.517  27.539  32.378  1.00  0.00     0.012 A 
ATOM     97  C   UNL A   1      39.843  29.159  31.148  1.00  0.00     0.148 A 
ATOM     98  C   UNL A   1      38.431  26.738  31.237  1.00  0.00     0.002 A 
ATOM     99  C   UNL A   1      39.722  28.381  30.006  1.00  0.00     0.091 A 
ATOM    100  F   UNL A   1      40.522  30.317  31.147  1.00  0.00    -0.205 F 
ATOM    101  C   UNL A   1      39.023  27.165  30.047  1.00  0.00     0.022 A 
BRANCH  99 102
ATOM    102  S   UNL A   1      40.374  28.917  28.423  1.00  0.00     0.127 S 
ATOM    103  O   UNL A   1      41.619  29.577  28.809  1.00  0.00    -0.237 OA
ATOM    104  O   UNL A   1      40.547  27.648  27.714  1.00  0.00    -0.237 OA
ATOM    105  O   UNL A   1      39.360  29.790  27.843  1.00  0.00    -0.744 OA
ENDBRANCH  99 102
ENDBRANCH  72  95
ENDBRANCH  46  47
ENDBRANCH  39  41
ENDBRANCH  38  39
ENDBRANCH  37  38
ENDBRANCH  36  37
ENDBRANCH  35  36
ENDBRANCH   1  35
TORSDOF 24
ENDMDL
MODEL 2
REMARK VINA RESULT:      -8.0      4.254      8.381
REMARK SMILES CC(C)c1ccc2c(c1)c(SC(C)(C)C)c(CC(C)(C)C(=O)OCCOCCOC(=O)c1ccc(-c3c4nc(c(-c5cccc(S(=O)(=O)[O-])c5F)c5ccc([nH]5)c(-c5cccc(S(=O)(=O)[O-])c5F)c5nc(c(-c6cccc(S(=O)(=O)[O-])c6F)c6ccc3[nH]6)C=C5)C=C4)cc1)n2Cc1ccc(Cl)cc1
REMARK SMILES IDX 25 1 24 2 23 3 21 4 22 5 18 6 19 7 20 8 17 9 16 10 4 11 5 12
REMARK SMILES IDX 9 13 6 14 8 15 7 16 10 17 95 18 2 19 1 20 3 21 11 22 12 23
REMARK SMILES IDX 13 24 14 25 15 26 96 27 97 28 98 29 103 30 99 31 102 32
REMARK SMILES IDX 100 33 101 34 26 35 27 36 28 37 29 38 30 39 31 40 32 41
REMARK SMILES IDX 33 42 94 43 34 44 93 45 35 46 36 47 37 48 87 49 38 50 92 51
REMARK SMILES IDX 86 52 88 53 39 54 91 55 85 56 84 57 40 59 72 60 52 61 71 62
REMARK SMILES IDX 53 63 56 64 70 65 89 66 54 67 55 68 69 70 90 71 57 72 41 73
REMARK SMILES IDX 42 74 50 75 43 76 45 77 51 78 44 79 46 80 47 81 48 82 49 83
REMARK SMILES IDX 73 84 74 85 82 86 75 87 77 88 83 89 76 90 78 91 79 92 80 93
REMARK SMILES IDX 81 94 58 95 59 96 67 97 60 98 62 99 68 100 61 101 63 102
REMARK SMILES IDX 64 103 65 104 66 105
REMARK H PARENT 88 58 56 69
REMARK Flexibility Score: inf
ROOT
ATOM      1  C   UNL A   1      44.178  24.415  24.845  1.00  0.00     0.202 C 
ENDROOT
BRANCH   1   2
ATOM      2  C   UNL A   1      44.497  24.909  26.261  1.00  0.00     0.261 C 
BRANCH   2   3
ATOM      3  O   UNL A   1      45.814  25.443  26.335  1.00  0.00    -0.463 OA
BRANCH   3   4
ATOM      4  C   UNL A   1      45.774  26.795  26.374  1.00  0.00     0.311 C 
ATOM      5  O   UNL A   1      44.826  27.440  25.960  1.00  0.00    -0.252 OA
BRANCH   4   6
ATOM      6  C   UNL A   1      47.048  27.393  26.947  1.00  0.00     0.068 C 
ATOM      7  C   UNL A   1      46.508  28.129  28.187  1.00  0.00     0.024 C 
ATOM      8  C   UNL A   1      47.712  28.444  26.033  1.00  0.00     0.024 C 
BRANCH   6   9
ATOM      9  C   UNL A   1      48.063  26.201  27.085  1.00  0.00     0.073 C 
BRANCH   9  10
ATOM     10  C   UNL A   1      49.484  26.586  26.894  1.00  0.00     0.034 A 
ATOM     11  C   UNL A   1      53.987  25.881  27.612  1.00  0.00    -0.045 A 
ATOM     12  C   UNL A   1      53.843  25.259  26.368  1.00  0.00     0.006 A 
ATOM     13  C   UNL A   1      52.893  26.596  28.146  1.00  0.00     0.015 A 
ATOM     14  C   UNL A   1      52.642  25.316  25.658  1.00  0.00     0.027 A 
ATOM     15  C   UNL A   1      51.648  26.655  27.465  1.00  0.00     0.014 A 
ATOM     16  C   UNL A   1      51.553  25.986  26.240  1.00  0.00     0.050 A 
ATOM     17  C   UNL A   1      50.345  27.201  27.785  1.00  0.00     0.037 A 
ATOM     18  N   UNL A   1      50.242  26.120  25.815  1.00  0.00    -0.339 N 
BRANCH  11  19
ATOM     19  C   UNL A   1      55.292  25.703  28.373  1.00  0.00     0.013 C 
ATOM     20  C   UNL A   1      56.221  24.671  27.731  1.00  0.00     0.012 C 
ATOM     21  C   UNL A   1      56.010  27.042  28.558  1.00  0.00     0.012 C 
ENDBRANCH  11  19
BRANCH  17  22
ATOM     22  S   UNL A   1      50.056  28.052  29.304  1.00  0.00    -0.118 SA
BRANCH  22  23
ATOM     23  C   UNL A   1      50.616  29.812  29.453  1.00  0.00     0.012 C 
ATOM     24  C   UNL A   1      51.787  29.917  30.433  1.00  0.00     0.023 C 
ATOM     25  C   UNL A   1      50.926  30.710  28.239  1.00  0.00     0.023 C 
ATOM     26  C   UNL A   1      49.357  30.489  30.058  1.00  0.00     0.023 C 
ENDBRANCH  22  23
ENDBRANCH  17  22
BRANCH  18  27
ATOM     27  C   UNL A   1      49.828  25.971  24.403  1.00  0.00     0.158 C 
BRANCH  27  28
ATOM     28  C   UNL A   1      50.042  27.093  23.399  1.00  0.00    -0.028 A 
ATOM     29  C   UNL A   1      51.175  27.923  23.514  1.00  0.00     0.007 A 
ATOM     30  C   UNL A   1      49.211  27.279  22.280  1.00  0.00     0.007 A 
ATOM     31  C   UNL A   1      51.456  28.910  22.562  1.00  0.00     0.021 A 
ATOM     32  C   UNL A   1      49.488  28.272  21.324  1.00  0.00     0.021 A 
ATOM     33  C   UNL A   1      50.611  29.082  21.470  1.00  0.00     0.041 A 
ATOM     34  Cl  UNL A   1      50.940  30.328  20.327  1.00  0.00    -0.084 Cl
ENDBRANCH  27  28
ENDBRANCH  18  27
ENDBRANCH   9  10
ENDBRANCH   6   9
ENDBRANCH   4   6
ENDBRANCH   3   4
ENDBRANCH   2   3
ENDBRANCH   1   2
BRANCH   1  35
ATOM     35  O   UNL A   1      43.526  23.163  24.638  1.00  0.00    -0.374 OA
BRANCH  35  36
ATOM     36  C   UNL A   1      43.741  22.182  25.649  1.00  0.00     0.202 C 
BRANCH  36  37
ATOM     37  C   UNL A   1      42.514  21.389  26.094  1.00  0.00     0.261 C 
BRANCH  37  38
ATOM     38  O   UNL A   1      41.919  22.088  27.207  1.00  0.00    -0.460 OA
BRANCH  38  39
ATOM     39  C   UNL A   1      40.726  22.655  26.913  1.00  0.00     0.338 C 
ATOM     40  O   UNL A   1      39.821  22.121  26.295  1.00  0.00    -0.246 OA
BRANCH  39  41
ATOM     41  C   UNL A   1      40.608  23.883  27.728  1.00  0.00     0.060 A 
ATOM     42  C   UNL A   1      39.482  24.716  27.624  1.00  0.00     0.016 A 
ATOM     43  C   UNL A   1      41.772  24.321  28.379  1.00  0.00     0.016 A 
ATOM     44  C   UNL A   1      39.565  26.018  28.103  1.00  0.00     0.010 A 
ATOM     45  C   UNL A   1      41.857  25.633  28.844  1.00  0.00     0.010 A 
ATOM     46  C   UNL A   1      40.765  26.492  28.676  1.00  0.00    -0.014 A 
BRANCH  46  47
ATOM     47  C   UNL A   1      40.716  27.800  29.332  1.00  0.00     0.031 A 
ATOM     48  C   UNL A   1      41.681  28.719  28.687  1.00  0.00     0.074 A 
ATOM     49  C   UNL A   1      39.866  28.269  30.268  1.00  0.00     0.049 A 
ATOM     50  N   UNL A   1      42.775  29.201  29.179  1.00  0.00    -0.248 NA
ATOM     51  C   UNL A   1      41.485  28.964  27.249  1.00  0.00     0.031 C 
ATOM     52  C   UNL A   1      38.634  27.651  30.754  1.00  0.00     0.029 A 
ATOM     53  N   UNL A   1      39.876  29.487  30.905  1.00  0.00    -0.354 N 
ATOM     54  C   UNL A   1      43.287  29.991  28.159  1.00  0.00     0.074 A 
ATOM     55  C   UNL A   1      42.585  29.645  26.949  1.00  0.00     0.031 C 
ATOM     56  C   UNL A   1      37.916  28.567  31.441  1.00  0.00     0.029 A 
ATOM     57  C   UNL A   1      38.664  29.809  31.511  1.00  0.00     0.049 A 
ATOM     58  H   UNL A   1      40.664  30.076  30.930  1.00  0.00     0.167 HD
ATOM     59  C   UNL A   1      44.027  31.100  28.409  1.00  0.00     0.034 A 
ATOM     60  C   UNL A   1      38.272  31.034  31.940  1.00  0.00     0.034 A 
ATOM     61  C   UNL A   1      44.463  31.200  29.767  1.00  0.00     0.049 A 
ATOM     62  C   UNL A   1      39.482  31.852  32.181  1.00  0.00     0.074 A 
ATOM     63  C   UNL A   1      45.452  30.661  30.556  1.00  0.00     0.029 A 
ATOM     64  N   UNL A   1      43.542  31.779  30.595  1.00  0.00    -0.354 N 
ATOM     65  N   UNL A   1      40.347  31.618  33.128  1.00  0.00    -0.248 NA
ATOM     66  C   UNL A   1      39.875  32.870  31.209  1.00  0.00     0.031 C 
ATOM     67  C   UNL A   1      45.022  30.824  31.906  1.00  0.00     0.029 A 
ATOM     68  C   UNL A   1      43.775  31.446  31.902  1.00  0.00     0.049 A 
ATOM     69  H   UNL A   1      42.808  32.360  30.291  1.00  0.00     0.167 HD
ATOM     70  C   UNL A   1      41.527  32.143  32.640  1.00  0.00     0.074 A 
ATOM     71  C   UNL A   1      41.143  33.055  31.576  1.00  0.00     0.031 C 
ATOM     72  C   UNL A   1      42.718  31.531  32.885  1.00  0.00     0.034 A 
BRANCH  59  73
ATOM     73  C   UNL A   1      43.947  32.307  27.524  1.00  0.00     0.023 A 
ATOM     74  C   UNL A   1      44.455  32.230  26.218  1.00  0.00     0.012 A 
ATOM     75  C   UNL A   1      43.585  33.583  28.016  1.00  0.00     0.148 A 
ATOM     76  C   UNL A   1      44.552  33.374  25.418  1.00  0.00     0.002 A 
ATOM     77  C   UNL A   1      43.584  34.693  27.188  1.00  0.00     0.091 A 
ATOM     78  F   UNL A   1      43.358  33.746  29.328  1.00  0.00    -0.205 F 
ATOM     79  C   UNL A   1      44.085  34.599  25.889  1.00  0.00     0.022 A 
BRANCH  77  80
ATOM     80  S   UNL A   1      42.891  36.252  27.742  1.00  0.00     0.127 S 
ATOM     81  O   UNL A   1      42.781  36.990  26.489  1.00  0.00    -0.237 OA
ATOM     82  O   UNL A   1      41.619  35.827  28.329  1.00  0.00    -0.237 OA
ATOM     83  O   UNL A   1      43.851  36.758  28.717  1.00  0.00    -0.744 OA
ENDBRANCH  77  80
ENDBRANCH  59  73
BRANCH  60  84
ATOM     84  C   UNL A   1      36.919  31.657  31.978  1.00  0.00     0.023 A 
ATOM     85  C   UNL A   1      36.389  32.054  33.227  1.00  0.00     0.012 A 
ATOM     86  C   UNL A   1      36.279  32.136  30.815  1.00  0.00     0.148 A 
ATOM     87  C   UNL A   1      35.326  32.958  33.314  1.00  0.00     0.002 A 
ATOM     88  C   UNL A   1      35.204  33.017  30.907  1.00  0.00     0.091 A 
ATOM     89  F   UNL A   1      36.778  31.823  29.613  1.00  0.00    -0.205 F 
ATOM     90  C   UNL A   1      34.739  33.450  32.154  1.00  0.00     0.022 A 
BRANCH  88  91
ATOM     91  S   UNL A   1      34.401  33.665  29.434  1.00  0.00     0.127 S 
ATOM     92  O   UNL A   1      33.278  34.420  29.994  1.00  0.00    -0.237 OA
ATOM     93  O   UNL A   1      35.457  34.481  28.847  1.00  0.00    -0.237 OA
ATOM     94  O   UNL A   1      33.999  32.488  28.671  1.00  0.00    -0.744 OA
ENDBRANCH  88  91
ENDBRANCH  60  84
BRANCH  72  95
ATOM     95  C   UNL A   1      42.838  30.708  34.129  1.00  0.00     0.023 A 
ATOM     96  C   UNL A   1      43.165  31.266  35.379  1.00  0.00     0.012 A 
ATOM     97  C   UNL A   1      42.520  29.342  34.045  1.00  0.00     0.148 A 
ATOM     98  C   UNL A   1      43.189  30.468  36.525  1.00  0.00     0.002 A 
ATOM     99  C   UNL A   1      42.507  28.561  35.192  1.00  0.00     0.091 A 
ATOM    100  F   UNL A   1      42.219  28.836  32.840  1.00  0.00    -0.205 F 
ATOM    101  C   UNL A   1      42.849  29.118  36.434  1.00  0.00     0.022 A 
BRANCH  99 102
ATOM    102  S   UNL A   1      41.984  26.845  35.161  1.00  0.00     0.127 S 
ATOM    103  O   UNL A   1      43.077  26.202  34.436  1.00  0.00    -0.237 OA
ATOM    104  O   UNL A   1      41.917  26.517  36.586  1.00  0.00    -0.237 OA
ATOM    105  O   UNL A   1      40.693  26.828  34.484  1.00  0.00    -0.744 OA
ENDBRANCH  99 102
ENDBRANCH  72  95
ENDBRANCH  46  47
ENDBRANCH  39  41
ENDBRANCH  38  39
ENDBRANCH  37  38
ENDBRANCH  36  37
ENDBRANCH  35  36
ENDBRANCH   1  35
TORSDOF 24
ENDMDL
MODEL 3
REMARK VINA RESULT:      -7.7      5.870     12.770
REMARK SMILES CC(C)c1ccc2c(c1)c(SC(C)(C)C)c(CC(C)(C)C(=O)OCCOCCOC(=O)c1ccc(-c3c4nc(c(-c5cccc(S(=O)(=O)[O-])c5F)c5ccc([nH]5)c(-c5cccc(S(=O)(=O)[O-])c5F)c5nc(c(-c6cccc(S(=O)(=O)[O-])c6F)c6ccc3[nH]6)C=C5)C=C4)cc1)n2Cc1ccc(Cl)cc1
REMARK SMILES IDX 25 1 24 2 23 3 21 4 22 5 18 6 19 7 20 8 17 9 16 10 4 11 5 12
REMARK SMILES IDX 9 13 6 14 8 15 7 16 10 17 95 18 2 19 1 20 3 21 11 22 12 23
REMARK SMILES IDX 13 24 14 25 15 26 96 27 97 28 98 29 103 30 99 31 102 32
REMARK SMILES IDX 100 33 101 34 26 35 27 36 28 37 29 38 30 39 31 40 32 41
REMARK SMILES IDX 33 42 94 43 34 44 93 45 35 46 36 47 37 48 87 49 38 50 92 51
REMARK SMILES IDX 86 52 88 53 39 54 91 55 85 56 84 57 40 59 72 60 52 61 71 62
REMARK SMILES IDX 53 63 56 64 70 65 89 66 54 67 55 68 69 70 90 71 57 72 41 73
REMARK SMILES IDX 42 74 50 75 43 76 45 77 51 78 44 79 46 80 47 81 48 82 49 83
REMARK SMILES IDX 73 84 74 85 82 86 75 87 77 88 83 89 76 90 78 91 79 92 80 93
REMARK SMILES IDX 81 94 58 95 59 96 67 97 60 98 62 99 68 100 61 101 63 102
REMARK SMILES IDX 64 103 65 104 66 105
REMARK H PARENT 88 58 56 69
REMARK Flexibility Score: inf
ROOT
ATOM      1  C   UNL A   1      34.960  21.323  25.226  1.00  0.00     0.202 C 
ENDROOT
BRANCH   1   2
ATOM      2  C   UNL A   1      34.165  21.532  26.521  1.00  0.00     0.261 C 
BRANCH   2   3
ATOM      3  O   UNL A   1      32.817  21.895  26.245  1.00  0.00    -0.463 OA
BRANCH   3   4
ATOM      4  C   UNL A   1      32.561  23.143  26.701  1.00  0.00     0.311 C 
ATOM      5  O   UNL A   1      32.436  23.400  27.887  1.00  0.00    -0.252 OA
BRANCH   4   6
ATOM      6  C   UNL A   1      32.411  24.150  25.573  1.00  0.00     0.068 C 
ATOM      7  C   UNL A   1      31.914  23.251  24.426  1.00  0.00     0.024 C 
ATOM      8  C   UNL A   1      33.743  24.786  25.122  1.00  0.00     0.024 C 
BRANCH   6   9
ATOM      9  C   UNL A   1      31.520  25.311  26.143  1.00  0.00     0.073 C 
BRANCH   9  10
ATOM     10  C   UNL A   1      31.688  26.609  25.442  1.00  0.00     0.034 A 
ATOM     11  C   UNL A   1      29.932  30.458  23.602  1.00  0.00    -0.045 A 
ATOM     12  C   UNL A   1      30.284  30.938  24.867  1.00  0.00     0.006 A 
ATOM     13  C   UNL A   1      30.314  29.149  23.239  1.00  0.00     0.015 A 
ATOM     14  C   UNL A   1      30.985  30.145  25.779  1.00  0.00     0.027 A 
ATOM     15  C   UNL A   1      31.005  28.305  24.149  1.00  0.00     0.014 A 
ATOM     16  C   UNL A   1      31.302  28.827  25.413  1.00  0.00     0.050 A 
ATOM     17  C   UNL A   1      31.434  26.921  24.119  1.00  0.00     0.037 A 
ATOM     18  N   UNL A   1      31.898  27.806  26.134  1.00  0.00    -0.339 N 
BRANCH  11  19
ATOM     19  C   UNL A   1      29.089  31.341  22.693  1.00  0.00     0.013 C 
ATOM     20  C   UNL A   1      28.867  30.732  21.308  1.00  0.00     0.012 C 
ATOM     21  C   UNL A   1      27.754  31.695  23.353  1.00  0.00     0.012 C 
ENDBRANCH  11  19
BRANCH  17  22
ATOM     22  S   UNL A   1      31.152  25.905  22.703  1.00  0.00    -0.118 SA
BRANCH  22  23
ATOM     23  C   UNL A   1      32.578  25.536  21.580  1.00  0.00     0.012 C 
ATOM     24  C   UNL A   1      33.713  26.535  21.815  1.00  0.00     0.023 C 
ATOM     25  C   UNL A   1      33.199  24.133  21.430  1.00  0.00     0.023 C 
ATOM     26  C   UNL A   1      31.944  25.774  20.184  1.00  0.00     0.023 C 
ENDBRANCH  22  23
ENDBRANCH  17  22
BRANCH  18  27
ATOM     27  C   UNL A   1      32.758  28.042  27.314  1.00  0.00     0.158 C 
BRANCH  27  28
ATOM     28  C   UNL A   1      33.683  29.247  27.382  1.00  0.00    -0.028 A 
ATOM     29  C   UNL A   1      33.145  30.523  27.640  1.00  0.00     0.007 A 
ATOM     30  C   UNL A   1      35.083  29.134  27.309  1.00  0.00     0.007 A 
ATOM     31  C   UNL A   1      33.970  31.644  27.799  1.00  0.00     0.021 A 
ATOM     32  C   UNL A   1      35.913  30.258  27.464  1.00  0.00     0.021 A 
ATOM     33  C   UNL A   1      35.351  31.508  27.709  1.00  0.00     0.041 A 
ATOM     34  Cl  UNL A   1      36.355  32.899  27.862  1.00  0.00    -0.084 Cl
ENDBRANCH  27  28
ENDBRANCH  18  27
ENDBRANCH   9  10
ENDBRANCH   6   9
ENDBRANCH   4   6
ENDBRANCH   3   4
ENDBRANCH   2   3
ENDBRANCH   1   2
BRANCH   1  35
ATOM     35  O   UNL A   1      35.860  20.226  25.091  1.00  0.00    -0.374 OA
BRANCH  35  36
ATOM     36  C   UNL A   1      37.229  20.514  25.366  1.00  0.00     0.202 C 
BRANCH  36  37
ATOM     37  C   UNL A   1      37.771  21.823  24.796  1.00  0.00     0.261 C 
BRANCH  37  38
ATOM     38  O   UNL A   1      38.327  22.582  25.890  1.00  0.00    -0.460 OA
BRANCH  38  39
ATOM     39  C   UNL A   1      37.867  23.852  25.955  1.00  0.00     0.338 C 
ATOM     40  O   UNL A   1      36.717  24.201  25.745  1.00  0.00    -0.246 OA
BRANCH  39  41
ATOM     41  C   UNL A   1      38.908  24.667  26.618  1.00  0.00     0.060 A 
ATOM     42  C   UNL A   1      40.015  25.149  25.902  1.00  0.00     0.016 A 
ATOM     43  C   UNL A   1      38.890  24.690  28.022  1.00  0.00     0.016 A 
ATOM     44  C   UNL A   1      41.135  25.574  26.607  1.00  0.00     0.010 A 
ATOM     45  C   UNL A   1      40.021  25.102  28.725  1.00  0.00     0.010 A 
ATOM     46  C   UNL A   1      41.156  25.514  28.017  1.00  0.00    -0.014 A 
BRANCH  46  47
ATOM     47  C   UNL A   1      42.284  26.157  28.692  1.00  0.00     0.031 A 
ATOM     48  C   UNL A   1      42.004  27.601  28.869  1.00  0.00     0.074 A 
ATOM     49  C   UNL A   1      43.382  25.614  29.256  1.00  0.00     0.049 A 
ATOM     50  N   UNL A   1      42.578  28.602  28.287  1.00  0.00    -0.248 NA
ATOM     51  C   UNL A   1      40.802  27.938  29.647  1.00  0.00     0.031 C 
ATOM     52  C   UNL A   1      43.655  24.200  29.510  1.00  0.00     0.029 A 
ATOM     53  N   UNL A   1      44.453  26.248  29.839  1.00  0.00    -0.354 N 
ATOM     54  C   UNL A   1      41.931  29.714  28.809  1.00  0.00     0.074 A 
ATOM     55  C   UNL A   1      40.732  29.252  29.460  1.00  0.00     0.031 C 
ATOM     56  C   UNL A   1      44.696  24.094  30.366  1.00  0.00     0.029 A 
ATOM     57  C   UNL A   1      45.213  25.418  30.660  1.00  0.00     0.049 A 
ATOM     58  H   UNL A   1      44.663  27.198  29.690  1.00  0.00     0.167 HD
ATOM     59  C   UNL A   1      42.560  30.906  28.960  1.00  0.00     0.034 A 
ATOM     60  C   UNL A   1      46.122  25.807  31.588  1.00  0.00     0.034 A 
ATOM     61  C   UNL A   1      43.812  30.982  28.276  1.00  0.00     0.049 A 
ATOM     62  C   UNL A   1      46.595  27.165  31.234  1.00  0.00     0.074 A 
ATOM     63  C   UNL A   1      44.253  31.191  26.990  1.00  0.00     0.029 A 
ATOM     64  N   UNL A   1      44.860  30.480  28.997  1.00  0.00    -0.354 N 
ATOM     65  N   UNL A   1      47.311  27.440  30.180  1.00  0.00    -0.248 NA
ATOM     66  C   UNL A   1      46.092  28.323  31.970  1.00  0.00     0.031 C 
ATOM     67  C   UNL A   1      45.579  30.668  26.931  1.00  0.00     0.029 A 
ATOM     68  C   UNL A   1      45.904  30.143  28.179  1.00  0.00     0.049 A 
ATOM     69  H   UNL A   1      44.863  30.376  29.976  1.00  0.00     0.167 HD
ATOM     70  C   UNL A   1      47.002  28.756  29.899  1.00  0.00     0.074 A 
ATOM     71  C   UNL A   1      46.421  29.294  31.118  1.00  0.00     0.031 C 
ATOM     72  C   UNL A   1      46.904  29.192  28.613  1.00  0.00     0.034 A 
BRANCH  59  73
ATOM     73  C   UNL A   1      42.242  31.815  30.110  1.00  0.00     0.023 A 
ATOM     74  C   UNL A   1      41.909  33.153  29.849  1.00  0.00     0.012 A 
ATOM     75  C   UNL A   1      42.478  31.444  31.455  1.00  0.00     0.148 A 
ATOM     76  C   UNL A   1      41.768  34.073  30.894  1.00  0.00     0.002 A 
ATOM     77  C   UNL A   1      42.236  32.330  32.492  1.00  0.00     0.091 A 
ATOM     78  F   UNL A   1      43.058  30.265  31.723  1.00  0.00    -0.205 F 
ATOM     79  C   UNL A   1      41.897  33.654  32.217  1.00  0.00     0.022 A 
BRANCH  77  80
ATOM     80  S   UNL A   1      42.295  31.782  34.199  1.00  0.00     0.127 S 
ATOM     81  O   UNL A   1      41.731  32.931  34.898  1.00  0.00    -0.237 OA
ATOM     82  O   UNL A   1      41.444  30.592  34.167  1.00  0.00    -0.237 OA
ATOM     83  O   UNL A   1      43.704  31.494  34.446  1.00  0.00    -0.744 OA
ENDBRANCH  77  80
ENDBRANCH  59  73
BRANCH  60  84
ATOM     84  C   UNL A   1      46.493  25.195  32.894  1.00  0.00     0.023 A 
ATOM     85  C   UNL A   1      47.862  24.998  33.187  1.00  0.00     0.012 A 
ATOM     86  C   UNL A   1      45.574  25.081  33.959  1.00  0.00     0.148 A 
ATOM     87  C   UNL A   1      48.304  24.785  34.497  1.00  0.00     0.002 A 
ATOM     88  C   UNL A   1      46.017  24.843  35.258  1.00  0.00     0.091 A 
ATOM     89  F   UNL A   1      44.274  25.307  33.733  1.00  0.00    -0.205 F 
ATOM     90  C   UNL A   1      47.383  24.720  35.536  1.00  0.00     0.022 A 
BRANCH  88  91
ATOM     91  S   UNL A   1      44.862  24.732  36.631  1.00  0.00     0.127 S 
ATOM     92  O   UNL A   1      44.321  26.091  36.698  1.00  0.00    -0.237 OA
ATOM     93  O   UNL A   1      43.923  23.721  36.158  1.00  0.00    -0.237 OA
ATOM     94  O   UNL A   1      45.676  24.363  37.784  1.00  0.00    -0.744 OA
ENDBRANCH  88  91
ENDBRANCH  60  84
BRANCH  72  95
ATOM     95  C   UNL A   1      47.701  28.474  27.570  1.00  0.00     0.023 A 
ATOM     96  C   UNL A   1      49.069  28.726  27.355  1.00  0.00     0.012 A 
ATOM     97  C   UNL A   1      47.066  27.451  26.847  1.00  0.00     0.148 A 
ATOM     98  C   UNL A   1      49.788  27.976  26.421  1.00  0.00     0.002 A 
ATOM     99  C   UNL A   1      47.792  26.682  25.949  1.00  0.00     0.091 A 
ATOM    100  F   UNL A   1      45.760  27.238  27.067  1.00  0.00    -0.205 F 
ATOM    101  C   UNL A   1      49.152  26.946  25.727  1.00  0.00     0.022 A 
BRANCH  99 102
ATOM    102  S   UNL A   1      47.062  25.281  25.097  1.00  0.00     0.127 S 
ATOM    103  O   UNL A   1      45.695  25.740  24.864  1.00  0.00    -0.237 OA
ATOM    104  O   UNL A   1      47.891  25.185  23.894  1.00  0.00    -0.237 OA
ATOM    105  O   UNL A   1      47.192  24.145  26.003  1.00  0.00    -0.744 OA
ENDBRANCH  99 102
ENDBRANCH  72  95
ENDBRANCH  46  47
ENDBRANCH  39  41
ENDBRANCH  38  39
ENDBRANCH  37  38
ENDBRANCH  36  37
ENDBRANCH  35  36
ENDBRANCH   1  35
TORSDOF 24
ENDMDL
