MODEL 1
REMARK VINA RESULT:     -12.1      0.000      0.000
REMARK SMILES Cc1cc(C(=O)OCCOCCOC(=O)c2ccc(-c3c4nc(c(-c5cccc(S(=O)(=O)[O-])c5F)c5ccc([nH]5)c(-c5cccc(S(=O)(=O)[O-])c5F)c5nc(c(-c6cccc(S(=O)(=O)[O-])c6F)c6ccc3[nH]6)C=C5)C=C4)cc2)ccc1NS(=O)(=O)c1ccc2c(c1)CCC2
REMARK SMILES IDX 10 1 9 2 8 3 7 4 5 5 6 6 4 7 1 8 2 9 3 10 81 11 80 12 79 13
REMARK SMILES IDX 82 14 83 16 84 17 85 18 86 19 87 20 91 21 88 22 90 23 89 24
REMARK SMILES IDX 92 25 94 26 93 27 11 28 12 29 13 30 14 31 15 32 16 33 17 34
REMARK SMILES IDX 78 35 18 36 77 37 19 38 20 39 21 40 71 41 22 42 76 43 70 44
REMARK SMILES IDX 72 45 23 46 75 47 69 48 68 49 24 51 56 52 36 53 55 54 37 55
REMARK SMILES IDX 40 56 54 57 73 58 38 59 39 60 53 62 74 63 41 64 25 65 26 66
REMARK SMILES IDX 34 67 27 68 29 69 35 70 28 71 30 72 31 73 32 74 33 75 57 76
REMARK SMILES IDX 58 77 66 78 59 79 61 80 67 81 60 82 62 83 63 84 64 85 65 86
REMARK SMILES IDX 42 87 43 88 51 89 44 90 46 91 52 92 45 93 47 94 48 95 49 96
REMARK SMILES IDX 50 97
REMARK H PARENT 82 15 72 50 40 61
REMARK Flexibility Score: inf
ROOT
ATOM      1  O   UNL A   1      43.084  19.733  25.171  1.00  0.00    -0.374 OA
ENDROOT
BRANCH   1   2
ATOM      2  C   UNL A   1      42.656  18.972  26.284  1.00  0.00     0.202 C 
BRANCH   2   3
ATOM      3  C   UNL A   1      41.486  19.576  27.082  1.00  0.00     0.261 C 
BRANCH   3   4
ATOM      4  O   UNL A   1      40.824  20.593  26.361  1.00  0.00    -0.460 OA
BRANCH   4   5
ATOM      5  C   UNL A   1      40.482  21.651  27.128  1.00  0.00     0.338 C 
ATOM      6  O   UNL A   1      41.104  22.187  28.030  1.00  0.00    -0.246 OA
BRANCH   5   7
ATOM      7  C   UNL A   1      39.392  22.245  26.381  1.00  0.00     0.060 A 
ATOM      8  C   UNL A   1      36.400  20.612  24.889  1.00  0.00     0.046 C 
ATOM      9  C   UNL A   1      37.252  21.701  25.466  1.00  0.00    -0.026 A 
ATOM     10  C   UNL A   1      38.569  21.340  25.736  1.00  0.00     0.021 A 
ATOM     11  C   UNL A   1      36.804  22.992  25.827  1.00  0.00     0.052 A 
ATOM     12  C   UNL A   1      37.739  23.962  26.191  1.00  0.00     0.028 A 
ATOM     13  C   UNL A   1      39.010  23.568  26.573  1.00  0.00     0.018 A 
BRANCH  11  14
ATOM     14  N   UNL A   1      35.438  23.139  26.227  1.00  0.00    -0.279 N 
ATOM     15  H   UNL A   1      35.216  22.842  27.139  1.00  0.00     0.180 HD
BRANCH  14  16
ATOM     16  S   UNL A   1      34.180  23.758  25.322  1.00  0.00     0.261 S 
ATOM     17  O   UNL A   1      33.362  24.572  26.197  1.00  0.00    -0.201 OA
ATOM     18  O   UNL A   1      34.812  24.342  24.155  1.00  0.00    -0.201 OA
BRANCH  16  19
ATOM     19  C   UNL A   1      33.122  22.451  24.697  1.00  0.00     0.088 A 
ATOM     20  C   UNL A   1      32.598  22.432  23.395  1.00  0.00     0.022 A 
ATOM     21  C   UNL A   1      33.072  21.297  25.495  1.00  0.00     0.026 A 
ATOM     22  C   UNL A   1      32.297  21.203  22.786  1.00  0.00     0.005 A 
ATOM     23  C   UNL A   1      32.694  20.107  24.903  1.00  0.00    -0.043 A 
ATOM     24  C   UNL A   1      32.429  20.044  23.533  1.00  0.00    -0.045 A 
ATOM     25  C   UNL A   1      32.594  18.747  25.515  1.00  0.00     0.036 C 
ATOM     26  C   UNL A   1      32.390  18.613  23.077  1.00  0.00     0.036 C 
ATOM     27  C   UNL A   1      32.975  17.889  24.308  1.00  0.00     0.010 C 
ENDBRANCH  16  19
ENDBRANCH  14  16
ENDBRANCH  11  14
ENDBRANCH   5   7
ENDBRANCH   4   5
ENDBRANCH   3   4
ENDBRANCH   2   3
ENDBRANCH   1   2
BRANCH   1  28
ATOM     28  C   UNL A   1      44.248  19.207  24.543  1.00  0.00     0.202 C 
BRANCH  28  29
ATOM     29  C   UNL A   1      45.696  19.424  25.192  1.00  0.00     0.261 C 
BRANCH  29  30
ATOM     30  O   UNL A   1      46.023  20.849  25.469  1.00  0.00    -0.460 OA
BRANCH  30  31
ATOM     31  C   UNL A   1      45.699  22.040  24.846  1.00  0.00     0.338 C 
ATOM     32  O   UNL A   1      46.336  22.575  23.987  1.00  0.00    -0.246 OA
BRANCH  31  33
ATOM     33  C   UNL A   1      44.445  22.623  25.553  1.00  0.00     0.060 A 
ATOM     34  C   UNL A   1      43.583  23.504  24.901  1.00  0.00     0.016 A 
ATOM     35  C   UNL A   1      44.311  22.586  26.929  1.00  0.00     0.016 A 
ATOM     36  C   UNL A   1      43.089  24.653  25.558  1.00  0.00     0.010 A 
ATOM     37  C   UNL A   1      43.907  23.749  27.587  1.00  0.00     0.010 A 
ATOM     38  C   UNL A   1      43.459  24.870  26.868  1.00  0.00    -0.014 A 
BRANCH  38  39
ATOM     39  C   UNL A   1      43.572  26.187  27.533  1.00  0.00     0.031 A 
ATOM     40  C   UNL A   1      42.310  26.945  27.769  1.00  0.00     0.074 A 
ATOM     41  C   UNL A   1      44.706  26.574  28.196  1.00  0.00     0.049 A 
ATOM     42  N   UNL A   1      42.251  28.137  28.253  1.00  0.00    -0.248 NA
ATOM     43  C   UNL A   1      40.984  26.424  27.432  1.00  0.00     0.031 C 
ATOM     44  C   UNL A   1      44.742  27.507  29.334  1.00  0.00     0.029 A 
ATOM     45  N   UNL A   1      46.063  26.210  28.080  1.00  0.00    -0.354 N 
ATOM     46  C   UNL A   1      40.943  28.384  28.602  1.00  0.00     0.074 A 
ATOM     47  C   UNL A   1      40.182  27.359  27.947  1.00  0.00     0.031 C 
ATOM     48  C   UNL A   1      46.007  27.787  29.666  1.00  0.00     0.029 A 
ATOM     49  C   UNL A   1      46.854  27.228  28.640  1.00  0.00     0.049 A 
ATOM     50  H   UNL A   1      46.401  25.378  27.675  1.00  0.00     0.167 HD
ATOM     51  C   UNL A   1      40.676  29.368  29.502  1.00  0.00     0.034 A 
ATOM     52  C   UNL A   1      47.819  27.955  28.002  1.00  0.00     0.034 A 
ATOM     53  C   UNL A   1      41.898  30.144  29.788  1.00  0.00     0.049 A 
ATOM     54  C   UNL A   1      47.377  29.408  27.834  1.00  0.00     0.074 A 
ATOM     55  C   UNL A   1      42.763  30.208  30.866  1.00  0.00     0.029 A 
ATOM     56  N   UNL A   1      42.557  30.771  28.727  1.00  0.00    -0.354 N 
ATOM     57  N   UNL A   1      46.277  29.881  28.362  1.00  0.00    -0.248 NA
ATOM     58  C   UNL A   1      48.081  30.443  27.081  1.00  0.00     0.031 C 
ATOM     59  C   UNL A   1      43.996  30.761  30.398  1.00  0.00     0.029 A 
ATOM     60  C   UNL A   1      43.868  31.093  29.056  1.00  0.00     0.049 A 
ATOM     61  H   UNL A   1      42.143  30.960  27.854  1.00  0.00     0.167 HD
ATOM     62  C   UNL A   1      45.997  31.122  27.885  1.00  0.00     0.074 A 
ATOM     63  C   UNL A   1      47.214  31.471  27.167  1.00  0.00     0.031 C 
ATOM     64  C   UNL A   1      44.765  31.702  28.058  1.00  0.00     0.034 A 
BRANCH  51  65
ATOM     65  C   UNL A   1      39.351  29.583  30.224  1.00  0.00     0.023 A 
ATOM     66  C   UNL A   1      39.026  28.659  31.243  1.00  0.00     0.012 A 
ATOM     67  C   UNL A   1      38.363  30.568  29.947  1.00  0.00     0.148 A 
ATOM     68  C   UNL A   1      37.815  28.707  31.946  1.00  0.00     0.002 A 
ATOM     69  C   UNL A   1      37.183  30.658  30.698  1.00  0.00     0.091 A 
ATOM     70  F   UNL A   1      38.500  31.379  28.894  1.00  0.00    -0.205 F 
ATOM     71  C   UNL A   1      36.901  29.718  31.689  1.00  0.00     0.022 A 
BRANCH  69  72
ATOM     72  S   UNL A   1      35.965  31.974  30.467  1.00  0.00     0.127 S 
ATOM     73  O   UNL A   1      35.138  31.845  31.666  1.00  0.00    -0.237 OA
ATOM     74  O   UNL A   1      36.802  33.174  30.436  1.00  0.00    -0.237 OA
ATOM     75  O   UNL A   1      35.282  31.687  29.212  1.00  0.00    -0.744 OA
ENDBRANCH  69  72
ENDBRANCH  51  65
BRANCH  52  76
ATOM     76  C   UNL A   1      48.684  27.136  27.115  1.00  0.00     0.023 A 
ATOM     77  C   UNL A   1      48.325  27.144  25.740  1.00  0.00     0.012 A 
ATOM     78  C   UNL A   1      50.016  26.891  27.471  1.00  0.00     0.148 A 
ATOM     79  C   UNL A   1      49.295  27.098  24.740  1.00  0.00     0.002 A 
ATOM     80  C   UNL A   1      50.980  26.912  26.469  1.00  0.00     0.091 A 
ATOM     81  F   UNL A   1      50.327  26.829  28.771  1.00  0.00    -0.205 F 
ATOM     82  C   UNL A   1      50.626  27.034  25.111  1.00  0.00     0.022 A 
BRANCH  80  83
ATOM     83  S   UNL A   1      52.693  27.286  26.829  1.00  0.00     0.127 S 
ATOM     84  O   UNL A   1      53.097  26.186  27.695  1.00  0.00    -0.237 OA
ATOM     85  O   UNL A   1      53.231  27.221  25.476  1.00  0.00    -0.237 OA
ATOM     86  O   UNL A   1      52.692  28.608  27.434  1.00  0.00    -0.744 OA
ENDBRANCH  80  83
ENDBRANCH  52  76
BRANCH  64  87
ATOM     87  C   UNL A   1      44.299  32.911  27.264  1.00  0.00     0.023 A 
ATOM     88  C   UNL A   1      44.152  32.870  25.863  1.00  0.00     0.012 A 
ATOM     89  C   UNL A   1      43.858  34.094  27.909  1.00  0.00     0.148 A 
ATOM     90  C   UNL A   1      43.713  33.973  25.127  1.00  0.00     0.002 A 
ATOM     91  C   UNL A   1      43.282  35.133  27.184  1.00  0.00     0.091 A 
ATOM     92  F   UNL A   1      44.011  34.235  29.232  1.00  0.00    -0.205 F 
ATOM     93  C   UNL A   1      43.260  35.102  25.790  1.00  0.00     0.022 A 
BRANCH  91  94
ATOM     94  S   UNL A   1      42.394  36.462  28.007  1.00  0.00     0.127 S 
ATOM     95  O   UNL A   1      41.903  37.242  26.873  1.00  0.00    -0.237 OA
ATOM     96  O   UNL A   1      41.358  35.732  28.741  1.00  0.00    -0.237 OA
ATOM     97  O   UNL A   1      43.380  37.112  28.858  1.00  0.00    -0.744 OA
ENDBRANCH  91  94
ENDBRANCH  64  87
ENDBRANCH  38  39
ENDBRANCH  31  33
ENDBRANCH  30  31
ENDBRANCH  29  30
ENDBRANCH  28  29
ENDBRANCH   1  28
TORSDOF 20
ENDMDL
MODEL 2
REMARK VINA RESULT:     -11.8      2.265      4.222
REMARK SMILES Cc1cc(C(=O)OCCOCCOC(=O)c2ccc(-c3c4nc(c(-c5cccc(S(=O)(=O)[O-])c5F)c5ccc([nH]5)c(-c5cccc(S(=O)(=O)[O-])c5F)c5nc(c(-c6cccc(S(=O)(=O)[O-])c6F)c6ccc3[nH]6)C=C5)C=C4)cc2)ccc1NS(=O)(=O)c1ccc2c(c1)CCC2
REMARK SMILES IDX 10 1 9 2 8 3 7 4 5 5 6 6 4 7 1 8 2 9 3 10 81 11 80 12 79 13
REMARK SMILES IDX 82 14 83 16 84 17 85 18 86 19 87 20 91 21 88 22 90 23 89 24
REMARK SMILES IDX 92 25 94 26 93 27 11 28 12 29 13 30 14 31 15 32 16 33 17 34
REMARK SMILES IDX 78 35 18 36 77 37 19 38 20 39 21 40 71 41 22 42 76 43 70 44
REMARK SMILES IDX 72 45 23 46 75 47 69 48 68 49 24 51 56 52 36 53 55 54 37 55
REMARK SMILES IDX 40 56 54 57 73 58 38 59 39 60 53 62 74 63 41 64 25 65 26 66
REMARK SMILES IDX 34 67 27 68 29 69 35 70 28 71 30 72 31 73 32 74 33 75 57 76
REMARK SMILES IDX 58 77 66 78 59 79 61 80 67 81 60 82 62 83 63 84 64 85 65 86
REMARK SMILES IDX 42 87 43 88 51 89 44 90 46 91 52 92 45 93 47 94 48 95 49 96
REMARK SMILES IDX 50 97
REMARK H PARENT 82 15 72 50 40 61
REMARK Flexibility Score: inf
ROOT
ATOM      1  O   UNL A   1      36.895  23.154  24.259  1.00  0.00    -0.374 OA
ENDROOT
BRANCH   1   2
ATOM      2  C   UNL A   1      36.500  21.795  24.212  1.00  0.00     0.202 C 
BRANCH   2   3
ATOM      3  C   UNL A   1      35.921  21.235  25.525  1.00  0.00     0.261 C 
BRANCH   3   4
ATOM      4  O   UNL A   1      34.700  20.559  25.317  1.00  0.00    -0.460 OA
BRANCH   4   5
ATOM      5  C   UNL A   1      33.700  21.018  26.100  1.00  0.00     0.338 C 
ATOM      6  O   UNL A   1      33.706  21.284  27.291  1.00  0.00    -0.246 OA
BRANCH   5   7
ATOM      7  C   UNL A   1      32.733  21.496  25.133  1.00  0.00     0.060 A 
ATOM      8  C   UNL A   1      30.803  24.677  25.110  1.00  0.00     0.046 C 
ATOM      9  C   UNL A   1      31.468  23.446  24.575  1.00  0.00    -0.026 A 
ATOM     10  C   UNL A   1      31.997  22.593  25.540  1.00  0.00     0.021 A 
ATOM     11  C   UNL A   1      31.669  23.148  23.208  1.00  0.00     0.052 A 
ATOM     12  C   UNL A   1      32.147  21.887  22.847  1.00  0.00     0.028 A 
ATOM     13  C   UNL A   1      32.779  21.104  23.800  1.00  0.00     0.018 A 
BRANCH  11  14
ATOM     14  N   UNL A   1      31.801  24.243  22.297  1.00  0.00    -0.279 N 
ATOM     15  H   UNL A   1      31.023  24.431  21.725  1.00  0.00     0.180 HD
BRANCH  14  16
ATOM     16  S   UNL A   1      33.126  25.238  22.097  1.00  0.00     0.261 S 
ATOM     17  O   UNL A   1      34.276  24.566  22.665  1.00  0.00    -0.201 OA
ATOM     18  O   UNL A   1      33.109  25.604  20.694  1.00  0.00    -0.201 OA
BRANCH  16  19
ATOM     19  C   UNL A   1      32.929  26.774  23.002  1.00  0.00     0.088 A 
ATOM     20  C   UNL A   1      31.881  27.681  22.775  1.00  0.00     0.022 A 
ATOM     21  C   UNL A   1      33.727  26.891  24.151  1.00  0.00     0.026 A 
ATOM     22  C   UNL A   1      31.442  28.508  23.821  1.00  0.00     0.005 A 
ATOM     23  C   UNL A   1      33.328  27.771  25.139  1.00  0.00    -0.043 A 
ATOM     24  C   UNL A   1      32.130  28.480  25.023  1.00  0.00    -0.045 A 
ATOM     25  C   UNL A   1      33.973  28.054  26.457  1.00  0.00     0.036 C 
ATOM     26  C   UNL A   1      31.751  29.081  26.346  1.00  0.00     0.036 C 
ATOM     27  C   UNL A   1      32.731  28.360  27.295  1.00  0.00     0.010 C 
ENDBRANCH  16  19
ENDBRANCH  14  16
ENDBRANCH  11  14
ENDBRANCH   5   7
ENDBRANCH   4   5
ENDBRANCH   3   4
ENDBRANCH   2   3
ENDBRANCH   1   2
BRANCH   1  28
ATOM     28  C   UNL A   1      36.704  23.751  25.536  1.00  0.00     0.202 C 
BRANCH  28  29
ATOM     29  C   UNL A   1      37.942  23.966  26.531  1.00  0.00     0.261 C 
BRANCH  29  30
ATOM     30  O   UNL A   1      39.217  23.378  26.040  1.00  0.00    -0.460 OA
BRANCH  30  31
ATOM     31  C   UNL A   1      39.912  22.222  26.342  1.00  0.00     0.338 C 
ATOM     32  O   UNL A   1      39.470  21.111  26.307  1.00  0.00    -0.246 OA
BRANCH  31  33
ATOM     33  C   UNL A   1      41.316  22.632  26.864  1.00  0.00     0.060 A 
ATOM     34  C   UNL A   1      41.647  22.542  28.216  1.00  0.00     0.016 A 
ATOM     35  C   UNL A   1      42.166  23.417  26.106  1.00  0.00     0.016 A 
ATOM     36  C   UNL A   1      42.353  23.583  28.859  1.00  0.00     0.010 A 
ATOM     37  C   UNL A   1      42.796  24.499  26.722  1.00  0.00     0.010 A 
ATOM     38  C   UNL A   1      42.729  24.680  28.114  1.00  0.00    -0.014 A 
BRANCH  38  39
ATOM     39  C   UNL A   1      42.918  26.056  28.626  1.00  0.00     0.031 A 
ATOM     40  C   UNL A   1      41.717  26.936  28.687  1.00  0.00     0.074 A 
ATOM     41  C   UNL A   1      44.043  26.428  29.313  1.00  0.00     0.049 A 
ATOM     42  N   UNL A   1      41.735  28.179  29.023  1.00  0.00    -0.248 NA
ATOM     43  C   UNL A   1      40.371  26.485  28.326  1.00  0.00     0.031 C 
ATOM     44  C   UNL A   1      44.097  27.488  30.333  1.00  0.00     0.029 A 
ATOM     45  N   UNL A   1      45.367  25.945  29.331  1.00  0.00    -0.354 N 
ATOM     46  C   UNL A   1      40.436  28.571  29.252  1.00  0.00     0.074 A 
ATOM     47  C   UNL A   1      39.626  27.537  28.673  1.00  0.00     0.031 C 
ATOM     48  C   UNL A   1      45.360  27.704  30.714  1.00  0.00     0.029 A 
ATOM     49  C   UNL A   1      46.211  26.958  29.819  1.00  0.00     0.049 A 
ATOM     50  H   UNL A   1      45.653  25.046  29.050  1.00  0.00     0.167 HD
ATOM     51  C   UNL A   1      40.206  29.676  30.011  1.00  0.00     0.034 A 
ATOM     52  C   UNL A   1      47.271  27.522  29.166  1.00  0.00     0.034 A 
ATOM     53  C   UNL A   1      41.473  30.380  30.284  1.00  0.00     0.049 A 
ATOM     54  C   UNL A   1      46.968  28.974  28.800  1.00  0.00     0.074 A 
ATOM     55  C   UNL A   1      42.278  30.507  31.402  1.00  0.00     0.029 A 
ATOM     56  N   UNL A   1      42.243  30.817  29.203  1.00  0.00    -0.354 N 
ATOM     57  N   UNL A   1      45.886  29.595  29.193  1.00  0.00    -0.248 NA
ATOM     58  C   UNL A   1      47.802  29.848  27.978  1.00  0.00     0.031 C 
ATOM     59  C   UNL A   1      43.579  30.897  30.956  1.00  0.00     0.029 A 
ATOM     60  C   UNL A   1      43.557  31.071  29.579  1.00  0.00     0.049 A 
ATOM     61  H   UNL A   1      41.898  30.930  28.288  1.00  0.00     0.167 HD
ATOM     62  C   UNL A   1      45.743  30.786  28.557  1.00  0.00     0.074 A 
ATOM     63  C   UNL A   1      47.024  30.946  27.885  1.00  0.00     0.031 C 
ATOM     64  C   UNL A   1      44.559  31.479  28.578  1.00  0.00     0.034 A 
BRANCH  51  65
ATOM     65  C   UNL A   1      38.867  30.083  30.613  1.00  0.00     0.023 A 
ATOM     66  C   UNL A   1      38.547  29.540  31.878  1.00  0.00     0.012 A 
ATOM     67  C   UNL A   1      37.860  30.895  30.019  1.00  0.00     0.148 A 
ATOM     68  C   UNL A   1      37.326  29.787  32.518  1.00  0.00     0.002 A 
ATOM     69  C   UNL A   1      36.668  31.198  30.690  1.00  0.00     0.091 A 
ATOM     70  F   UNL A   1      37.994  31.315  28.758  1.00  0.00    -0.205 F 
ATOM     71  C   UNL A   1      36.393  30.632  31.935  1.00  0.00     0.022 A 
BRANCH  69  72
ATOM     72  S   UNL A   1      35.424  32.332  30.029  1.00  0.00     0.127 S 
ATOM     73  O   UNL A   1      34.464  32.414  31.128  1.00  0.00    -0.237 OA
ATOM     74  O   UNL A   1      36.199  33.554  29.810  1.00  0.00    -0.237 OA
ATOM     75  O   UNL A   1      34.915  31.717  28.809  1.00  0.00    -0.744 OA
ENDBRANCH  69  72
ENDBRANCH  51  65
BRANCH  52  76
ATOM     76  C   UNL A   1      48.110  26.533  28.440  1.00  0.00     0.023 A 
ATOM     77  C   UNL A   1      47.553  26.035  27.232  1.00  0.00     0.012 A 
ATOM     78  C   UNL A   1      49.501  26.552  28.594  1.00  0.00     0.148 A 
ATOM     79  C   UNL A   1      48.359  25.740  26.133  1.00  0.00     0.002 A 
ATOM     80  C   UNL A   1      50.291  26.318  27.474  1.00  0.00     0.091 A 
ATOM     81  F   UNL A   1      50.008  26.969  29.761  1.00  0.00    -0.205 F 
ATOM     82  C   UNL A   1      49.724  25.933  26.244  1.00  0.00     0.022 A 
BRANCH  80  83
ATOM     83  S   UNL A   1      51.961  26.953  27.360  1.00  0.00     0.127 S 
ATOM     84  O   UNL A   1      52.699  26.115  28.295  1.00  0.00    -0.237 OA
ATOM     85  O   UNL A   1      52.219  26.665  25.954  1.00  0.00    -0.237 OA
ATOM     86  O   UNL A   1      51.873  28.364  27.699  1.00  0.00    -0.744 OA
ENDBRANCH  80  83
ENDBRANCH  52  76
BRANCH  64  87
ATOM     87  C   UNL A   1      44.245  32.616  27.618  1.00  0.00     0.023 A 
ATOM     88  C   UNL A   1      44.177  32.415  26.225  1.00  0.00     0.012 A 
ATOM     89  C   UNL A   1      43.873  33.899  28.089  1.00  0.00     0.148 A 
ATOM     90  C   UNL A   1      43.879  33.451  25.337  1.00  0.00     0.002 A 
ATOM     91  C   UNL A   1      43.433  34.885  27.210  1.00  0.00     0.091 A 
ATOM     92  F   UNL A   1      43.962  34.189  29.394  1.00  0.00    -0.205 F 
ATOM     93  C   UNL A   1      43.488  34.685  25.831  1.00  0.00     0.022 A 
BRANCH  91  94
ATOM     94  S   UNL A   1      42.617  36.371  27.810  1.00  0.00     0.127 S 
ATOM     95  O   UNL A   1      42.331  37.080  26.565  1.00  0.00    -0.237 OA
ATOM     96  O   UNL A   1      41.439  35.824  28.486  1.00  0.00    -0.237 OA
ATOM     97  O   UNL A   1      43.579  37.000  28.704  1.00  0.00    -0.744 OA
ENDBRANCH  91  94
ENDBRANCH  64  87
ENDBRANCH  38  39
ENDBRANCH  31  33
ENDBRANCH  30  31
ENDBRANCH  29  30
ENDBRANCH  28  29
ENDBRANCH   1  28
TORSDOF 20
ENDMDL
MODEL 3
REMARK VINA RESULT:     -11.4      3.115      9.140
REMARK SMILES Cc1cc(C(=O)OCCOCCOC(=O)c2ccc(-c3c4nc(c(-c5cccc(S(=O)(=O)[O-])c5F)c5ccc([nH]5)c(-c5cccc(S(=O)(=O)[O-])c5F)c5nc(c(-c6cccc(S(=O)(=O)[O-])c6F)c6ccc3[nH]6)C=C5)C=C4)cc2)ccc1NS(=O)(=O)c1ccc2c(c1)CCC2
REMARK SMILES IDX 10 1 9 2 8 3 7 4 5 5 6 6 4 7 1 8 2 9 3 10 81 11 80 12 79 13
REMARK SMILES IDX 82 14 83 16 84 17 85 18 86 19 87 20 91 21 88 22 90 23 89 24
REMARK SMILES IDX 92 25 94 26 93 27 11 28 12 29 13 30 14 31 15 32 16 33 17 34
REMARK SMILES IDX 78 35 18 36 77 37 19 38 20 39 21 40 71 41 22 42 76 43 70 44
REMARK SMILES IDX 72 45 23 46 75 47 69 48 68 49 24 51 56 52 36 53 55 54 37 55
REMARK SMILES IDX 40 56 54 57 73 58 38 59 39 60 53 62 74 63 41 64 25 65 26 66
REMARK SMILES IDX 34 67 27 68 29 69 35 70 28 71 30 72 31 73 32 74 33 75 57 76
REMARK SMILES IDX 58 77 66 78 59 79 61 80 67 81 60 82 62 83 63 84 64 85 65 86
REMARK SMILES IDX 42 87 43 88 51 89 44 90 46 91 52 92 45 93 47 94 48 95 49 96
REMARK SMILES IDX 50 97
REMARK H PARENT 82 15 72 50 40 61
REMARK Flexibility Score: inf
ROOT
ATOM      1  O   UNL A   1      36.660  23.274  24.477  1.00  0.00    -0.374 OA
ENDROOT
BRANCH   1   2
ATOM      2  C   UNL A   1      36.591  21.874  24.282  1.00  0.00     0.202 C 
BRANCH   2   3
ATOM      3  C   UNL A   1      35.956  21.080  25.439  1.00  0.00     0.261 C 
BRANCH   3   4
ATOM      4  O   UNL A   1      34.690  20.561  25.092  1.00  0.00    -0.460 OA
BRANCH   4   5
ATOM      5  C   UNL A   1      33.705  20.964  25.923  1.00  0.00     0.338 C 
ATOM      6  O   UNL A   1      33.737  21.155  27.128  1.00  0.00    -0.246 OA
BRANCH   5   7
ATOM      7  C   UNL A   1      32.716  21.496  25.008  1.00  0.00     0.060 A 
ATOM      8  C   UNL A   1      30.875  24.726  25.154  1.00  0.00     0.046 C 
ATOM      9  C   UNL A   1      31.484  23.495  24.558  1.00  0.00    -0.026 A 
ATOM     10  C   UNL A   1      32.026  22.599  25.476  1.00  0.00     0.021 A 
ATOM     11  C   UNL A   1      31.626  23.233  23.176  1.00  0.00     0.052 A 
ATOM     12  C   UNL A   1      32.054  21.972  22.760  1.00  0.00     0.028 A 
ATOM     13  C   UNL A   1      32.700  21.144  23.664  1.00  0.00     0.018 A 
BRANCH  11  14
ATOM     14  N   UNL A   1      31.752  24.352  22.293  1.00  0.00    -0.279 N 
ATOM     15  H   UNL A   1      30.962  24.571  21.750  1.00  0.00     0.180 HD
BRANCH  14  16
ATOM     16  S   UNL A   1      33.090  25.328  22.083  1.00  0.00     0.261 S 
ATOM     17  O   UNL A   1      34.236  24.635  22.635  1.00  0.00    -0.201 OA
ATOM     18  O   UNL A   1      33.063  25.701  20.682  1.00  0.00    -0.201 OA
BRANCH  16  19
ATOM     19  C   UNL A   1      32.928  26.862  22.998  1.00  0.00     0.088 A 
ATOM     20  C   UNL A   1      31.901  27.794  22.774  1.00  0.00     0.022 A 
ATOM     21  C   UNL A   1      33.725  26.952  24.150  1.00  0.00     0.026 A 
ATOM     22  C   UNL A   1      31.479  28.626  23.824  1.00  0.00     0.005 A 
ATOM     23  C   UNL A   1      33.344  27.835  25.142  1.00  0.00    -0.043 A 
ATOM     24  C   UNL A   1      32.164  28.573  25.028  1.00  0.00    -0.045 A 
ATOM     25  C   UNL A   1      33.992  28.094  26.464  1.00  0.00     0.036 C 
ATOM     26  C   UNL A   1      31.795  29.174  26.354  1.00  0.00     0.036 C 
ATOM     27  C   UNL A   1      32.756  28.423  27.301  1.00  0.00     0.010 C 
ENDBRANCH  16  19
ENDBRANCH  14  16
ENDBRANCH  11  14
ENDBRANCH   5   7
ENDBRANCH   4   5
ENDBRANCH   3   4
ENDBRANCH   2   3
ENDBRANCH   1   2
BRANCH   1  28
ATOM     28  C   UNL A   1      36.749  23.646  25.848  1.00  0.00     0.202 C 
BRANCH  28  29
ATOM     29  C   UNL A   1      38.171  23.941  26.525  1.00  0.00     0.261 C 
BRANCH  29  30
ATOM     30  O   UNL A   1      39.269  23.077  26.016  1.00  0.00    -0.460 OA
BRANCH  30  31
ATOM     31  C   UNL A   1      39.747  21.831  26.377  1.00  0.00     0.338 C 
ATOM     32  O   UNL A   1      39.105  20.824  26.430  1.00  0.00    -0.246 OA
BRANCH  31  33
ATOM     33  C   UNL A   1      41.223  22.000  26.832  1.00  0.00     0.060 A 
ATOM     34  C   UNL A   1      41.545  22.404  28.128  1.00  0.00     0.016 A 
ATOM     35  C   UNL A   1      42.253  22.103  25.915  1.00  0.00     0.016 A 
ATOM     36  C   UNL A   1      42.553  23.367  28.355  1.00  0.00     0.010 A 
ATOM     37  C   UNL A   1      43.201  23.112  26.093  1.00  0.00     0.010 A 
ATOM     38  C   UNL A   1      43.228  23.880  27.270  1.00  0.00    -0.014 A 
BRANCH  38  39
ATOM     39  C   UNL A   1      43.845  25.223  27.184  1.00  0.00     0.031 A 
ATOM     40  C   UNL A   1      45.333  25.292  27.126  1.00  0.00     0.074 A 
ATOM     41  C   UNL A   1      43.121  26.337  26.848  1.00  0.00     0.049 A 
ATOM     42  N   UNL A   1      46.018  26.382  27.139  1.00  0.00    -0.248 NA
ATOM     43  C   UNL A   1      46.191  24.106  27.090  1.00  0.00     0.031 C 
ATOM     44  C   UNL A   1      43.666  27.526  26.173  1.00  0.00     0.029 A 
ATOM     45  N   UNL A   1      41.756  26.670  26.959  1.00  0.00    -0.354 N 
ATOM     46  C   UNL A   1      47.308  26.072  26.775  1.00  0.00     0.074 A 
ATOM     47  C   UNL A   1      47.397  24.645  26.895  1.00  0.00     0.031 C 
ATOM     48  C   UNL A   1      42.743  28.491  26.112  1.00  0.00     0.029 A 
ATOM     49  C   UNL A   1      41.628  28.069  26.926  1.00  0.00     0.049 A 
ATOM     50  H   UNL A   1      41.015  26.027  27.043  1.00  0.00     0.167 HD
ATOM     51  C   UNL A   1      48.115  27.061  26.305  1.00  0.00     0.034 A 
ATOM     52  C   UNL A   1      41.080  28.861  27.895  1.00  0.00     0.034 A 
ATOM     53  C   UNL A   1      47.466  28.374  26.475  1.00  0.00     0.049 A 
ATOM     54  C   UNL A   1      42.154  29.715  28.565  1.00  0.00     0.074 A 
ATOM     55  C   UNL A   1      46.862  29.265  25.606  1.00  0.00     0.029 A 
ATOM     56  N   UNL A   1      47.089  28.774  27.760  1.00  0.00    -0.354 N 
ATOM     57  N   UNL A   1      43.394  29.753  28.148  1.00  0.00    -0.248 NA
ATOM     58  C   UNL A   1      41.970  30.575  29.732  1.00  0.00     0.031 C 
ATOM     59  C   UNL A   1      46.015  30.118  26.381  1.00  0.00     0.029 A 
ATOM     60  C   UNL A   1      46.146  29.793  27.724  1.00  0.00     0.049 A 
ATOM     61  H   UNL A   1      47.448  28.380  28.588  1.00  0.00     0.167 HD
ATOM     62  C   UNL A   1      44.193  30.401  29.036  1.00  0.00     0.074 A 
ATOM     63  C   UNL A   1      43.233  30.989  29.959  1.00  0.00     0.031 C 
ATOM     64  C   UNL A   1      45.561  30.319  28.971  1.00  0.00     0.034 A 
BRANCH  51  65
ATOM     65  C   UNL A   1      49.444  26.862  25.585  1.00  0.00     0.023 A 
ATOM     66  C   UNL A   1      50.533  26.424  26.371  1.00  0.00     0.012 A 
ATOM     67  C   UNL A   1      49.739  27.134  24.220  1.00  0.00     0.148 A 
ATOM     68  C   UNL A   1      51.822  26.257  25.848  1.00  0.00     0.002 A 
ATOM     69  C   UNL A   1      51.011  26.900  23.681  1.00  0.00     0.091 A 
ATOM     70  F   UNL A   1      48.823  27.712  23.437  1.00  0.00    -0.205 F 
ATOM     71  C   UNL A   1      52.059  26.474  24.499  1.00  0.00     0.022 A 
BRANCH  69  72
ATOM     72  S   UNL A   1      51.392  27.104  21.926  1.00  0.00     0.127 S 
ATOM     73  O   UNL A   1      51.480  28.557  21.794  1.00  0.00    -0.237 OA
ATOM     74  O   UNL A   1      52.672  26.406  21.799  1.00  0.00    -0.237 OA
ATOM     75  O   UNL A   1      50.295  26.483  21.192  1.00  0.00    -0.744 OA
ENDBRANCH  69  72
ENDBRANCH  51  65
BRANCH  52  76
ATOM     76  C   UNL A   1      39.836  28.299  28.483  1.00  0.00     0.023 A 
ATOM     77  C   UNL A   1      40.030  27.368  29.539  1.00  0.00     0.012 A 
ATOM     78  C   UNL A   1      38.646  29.032  28.429  1.00  0.00     0.148 A 
ATOM     79  C   UNL A   1      39.149  27.305  30.617  1.00  0.00     0.002 A 
ATOM     80  C   UNL A   1      37.808  29.009  29.539  1.00  0.00     0.091 A 
ATOM     81  F   UNL A   1      38.453  29.862  27.397  1.00  0.00    -0.205 F 
ATOM     82  C   UNL A   1      38.066  28.166  30.637  1.00  0.00     0.022 A 
BRANCH  80  83
ATOM     83  S   UNL A   1      36.673  30.352  29.881  1.00  0.00     0.127 S 
ATOM     84  O   UNL A   1      35.701  30.246  28.801  1.00  0.00    -0.237 OA
ATOM     85  O   UNL A   1      36.184  29.912  31.182  1.00  0.00    -0.237 OA
ATOM     86  O   UNL A   1      37.482  31.560  29.897  1.00  0.00    -0.744 OA
ENDBRANCH  80  83
ENDBRANCH  52  76
BRANCH  64  87
ATOM     87  C   UNL A   1      46.472  30.729  30.116  1.00  0.00     0.023 A 
ATOM     88  C   UNL A   1      46.459  30.054  31.354  1.00  0.00     0.012 A 
ATOM     89  C   UNL A   1      47.473  31.718  29.948  1.00  0.00     0.148 A 
ATOM     90  C   UNL A   1      47.301  30.417  32.408  1.00  0.00     0.002 A 
ATOM     91  C   UNL A   1      48.405  31.971  30.950  1.00  0.00     0.091 A 
ATOM     92  F   UNL A   1      47.520  32.442  28.822  1.00  0.00    -0.205 F 
ATOM     93  C   UNL A   1      48.289  31.365  32.201  1.00  0.00     0.022 A 
BRANCH  91  94
ATOM     94  S   UNL A   1      49.883  32.941  30.623  1.00  0.00     0.127 S 
ATOM     95  O   UNL A   1      49.328  34.279  30.433  1.00  0.00    -0.237 OA
ATOM     96  O   UNL A   1      50.647  32.767  31.860  1.00  0.00    -0.237 OA
ATOM     97  O   UNL A   1      50.495  32.325  29.454  1.00  0.00    -0.744 OA
ENDBRANCH  91  94
ENDBRANCH  64  87
ENDBRANCH  38  39
ENDBRANCH  31  33
ENDBRANCH  30  31
ENDBRANCH  29  30
ENDBRANCH  28  29
ENDBRANCH   1  28
TORSDOF 20
ENDMDL
