MODEL 1
REMARK VINA RESULT:     -11.4      0.000      0.000
REMARK SMILES Cc1ccc(-c2ncccc2C(=O)OCCOCCOC(=O)c2ccc(-c3c4nc(c(-c5cccc(S(=O)(=O)[O-])c5F)c5ccc([nH]5)c(-c5cccc(S(=O)(=O)[O-])c5F)c5nc(c(-c6cccc(S(=O)(=O)[O-])c6F)c6ccc3[nH]6)C=C5)C=C4)cc2)c(Cl)c1
REMARK SMILES IDX 18 1 17 2 16 3 15 4 14 5 12 6 13 7 11 8 6 9 7 10 8 11 10 12
REMARK SMILES IDX 9 13 5 14 1 15 2 16 3 17 88 18 4 19 86 20 87 21 19 22 20 23
REMARK SMILES IDX 21 24 22 25 23 26 24 27 85 28 25 29 84 30 26 31 27 32 28 33
REMARK SMILES IDX 78 34 29 35 83 36 77 37 79 38 30 39 82 40 76 41 75 42 31 44
REMARK SMILES IDX 63 45 43 46 62 47 44 48 47 49 61 50 80 51 45 52 46 53 60 55
REMARK SMILES IDX 81 56 48 57 32 58 33 59 41 60 34 61 36 62 42 63 35 64 37 65
REMARK SMILES IDX 38 66 39 67 40 68 64 69 65 70 73 71 66 72 68 73 74 74 67 75
REMARK SMILES IDX 69 76 70 77 71 78 72 79 49 80 50 81 58 82 51 83 53 84 59 85
REMARK SMILES IDX 52 86 54 87 55 88 56 89 57 90
REMARK H PARENT 79 43 47 54
REMARK Flexibility Score: inf
ROOT
ATOM      1  C   UNL A   1      31.483  28.828  24.754  1.00  0.00     0.202 C 
ENDROOT
BRANCH   1   2
ATOM      2  O   UNL A   1      32.472  27.812  24.640  1.00  0.00    -0.374 OA
BRANCH   2   3
ATOM      3  C   UNL A   1      32.133  26.646  23.886  1.00  0.00     0.202 C 
BRANCH   3   4
ATOM      4  C   UNL A   1      33.160  26.131  22.874  1.00  0.00     0.261 C 
BRANCH   4   5
ATOM      5  O   UNL A   1      34.152  25.309  23.516  1.00  0.00    -0.460 OA
BRANCH   5   6
ATOM      6  C   UNL A   1      34.326  24.077  22.975  1.00  0.00     0.340 C 
ATOM      7  O   UNL A   1      33.922  23.708  21.886  1.00  0.00    -0.246 OA
BRANCH   6   8
ATOM      8  C   UNL A   1      35.189  23.267  23.864  1.00  0.00     0.086 A 
ATOM      9  C   UNL A   1      34.703  22.751  25.075  1.00  0.00     0.086 A 
ATOM     10  N   UNL A   1      35.478  22.003  25.910  1.00  0.00    -0.255 NA
ATOM     11  C   UNL A   1      36.762  21.788  25.542  1.00  0.00     0.112 A 
ATOM     12  C   UNL A   1      36.510  22.983  23.496  1.00  0.00     0.019 A 
ATOM     13  C   UNL A   1      37.312  22.236  24.353  1.00  0.00     0.021 A 
BRANCH   9  14
ATOM     14  C   UNL A   1      33.291  22.832  25.481  1.00  0.00     0.020 A 
ATOM     15  C   UNL A   1      29.367  22.825  27.313  1.00  0.00     0.044 C 
ATOM     16  C   UNL A   1      30.705  22.871  26.636  1.00  0.00    -0.050 A 
ATOM     17  C   UNL A   1      31.621  23.880  26.930  1.00  0.00     0.004 A 
ATOM     18  C   UNL A   1      31.049  21.902  25.685  1.00  0.00     0.024 A 
ATOM     19  C   UNL A   1      32.892  23.867  26.349  1.00  0.00     0.012 A 
ATOM     20  C   UNL A   1      32.326  21.884  25.108  1.00  0.00     0.050 A 
ATOM     21  Cl  UNL A   1      32.667  20.649  23.944  1.00  0.00    -0.084 Cl
ENDBRANCH   9  14
ENDBRANCH   6   8
ENDBRANCH   5   6
ENDBRANCH   4   5
ENDBRANCH   3   4
ENDBRANCH   2   3
ENDBRANCH   1   2
BRANCH   1  22
ATOM     22  C   UNL A   1      31.727  29.990  25.726  1.00  0.00     0.261 C 
BRANCH  22  23
ATOM     23  O   UNL A   1      33.107  30.226  26.010  1.00  0.00    -0.460 OA
BRANCH  23  24
ATOM     24  C   UNL A   1      33.324  31.214  26.914  1.00  0.00     0.338 C 
ATOM     25  O   UNL A   1      32.543  32.083  27.268  1.00  0.00    -0.246 OA
BRANCH  24  26
ATOM     26  C   UNL A   1      34.621  30.973  27.566  1.00  0.00     0.060 A 
ATOM     27  C   UNL A   1      34.915  29.664  27.970  1.00  0.00     0.016 A 
ATOM     28  C   UNL A   1      35.530  32.011  27.770  1.00  0.00     0.016 A 
ATOM     29  C   UNL A   1      36.130  29.388  28.590  1.00  0.00     0.010 A 
ATOM     30  C   UNL A   1      36.739  31.735  28.407  1.00  0.00     0.010 A 
ATOM     31  C   UNL A   1      37.037  30.427  28.833  1.00  0.00    -0.014 A 
BRANCH  31  32
ATOM     32  C   UNL A   1      38.266  30.176  29.616  1.00  0.00     0.031 A 
ATOM     33  C   UNL A   1      39.281  29.209  29.084  1.00  0.00     0.074 A 
ATOM     34  C   UNL A   1      38.442  30.774  30.808  1.00  0.00     0.049 A 
ATOM     35  N   UNL A   1      40.368  28.759  29.650  1.00  0.00    -0.248 NA
ATOM     36  C   UNL A   1      39.035  28.672  27.735  1.00  0.00     0.031 C 
ATOM     37  C   UNL A   1      37.523  31.737  31.412  1.00  0.00     0.029 A 
ATOM     38  N   UNL A   1      39.437  30.624  31.739  1.00  0.00    -0.354 N 
ATOM     39  C   UNL A   1      40.919  27.860  28.747  1.00  0.00     0.074 A 
ATOM     40  C   UNL A   1      40.044  27.825  27.595  1.00  0.00     0.031 C 
ATOM     41  C   UNL A   1      37.977  32.062  32.634  1.00  0.00     0.029 A 
ATOM     42  C   UNL A   1      39.192  31.300  32.911  1.00  0.00     0.049 A 
ATOM     43  H   UNL A   1      40.247  30.085  31.584  1.00  0.00     0.167 HD
ATOM     44  C   UNL A   1      42.054  27.134  28.867  1.00  0.00     0.034 A 
ATOM     45  C   UNL A   1      39.850  31.270  34.087  1.00  0.00     0.034 A 
ATOM     46  C   UNL A   1      42.918  27.182  30.015  1.00  0.00     0.049 A 
ATOM     47  C   UNL A   1      41.081  30.412  34.214  1.00  0.00     0.074 A 
ATOM     48  C   UNL A   1      44.122  26.531  30.212  1.00  0.00     0.029 A 
ATOM     49  N   UNL A   1      42.658  27.901  31.172  1.00  0.00    -0.354 N 
ATOM     50  N   UNL A   1      41.663  29.662  33.308  1.00  0.00    -0.248 NA
ATOM     51  C   UNL A   1      41.759  30.409  35.519  1.00  0.00     0.031 C 
ATOM     52  C   UNL A   1      44.568  26.821  31.506  1.00  0.00     0.029 A 
ATOM     53  C   UNL A   1      43.661  27.685  32.100  1.00  0.00     0.049 A 
ATOM     54  H   UNL A   1      41.874  28.481  31.312  1.00  0.00     0.167 HD
ATOM     55  C   UNL A   1      42.785  29.118  33.924  1.00  0.00     0.074 A 
ATOM     56  C   UNL A   1      42.816  29.646  35.273  1.00  0.00     0.031 C 
ATOM     57  C   UNL A   1      43.697  28.246  33.427  1.00  0.00     0.034 A 
BRANCH  44  58
ATOM     58  C   UNL A   1      42.429  26.224  27.728  1.00  0.00     0.023 A 
ATOM     59  C   UNL A   1      43.323  26.674  26.735  1.00  0.00     0.012 A 
ATOM     60  C   UNL A   1      41.940  24.904  27.672  1.00  0.00     0.148 A 
ATOM     61  C   UNL A   1      43.698  25.835  25.686  1.00  0.00     0.002 A 
ATOM     62  C   UNL A   1      42.355  24.060  26.650  1.00  0.00     0.091 A 
ATOM     63  F   UNL A   1      41.073  24.504  28.614  1.00  0.00    -0.205 F 
ATOM     64  C   UNL A   1      43.223  24.527  25.651  1.00  0.00     0.022 A 
BRANCH  62  65
ATOM     65  S   UNL A   1      41.862  22.336  26.558  1.00  0.00     0.127 S 
ATOM     66  O   UNL A   1      40.403  22.447  26.540  1.00  0.00    -0.237 OA
ATOM     67  O   UNL A   1      42.456  21.915  25.289  1.00  0.00    -0.237 OA
ATOM     68  O   UNL A   1      42.421  21.692  27.737  1.00  0.00    -0.744 OA
ENDBRANCH  62  65
ENDBRANCH  44  58
BRANCH  45  69
ATOM     69  C   UNL A   1      39.354  32.075  35.238  1.00  0.00     0.023 A 
ATOM     70  C   UNL A   1      38.412  31.519  36.123  1.00  0.00     0.012 A 
ATOM     71  C   UNL A   1      39.825  33.383  35.469  1.00  0.00     0.148 A 
ATOM     72  C   UNL A   1      37.926  32.260  37.202  1.00  0.00     0.002 A 
ATOM     73  C   UNL A   1      39.381  34.094  36.578  1.00  0.00     0.091 A 
ATOM     74  F   UNL A   1      40.711  33.901  34.606  1.00  0.00    -0.205 F 
ATOM     75  C   UNL A   1      38.418  33.541  37.435  1.00  0.00     0.022 A 
BRANCH  73  76
ATOM     76  S   UNL A   1      40.056  35.697  37.029  1.00  0.00     0.127 S 
ATOM     77  O   UNL A   1      39.619  36.531  35.913  1.00  0.00    -0.237 OA
ATOM     78  O   UNL A   1      39.379  35.960  38.298  1.00  0.00    -0.237 OA
ATOM     79  O   UNL A   1      41.495  35.501  37.145  1.00  0.00    -0.744 OA
ENDBRANCH  73  76
ENDBRANCH  45  69
BRANCH  57  80
ATOM     80  C   UNL A   1      44.821  27.814  34.332  1.00  0.00     0.023 A 
ATOM     81  C   UNL A   1      46.003  28.578  34.391  1.00  0.00     0.012 A 
ATOM     82  C   UNL A   1      44.670  26.707  35.190  1.00  0.00     0.148 A 
ATOM     83  C   UNL A   1      47.028  28.232  35.270  1.00  0.00     0.002 A 
ATOM     84  C   UNL A   1      45.673  26.397  36.100  1.00  0.00     0.091 A 
ATOM     85  F   UNL A   1      43.541  25.987  35.110  1.00  0.00    -0.205 F 
ATOM     86  C   UNL A   1      46.858  27.151  36.133  1.00  0.00     0.022 A 
BRANCH  84  87
ATOM     87  S   UNL A   1      45.509  25.085  37.315  1.00  0.00     0.127 S 
ATOM     88  O   UNL A   1      46.799  25.152  38.001  1.00  0.00    -0.237 OA
ATOM     89  O   UNL A   1      44.370  25.543  38.110  1.00  0.00    -0.237 OA
ATOM     90  O   UNL A   1      45.274  23.861  36.562  1.00  0.00    -0.744 OA
ENDBRANCH  84  87
ENDBRANCH  57  80
ENDBRANCH  31  32
ENDBRANCH  24  26
ENDBRANCH  23  24
ENDBRANCH  22  23
ENDBRANCH   1  22
TORSDOF 18
ENDMDL
MODEL 2
REMARK VINA RESULT:     -11.3      1.201      2.178
REMARK SMILES Cc1ccc(-c2ncccc2C(=O)OCCOCCOC(=O)c2ccc(-c3c4nc(c(-c5cccc(S(=O)(=O)[O-])c5F)c5ccc([nH]5)c(-c5cccc(S(=O)(=O)[O-])c5F)c5nc(c(-c6cccc(S(=O)(=O)[O-])c6F)c6ccc3[nH]6)C=C5)C=C4)cc2)c(Cl)c1
REMARK SMILES IDX 18 1 17 2 16 3 15 4 14 5 12 6 13 7 11 8 6 9 7 10 8 11 10 12
REMARK SMILES IDX 9 13 5 14 1 15 2 16 3 17 88 18 4 19 86 20 87 21 19 22 20 23
REMARK SMILES IDX 21 24 22 25 23 26 24 27 85 28 25 29 84 30 26 31 27 32 28 33
REMARK SMILES IDX 78 34 29 35 83 36 77 37 79 38 30 39 82 40 76 41 75 42 31 44
REMARK SMILES IDX 63 45 43 46 62 47 44 48 47 49 61 50 80 51 45 52 46 53 60 55
REMARK SMILES IDX 81 56 48 57 32 58 33 59 41 60 34 61 36 62 42 63 35 64 37 65
REMARK SMILES IDX 38 66 39 67 40 68 64 69 65 70 73 71 66 72 68 73 74 74 67 75
REMARK SMILES IDX 69 76 70 77 71 78 72 79 49 80 50 81 58 82 51 83 53 84 59 85
REMARK SMILES IDX 52 86 54 87 55 88 56 89 57 90
REMARK H PARENT 79 43 47 54
REMARK Flexibility Score: inf
ROOT
ATOM      1  C   UNL A   1      31.132  29.394  24.907  1.00  0.00     0.202 C 
ENDROOT
BRANCH   1   2
ATOM      2  O   UNL A   1      30.858  28.112  25.460  1.00  0.00    -0.374 OA
BRANCH   2   3
ATOM      3  C   UNL A   1      30.440  27.084  24.560  1.00  0.00     0.202 C 
BRANCH   3   4
ATOM      4  C   UNL A   1      29.803  25.828  25.162  1.00  0.00     0.261 C 
BRANCH   4   5
ATOM      5  O   UNL A   1      30.760  25.084  25.939  1.00  0.00    -0.460 OA
BRANCH   5   6
ATOM      6  C   UNL A   1      31.164  23.909  25.394  1.00  0.00     0.340 C 
ATOM      7  O   UNL A   1      30.670  23.360  24.425  1.00  0.00    -0.246 OA
BRANCH   6   8
ATOM      8  C   UNL A   1      32.384  23.439  26.089  1.00  0.00     0.086 A 
ATOM      9  C   UNL A   1      33.649  23.956  25.765  1.00  0.00     0.086 A 
ATOM     10  N   UNL A   1      34.786  23.540  26.391  1.00  0.00    -0.255 NA
ATOM     11  C   UNL A   1      34.661  22.578  27.334  1.00  0.00     0.112 A 
ATOM     12  C   UNL A   1      32.291  22.480  27.104  1.00  0.00     0.019 A 
ATOM     13  C   UNL A   1      33.451  22.037  27.733  1.00  0.00     0.021 A 
BRANCH   9  14
ATOM     14  C   UNL A   1      33.849  25.088  24.847  1.00  0.00     0.020 A 
ATOM     15  C   UNL A   1      33.762  28.601  22.316  1.00  0.00     0.044 C 
ATOM     16  C   UNL A   1      33.856  27.387  23.193  1.00  0.00    -0.050 A 
ATOM     17  C   UNL A   1      34.015  27.514  24.573  1.00  0.00     0.004 A 
ATOM     18  C   UNL A   1      33.798  26.105  22.634  1.00  0.00     0.024 A 
ATOM     19  C   UNL A   1      34.025  26.377  25.386  1.00  0.00     0.012 A 
ATOM     20  C   UNL A   1      33.800  24.965  23.450  1.00  0.00     0.050 A 
ATOM     21  Cl  UNL A   1      33.721  23.420  22.675  1.00  0.00    -0.084 Cl
ENDBRANCH   9  14
ENDBRANCH   6   8
ENDBRANCH   5   6
ENDBRANCH   4   5
ENDBRANCH   3   4
ENDBRANCH   2   3
ENDBRANCH   1   2
BRANCH   1  22
ATOM     22  C   UNL A   1      31.504  30.542  25.855  1.00  0.00     0.261 C 
BRANCH  22  23
ATOM     23  O   UNL A   1      32.873  30.534  26.264  1.00  0.00    -0.460 OA
BRANCH  23  24
ATOM     24  C   UNL A   1      33.221  31.582  27.051  1.00  0.00     0.338 C 
ATOM     25  O   UNL A   1      32.540  32.554  27.338  1.00  0.00    -0.246 OA
BRANCH  24  26
ATOM     26  C   UNL A   1      34.517  31.284  27.679  1.00  0.00     0.060 A 
ATOM     27  C   UNL A   1      34.777  29.956  28.041  1.00  0.00     0.016 A 
ATOM     28  C   UNL A   1      35.460  32.288  27.902  1.00  0.00     0.016 A 
ATOM     29  C   UNL A   1      35.990  29.626  28.638  1.00  0.00     0.010 A 
ATOM     30  C   UNL A   1      36.668  31.958  28.515  1.00  0.00     0.010 A 
ATOM     31  C   UNL A   1      36.930  30.630  28.899  1.00  0.00    -0.014 A 
BRANCH  31  32
ATOM     32  C   UNL A   1      38.160  30.320  29.659  1.00  0.00     0.031 A 
ATOM     33  C   UNL A   1      39.145  29.346  29.082  1.00  0.00     0.074 A 
ATOM     34  C   UNL A   1      38.364  30.870  30.869  1.00  0.00     0.049 A 
ATOM     35  N   UNL A   1      40.225  28.849  29.620  1.00  0.00    -0.248 NA
ATOM     36  C   UNL A   1      38.870  28.865  27.718  1.00  0.00     0.031 C 
ATOM     37  C   UNL A   1      37.477  31.835  31.517  1.00  0.00     0.029 A 
ATOM     38  N   UNL A   1      39.364  30.662  31.784  1.00  0.00    -0.354 N 
ATOM     39  C   UNL A   1      40.743  27.969  28.680  1.00  0.00     0.074 A 
ATOM     40  C   UNL A   1      39.856  27.997  27.537  1.00  0.00     0.031 C 
ATOM     41  C   UNL A   1      37.952  32.105  32.745  1.00  0.00     0.029 A 
ATOM     42  C   UNL A   1      39.149  31.302  32.981  1.00  0.00     0.049 A 
ATOM     43  H   UNL A   1      40.158  30.108  31.601  1.00  0.00     0.167 HD
ATOM     44  C   UNL A   1      41.860  27.210  28.762  1.00  0.00     0.034 A 
ATOM     45  C   UNL A   1      39.819  31.214  34.148  1.00  0.00     0.034 A 
ATOM     46  C   UNL A   1      42.737  27.195  29.901  1.00  0.00     0.049 A 
ATOM     47  C   UNL A   1      41.027  30.320  34.232  1.00  0.00     0.074 A 
ATOM     48  C   UNL A   1      43.925  26.507  30.062  1.00  0.00     0.029 A 
ATOM     49  N   UNL A   1      42.508  27.879  31.085  1.00  0.00    -0.354 N 
ATOM     50  N   UNL A   1      41.580  29.588  33.293  1.00  0.00    -0.248 NA
ATOM     51  C   UNL A   1      41.718  30.253  35.528  1.00  0.00     0.031 C 
ATOM     52  C   UNL A   1      44.392  26.739  31.360  1.00  0.00     0.029 A 
ATOM     53  C   UNL A   1      43.514  27.604  31.994  1.00  0.00     0.049 A 
ATOM     54  H   UNL A   1      41.740  28.474  31.254  1.00  0.00     0.167 HD
ATOM     55  C   UNL A   1      42.694  28.994  33.877  1.00  0.00     0.074 A 
ATOM     56  C   UNL A   1      42.753  29.473  35.243  1.00  0.00     0.031 C 
ATOM     57  C   UNL A   1      43.578  28.117  33.339  1.00  0.00     0.034 A 
BRANCH  44  58
ATOM     58  C   UNL A   1      42.200  26.332  27.587  1.00  0.00     0.023 A 
ATOM     59  C   UNL A   1      42.950  26.854  26.514  1.00  0.00     0.012 A 
ATOM     60  C   UNL A   1      41.824  24.975  27.573  1.00  0.00     0.148 A 
ATOM     61  C   UNL A   1      43.293  26.046  25.429  1.00  0.00     0.002 A 
ATOM     62  C   UNL A   1      42.208  24.166  26.511  1.00  0.00     0.091 A 
ATOM     63  F   UNL A   1      41.090  24.504  28.593  1.00  0.00    -0.205 F 
ATOM     64  C   UNL A   1      42.932  24.702  25.434  1.00  0.00     0.022 A 
BRANCH  62  65
ATOM     65  S   UNL A   1      41.859  22.405  26.459  1.00  0.00     0.127 S 
ATOM     66  O   UNL A   1      40.398  22.396  26.380  1.00  0.00    -0.237 OA
ATOM     67  O   UNL A   1      42.538  21.995  25.230  1.00  0.00    -0.237 OA
ATOM     68  O   UNL A   1      42.418  21.846  27.681  1.00  0.00    -0.744 OA
ENDBRANCH  62  65
ENDBRANCH  44  58
BRANCH  45  69
ATOM     69  C   UNL A   1      39.355  31.990  35.333  1.00  0.00     0.023 A 
ATOM     70  C   UNL A   1      38.478  31.394  36.257  1.00  0.00     0.012 A 
ATOM     71  C   UNL A   1      39.795  33.310  35.556  1.00  0.00     0.148 A 
ATOM     72  C   UNL A   1      38.023  32.107  37.367  1.00  0.00     0.002 A 
ATOM     73  C   UNL A   1      39.385  33.994  36.693  1.00  0.00     0.091 A 
ATOM     74  F   UNL A   1      40.620  33.866  34.656  1.00  0.00    -0.205 F 
ATOM     75  C   UNL A   1      38.484  33.401  37.591  1.00  0.00     0.022 A 
BRANCH  73  76
ATOM     76  S   UNL A   1      40.030  35.613  37.130  1.00  0.00     0.127 S 
ATOM     77  O   UNL A   1      41.458  35.341  37.263  1.00  0.00    -0.237 OA
ATOM     78  O   UNL A   1      39.658  36.408  35.959  1.00  0.00    -0.237 OA
ATOM     79  O   UNL A   1      39.343  35.995  38.357  1.00  0.00    -0.744 OA
ENDBRANCH  73  76
ENDBRANCH  45  69
BRANCH  57  80
ATOM     80  C   UNL A   1      44.700  27.624  34.216  1.00  0.00     0.023 A 
ATOM     81  C   UNL A   1      45.893  28.367  34.305  1.00  0.00     0.012 A 
ATOM     82  C   UNL A   1      44.536  26.479  35.020  1.00  0.00     0.148 A 
ATOM     83  C   UNL A   1      46.917  27.963  35.161  1.00  0.00     0.002 A 
ATOM     84  C   UNL A   1      45.538  26.110  35.908  1.00  0.00     0.091 A 
ATOM     85  F   UNL A   1      43.396  25.781  34.911  1.00  0.00    -0.205 F 
ATOM     86  C   UNL A   1      46.735  26.843  35.971  1.00  0.00     0.022 A 
BRANCH  84  87
ATOM     87  S   UNL A   1      45.360  24.743  37.058  1.00  0.00     0.127 S 
ATOM     88  O   UNL A   1      45.338  23.594  36.154  1.00  0.00    -0.237 OA
ATOM     89  O   UNL A   1      46.575  24.860  37.865  1.00  0.00    -0.237 OA
ATOM     90  O   UNL A   1      44.121  24.982  37.784  1.00  0.00    -0.744 OA
ENDBRANCH  84  87
ENDBRANCH  57  80
ENDBRANCH  31  32
ENDBRANCH  24  26
ENDBRANCH  23  24
ENDBRANCH  22  23
ENDBRANCH   1  22
TORSDOF 18
ENDMDL
MODEL 3
REMARK VINA RESULT:     -11.2      2.366      8.239
REMARK SMILES Cc1ccc(-c2ncccc2C(=O)OCCOCCOC(=O)c2ccc(-c3c4nc(c(-c5cccc(S(=O)(=O)[O-])c5F)c5ccc([nH]5)c(-c5cccc(S(=O)(=O)[O-])c5F)c5nc(c(-c6cccc(S(=O)(=O)[O-])c6F)c6ccc3[nH]6)C=C5)C=C4)cc2)c(Cl)c1
REMARK SMILES IDX 18 1 17 2 16 3 15 4 14 5 12 6 13 7 11 8 6 9 7 10 8 11 10 12
REMARK SMILES IDX 9 13 5 14 1 15 2 16 3 17 88 18 4 19 86 20 87 21 19 22 20 23
REMARK SMILES IDX 21 24 22 25 23 26 24 27 85 28 25 29 84 30 26 31 27 32 28 33
REMARK SMILES IDX 78 34 29 35 83 36 77 37 79 38 30 39 82 40 76 41 75 42 31 44
REMARK SMILES IDX 63 45 43 46 62 47 44 48 47 49 61 50 80 51 45 52 46 53 60 55
REMARK SMILES IDX 81 56 48 57 32 58 33 59 41 60 34 61 36 62 42 63 35 64 37 65
REMARK SMILES IDX 38 66 39 67 40 68 64 69 65 70 73 71 66 72 68 73 74 74 67 75
REMARK SMILES IDX 69 76 70 77 71 78 72 79 49 80 50 81 58 82 51 83 53 84 59 85
REMARK SMILES IDX 52 86 54 87 55 88 56 89 57 90
REMARK H PARENT 79 43 47 54
REMARK Flexibility Score: inf
ROOT
ATOM      1  C   UNL A   1      31.450  31.945  26.584  1.00  0.00     0.202 C 
ENDROOT
BRANCH   1   2
ATOM      2  O   UNL A   1      32.074  30.826  27.204  1.00  0.00    -0.374 OA
BRANCH   2   3
ATOM      3  C   UNL A   1      33.377  30.462  26.744  1.00  0.00     0.202 C 
BRANCH   3   4
ATOM      4  C   UNL A   1      33.924  29.096  27.168  1.00  0.00     0.261 C 
BRANCH   4   5
ATOM      5  O   UNL A   1      33.931  28.176  26.062  1.00  0.00    -0.460 OA
BRANCH   5   6
ATOM      6  C   UNL A   1      33.041  27.155  26.149  1.00  0.00     0.340 C 
ATOM      7  O   UNL A   1      32.098  27.089  26.918  1.00  0.00    -0.246 OA
BRANCH   6   8
ATOM      8  C   UNL A   1      33.318  26.169  25.079  1.00  0.00     0.086 A 
ATOM      9  C   UNL A   1      32.531  26.118  23.918  1.00  0.00     0.086 A 
ATOM     10  N   UNL A   1      32.766  25.220  22.920  1.00  0.00    -0.255 NA
ATOM     11  C   UNL A   1      33.784  24.346  23.095  1.00  0.00     0.112 A 
ATOM     12  C   UNL A   1      34.392  25.280  25.202  1.00  0.00     0.019 A 
ATOM     13  C   UNL A   1      34.625  24.348  24.196  1.00  0.00     0.021 A 
BRANCH   9  14
ATOM     14  C   UNL A   1      31.493  27.111  23.598  1.00  0.00     0.020 A 
ATOM     15  C   UNL A   1      28.283  29.602  22.101  1.00  0.00     0.044 C 
ATOM     16  C   UNL A   1      29.388  28.766  22.678  1.00  0.00    -0.050 A 
ATOM     17  C   UNL A   1      29.105  27.600  23.388  1.00  0.00     0.004 A 
ATOM     18  C   UNL A   1      30.724  29.155  22.519  1.00  0.00     0.024 A 
ATOM     19  C   UNL A   1      30.146  26.791  23.853  1.00  0.00     0.012 A 
ATOM     20  C   UNL A   1      31.768  28.339  22.979  1.00  0.00     0.050 A 
ATOM     21  Cl  UNL A   1      33.389  28.895  22.738  1.00  0.00    -0.084 Cl
ENDBRANCH   9  14
ENDBRANCH   6   8
ENDBRANCH   5   6
ENDBRANCH   4   5
ENDBRANCH   3   4
ENDBRANCH   2   3
ENDBRANCH   1   2
BRANCH   1  22
ATOM     22  C   UNL A   1      32.025  33.345  26.839  1.00  0.00     0.261 C 
BRANCH  22  23
ATOM     23  O   UNL A   1      32.686  33.479  28.098  1.00  0.00    -0.460 OA
BRANCH  23  24
ATOM     24  C   UNL A   1      33.850  34.173  28.039  1.00  0.00     0.338 C 
ATOM     25  O   UNL A   1      34.003  35.346  27.738  1.00  0.00    -0.246 OA
BRANCH  24  26
ATOM     26  C   UNL A   1      34.925  33.329  28.585  1.00  0.00     0.060 A 
ATOM     27  C   UNL A   1      34.562  32.291  29.454  1.00  0.00     0.016 A 
ATOM     28  C   UNL A   1      36.260  33.549  28.245  1.00  0.00     0.016 A 
ATOM     29  C   UNL A   1      35.543  31.466  29.995  1.00  0.00     0.010 A 
ATOM     30  C   UNL A   1      37.243  32.731  28.801  1.00  0.00     0.010 A 
ATOM     31  C   UNL A   1      36.890  31.699  29.689  1.00  0.00    -0.014 A 
BRANCH  31  32
ATOM     32  C   UNL A   1      37.952  30.923  30.366  1.00  0.00     0.031 A 
ATOM     33  C   UNL A   1      38.318  31.272  31.779  1.00  0.00     0.074 A 
ATOM     34  C   UNL A   1      38.608  29.954  29.704  1.00  0.00     0.049 A 
ATOM     35  N   UNL A   1      39.283  30.801  32.520  1.00  0.00    -0.248 NA
ATOM     36  C   UNL A   1      37.486  32.290  32.441  1.00  0.00     0.031 C 
ATOM     37  C   UNL A   1      38.326  29.529  28.334  1.00  0.00     0.029 A 
ATOM     38  N   UNL A   1      39.674  29.181  30.086  1.00  0.00    -0.354 N 
ATOM     39  C   UNL A   1      39.203  31.489  33.724  1.00  0.00     0.074 A 
ATOM     40  C   UNL A   1      38.094  32.413  33.612  1.00  0.00     0.031 C 
ATOM     41  C   UNL A   1      39.226  28.598  27.974  1.00  0.00     0.029 A 
ATOM     42  C   UNL A   1      40.167  28.394  29.072  1.00  0.00     0.049 A 
ATOM     43  H   UNL A   1      40.050  29.188  30.997  1.00  0.00     0.167 HD
ATOM     44  C   UNL A   1      39.981  31.358  34.823  1.00  0.00     0.034 A 
ATOM     45  C   UNL A   1      41.278  27.632  29.023  1.00  0.00     0.034 A 
ATOM     46  C   UNL A   1      41.076  30.433  34.924  1.00  0.00     0.049 A 
ATOM     47  C   UNL A   1      42.159  27.544  30.241  1.00  0.00     0.074 A 
ATOM     48  C   UNL A   1      41.889  30.180  36.013  1.00  0.00     0.029 A 
ATOM     49  N   UNL A   1      41.530  29.628  33.890  1.00  0.00    -0.354 N 
ATOM     50  N   UNL A   1      42.000  28.104  31.417  1.00  0.00    -0.248 NA
ATOM     51  C   UNL A   1      43.362  26.705  30.135  1.00  0.00     0.031 C 
ATOM     52  C   UNL A   1      42.864  29.255  35.623  1.00  0.00     0.029 A 
ATOM     53  C   UNL A   1      42.632  28.901  34.303  1.00  0.00     0.049 A 
ATOM     54  H   UNL A   1      41.125  29.581  32.992  1.00  0.00     0.167 HD
ATOM     55  C   UNL A   1      43.066  27.667  32.196  1.00  0.00     0.074 A 
ATOM     56  C   UNL A   1      43.850  26.775  31.366  1.00  0.00     0.031 C 
ATOM     57  C   UNL A   1      43.380  27.989  33.476  1.00  0.00     0.034 A 
BRANCH  44  58
ATOM     58  C   UNL A   1      39.675  32.236  36.007  1.00  0.00     0.023 A 
ATOM     59  C   UNL A   1      40.338  33.471  36.156  1.00  0.00     0.012 A 
ATOM     60  C   UNL A   1      38.691  31.862  36.943  1.00  0.00     0.148 A 
ATOM     61  C   UNL A   1      40.049  34.305  37.236  1.00  0.00     0.002 A 
ATOM     62  C   UNL A   1      38.376  32.719  37.989  1.00  0.00     0.091 A 
ATOM     63  F   UNL A   1      38.089  30.672  36.796  1.00  0.00    -0.205 F 
ATOM     64  C   UNL A   1      39.061  33.935  38.144  1.00  0.00     0.022 A 
BRANCH  62  65
ATOM     65  S   UNL A   1      37.067  32.369  39.168  1.00  0.00     0.127 S 
ATOM     66  O   UNL A   1      37.303  30.954  39.459  1.00  0.00    -0.237 OA
ATOM     67  O   UNL A   1      37.392  33.279  40.266  1.00  0.00    -0.237 OA
ATOM     68  O   UNL A   1      35.817  32.662  38.483  1.00  0.00    -0.744 OA
ENDBRANCH  62  65
ENDBRANCH  44  58
BRANCH  45  69
ATOM     69  C   UNL A   1      41.622  26.896  27.774  1.00  0.00     0.023 A 
ATOM     70  C   UNL A   1      42.141  27.599  26.671  1.00  0.00     0.012 A 
ATOM     71  C   UNL A   1      41.452  25.500  27.681  1.00  0.00     0.148 A 
ATOM     72  C   UNL A   1      42.459  26.931  25.488  1.00  0.00     0.002 A 
ATOM     73  C   UNL A   1      41.826  24.833  26.521  1.00  0.00     0.091 A 
ATOM     74  F   UNL A   1      40.942  24.850  28.737  1.00  0.00    -0.205 F 
ATOM     75  C   UNL A   1      42.311  25.549  25.416  1.00  0.00     0.022 A 
BRANCH  73  76
ATOM     76  S   UNL A   1      41.793  23.042  26.386  1.00  0.00     0.127 S 
ATOM     77  O   UNL A   1      40.360  22.766  26.398  1.00  0.00    -0.237 OA
ATOM     78  O   UNL A   1      42.453  22.827  25.098  1.00  0.00    -0.237 OA
ATOM     79  O   UNL A   1      42.541  22.546  27.534  1.00  0.00    -0.744 OA
ENDBRANCH  73  76
ENDBRANCH  45  69
BRANCH  57  80
ATOM     80  C   UNL A   1      44.615  27.365  34.073  1.00  0.00     0.023 A 
ATOM     81  C   UNL A   1      45.840  28.058  34.024  1.00  0.00     0.012 A 
ATOM     82  C   UNL A   1      44.541  26.138  34.762  1.00  0.00     0.148 A 
ATOM     83  C   UNL A   1      46.979  27.528  34.629  1.00  0.00     0.002 A 
ATOM     84  C   UNL A   1      45.667  25.640  35.405  1.00  0.00     0.091 A 
ATOM     85  F   UNL A   1      43.367  25.491  34.787  1.00  0.00    -0.205 F 
ATOM     86  C   UNL A   1      46.890  26.326  35.330  1.00  0.00     0.022 A 
BRANCH  84  87
ATOM     87  S   UNL A   1      45.630  24.152  36.411  1.00  0.00     0.127 S 
ATOM     88  O   UNL A   1      44.607  24.487  37.401  1.00  0.00    -0.237 OA
ATOM     89  O   UNL A   1      45.228  23.135  35.440  1.00  0.00    -0.237 OA
ATOM     90  O   UNL A   1      46.975  23.989  36.944  1.00  0.00    -0.744 OA
ENDBRANCH  84  87
ENDBRANCH  57  80
ENDBRANCH  31  32
ENDBRANCH  24  26
ENDBRANCH  23  24
ENDBRANCH  22  23
ENDBRANCH   1  22
TORSDOF 18
ENDMDL
