MODEL 1
REMARK VINA RESULT:     -11.4      0.000      0.000
REMARK SMILES C[C@]1(C(=O)N2CCC(CC(=O)OCCOCCOC(=O)c3ccc(-c4c5nc(c(-c6cccc(S(=O)(=O)[O-])c6F)c6ccc([nH]6)c(-c6cccc(S(=O)(=O)[O-])c6F)c6nc(c(-c7cccc(S(=O)(=O)[O-])c7F)c7ccc4[nH]7)C=C6)C=C5)cc3)CC2)CCC[NH2+]C1
REMARK SMILES IDX 16 1 15 2 14 3 13 4 12 5 10 6 11 7 9 8 8 9 3 10 4 11 5 12
REMARK SMILES IDX 6 13 85 14 7 15 84 16 2 17 1 18 86 19 90 20 87 21 89 22
REMARK SMILES IDX 88 23 17 26 18 27 19 28 20 29 21 30 22 31 83 32 23 33 82 34
REMARK SMILES IDX 24 35 25 36 26 37 76 38 27 39 81 40 75 41 77 42 28 43 80 44
REMARK SMILES IDX 74 45 73 46 29 48 61 49 41 50 60 51 42 52 45 53 59 54 78 55
REMARK SMILES IDX 43 56 44 57 58 59 79 60 46 61 30 62 31 63 39 64 32 65 34 66
REMARK SMILES IDX 40 67 33 68 35 69 36 70 37 71 38 72 62 73 63 74 71 75 64 76
REMARK SMILES IDX 66 77 72 78 65 79 67 80 68 81 69 82 70 83 47 84 48 85 56 86
REMARK SMILES IDX 49 87 51 88 57 89 50 90 52 91 53 92 54 93 55 94
REMARK H PARENT 89 24 89 25 77 47 45 58
REMARK Flexibility Score: inf
ROOT
ATOM      1  C   UNL A   1      35.639  20.295  25.002  1.00  0.00     0.202 C 
ENDROOT
BRANCH   1   2
ATOM      2  O   UNL A   1      35.203  21.507  25.613  1.00  0.00    -0.374 OA
BRANCH   2   3
ATOM      3  C   UNL A   1      34.983  21.493  27.024  1.00  0.00     0.202 C 
BRANCH   3   4
ATOM      4  C   UNL A   1      33.573  21.828  27.516  1.00  0.00     0.261 C 
BRANCH   4   5
ATOM      5  O   UNL A   1      33.159  23.146  27.108  1.00  0.00    -0.463 OA
BRANCH   5   6
ATOM      6  C   UNL A   1      31.876  23.247  26.678  1.00  0.00     0.306 C 
ATOM      7  O   UNL A   1      30.987  23.865  27.251  1.00  0.00    -0.252 OA
BRANCH   6   8
ATOM      8  C   UNL A   1      31.619  22.470  25.408  1.00  0.00     0.126 C 
BRANCH   8   9
ATOM      9  C   UNL A   1      31.784  23.187  24.050  1.00  0.00     0.003 C 
ATOM     10  C   UNL A   1      32.741  27.132  22.892  1.00  0.00     0.234 C 
ATOM     11  O   UNL A   1      33.750  27.433  22.235  1.00  0.00    -0.274 OA
ATOM     12  N   UNL A   1      32.355  25.807  22.947  1.00  0.00    -0.342 N 
ATOM     13  C   UNL A   1      33.398  24.802  22.889  1.00  0.00     0.120 C 
ATOM     14  C   UNL A   1      31.016  25.273  22.733  1.00  0.00     0.120 C 
ATOM     15  C   UNL A   1      33.192  23.826  24.035  1.00  0.00     0.026 C 
ATOM     16  C   UNL A   1      30.656  24.214  23.781  1.00  0.00     0.026 C 
BRANCH  10  17
ATOM     17  C   UNL A   1      32.014  28.238  23.707  1.00  0.00     0.095 C 
ATOM     18  C   UNL A   1      30.971  28.863  22.758  1.00  0.00     0.028 C 
ATOM     19  C   UNL A   1      31.329  27.878  25.038  1.00  0.00     0.028 C 
ATOM     20  C   UNL A   1      33.088  29.326  24.030  1.00  0.00     0.277 C 
ATOM     21  C   UNL A   1      32.330  27.517  26.132  1.00  0.00     0.063 C 
ATOM     22  N   UNL A   1      34.032  28.942  25.094  1.00  0.00    -0.345 N 
ATOM     23  C   UNL A   1      33.341  28.633  26.344  1.00  0.00     0.260 C 
ATOM     24  H   UNL A   1      34.554  28.119  24.793  1.00  0.00     0.346 HD
ATOM     25  H   UNL A   1      34.659  29.730  25.264  1.00  0.00     0.346 HD
ENDBRANCH  10  17
ENDBRANCH   8   9
ENDBRANCH   6   8
ENDBRANCH   5   6
ENDBRANCH   4   5
ENDBRANCH   3   4
ENDBRANCH   2   3
ENDBRANCH   1   2
BRANCH   1  26
ATOM     26  C   UNL A   1      37.151  20.031  24.956  1.00  0.00     0.261 C 
BRANCH  26  27
ATOM     27  O   UNL A   1      37.936  21.205  25.229  1.00  0.00    -0.460 OA
BRANCH  27  28
ATOM     28  C   UNL A   1      39.068  20.966  25.932  1.00  0.00     0.338 C 
ATOM     29  O   UNL A   1      39.711  19.920  25.957  1.00  0.00    -0.246 OA
BRANCH  28  30
ATOM     30  C   UNL A   1      39.575  22.204  26.550  1.00  0.00     0.060 A 
ATOM     31  C   UNL A   1      39.006  23.411  26.122  1.00  0.00     0.016 A 
ATOM     32  C   UNL A   1      40.638  22.204  27.457  1.00  0.00     0.016 A 
ATOM     33  C   UNL A   1      39.540  24.624  26.545  1.00  0.00     0.010 A 
ATOM     34  C   UNL A   1      41.174  23.428  27.879  1.00  0.00     0.010 A 
ATOM     35  C   UNL A   1      40.658  24.642  27.389  1.00  0.00    -0.014 A 
BRANCH  35  36
ATOM     36  C   UNL A   1      41.360  25.929  27.624  1.00  0.00     0.031 A 
ATOM     37  C   UNL A   1      40.656  27.023  28.383  1.00  0.00     0.074 A 
ATOM     38  C   UNL A   1      42.626  26.108  27.207  1.00  0.00     0.049 A 
ATOM     39  N   UNL A   1      41.095  28.206  28.725  1.00  0.00    -0.248 NA
ATOM     40  C   UNL A   1      39.276  26.745  28.815  1.00  0.00     0.031 C 
ATOM     41  C   UNL A   1      43.419  25.125  26.470  1.00  0.00     0.029 A 
ATOM     42  N   UNL A   1      43.463  27.188  27.336  1.00  0.00    -0.354 N 
ATOM     43  C   UNL A   1      40.040  28.826  29.387  1.00  0.00     0.074 A 
ATOM     44  C   UNL A   1      38.934  27.893  29.383  1.00  0.00     0.031 C 
ATOM     45  C   UNL A   1      44.622  25.656  26.193  1.00  0.00     0.029 A 
ATOM     46  C   UNL A   1      44.678  27.020  26.715  1.00  0.00     0.049 A 
ATOM     47  H   UNL A   1      43.217  28.006  27.827  1.00  0.00     0.167 HD
ATOM     48  C   UNL A   1      40.000  30.052  29.961  1.00  0.00     0.034 A 
ATOM     49  C   UNL A   1      45.710  27.876  26.567  1.00  0.00     0.034 A 
ATOM     50  C   UNL A   1      41.106  30.971  29.985  1.00  0.00     0.049 A 
ATOM     51  C   UNL A   1      45.632  29.242  27.199  1.00  0.00     0.074 A 
ATOM     52  C   UNL A   1      41.178  32.215  30.587  1.00  0.00     0.029 A 
ATOM     53  N   UNL A   1      42.330  30.753  29.372  1.00  0.00    -0.354 N 
ATOM     54  N   UNL A   1      44.672  29.764  27.922  1.00  0.00    -0.248 NA
ATOM     55  C   UNL A   1      46.797  30.122  27.023  1.00  0.00     0.031 C 
ATOM     56  C   UNL A   1      42.433  32.764  30.308  1.00  0.00     0.029 A 
ATOM     57  C   UNL A   1      43.158  31.846  29.565  1.00  0.00     0.049 A 
ATOM     58  H   UNL A   1      42.575  29.941  28.871  1.00  0.00     0.167 HD
ATOM     59  C   UNL A   1      45.131  31.017  28.319  1.00  0.00     0.074 A 
ATOM     60  C   UNL A   1      46.464  31.165  27.773  1.00  0.00     0.031 C 
ATOM     61  C   UNL A   1      44.501  31.963  29.059  1.00  0.00     0.034 A 
BRANCH  48  62
ATOM     62  C   UNL A   1      38.717  30.469  30.633  1.00  0.00     0.023 A 
ATOM     63  C   UNL A   1      38.547  30.250  32.015  1.00  0.00     0.012 A 
ATOM     64  C   UNL A   1      37.706  31.130  29.909  1.00  0.00     0.148 A 
ATOM     65  C   UNL A   1      37.379  30.654  32.659  1.00  0.00     0.002 A 
ATOM     66  C   UNL A   1      36.564  31.571  30.567  1.00  0.00     0.091 A 
ATOM     67  F   UNL A   1      37.877  31.308  28.590  1.00  0.00    -0.205 F 
ATOM     68  C   UNL A   1      36.394  31.324  31.938  1.00  0.00     0.022 A 
BRANCH  66  69
ATOM     69  S   UNL A   1      35.275  32.512  29.743  1.00  0.00     0.127 S 
ATOM     70  O   UNL A   1      36.022  33.669  29.254  1.00  0.00    -0.237 OA
ATOM     71  O   UNL A   1      34.836  31.584  28.700  1.00  0.00    -0.237 OA
ATOM     72  O   UNL A   1      34.273  32.800  30.761  1.00  0.00    -0.744 OA
ENDBRANCH  66  69
ENDBRANCH  48  62
BRANCH  49  73
ATOM     73  C   UNL A   1      46.923  27.454  25.812  1.00  0.00     0.023 A 
ATOM     74  C   UNL A   1      47.913  26.684  26.450  1.00  0.00     0.012 A 
ATOM     75  C   UNL A   1      47.092  27.803  24.457  1.00  0.00     0.148 A 
ATOM     76  C   UNL A   1      49.066  26.296  25.764  1.00  0.00     0.002 A 
ATOM     77  C   UNL A   1      48.213  27.365  23.763  1.00  0.00     0.091 A 
ATOM     78  F   UNL A   1      46.146  28.552  23.873  1.00  0.00    -0.205 F 
ATOM     79  C   UNL A   1      49.210  26.627  24.420  1.00  0.00     0.022 A 
BRANCH  77  80
ATOM     80  S   UNL A   1      48.415  27.631  21.998  1.00  0.00     0.127 S 
ATOM     81  O   UNL A   1      49.572  28.521  21.961  1.00  0.00    -0.237 OA
ATOM     82  O   UNL A   1      48.665  26.272  21.517  1.00  0.00    -0.237 OA
ATOM     83  O   UNL A   1      47.157  28.206  21.540  1.00  0.00    -0.744 OA
ENDBRANCH  77  80
ENDBRANCH  49  73
BRANCH  61  84
ATOM     84  C   UNL A   1      45.255  33.233  29.362  1.00  0.00     0.023 A 
ATOM     85  C   UNL A   1      46.094  33.302  30.492  1.00  0.00     0.012 A 
ATOM     86  C   UNL A   1      45.185  34.337  28.488  1.00  0.00     0.148 A 
ATOM     87  C   UNL A   1      46.820  34.461  30.769  1.00  0.00     0.002 A 
ATOM     88  C   UNL A   1      45.950  35.469  28.741  1.00  0.00     0.091 A 
ATOM     89  F   UNL A   1      44.369  34.261  27.427  1.00  0.00    -0.205 F 
ATOM     90  C   UNL A   1      46.758  35.538  29.888  1.00  0.00     0.022 A 
BRANCH  88  91
ATOM     91  S   UNL A   1      46.007  36.865  27.612  1.00  0.00     0.127 S 
ATOM     92  O   UNL A   1      46.451  36.228  26.373  1.00  0.00    -0.237 OA
ATOM     93  O   UNL A   1      44.614  37.313  27.601  1.00  0.00    -0.237 OA
ATOM     94  O   UNL A   1      46.942  37.816  28.197  1.00  0.00    -0.744 OA
ENDBRANCH  88  91
ENDBRANCH  61  84
ENDBRANCH  35  36
ENDBRANCH  28  30
ENDBRANCH  27  28
ENDBRANCH  26  27
ENDBRANCH   1  26
TORSDOF 19
ENDMDL
MODEL 2
REMARK VINA RESULT:     -11.3      5.260      8.180
REMARK SMILES C[C@]1(C(=O)N2CCC(CC(=O)OCCOCCOC(=O)c3ccc(-c4c5nc(c(-c6cccc(S(=O)(=O)[O-])c6F)c6ccc([nH]6)c(-c6cccc(S(=O)(=O)[O-])c6F)c6nc(c(-c7cccc(S(=O)(=O)[O-])c7F)c7ccc4[nH]7)C=C6)C=C5)cc3)CC2)CCC[NH2+]C1
REMARK SMILES IDX 16 1 15 2 14 3 13 4 12 5 10 6 11 7 9 8 8 9 3 10 4 11 5 12
REMARK SMILES IDX 6 13 85 14 7 15 84 16 2 17 1 18 86 19 90 20 87 21 89 22
REMARK SMILES IDX 88 23 17 26 18 27 19 28 20 29 21 30 22 31 83 32 23 33 82 34
REMARK SMILES IDX 24 35 25 36 26 37 76 38 27 39 81 40 75 41 77 42 28 43 80 44
REMARK SMILES IDX 74 45 73 46 29 48 61 49 41 50 60 51 42 52 45 53 59 54 78 55
REMARK SMILES IDX 43 56 44 57 58 59 79 60 46 61 30 62 31 63 39 64 32 65 34 66
REMARK SMILES IDX 40 67 33 68 35 69 36 70 37 71 38 72 62 73 63 74 71 75 64 76
REMARK SMILES IDX 66 77 72 78 65 79 67 80 68 81 69 82 70 83 47 84 48 85 56 86
REMARK SMILES IDX 49 87 51 88 57 89 50 90 52 91 53 92 54 93 55 94
REMARK H PARENT 89 24 89 25 77 47 45 58
REMARK Flexibility Score: inf
ROOT
ATOM      1  C   UNL A   1      32.092  29.801  24.997  1.00  0.00     0.202 C 
ENDROOT
BRANCH   1   2
ATOM      2  O   UNL A   1      33.243  29.009  25.280  1.00  0.00    -0.374 OA
BRANCH   2   3
ATOM      3  C   UNL A   1      33.028  27.677  25.747  1.00  0.00     0.202 C 
BRANCH   3   4
ATOM      4  C   UNL A   1      31.688  27.022  25.403  1.00  0.00     0.261 C 
BRANCH   4   5
ATOM      5  O   UNL A   1      31.759  25.585  25.460  1.00  0.00    -0.463 OA
BRANCH   5   6
ATOM      6  C   UNL A   1      32.062  24.969  24.290  1.00  0.00     0.306 C 
ATOM      7  O   UNL A   1      31.248  24.642  23.435  1.00  0.00    -0.252 OA
BRANCH   6   8
ATOM      8  C   UNL A   1      33.536  24.673  24.146  1.00  0.00     0.126 C 
BRANCH   8   9
ATOM      9  C   UNL A   1      34.165  23.574  25.032  1.00  0.00     0.003 C 
ATOM     10  C   UNL A   1      34.571  19.386  24.694  1.00  0.00     0.234 C 
ATOM     11  O   UNL A   1      35.664  18.801  24.631  1.00  0.00    -0.274 OA
ATOM     12  N   UNL A   1      34.543  20.701  25.116  1.00  0.00    -0.342 N 
ATOM     13  C   UNL A   1      35.690  21.529  24.799  1.00  0.00     0.120 C 
ATOM     14  C   UNL A   1      33.659  21.284  26.116  1.00  0.00     0.120 C 
ATOM     15  C   UNL A   1      35.194  22.817  24.161  1.00  0.00     0.026 C 
ATOM     16  C   UNL A   1      33.102  22.637  25.657  1.00  0.00     0.026 C 
BRANCH  10  17
ATOM     17  C   UNL A   1      33.293  18.652  24.201  1.00  0.00     0.095 C 
ATOM     18  C   UNL A   1      32.417  19.717  23.511  1.00  0.00     0.028 C 
ATOM     19  C   UNL A   1      33.426  17.433  23.269  1.00  0.00     0.028 C 
ATOM     20  C   UNL A   1      32.542  18.162  25.481  1.00  0.00     0.277 C 
ATOM     21  C   UNL A   1      34.034  16.222  23.973  1.00  0.00     0.063 C 
ATOM     22  N   UNL A   1      33.157  16.990  26.128  1.00  0.00    -0.345 N 
ATOM     23  C   UNL A   1      33.241  15.852  25.216  1.00  0.00     0.260 C 
ATOM     24  H   UNL A   1      34.098  17.237  26.436  1.00  0.00     0.346 HD
ATOM     25  H   UNL A   1      32.573  16.720  26.921  1.00  0.00     0.346 HD
ENDBRANCH  10  17
ENDBRANCH   8   9
ENDBRANCH   6   8
ENDBRANCH   5   6
ENDBRANCH   4   5
ENDBRANCH   3   4
ENDBRANCH   2   3
ENDBRANCH   1   2
BRANCH   1  26
ATOM     26  C   UNL A   1      31.656  30.817  26.062  1.00  0.00     0.261 C 
BRANCH  26  27
ATOM     27  O   UNL A   1      32.450  30.755  27.259  1.00  0.00    -0.460 OA
BRANCH  27  28
ATOM     28  C   UNL A   1      33.232  31.842  27.465  1.00  0.00     0.338 C 
ATOM     29  O   UNL A   1      32.866  33.012  27.515  1.00  0.00    -0.246 OA
BRANCH  28  30
ATOM     30  C   UNL A   1      34.606  31.442  27.820  1.00  0.00     0.060 A 
ATOM     31  C   UNL A   1      34.839  30.076  28.028  1.00  0.00     0.016 A 
ATOM     32  C   UNL A   1      35.623  32.376  28.034  1.00  0.00     0.016 A 
ATOM     33  C   UNL A   1      36.068  29.643  28.516  1.00  0.00     0.010 A 
ATOM     34  C   UNL A   1      36.858  31.937  28.528  1.00  0.00     0.010 A 
ATOM     35  C   UNL A   1      37.071  30.575  28.815  1.00  0.00    -0.014 A 
BRANCH  35  36
ATOM     36  C   UNL A   1      38.271  30.124  29.563  1.00  0.00     0.031 A 
ATOM     37  C   UNL A   1      38.473  30.588  30.981  1.00  0.00     0.074 A 
ATOM     38  C   UNL A   1      39.152  29.275  29.002  1.00  0.00     0.049 A 
ATOM     39  N   UNL A   1      39.429  30.290  31.821  1.00  0.00    -0.248 NA
ATOM     40  C   UNL A   1      37.460  31.507  31.526  1.00  0.00     0.031 C 
ATOM     41  C   UNL A   1      39.066  28.747  27.642  1.00  0.00     0.029 A 
ATOM     42  N   UNL A   1      40.299  28.717  29.509  1.00  0.00    -0.354 N 
ATOM     43  C   UNL A   1      39.153  31.004  32.982  1.00  0.00     0.074 A 
ATOM     44  C   UNL A   1      37.946  31.763  32.732  1.00  0.00     0.031 C 
ATOM     45  C   UNL A   1      40.129  27.956  27.414  1.00  0.00     0.029 A 
ATOM     46  C   UNL A   1      40.979  27.938  28.603  1.00  0.00     0.049 A 
ATOM     47  H   UNL A   1      40.606  28.860  30.434  1.00  0.00     0.167 HD
ATOM     48  C   UNL A   1      39.829  31.015  34.154  1.00  0.00     0.034 A 
ATOM     49  C   UNL A   1      42.161  27.299  28.713  1.00  0.00     0.034 A 
ATOM     50  C   UNL A   1      41.015  30.243  34.412  1.00  0.00     0.049 A 
ATOM     51  C   UNL A   1      42.905  27.342  30.024  1.00  0.00     0.074 A 
ATOM     52  C   UNL A   1      41.743  30.149  35.585  1.00  0.00     0.029 A 
ATOM     53  N   UNL A   1      41.657  29.443  33.480  1.00  0.00    -0.354 N 
ATOM     54  N   UNL A   1      42.565  27.926  31.147  1.00  0.00    -0.248 NA
ATOM     55  C   UNL A   1      44.176  26.608  30.090  1.00  0.00     0.031 C 
ATOM     56  C   UNL A   1      42.843  29.318  35.353  1.00  0.00     0.029 A 
ATOM     57  C   UNL A   1      42.781  28.864  34.046  1.00  0.00     0.049 A 
ATOM     58  H   UNL A   1      41.359  29.307  32.551  1.00  0.00     0.167 HD
ATOM     59  C   UNL A   1      43.560  27.599  32.064  1.00  0.00     0.074 A 
ATOM     60  C   UNL A   1      44.503  26.749  31.369  1.00  0.00     0.031 C 
ATOM     61  C   UNL A   1      43.687  27.979  33.360  1.00  0.00     0.034 A 
BRANCH  48  62
ATOM     62  C   UNL A   1      39.290  31.878  35.266  1.00  0.00     0.023 A 
ATOM     63  C   UNL A   1      38.308  31.365  36.138  1.00  0.00     0.012 A 
ATOM     64  C   UNL A   1      39.800  33.173  35.484  1.00  0.00     0.148 A 
ATOM     65  C   UNL A   1      37.818  32.140  37.188  1.00  0.00     0.002 A 
ATOM     66  C   UNL A   1      39.339  33.922  36.561  1.00  0.00     0.091 A 
ATOM     67  F   UNL A   1      40.717  33.651  34.631  1.00  0.00    -0.205 F 
ATOM     68  C   UNL A   1      38.341  33.411  37.407  1.00  0.00     0.022 A 
BRANCH  66  69
ATOM     69  S   UNL A   1      40.006  35.538  36.973  1.00  0.00     0.127 S 
ATOM     70  O   UNL A   1      39.311  35.833  38.225  1.00  0.00    -0.237 OA
ATOM     71  O   UNL A   1      41.434  35.252  37.120  1.00  0.00    -0.237 OA
ATOM     72  O   UNL A   1      39.673  36.408  35.853  1.00  0.00    -0.744 OA
ENDBRANCH  66  69
ENDBRANCH  48  62
BRANCH  49  73
ATOM     73  C   UNL A   1      42.703  26.534  27.555  1.00  0.00     0.023 A 
ATOM     74  C   UNL A   1      43.621  27.145  26.679  1.00  0.00     0.012 A 
ATOM     75  C   UNL A   1      42.322  25.197  27.327  1.00  0.00     0.148 A 
ATOM     76  C   UNL A   1      44.124  26.450  25.578  1.00  0.00     0.002 A 
ATOM     77  C   UNL A   1      42.871  24.492  26.263  1.00  0.00     0.091 A 
ATOM     78  F   UNL A   1      41.433  24.639  28.161  1.00  0.00    -0.205 F 
ATOM     79  C   UNL A   1      43.758  25.122  25.376  1.00  0.00     0.022 A 
BRANCH  77  80
ATOM     80  S   UNL A   1      42.559  22.742  26.007  1.00  0.00     0.127 S 
ATOM     81  O   UNL A   1      43.097  22.536  24.665  1.00  0.00    -0.237 OA
ATOM     82  O   UNL A   1      43.340  22.137  27.086  1.00  0.00    -0.237 OA
ATOM     83  O   UNL A   1      41.118  22.574  26.145  1.00  0.00    -0.744 OA
ENDBRANCH  77  80
ENDBRANCH  49  73
BRANCH  61  84
ATOM     84  C   UNL A   1      44.867  27.448  34.134  1.00  0.00     0.023 A 
ATOM     85  C   UNL A   1      46.036  28.225  34.258  1.00  0.00     0.012 A 
ATOM     86  C   UNL A   1      44.792  26.206  34.795  1.00  0.00     0.148 A 
ATOM     87  C   UNL A   1      47.125  27.758  34.995  1.00  0.00     0.002 A 
ATOM     88  C   UNL A   1      45.860  25.769  35.570  1.00  0.00     0.091 A 
ATOM     89  F   UNL A   1      43.679  25.471  34.652  1.00  0.00    -0.205 F 
ATOM     90  C   UNL A   1      47.032  26.537  35.660  1.00  0.00     0.022 A 
BRANCH  88  91
ATOM     91  S   UNL A   1      45.792  24.258  36.539  1.00  0.00     0.127 S 
ATOM     92  O   UNL A   1      46.216  23.258  35.561  1.00  0.00    -0.237 OA
ATOM     93  O   UNL A   1      46.767  24.525  37.598  1.00  0.00    -0.237 OA
ATOM     94  O   UNL A   1      44.417  24.139  37.001  1.00  0.00    -0.744 OA
ENDBRANCH  88  91
ENDBRANCH  61  84
ENDBRANCH  35  36
ENDBRANCH  28  30
ENDBRANCH  27  28
ENDBRANCH  26  27
ENDBRANCH   1  26
TORSDOF 19
ENDMDL
MODEL 3
REMARK VINA RESULT:     -11.1      5.313     10.394
REMARK SMILES C[C@]1(C(=O)N2CCC(CC(=O)OCCOCCOC(=O)c3ccc(-c4c5nc(c(-c6cccc(S(=O)(=O)[O-])c6F)c6ccc([nH]6)c(-c6cccc(S(=O)(=O)[O-])c6F)c6nc(c(-c7cccc(S(=O)(=O)[O-])c7F)c7ccc4[nH]7)C=C6)C=C5)cc3)CC2)CCC[NH2+]C1
REMARK SMILES IDX 16 1 15 2 14 3 13 4 12 5 10 6 11 7 9 8 8 9 3 10 4 11 5 12
REMARK SMILES IDX 6 13 85 14 7 15 84 16 2 17 1 18 86 19 90 20 87 21 89 22
REMARK SMILES IDX 88 23 17 26 18 27 19 28 20 29 21 30 22 31 83 32 23 33 82 34
REMARK SMILES IDX 24 35 25 36 26 37 76 38 27 39 81 40 75 41 77 42 28 43 80 44
REMARK SMILES IDX 74 45 73 46 29 48 61 49 41 50 60 51 42 52 45 53 59 54 78 55
REMARK SMILES IDX 43 56 44 57 58 59 79 60 46 61 30 62 31 63 39 64 32 65 34 66
REMARK SMILES IDX 40 67 33 68 35 69 36 70 37 71 38 72 62 73 63 74 71 75 64 76
REMARK SMILES IDX 66 77 72 78 65 79 67 80 68 81 69 82 70 83 47 84 48 85 56 86
REMARK SMILES IDX 49 87 51 88 57 89 50 90 52 91 53 92 54 93 55 94
REMARK H PARENT 89 24 89 25 77 47 45 58
REMARK Flexibility Score: inf
ROOT
ATOM      1  C   UNL A   1      31.327  29.729  24.882  1.00  0.00     0.202 C 
ENDROOT
BRANCH   1   2
ATOM      2  O   UNL A   1      31.399  28.307  24.952  1.00  0.00    -0.374 OA
BRANCH   2   3
ATOM      3  C   UNL A   1      30.737  27.562  23.930  1.00  0.00     0.202 C 
BRANCH   3   4
ATOM      4  C   UNL A   1      31.239  27.743  22.495  1.00  0.00     0.261 C 
BRANCH   4   5
ATOM      5  O   UNL A   1      31.403  26.483  21.817  1.00  0.00    -0.463 OA
BRANCH   5   6
ATOM      6  C   UNL A   1      32.629  25.914  21.931  1.00  0.00     0.306 C 
ATOM      7  O   UNL A   1      33.693  26.520  21.887  1.00  0.00    -0.252 OA
BRANCH   6   8
ATOM      8  C   UNL A   1      32.570  24.412  22.077  1.00  0.00     0.126 C 
BRANCH   8   9
ATOM      9  C   UNL A   1      33.070  23.771  23.391  1.00  0.00     0.003 C 
ATOM     10  C   UNL A   1      34.164  19.857  24.534  1.00  0.00     0.234 C 
ATOM     11  O   UNL A   1      35.302  19.542  24.918  1.00  0.00    -0.274 OA
ATOM     12  N   UNL A   1      33.824  21.195  24.488  1.00  0.00    -0.342 N 
ATOM     13  C   UNL A   1      34.879  22.144  24.192  1.00  0.00     0.120 C 
ATOM     14  C   UNL A   1      32.613  21.812  25.013  1.00  0.00     0.120 C 
ATOM     15  C   UNL A   1      34.406  23.060  23.075  1.00  0.00     0.026 C 
ATOM     16  C   UNL A   1      32.021  22.825  24.025  1.00  0.00     0.026 C 
BRANCH  10  17
ATOM     17  C   UNL A   1      33.204  18.745  24.026  1.00  0.00     0.095 C 
ATOM     18  C   UNL A   1      32.234  19.424  23.038  1.00  0.00     0.028 C 
ATOM     19  C   UNL A   1      33.785  17.479  23.370  1.00  0.00     0.028 C 
ATOM     20  C   UNL A   1      32.379  18.273  25.267  1.00  0.00     0.277 C 
ATOM     21  C   UNL A   1      34.531  16.593  24.364  1.00  0.00     0.063 C 
ATOM     22  N   UNL A   1      33.133  17.416  26.200  1.00  0.00    -0.345 N 
ATOM     23  C   UNL A   1      33.644  16.218  25.540  1.00  0.00     0.260 C 
ATOM     24  H   UNL A   1      33.919  17.948  26.576  1.00  0.00     0.346 HD
ATOM     25  H   UNL A   1      32.501  17.124  26.946  1.00  0.00     0.346 HD
ENDBRANCH  10  17
ENDBRANCH   8   9
ENDBRANCH   6   8
ENDBRANCH   5   6
ENDBRANCH   4   5
ENDBRANCH   3   4
ENDBRANCH   2   3
ENDBRANCH   1   2
BRANCH   1  26
ATOM     26  C   UNL A   1      31.725  30.519  26.136  1.00  0.00     0.261 C 
BRANCH  26  27
ATOM     27  O   UNL A   1      33.114  30.374  26.476  1.00  0.00    -0.460 OA
BRANCH  27  28
ATOM     28  C   UNL A   1      33.608  31.379  27.238  1.00  0.00     0.338 C 
ATOM     29  O   UNL A   1      32.993  32.355  27.655  1.00  0.00    -0.246 OA
BRANCH  28  30
ATOM     30  C   UNL A   1      34.978  31.073  27.689  1.00  0.00     0.060 A 
ATOM     31  C   UNL A   1      35.297  29.723  27.892  1.00  0.00     0.016 A 
ATOM     32  C   UNL A   1      35.905  32.073  27.993  1.00  0.00     0.016 A 
ATOM     33  C   UNL A   1      36.516  29.371  28.463  1.00  0.00     0.010 A 
ATOM     34  C   UNL A   1      37.130  31.715  28.570  1.00  0.00     0.010 A 
ATOM     35  C   UNL A   1      37.421  30.367  28.851  1.00  0.00    -0.014 A 
BRANCH  35  36
ATOM     36  C   UNL A   1      38.594  29.989  29.679  1.00  0.00     0.031 A 
ATOM     37  C   UNL A   1      39.583  28.987  29.142  1.00  0.00     0.074 A 
ATOM     38  C   UNL A   1      38.803  30.563  30.878  1.00  0.00     0.049 A 
ATOM     39  N   UNL A   1      40.686  28.542  29.683  1.00  0.00    -0.248 NA
ATOM     40  C   UNL A   1      39.289  28.413  27.818  1.00  0.00     0.031 C 
ATOM     41  C   UNL A   1      37.927  31.550  31.505  1.00  0.00     0.029 A 
ATOM     42  N   UNL A   1      39.817  30.386  31.786  1.00  0.00    -0.354 N 
ATOM     43  C   UNL A   1      41.205  27.618  28.784  1.00  0.00     0.074 A 
ATOM     44  C   UNL A   1      40.286  27.553  27.668  1.00  0.00     0.031 C 
ATOM     45  C   UNL A   1      38.430  31.877  32.708  1.00  0.00     0.029 A 
ATOM     46  C   UNL A   1      39.651  31.109  32.943  1.00  0.00     0.049 A 
ATOM     47  H   UNL A   1      40.589  29.796  31.625  1.00  0.00     0.167 HD
ATOM     48  C   UNL A   1      42.350  26.900  28.868  1.00  0.00     0.034 A 
ATOM     49  C   UNL A   1      40.390  31.135  34.072  1.00  0.00     0.034 A 
ATOM     50  C   UNL A   1      43.277  26.980  29.966  1.00  0.00     0.049 A 
ATOM     51  C   UNL A   1      41.650  30.312  34.148  1.00  0.00     0.074 A 
ATOM     52  C   UNL A   1      44.489  26.330  30.117  1.00  0.00     0.029 A 
ATOM     53  N   UNL A   1      43.089  27.746  31.105  1.00  0.00    -0.354 N 
ATOM     54  N   UNL A   1      42.185  29.535  33.238  1.00  0.00    -0.248 NA
ATOM     55  C   UNL A   1      42.425  30.398  35.394  1.00  0.00     0.031 C 
ATOM     56  C   UNL A   1      45.019  26.677  31.364  1.00  0.00     0.029 A 
ATOM     57  C   UNL A   1      44.156  27.574  31.973  1.00  0.00     0.049 A 
ATOM     58  H   UNL A   1      42.313  28.328  31.274  1.00  0.00     0.167 HD
ATOM     59  C   UNL A   1      43.378  29.070  33.787  1.00  0.00     0.074 A 
ATOM     60  C   UNL A   1      43.495  29.671  35.099  1.00  0.00     0.031 C 
ATOM     61  C   UNL A   1      44.286  28.214  33.256  1.00  0.00     0.034 A 
BRANCH  48  62
ATOM     62  C   UNL A   1      42.681  25.972  27.727  1.00  0.00     0.023 A 
ATOM     63  C   UNL A   1      43.593  26.382  26.733  1.00  0.00     0.012 A 
ATOM     64  C   UNL A   1      42.137  24.674  27.673  1.00  0.00     0.148 A 
ATOM     65  C   UNL A   1      43.932  25.527  25.686  1.00  0.00     0.002 A 
ATOM     66  C   UNL A   1      42.515  23.811  26.651  1.00  0.00     0.091 A 
ATOM     67  F   UNL A   1      41.254  24.312  28.616  1.00  0.00    -0.205 F 
ATOM     68  C   UNL A   1      43.403  24.239  25.651  1.00  0.00     0.022 A 
BRANCH  66  69
ATOM     69  S   UNL A   1      41.950  22.108  26.564  1.00  0.00     0.127 S 
ATOM     70  O   UNL A   1      42.705  21.607  25.416  1.00  0.00    -0.237 OA
ATOM     71  O   UNL A   1      42.379  21.576  27.857  1.00  0.00    -0.237 OA
ATOM     72  O   UNL A   1      40.506  22.172  26.381  1.00  0.00    -0.744 OA
ENDBRANCH  66  69
ENDBRANCH  48  62
BRANCH  49  73
ATOM     73  C   UNL A   1      39.972  31.997  35.213  1.00  0.00     0.023 A 
ATOM     74  C   UNL A   1      40.443  33.320  35.301  1.00  0.00     0.012 A 
ATOM     75  C   UNL A   1      39.100  31.511  36.207  1.00  0.00     0.148 A 
ATOM     76  C   UNL A   1      40.078  34.135  36.374  1.00  0.00     0.002 A 
ATOM     77  C   UNL A   1      38.694  32.345  37.241  1.00  0.00     0.091 A 
ATOM     78  F   UNL A   1      38.678  30.242  36.115  1.00  0.00    -0.205 F 
ATOM     79  C   UNL A   1      39.197  33.652  37.337  1.00  0.00     0.022 A 
BRANCH  77  80
ATOM     80  S   UNL A   1      37.459  31.850  38.447  1.00  0.00     0.127 S 
ATOM     81  O   UNL A   1      37.156  30.487  38.023  1.00  0.00    -0.237 OA
ATOM     82  O   UNL A   1      38.204  31.956  39.702  1.00  0.00    -0.237 OA
ATOM     83  O   UNL A   1      36.372  32.812  38.315  1.00  0.00    -0.744 OA
ENDBRANCH  77  80
ENDBRANCH  49  73
BRANCH  61  84
ATOM     84  C   UNL A   1      45.515  27.902  34.072  1.00  0.00     0.023 A 
ATOM     85  C   UNL A   1      46.651  28.731  33.983  1.00  0.00     0.012 A 
ATOM     86  C   UNL A   1      45.520  26.823  34.979  1.00  0.00     0.148 A 
ATOM     87  C   UNL A   1      47.784  28.471  34.754  1.00  0.00     0.002 A 
ATOM     88  C   UNL A   1      46.632  26.599  35.782  1.00  0.00     0.091 A 
ATOM     89  F   UNL A   1      44.438  26.034  35.039  1.00  0.00    -0.205 F 
ATOM     90  C   UNL A   1      47.770  27.414  35.661  1.00  0.00     0.022 A 
BRANCH  88  91
ATOM     91  S   UNL A   1      46.667  25.323  37.045  1.00  0.00     0.127 S 
ATOM     92  O   UNL A   1      46.584  24.105  36.241  1.00  0.00    -0.237 OA
ATOM     93  O   UNL A   1      47.967  25.548  37.678  1.00  0.00    -0.237 OA
ATOM     94  O   UNL A   1      45.523  25.582  37.909  1.00  0.00    -0.744 OA
ENDBRANCH  88  91
ENDBRANCH  61  84
ENDBRANCH  35  36
ENDBRANCH  28  30
ENDBRANCH  27  28
ENDBRANCH  26  27
ENDBRANCH   1  26
TORSDOF 19
ENDMDL
