MODEL 1
REMARK VINA RESULT:     -10.6      0.000      0.000
REMARK SMILES CCCC[C@H](C(=O)OCCOCCOC(=O)c1ccc(-c2c3nc(c(-c4cccc(S(=O)(=O)[O-])c4F)c4ccc([nH]4)c(-c4cccc(S(=O)(=O)[O-])c4F)c4nc(c(-c5cccc(S(=O)(=O)[O-])c5F)c5ccc2[nH]5)C=C4)C=C3)cc1)[C@](C)(O)c1ccc(Cl)c(Cl)c1
REMARK SMILES IDX 11 1 10 2 9 3 8 4 6 5 7 6 5 7 4 8 3 9 2 10 1 11 80 12 81 13
REMARK SMILES IDX 82 14 83 16 84 17 90 18 85 19 88 20 86 21 89 22 87 23 12 24
REMARK SMILES IDX 13 25 14 26 15 27 16 28 17 29 18 30 79 31 19 32 78 33 20 34
REMARK SMILES IDX 21 35 22 36 72 37 23 38 77 39 71 40 73 41 24 42 76 43 70 44
REMARK SMILES IDX 69 45 25 47 57 48 37 49 56 50 38 51 41 52 55 53 74 54 39 55
REMARK SMILES IDX 40 56 54 58 75 59 42 60 26 61 27 62 35 63 28 64 30 65 36 66
REMARK SMILES IDX 29 67 31 68 32 69 33 70 34 71 58 72 59 73 67 74 60 75 62 76
REMARK SMILES IDX 68 77 61 78 63 79 64 80 65 81 66 82 43 83 44 84 52 85 45 86
REMARK SMILES IDX 47 87 53 88 46 89 48 90 49 91 50 92 51 93
REMARK H PARENT 82 15 73 46 41 57
REMARK Flexibility Score: inf
ROOT
ATOM      1  O   UNL A   1      31.650  29.449  23.728  1.00  0.00    -0.374 OA
ENDROOT
BRANCH   1   2
ATOM      2  C   UNL A   1      30.599  29.050  22.846  1.00  0.00     0.202 C 
BRANCH   2   3
ATOM      3  C   UNL A   1      30.644  27.580  22.423  1.00  0.00     0.261 C 
BRANCH   3   4
ATOM      4  O   UNL A   1      30.092  26.774  23.476  1.00  0.00    -0.463 OA
BRANCH   4   5
ATOM      5  C   UNL A   1      30.541  25.510  23.603  1.00  0.00     0.312 C 
ATOM      6  O   UNL A   1      29.898  24.511  23.288  1.00  0.00    -0.252 OA
BRANCH   5   7
ATOM      7  C   UNL A   1      32.005  25.421  24.028  1.00  0.00     0.135 C 
BRANCH   7   8
ATOM      8  C   UNL A   1      32.363  25.436  25.547  1.00  0.00     0.019 C 
BRANCH   8   9
ATOM      9  C   UNL A   1      31.613  24.603  26.600  1.00  0.00     0.001 C 
BRANCH   9  10
ATOM     10  C   UNL A   1      31.783  23.089  26.564  1.00  0.00    -0.003 C 
ATOM     11  C   UNL A   1      32.758  22.577  27.608  1.00  0.00     0.004 C 
ENDBRANCH   9  10
ENDBRANCH   8   9
ENDBRANCH   7   8
BRANCH   7  12
ATOM     12  C   UNL A   1      32.869  24.547  23.021  1.00  0.00     0.100 C 
ATOM     13  C   UNL A   1      34.211  25.270  22.739  1.00  0.00     0.048 C 
BRANCH  12  14
ATOM     14  O   UNL A   1      32.260  24.480  21.715  1.00  0.00    -0.385 OA
ATOM     15  H   UNL A   1      31.434  24.989  21.717  1.00  0.00     0.211 HD
ENDBRANCH  12  14
BRANCH  12  16
ATOM     16  C   UNL A   1      33.143  23.098  23.435  1.00  0.00    -0.014 A 
ATOM     17  C   UNL A   1      32.221  22.074  23.153  1.00  0.00     0.008 A 
ATOM     18  C   UNL A   1      34.330  22.728  24.099  1.00  0.00     0.028 A 
ATOM     19  C   UNL A   1      32.453  20.752  23.551  1.00  0.00     0.022 A 
ATOM     20  C   UNL A   1      34.549  21.415  24.536  1.00  0.00     0.060 A 
ATOM     21  C   UNL A   1      33.608  20.422  24.261  1.00  0.00     0.059 A 
ATOM     22  Cl  UNL A   1      35.990  21.109  25.441  1.00  0.00    -0.083 Cl
ATOM     23  Cl  UNL A   1      33.809  18.787  24.771  1.00  0.00    -0.083 Cl
ENDBRANCH  12  16
ENDBRANCH   7  12
ENDBRANCH   5   7
ENDBRANCH   4   5
ENDBRANCH   3   4
ENDBRANCH   2   3
ENDBRANCH   1   2
BRANCH   1  24
ATOM     24  C   UNL A   1      31.374  29.412  25.128  1.00  0.00     0.202 C 
BRANCH  24  25
ATOM     25  C   UNL A   1      31.619  30.717  25.894  1.00  0.00     0.261 C 
BRANCH  25  26
ATOM     26  O   UNL A   1      32.603  30.555  26.929  1.00  0.00    -0.460 OA
BRANCH  26  27
ATOM     27  C   UNL A   1      33.247  31.692  27.287  1.00  0.00     0.338 C 
ATOM     28  O   UNL A   1      32.771  32.812  27.370  1.00  0.00    -0.246 OA
BRANCH  27  29
ATOM     29  C   UNL A   1      34.612  31.369  27.745  1.00  0.00     0.060 A 
ATOM     30  C   UNL A   1      34.913  30.025  28.000  1.00  0.00     0.016 A 
ATOM     31  C   UNL A   1      35.550  32.370  28.001  1.00  0.00     0.016 A 
ATOM     32  C   UNL A   1      36.141  29.679  28.563  1.00  0.00     0.010 A 
ATOM     33  C   UNL A   1      36.775  32.022  28.574  1.00  0.00     0.010 A 
ATOM     34  C   UNL A   1      37.060  30.682  28.893  1.00  0.00    -0.014 A 
BRANCH  34  35
ATOM     35  C   UNL A   1      38.252  30.366  29.715  1.00  0.00     0.031 A 
ATOM     36  C   UNL A   1      39.256  29.384  29.180  1.00  0.00     0.074 A 
ATOM     37  C   UNL A   1      38.415  30.912  30.933  1.00  0.00     0.049 A 
ATOM     38  N   UNL A   1      40.295  28.856  29.771  1.00  0.00    -0.248 NA
ATOM     39  C   UNL A   1      39.056  28.929  27.793  1.00  0.00     0.031 C 
ATOM     40  C   UNL A   1      37.521  31.892  31.547  1.00  0.00     0.029 A 
ATOM     41  N   UNL A   1      39.375  30.684  31.887  1.00  0.00    -0.354 N 
ATOM     42  C   UNL A   1      40.849  27.977  28.848  1.00  0.00     0.074 A 
ATOM     43  C   UNL A   1      40.033  28.043  27.655  1.00  0.00     0.031 C 
ATOM     44  C   UNL A   1      37.951  32.151  32.794  1.00  0.00     0.029 A 
ATOM     45  C   UNL A   1      39.127  31.329  33.076  1.00  0.00     0.049 A 
ATOM     46  H   UNL A   1      40.163  30.115  31.735  1.00  0.00     0.167 HD
ATOM     47  C   UNL A   1      41.944  27.193  28.978  1.00  0.00     0.034 A 
ATOM     48  C   UNL A   1      39.756  31.236  34.265  1.00  0.00     0.034 A 
ATOM     49  C   UNL A   1      42.765  27.149  30.157  1.00  0.00     0.049 A 
ATOM     50  C   UNL A   1      40.952  30.328  34.397  1.00  0.00     0.074 A 
ATOM     51  C   UNL A   1      43.918  26.417  30.373  1.00  0.00     0.029 A 
ATOM     52  N   UNL A   1      42.514  27.859  31.320  1.00  0.00    -0.354 N 
ATOM     53  N   UNL A   1      41.524  29.578  33.486  1.00  0.00    -0.248 NA
ATOM     54  C   UNL A   1      41.607  30.271  35.713  1.00  0.00     0.031 C 
ATOM     55  C   UNL A   1      44.353  26.667  31.678  1.00  0.00     0.029 A 
ATOM     56  C   UNL A   1      43.486  27.577  32.263  1.00  0.00     0.049 A 
ATOM     57  H   UNL A   1      41.756  28.473  31.455  1.00  0.00     0.167 HD
ATOM     58  C   UNL A   1      42.628  28.998  34.103  1.00  0.00     0.074 A 
ATOM     59  C   UNL A   1      42.649  29.488  35.465  1.00  0.00     0.031 C 
ATOM     60  C   UNL A   1      43.535  28.131  33.592  1.00  0.00     0.034 A 
BRANCH  47  61
ATOM     61  C   UNL A   1      42.332  26.329  27.808  1.00  0.00     0.023 A 
ATOM     62  C   UNL A   1      43.187  26.847  26.813  1.00  0.00     0.012 A 
ATOM     63  C   UNL A   1      41.901  24.992  27.724  1.00  0.00     0.148 A 
ATOM     64  C   UNL A   1      43.584  26.054  25.737  1.00  0.00     0.002 A 
ATOM     65  C   UNL A   1      42.335  24.195  26.671  1.00  0.00     0.091 A 
ATOM     66  F   UNL A   1      41.070  24.527  28.667  1.00  0.00    -0.205 F 
ATOM     67  C   UNL A   1      43.167  24.726  25.672  1.00  0.00     0.022 A 
BRANCH  65  68
ATOM     68  S   UNL A   1      41.913  22.453  26.539  1.00  0.00     0.127 S 
ATOM     69  O   UNL A   1      42.439  22.121  25.216  1.00  0.00    -0.237 OA
ATOM     70  O   UNL A   1      42.660  21.870  27.655  1.00  0.00    -0.237 OA
ATOM     71  O   UNL A   1      40.466  22.380  26.675  1.00  0.00    -0.744 OA
ENDBRANCH  65  68
ENDBRANCH  47  61
BRANCH  48  72
ATOM     72  C   UNL A   1      39.280  32.043  35.424  1.00  0.00     0.023 A 
ATOM     73  C   UNL A   1      39.518  33.430  35.446  1.00  0.00     0.012 A 
ATOM     74  C   UNL A   1      38.582  31.448  36.493  1.00  0.00     0.148 A 
ATOM     75  C   UNL A   1      39.093  34.207  36.525  1.00  0.00     0.002 A 
ATOM     76  C   UNL A   1      38.113  32.236  37.537  1.00  0.00     0.091 A 
ATOM     77  F   UNL A   1      38.382  30.122  36.461  1.00  0.00    -0.205 F 
ATOM     78  C   UNL A   1      38.382  33.612  37.565  1.00  0.00     0.022 A 
BRANCH  76  79
ATOM     79  S   UNL A   1      37.079  31.578  38.851  1.00  0.00     0.127 S 
ATOM     80  O   UNL A   1      37.925  31.777  40.024  1.00  0.00    -0.237 OA
ATOM     81  O   UNL A   1      35.909  32.454  38.778  1.00  0.00    -0.237 OA
ATOM     82  O   UNL A   1      36.816  30.193  38.484  1.00  0.00    -0.744 OA
ENDBRANCH  76  79
ENDBRANCH  48  72
BRANCH  60  83
ATOM     83  C   UNL A   1      44.675  27.692  34.473  1.00  0.00     0.023 A 
ATOM     84  C   UNL A   1      45.846  28.470  34.546  1.00  0.00     0.012 A 
ATOM     85  C   UNL A   1      44.530  26.573  35.317  1.00  0.00     0.148 A 
ATOM     86  C   UNL A   1      46.865  28.130  35.436  1.00  0.00     0.002 A 
ATOM     87  C   UNL A   1      45.528  26.269  36.234  1.00  0.00     0.091 A 
ATOM     88  F   UNL A   1      43.412  25.839  35.219  1.00  0.00    -0.205 F 
ATOM     89  C   UNL A   1      46.700  27.040  36.290  1.00  0.00     0.022 A 
BRANCH  87  90
ATOM     90  S   UNL A   1      45.361  24.948  37.440  1.00  0.00     0.127 S 
ATOM     91  O   UNL A   1      45.331  23.764  36.583  1.00  0.00    -0.237 OA
ATOM     92  O   UNL A   1      46.582  25.096  38.233  1.00  0.00    -0.237 OA
ATOM     93  O   UNL A   1      44.129  25.219  38.169  1.00  0.00    -0.744 OA
ENDBRANCH  87  90
ENDBRANCH  60  83
ENDBRANCH  34  35
ENDBRANCH  27  29
ENDBRANCH  26  27
ENDBRANCH  25  26
ENDBRANCH  24  25
ENDBRANCH   1  24
TORSDOF 23
ENDMDL
MODEL 2
REMARK VINA RESULT:     -10.3      5.028     10.686
REMARK SMILES CCCC[C@H](C(=O)OCCOCCOC(=O)c1ccc(-c2c3nc(c(-c4cccc(S(=O)(=O)[O-])c4F)c4ccc([nH]4)c(-c4cccc(S(=O)(=O)[O-])c4F)c4nc(c(-c5cccc(S(=O)(=O)[O-])c5F)c5ccc2[nH]5)C=C4)C=C3)cc1)[C@](C)(O)c1ccc(Cl)c(Cl)c1
REMARK SMILES IDX 11 1 10 2 9 3 8 4 6 5 7 6 5 7 4 8 3 9 2 10 1 11 80 12 81 13
REMARK SMILES IDX 82 14 83 16 84 17 90 18 85 19 88 20 86 21 89 22 87 23 12 24
REMARK SMILES IDX 13 25 14 26 15 27 16 28 17 29 18 30 79 31 19 32 78 33 20 34
REMARK SMILES IDX 21 35 22 36 72 37 23 38 77 39 71 40 73 41 24 42 76 43 70 44
REMARK SMILES IDX 69 45 25 47 57 48 37 49 56 50 38 51 41 52 55 53 74 54 39 55
REMARK SMILES IDX 40 56 54 58 75 59 42 60 26 61 27 62 35 63 28 64 30 65 36 66
REMARK SMILES IDX 29 67 31 68 32 69 33 70 34 71 58 72 59 73 67 74 60 75 62 76
REMARK SMILES IDX 68 77 61 78 63 79 64 80 65 81 66 82 43 83 44 84 52 85 45 86
REMARK SMILES IDX 47 87 53 88 46 89 48 90 49 91 50 92 51 93
REMARK H PARENT 82 15 73 46 41 57
REMARK Flexibility Score: inf
ROOT
ATOM      1  O   UNL A   1      32.761  34.494  28.491  1.00  0.00    -0.374 OA
ENDROOT
BRANCH   1   2
ATOM      2  C   UNL A   1      33.769  34.967  29.387  1.00  0.00     0.202 C 
BRANCH   2   3
ATOM      3  C   UNL A   1      33.322  35.083  30.846  1.00  0.00     0.261 C 
BRANCH   3   4
ATOM      4  O   UNL A   1      34.447  34.829  31.701  1.00  0.00    -0.463 OA
BRANCH   4   5
ATOM      5  C   UNL A   1      34.676  33.557  32.081  1.00  0.00     0.312 C 
ATOM      6  O   UNL A   1      33.795  32.748  32.364  1.00  0.00    -0.252 OA
BRANCH   5   7
ATOM      7  C   UNL A   1      36.142  33.142  31.973  1.00  0.00     0.135 C 
BRANCH   7   8
ATOM      8  C   UNL A   1      37.057  33.834  30.914  1.00  0.00     0.019 C 
BRANCH   8   9
ATOM      9  C   UNL A   1      37.559  33.129  29.643  1.00  0.00     0.001 C 
BRANCH   9  10
ATOM     10  C   UNL A   1      38.798  33.695  28.956  1.00  0.00    -0.003 C 
ATOM     11  C   UNL A   1      39.348  34.928  29.648  1.00  0.00     0.004 C 
ENDBRANCH   9  10
ENDBRANCH   8   9
ENDBRANCH   7   8
BRANCH   7  12
ATOM     12  C   UNL A   1      36.746  32.706  33.376  1.00  0.00     0.100 C 
ATOM     13  C   UNL A   1      37.151  31.211  33.315  1.00  0.00     0.048 C 
BRANCH  12  14
ATOM     14  O   UNL A   1      35.748  32.727  34.416  1.00  0.00    -0.385 OA
ATOM     15  H   UNL A   1      35.204  31.925  34.359  1.00  0.00     0.211 HD
ENDBRANCH  12  14
BRANCH  12  16
ATOM     16  C   UNL A   1      37.922  33.536  33.901  1.00  0.00    -0.014 A 
ATOM     17  C   UNL A   1      37.891  34.111  35.185  1.00  0.00     0.008 A 
ATOM     18  C   UNL A   1      39.083  33.746  33.132  1.00  0.00     0.028 A 
ATOM     19  C   UNL A   1      38.950  34.891  35.662  1.00  0.00     0.022 A 
ATOM     20  C   UNL A   1      40.129  34.560  33.587  1.00  0.00     0.060 A 
ATOM     21  C   UNL A   1      40.064  35.135  34.857  1.00  0.00     0.059 A 
ATOM     22  Cl  UNL A   1      41.450  34.835  32.506  1.00  0.00    -0.083 Cl
ATOM     23  Cl  UNL A   1      41.310  36.150  35.481  1.00  0.00    -0.083 Cl
ENDBRANCH  12  16
ENDBRANCH   7  12
ENDBRANCH   5   7
ENDBRANCH   4   5
ENDBRANCH   3   4
ENDBRANCH   2   3
ENDBRANCH   1   2
BRANCH   1  24
ATOM     24  C   UNL A   1      33.017  33.262  27.817  1.00  0.00     0.202 C 
BRANCH  24  25
ATOM     25  C   UNL A   1      34.076  32.356  28.455  1.00  0.00     0.261 C 
BRANCH  25  26
ATOM     26  O   UNL A   1      34.768  31.566  27.474  1.00  0.00    -0.460 OA
BRANCH  26  27
ATOM     27  C   UNL A   1      34.903  30.255  27.789  1.00  0.00     0.338 C 
ATOM     28  O   UNL A   1      34.130  29.351  27.521  1.00  0.00    -0.246 OA
BRANCH  27  29
ATOM     29  C   UNL A   1      36.236  30.017  28.376  1.00  0.00     0.060 A 
ATOM     30  C   UNL A   1      37.354  30.200  27.551  1.00  0.00     0.016 A 
ATOM     31  C   UNL A   1      36.384  29.542  29.680  1.00  0.00     0.016 A 
ATOM     32  C   UNL A   1      38.624  29.859  28.011  1.00  0.00     0.010 A 
ATOM     33  C   UNL A   1      37.656  29.191  30.135  1.00  0.00     0.010 A 
ATOM     34  C   UNL A   1      38.775  29.311  29.291  1.00  0.00    -0.014 A 
BRANCH  34  35
ATOM     35  C   UNL A   1      40.066  28.712  29.703  1.00  0.00     0.031 A 
ATOM     36  C   UNL A   1      40.861  29.388  30.785  1.00  0.00     0.074 A 
ATOM     37  C   UNL A   1      40.541  27.611  29.095  1.00  0.00     0.049 A 
ATOM     38  N   UNL A   1      42.068  29.126  31.213  1.00  0.00    -0.248 NA
ATOM     39  C   UNL A   1      40.210  30.516  31.472  1.00  0.00     0.031 C 
ATOM     40  C   UNL A   1      39.851  26.857  28.050  1.00  0.00     0.029 A 
ATOM     41  N   UNL A   1      41.740  26.960  29.247  1.00  0.00    -0.354 N 
ATOM     42  C   UNL A   1      42.338  30.080  32.187  1.00  0.00     0.074 A 
ATOM     43  C   UNL A   1      41.169  30.926  32.290  1.00  0.00     0.031 C 
ATOM     44  C   UNL A   1      40.656  25.869  27.623  1.00  0.00     0.029 A 
ATOM     45  C   UNL A   1      41.929  25.945  28.339  1.00  0.00     0.049 A 
ATOM     46  H   UNL A   1      42.400  27.197  29.938  1.00  0.00     0.167 HD
ATOM     47  C   UNL A   1      43.455  30.232  32.936  1.00  0.00     0.034 A 
ATOM     48  C   UNL A   1      43.018  25.189  28.091  1.00  0.00     0.034 A 
ATOM     49  C   UNL A   1      44.605  29.374  32.846  1.00  0.00     0.049 A 
ATOM     50  C   UNL A   1      44.264  25.401  28.912  1.00  0.00     0.074 A 
ATOM     51  C   UNL A   1      45.771  29.420  33.588  1.00  0.00     0.029 A 
ATOM     52  N   UNL A   1      44.736  28.322  31.954  1.00  0.00    -0.354 N 
ATOM     53  N   UNL A   1      44.471  26.241  29.898  1.00  0.00    -0.248 NA
ATOM     54  C   UNL A   1      45.420  24.544  28.607  1.00  0.00     0.031 C 
ATOM     55  C   UNL A   1      46.619  28.408  33.128  1.00  0.00     0.029 A 
ATOM     56  C   UNL A   1      45.968  27.714  32.120  1.00  0.00     0.049 A 
ATOM     57  H   UNL A   1      44.055  28.047  31.299  1.00  0.00     0.167 HD
ATOM     58  C   UNL A   1      45.759  25.984  30.358  1.00  0.00     0.074 A 
ATOM     59  C   UNL A   1      46.283  24.905  29.548  1.00  0.00     0.031 C 
ATOM     60  C   UNL A   1      46.447  26.592  31.354  1.00  0.00     0.034 A 
BRANCH  47  61
ATOM     61  C   UNL A   1      43.484  31.358  33.934  1.00  0.00     0.023 A 
ATOM     62  C   UNL A   1      44.068  32.590  33.578  1.00  0.00     0.012 A 
ATOM     63  C   UNL A   1      42.882  31.216  35.199  1.00  0.00     0.148 A 
ATOM     64  C   UNL A   1      44.078  33.656  34.477  1.00  0.00     0.002 A 
ATOM     65  C   UNL A   1      42.858  32.296  36.073  1.00  0.00     0.091 A 
ATOM     66  F   UNL A   1      42.354  30.028  35.526  1.00  0.00    -0.205 F 
ATOM     67  C   UNL A   1      43.464  33.512  35.719  1.00  0.00     0.022 A 
BRANCH  65  68
ATOM     68  S   UNL A   1      42.027  32.232  37.665  1.00  0.00     0.127 S 
ATOM     69  O   UNL A   1      40.634  32.047  37.263  1.00  0.00    -0.237 OA
ATOM     70  O   UNL A   1      42.643  31.060  38.289  1.00  0.00    -0.237 OA
ATOM     71  O   UNL A   1      42.326  33.496  38.324  1.00  0.00    -0.744 OA
ENDBRANCH  65  68
ENDBRANCH  47  61
BRANCH  48  72
ATOM     72  C   UNL A   1      42.974  24.145  27.029  1.00  0.00     0.023 A 
ATOM     73  C   UNL A   1      43.582  24.396  25.784  1.00  0.00     0.012 A 
ATOM     74  C   UNL A   1      42.347  22.902  27.249  1.00  0.00     0.148 A 
ATOM     75  C   UNL A   1      43.544  23.439  24.769  1.00  0.00     0.002 A 
ATOM     76  C   UNL A   1      42.362  21.933  26.253  1.00  0.00     0.091 A 
ATOM     77  F   UNL A   1      41.758  22.690  28.435  1.00  0.00    -0.205 F 
ATOM     78  C   UNL A   1      42.944  22.205  25.006  1.00  0.00     0.022 A 
BRANCH  76  79
ATOM     79  S   UNL A   1      41.728  20.274  26.515  1.00  0.00     0.127 S 
ATOM     80  O   UNL A   1      42.325  19.926  27.801  1.00  0.00    -0.237 OA
ATOM     81  O   UNL A   1      40.283  20.507  26.549  1.00  0.00    -0.237 OA
ATOM     82  O   UNL A   1      42.183  19.496  25.371  1.00  0.00    -0.744 OA
ENDBRANCH  76  79
ENDBRANCH  48  72
BRANCH  60  83
ATOM     83  C   UNL A   1      47.824  26.078  31.685  1.00  0.00     0.023 A 
ATOM     84  C   UNL A   1      48.944  26.567  30.987  1.00  0.00     0.012 A 
ATOM     85  C   UNL A   1      48.011  25.200  32.772  1.00  0.00     0.148 A 
ATOM     86  C   UNL A   1      50.231  26.176  31.355  1.00  0.00     0.002 A 
ATOM     87  C   UNL A   1      49.298  24.854  33.163  1.00  0.00     0.091 A 
ATOM     88  F   UNL A   1      46.928  24.736  33.413  1.00  0.00    -0.205 F 
ATOM     89  C   UNL A   1      50.409  25.333  32.451  1.00  0.00     0.022 A 
BRANCH  87  90
ATOM     90  S   UNL A   1      49.630  23.856  34.620  1.00  0.00     0.127 S 
ATOM     91  O   UNL A   1      48.688  24.420  35.587  1.00  0.00    -0.237 OA
ATOM     92  O   UNL A   1      49.294  22.509  34.156  1.00  0.00    -0.237 OA
ATOM     93  O   UNL A   1      51.038  24.056  34.935  1.00  0.00    -0.744 OA
ENDBRANCH  87  90
ENDBRANCH  60  83
ENDBRANCH  34  35
ENDBRANCH  27  29
ENDBRANCH  26  27
ENDBRANCH  25  26
ENDBRANCH  24  25
ENDBRANCH   1  24
TORSDOF 23
ENDMDL
MODEL 3
REMARK VINA RESULT:     -10.2      1.950      2.913
REMARK SMILES CCCC[C@H](C(=O)OCCOCCOC(=O)c1ccc(-c2c3nc(c(-c4cccc(S(=O)(=O)[O-])c4F)c4ccc([nH]4)c(-c4cccc(S(=O)(=O)[O-])c4F)c4nc(c(-c5cccc(S(=O)(=O)[O-])c5F)c5ccc2[nH]5)C=C4)C=C3)cc1)[C@](C)(O)c1ccc(Cl)c(Cl)c1
REMARK SMILES IDX 11 1 10 2 9 3 8 4 6 5 7 6 5 7 4 8 3 9 2 10 1 11 80 12 81 13
REMARK SMILES IDX 82 14 83 16 84 17 90 18 85 19 88 20 86 21 89 22 87 23 12 24
REMARK SMILES IDX 13 25 14 26 15 27 16 28 17 29 18 30 79 31 19 32 78 33 20 34
REMARK SMILES IDX 21 35 22 36 72 37 23 38 77 39 71 40 73 41 24 42 76 43 70 44
REMARK SMILES IDX 69 45 25 47 57 48 37 49 56 50 38 51 41 52 55 53 74 54 39 55
REMARK SMILES IDX 40 56 54 58 75 59 42 60 26 61 27 62 35 63 28 64 30 65 36 66
REMARK SMILES IDX 29 67 31 68 32 69 33 70 34 71 58 72 59 73 67 74 60 75 62 76
REMARK SMILES IDX 68 77 61 78 63 79 64 80 65 81 66 82 43 83 44 84 52 85 45 86
REMARK SMILES IDX 47 87 53 88 46 89 48 90 49 91 50 92 51 93
REMARK H PARENT 82 15 73 46 41 57
REMARK Flexibility Score: inf
ROOT
ATOM      1  O   UNL A   1      33.323  28.864  25.579  1.00  0.00    -0.374 OA
ENDROOT
BRANCH   1   2
ATOM      2  C   UNL A   1      33.043  27.617  26.220  1.00  0.00     0.202 C 
BRANCH   2   3
ATOM      3  C   UNL A   1      33.670  26.397  25.544  1.00  0.00     0.261 C 
BRANCH   3   4
ATOM      4  O   UNL A   1      32.956  25.219  25.949  1.00  0.00    -0.463 OA
BRANCH   4   5
ATOM      5  C   UNL A   1      33.206  24.072  25.289  1.00  0.00     0.312 C 
ATOM      6  O   UNL A   1      33.050  22.949  25.765  1.00  0.00    -0.252 OA
BRANCH   5   7
ATOM      7  C   UNL A   1      33.553  24.278  23.816  1.00  0.00     0.135 C 
BRANCH   7   8
ATOM      8  C   UNL A   1      34.906  23.727  23.264  1.00  0.00     0.019 C 
BRANCH   8   9
ATOM      9  C   UNL A   1      36.033  23.198  24.166  1.00  0.00     0.001 C 
BRANCH   9  10
ATOM     10  C   UNL A   1      36.086  21.698  24.435  1.00  0.00    -0.003 C 
ATOM     11  C   UNL A   1      37.208  21.304  25.378  1.00  0.00     0.004 C 
ENDBRANCH   9  10
ENDBRANCH   8   9
ENDBRANCH   7   8
BRANCH   7  12
ATOM     12  C   UNL A   1      32.261  24.274  22.890  1.00  0.00     0.100 C 
ATOM     13  C   UNL A   1      31.383  23.047  23.246  1.00  0.00     0.048 C 
BRANCH  12  14
ATOM     14  O   UNL A   1      32.598  24.040  21.508  1.00  0.00    -0.385 OA
ATOM     15  H   UNL A   1      31.872  24.347  20.942  1.00  0.00     0.211 HD
ENDBRANCH  12  14
BRANCH  12  16
ATOM     16  C   UNL A   1      31.404  25.543  22.908  1.00  0.00    -0.014 A 
ATOM     17  C   UNL A   1      31.893  26.759  22.397  1.00  0.00     0.008 A 
ATOM     18  C   UNL A   1      30.092  25.544  23.421  1.00  0.00     0.028 A 
ATOM     19  C   UNL A   1      31.125  27.928  22.432  1.00  0.00     0.022 A 
ATOM     20  C   UNL A   1      29.334  26.720  23.497  1.00  0.00     0.060 A 
ATOM     21  C   UNL A   1      29.851  27.917  23.001  1.00  0.00     0.059 A 
ATOM     22  Cl  UNL A   1      27.781  26.617  24.252  1.00  0.00    -0.083 Cl
ATOM     23  Cl  UNL A   1      28.977  29.403  23.065  1.00  0.00    -0.083 Cl
ENDBRANCH  12  16
ENDBRANCH   7  12
ENDBRANCH   5   7
ENDBRANCH   4   5
ENDBRANCH   3   4
ENDBRANCH   2   3
ENDBRANCH   1   2
BRANCH   1  24
ATOM     24  C   UNL A   1      32.221  29.743  25.355  1.00  0.00     0.202 C 
BRANCH  24  25
ATOM     25  C   UNL A   1      31.951  30.774  26.457  1.00  0.00     0.261 C 
BRANCH  25  26
ATOM     26  O   UNL A   1      32.930  30.707  27.507  1.00  0.00    -0.460 OA
BRANCH  26  27
ATOM     27  C   UNL A   1      33.706  31.811  27.634  1.00  0.00     0.338 C 
ATOM     28  O   UNL A   1      33.342  32.973  27.599  1.00  0.00    -0.246 OA
BRANCH  27  29
ATOM     29  C   UNL A   1      35.079  31.415  28.002  1.00  0.00     0.060 A 
ATOM     30  C   UNL A   1      35.329  30.054  28.221  1.00  0.00     0.016 A 
ATOM     31  C   UNL A   1      36.079  32.365  28.212  1.00  0.00     0.016 A 
ATOM     32  C   UNL A   1      36.570  29.641  28.703  1.00  0.00     0.010 A 
ATOM     33  C   UNL A   1      37.318  31.950  28.704  1.00  0.00     0.010 A 
ATOM     34  C   UNL A   1      37.556  30.593  28.988  1.00  0.00    -0.014 A 
BRANCH  34  35
ATOM     35  C   UNL A   1      38.779  30.207  29.731  1.00  0.00     0.031 A 
ATOM     36  C   UNL A   1      39.680  29.158  29.139  1.00  0.00     0.074 A 
ATOM     37  C   UNL A   1      39.059  30.749  30.929  1.00  0.00     0.049 A 
ATOM     38  N   UNL A   1      40.721  28.569  29.664  1.00  0.00    -0.248 NA
ATOM     39  C   UNL A   1      39.357  28.708  27.775  1.00  0.00     0.031 C 
ATOM     40  C   UNL A   1      38.274  31.788  31.591  1.00  0.00     0.029 A 
ATOM     41  N   UNL A   1      40.066  30.467  31.817  1.00  0.00    -0.354 N 
ATOM     42  C   UNL A   1      41.154  27.650  28.715  1.00  0.00     0.074 A 
ATOM     43  C   UNL A   1      40.264  27.760  27.580  1.00  0.00     0.031 C 
ATOM     44  C   UNL A   1      38.803  32.028  32.803  1.00  0.00     0.029 A 
ATOM     45  C   UNL A   1      39.942  31.134  33.013  1.00  0.00     0.049 A 
ATOM     46  H   UNL A   1      40.805  29.847  31.619  1.00  0.00     0.167 HD
ATOM     47  C   UNL A   1      42.203  26.798  28.780  1.00  0.00     0.034 A 
ATOM     48  C   UNL A   1      40.644  31.009  34.158  1.00  0.00     0.034 A 
ATOM     49  C   UNL A   1      43.099  26.710  29.901  1.00  0.00     0.049 A 
ATOM     50  C   UNL A   1      41.786  30.027  34.218  1.00  0.00     0.074 A 
ATOM     51  C   UNL A   1      44.216  25.907  30.046  1.00  0.00     0.029 A 
ATOM     52  N   UNL A   1      42.973  27.442  31.070  1.00  0.00    -0.354 N 
ATOM     53  N   UNL A   1      42.245  29.236  33.279  1.00  0.00    -0.248 NA
ATOM     54  C   UNL A   1      42.524  29.938  35.488  1.00  0.00     0.031 C 
ATOM     55  C   UNL A   1      44.754  26.138  31.316  1.00  0.00     0.029 A 
ATOM     56  C   UNL A   1      43.988  27.105  31.948  1.00  0.00     0.049 A 
ATOM     57  H   UNL A   1      42.267  28.104  31.250  1.00  0.00     0.167 HD
ATOM     58  C   UNL A   1      43.350  28.591  33.826  1.00  0.00     0.074 A 
ATOM     59  C   UNL A   1      43.495  29.087  35.178  1.00  0.00     0.031 C 
ATOM     60  C   UNL A   1      44.163  27.664  33.264  1.00  0.00     0.034 A 
BRANCH  47  61
ATOM     61  C   UNL A   1      42.455  25.904  27.596  1.00  0.00     0.023 A 
ATOM     62  C   UNL A   1      43.185  26.395  26.494  1.00  0.00     0.012 A 
ATOM     63  C   UNL A   1      42.023  24.564  27.599  1.00  0.00     0.148 A 
ATOM     64  C   UNL A   1      43.455  25.574  25.400  1.00  0.00     0.002 A 
ATOM     65  C   UNL A   1      42.333  23.740  26.524  1.00  0.00     0.091 A 
ATOM     66  F   UNL A   1      41.310  24.124  28.645  1.00  0.00    -0.205 F 
ATOM     67  C   UNL A   1      43.040  24.245  25.420  1.00  0.00     0.022 A 
BRANCH  65  68
ATOM     68  S   UNL A   1      41.907  21.994  26.490  1.00  0.00     0.127 S 
ATOM     69  O   UNL A   1      42.333  21.561  27.819  1.00  0.00    -0.237 OA
ATOM     70  O   UNL A   1      40.456  22.034  26.297  1.00  0.00    -0.237 OA
ATOM     71  O   UNL A   1      42.650  21.422  25.376  1.00  0.00    -0.744 OA
ENDBRANCH  65  68
ENDBRANCH  47  61
BRANCH  48  72
ATOM     72  C   UNL A   1      40.300  31.852  35.337  1.00  0.00     0.023 A 
ATOM     73  C   UNL A   1      41.081  32.988  35.628  1.00  0.00     0.012 A 
ATOM     74  C   UNL A   1      39.199  31.546  36.161  1.00  0.00     0.148 A 
ATOM     75  C   UNL A   1      40.787  33.788  36.734  1.00  0.00     0.002 A 
ATOM     76  C   UNL A   1      38.880  32.379  37.227  1.00  0.00     0.091 A 
ATOM     77  F   UNL A   1      38.480  30.451  35.878  1.00  0.00    -0.205 F 
ATOM     78  C   UNL A   1      39.682  33.489  37.526  1.00  0.00     0.022 A 
BRANCH  76  79
ATOM     79  S   UNL A   1      37.402  32.145  38.222  1.00  0.00     0.127 S 
ATOM     80  O   UNL A   1      37.176  30.709  38.087  1.00  0.00    -0.237 OA
ATOM     81  O   UNL A   1      37.860  32.576  39.544  1.00  0.00    -0.237 OA
ATOM     82  O   UNL A   1      36.390  33.007  37.626  1.00  0.00    -0.744 OA
ENDBRANCH  76  79
ENDBRANCH  48  72
BRANCH  60  83
ATOM     83  C   UNL A   1      45.331  27.159  34.070  1.00  0.00     0.023 A 
ATOM     84  C   UNL A   1      46.575  27.812  33.990  1.00  0.00     0.012 A 
ATOM     85  C   UNL A   1      45.154  26.112  34.998  1.00  0.00     0.148 A 
ATOM     86  C   UNL A   1      47.633  27.419  34.809  1.00  0.00     0.002 A 
ATOM     87  C   UNL A   1      46.198  25.758  35.843  1.00  0.00     0.091 A 
ATOM     88  F   UNL A   1      43.964  25.496  35.045  1.00  0.00    -0.205 F 
ATOM     89  C   UNL A   1      47.440  26.404  35.745  1.00  0.00     0.022 A 
BRANCH  87  90
ATOM     90  S   UNL A   1      46.013  24.534  37.145  1.00  0.00     0.127 S 
ATOM     91  O   UNL A   1      45.818  23.306  36.374  1.00  0.00    -0.237 OA
ATOM     92  O   UNL A   1      47.299  24.621  37.838  1.00  0.00    -0.237 OA
ATOM     93  O   UNL A   1      44.867  24.957  37.938  1.00  0.00    -0.744 OA
ENDBRANCH  87  90
ENDBRANCH  60  83
ENDBRANCH  34  35
ENDBRANCH  27  29
ENDBRANCH  26  27
ENDBRANCH  25  26
ENDBRANCH  24  25
ENDBRANCH   1  24
TORSDOF 23
ENDMDL
