MODEL 1
REMARK VINA RESULT:     -10.0      0.000      0.000
REMARK SMILES C[C@@H](C(=O)OCCOCCOC(=O)c1ccc(-c2c3nc(c(-c4cccc(S(=O)(=O)[O-])c4F)c4ccc([nH]4)c(-c4cccc(S(=O)(=O)[O-])c4F)c4nc(c(-c5cccc(S(=O)(=O)[O-])c5F)c5ccc2[nH]5)C=C4)C=C3)cc1)c1ccc(N[C@H]2CCC[C@@H]2O)cc1F
REMARK SMILES IDX 7 1 6 2 5 3 3 4 4 5 2 6 1 7 77 8 78 9 89 10 79 11 88 12
REMARK SMILES IDX 90 13 80 14 81 15 82 17 83 18 86 19 84 20 85 21 87 22 8 24
REMARK SMILES IDX 9 25 10 26 11 27 12 28 13 29 14 30 15 31 76 32 16 33 75 34
REMARK SMILES IDX 17 35 18 36 19 37 69 38 20 39 74 40 68 41 70 42 21 43 73 44
REMARK SMILES IDX 67 45 66 46 22 48 54 49 34 50 53 51 35 52 38 53 52 54 71 55
REMARK SMILES IDX 36 56 37 57 51 59 72 60 39 61 23 62 24 63 32 64 25 65 27 66
REMARK SMILES IDX 33 67 26 68 28 69 29 70 30 71 31 72 55 73 56 74 64 75 57 76
REMARK SMILES IDX 59 77 65 78 58 79 60 80 61 81 62 82 63 83 40 84 41 85 49 86
REMARK SMILES IDX 42 87 44 88 50 89 43 90 45 91 46 92 47 93 48 94
REMARK H PARENT 81 16 87 23 70 47 38 58
REMARK Flexibility Score: inf
ROOT
ATOM      1  C   UNL A   1      36.353  23.293  23.730  1.00  0.00     0.202 C 
ENDROOT
BRANCH   1   2
ATOM      2  C   UNL A   1      35.103  24.066  24.160  1.00  0.00     0.261 C 
BRANCH   2   3
ATOM      3  O   UNL A   1      35.060  24.271  25.582  1.00  0.00    -0.463 OA
BRANCH   3   4
ATOM      4  C   UNL A   1      34.107  23.557  26.245  1.00  0.00     0.313 C 
ATOM      5  O   UNL A   1      34.250  23.132  27.386  1.00  0.00    -0.252 OA
BRANCH   4   6
ATOM      6  C   UNL A   1      32.811  23.384  25.430  1.00  0.00     0.129 C 
ATOM      7  C   UNL A   1      31.572  24.012  26.084  1.00  0.00     0.025 C 
BRANCH   6   8
ATOM      8  C   UNL A   1      32.634  21.918  25.036  1.00  0.00     0.002 A 
ATOM      9  C   UNL A   1      32.907  20.836  25.880  1.00  0.00     0.010 A 
ATOM     10  C   UNL A   1      32.236  21.616  23.731  1.00  0.00     0.129 A 
ATOM     11  C   UNL A   1      32.815  19.512  25.410  1.00  0.00     0.026 A 
ATOM     12  C   UNL A   1      32.173  20.305  23.261  1.00  0.00     0.065 A 
ATOM     13  F   UNL A   1      31.899  22.604  22.889  1.00  0.00    -0.207 F 
ATOM     14  C   UNL A   1      32.478  19.218  24.086  1.00  0.00     0.037 A 
BRANCH  14  15
ATOM     15  N   UNL A   1      32.370  17.951  23.556  1.00  0.00    -0.380 N 
ATOM     16  H   UNL A   1      31.677  17.848  22.865  1.00  0.00     0.160 HD
BRANCH  15  17
ATOM     17  C   UNL A   1      33.120  16.738  23.857  1.00  0.00     0.107 C 
ATOM     18  C   UNL A   1      34.639  16.868  23.748  1.00  0.00     0.027 C 
ATOM     19  C   UNL A   1      32.829  16.154  25.248  1.00  0.00     0.136 C 
ATOM     20  C   UNL A   1      35.203  16.154  24.979  1.00  0.00     0.005 C 
ATOM     21  C   UNL A   1      34.060  15.306  25.521  1.00  0.00     0.034 C 
BRANCH  19  22
ATOM     22  O   UNL A   1      31.650  15.359  25.245  1.00  0.00    -0.391 OA
ATOM     23  H   UNL A   1      31.444  15.087  24.336  1.00  0.00     0.211 HD
ENDBRANCH  19  22
ENDBRANCH  15  17
ENDBRANCH  14  15
ENDBRANCH   6   8
ENDBRANCH   4   6
ENDBRANCH   3   4
ENDBRANCH   2   3
ENDBRANCH   1   2
BRANCH   1  24
ATOM     24  O   UNL A   1      37.239  22.858  24.760  1.00  0.00    -0.374 OA
BRANCH  24  25
ATOM     25  C   UNL A   1      37.575  21.471  24.797  1.00  0.00     0.202 C 
BRANCH  25  26
ATOM     26  C   UNL A   1      38.329  20.966  26.033  1.00  0.00     0.261 C 
BRANCH  26  27
ATOM     27  O   UNL A   1      39.721  20.718  25.763  1.00  0.00    -0.460 OA
BRANCH  27  28
ATOM     28  C   UNL A   1      40.514  20.680  26.862  1.00  0.00     0.338 C 
ATOM     29  O   UNL A   1      40.793  19.694  27.532  1.00  0.00    -0.246 OA
BRANCH  28  30
ATOM     30  C   UNL A   1      41.183  21.979  27.058  1.00  0.00     0.060 A 
ATOM     31  C   UNL A   1      41.581  22.306  28.361  1.00  0.00     0.016 A 
ATOM     32  C   UNL A   1      41.347  22.892  26.015  1.00  0.00     0.016 A 
ATOM     33  C   UNL A   1      42.096  23.571  28.637  1.00  0.00     0.010 A 
ATOM     34  C   UNL A   1      41.855  24.165  26.297  1.00  0.00     0.010 A 
ATOM     35  C   UNL A   1      42.194  24.524  27.615  1.00  0.00    -0.014 A 
BRANCH  35  36
ATOM     36  C   UNL A   1      42.510  25.931  27.961  1.00  0.00     0.031 A 
ATOM     37  C   UNL A   1      43.928  26.417  27.819  1.00  0.00     0.074 A 
ATOM     38  C   UNL A   1      41.548  26.771  28.379  1.00  0.00     0.049 A 
ATOM     39  N   UNL A   1      44.426  27.599  28.070  1.00  0.00    -0.248 NA
ATOM     40  C   UNL A   1      44.915  25.439  27.331  1.00  0.00     0.031 C 
ATOM     41  C   UNL A   1      40.139  26.421  28.552  1.00  0.00     0.029 A 
ATOM     42  N   UNL A   1      41.616  28.089  28.754  1.00  0.00    -0.354 N 
ATOM     43  C   UNL A   1      45.786  27.504  27.794  1.00  0.00     0.074 A 
ATOM     44  C   UNL A   1      46.037  26.143  27.371  1.00  0.00     0.031 C 
ATOM     45  C   UNL A   1      39.481  27.490  29.031  1.00  0.00     0.029 A 
ATOM     46  C   UNL A   1      40.424  28.593  29.215  1.00  0.00     0.049 A 
ATOM     47  H   UNL A   1      42.442  28.624  28.698  1.00  0.00     0.167 HD
ATOM     48  C   UNL A   1      46.735  28.466  27.866  1.00  0.00     0.034 A 
ATOM     49  C   UNL A   1      40.131  29.798  29.742  1.00  0.00     0.034 A 
ATOM     50  C   UNL A   1      46.482  29.824  28.266  1.00  0.00     0.049 A 
ATOM     51  C   UNL A   1      41.210  30.846  29.831  1.00  0.00     0.074 A 
ATOM     52  C   UNL A   1      47.371  30.882  28.330  1.00  0.00     0.029 A 
ATOM     53  N   UNL A   1      45.252  30.309  28.682  1.00  0.00    -0.354 N 
ATOM     54  N   UNL A   1      42.462  30.777  29.452  1.00  0.00    -0.248 NA
ATOM     55  C   UNL A   1      40.826  32.152  30.389  1.00  0.00     0.031 C 
ATOM     56  C   UNL A   1      46.682  32.003  28.806  1.00  0.00     0.029 A 
ATOM     57  C   UNL A   1      45.359  31.649  29.015  1.00  0.00     0.049 A 
ATOM     58  H   UNL A   1      44.425  29.779  28.734  1.00  0.00     0.167 HD
ATOM     59  C   UNL A   1      43.006  32.034  29.692  1.00  0.00     0.074 A 
ATOM     60  C   UNL A   1      41.941  32.853  30.231  1.00  0.00     0.031 C 
ATOM     61  C   UNL A   1      44.278  32.467  29.499  1.00  0.00     0.034 A 
BRANCH  48  62
ATOM     62  C   UNL A   1      48.138  28.090  27.470  1.00  0.00     0.023 A 
ATOM     63  C   UNL A   1      49.094  27.823  28.470  1.00  0.00     0.012 A 
ATOM     64  C   UNL A   1      48.497  27.952  26.115  1.00  0.00     0.148 A 
ATOM     65  C   UNL A   1      50.396  27.453  28.129  1.00  0.00     0.002 A 
ATOM     66  C   UNL A   1      49.784  27.543  25.783  1.00  0.00     0.091 A 
ATOM     67  F   UNL A   1      47.581  28.235  25.178  1.00  0.00    -0.205 F 
ATOM     68  C   UNL A   1      50.736  27.303  26.788  1.00  0.00     0.022 A 
BRANCH  66  69
ATOM     69  S   UNL A   1      50.298  27.252  24.087  1.00  0.00     0.127 S 
ATOM     70  O   UNL A   1      51.613  26.641  24.278  1.00  0.00    -0.237 OA
ATOM     71  O   UNL A   1      49.265  26.335  23.603  1.00  0.00    -0.237 OA
ATOM     72  O   UNL A   1      50.302  28.556  23.440  1.00  0.00    -0.744 OA
ENDBRANCH  66  69
ENDBRANCH  48  62
BRANCH  49  73
ATOM     73  C   UNL A   1      38.743  30.089  30.199  1.00  0.00     0.023 A 
ATOM     74  C   UNL A   1      38.364  29.786  31.521  1.00  0.00     0.012 A 
ATOM     75  C   UNL A   1      37.803  30.685  29.335  1.00  0.00     0.148 A 
ATOM     76  C   UNL A   1      37.068  30.047  31.966  1.00  0.00     0.002 A 
ATOM     77  C   UNL A   1      36.531  30.993  29.801  1.00  0.00     0.091 A 
ATOM     78  F   UNL A   1      38.176  30.946  28.074  1.00  0.00    -0.205 F 
ATOM     79  C   UNL A   1      36.155  30.660  31.111  1.00  0.00     0.022 A 
BRANCH  77  80
ATOM     80  S   UNL A   1      35.338  31.899  28.810  1.00  0.00     0.127 S 
ATOM     81  O   UNL A   1      34.453  32.449  29.834  1.00  0.00    -0.237 OA
ATOM     82  O   UNL A   1      36.188  32.881  28.137  1.00  0.00    -0.237 OA
ATOM     83  O   UNL A   1      34.740  30.914  27.919  1.00  0.00    -0.744 OA
ENDBRANCH  77  80
ENDBRANCH  49  73
BRANCH  61  84
ATOM     84  C   UNL A   1      44.590  33.903  29.840  1.00  0.00     0.023 A 
ATOM     85  C   UNL A   1      45.146  34.218  31.095  1.00  0.00     0.012 A 
ATOM     86  C   UNL A   1      44.405  34.925  28.888  1.00  0.00     0.148 A 
ATOM     87  C   UNL A   1      45.488  35.534  31.408  1.00  0.00     0.002 A 
ATOM     88  C   UNL A   1      44.791  36.226  29.190  1.00  0.00     0.091 A 
ATOM     89  F   UNL A   1      43.856  34.608  27.705  1.00  0.00    -0.205 F 
ATOM     90  C   UNL A   1      45.322  36.534  30.453  1.00  0.00     0.022 A 
BRANCH  88  91
ATOM     91  S   UNL A   1      44.701  37.559  27.988  1.00  0.00     0.127 S 
ATOM     92  O   UNL A   1      45.176  38.698  28.771  1.00  0.00    -0.237 OA
ATOM     93  O   UNL A   1      45.627  37.105  26.949  1.00  0.00    -0.237 OA
ATOM     94  O   UNL A   1      43.309  37.625  27.566  1.00  0.00    -0.744 OA
ENDBRANCH  88  91
ENDBRANCH  61  84
ENDBRANCH  35  36
ENDBRANCH  28  30
ENDBRANCH  27  28
ENDBRANCH  26  27
ENDBRANCH  25  26
ENDBRANCH  24  25
ENDBRANCH   1  24
TORSDOF 21
ENDMDL
MODEL 2
REMARK VINA RESULT:      -9.3      6.749     12.954
REMARK SMILES C[C@@H](C(=O)OCCOCCOC(=O)c1ccc(-c2c3nc(c(-c4cccc(S(=O)(=O)[O-])c4F)c4ccc([nH]4)c(-c4cccc(S(=O)(=O)[O-])c4F)c4nc(c(-c5cccc(S(=O)(=O)[O-])c5F)c5ccc2[nH]5)C=C4)C=C3)cc1)c1ccc(N[C@H]2CCC[C@@H]2O)cc1F
REMARK SMILES IDX 7 1 6 2 5 3 3 4 4 5 2 6 1 7 77 8 78 9 89 10 79 11 88 12
REMARK SMILES IDX 90 13 80 14 81 15 82 17 83 18 86 19 84 20 85 21 87 22 8 24
REMARK SMILES IDX 9 25 10 26 11 27 12 28 13 29 14 30 15 31 76 32 16 33 75 34
REMARK SMILES IDX 17 35 18 36 19 37 69 38 20 39 74 40 68 41 70 42 21 43 73 44
REMARK SMILES IDX 67 45 66 46 22 48 54 49 34 50 53 51 35 52 38 53 52 54 71 55
REMARK SMILES IDX 36 56 37 57 51 59 72 60 39 61 23 62 24 63 32 64 25 65 27 66
REMARK SMILES IDX 33 67 26 68 28 69 29 70 30 71 31 72 55 73 56 74 64 75 57 76
REMARK SMILES IDX 59 77 65 78 58 79 60 80 61 81 62 82 63 83 40 84 41 85 49 86
REMARK SMILES IDX 42 87 44 88 50 89 43 90 45 91 46 92 47 93 48 94
REMARK H PARENT 81 16 87 23 70 47 38 58
REMARK Flexibility Score: inf
ROOT
ATOM      1  C   UNL A   1      38.228  33.591  41.896  1.00  0.00     0.202 C 
ENDROOT
BRANCH   1   2
ATOM      2  C   UNL A   1      39.004  32.380  41.370  1.00  0.00     0.261 C 
BRANCH   2   3
ATOM      3  O   UNL A   1      38.472  31.900  40.124  1.00  0.00    -0.463 OA
BRANCH   3   4
ATOM      4  C   UNL A   1      38.950  32.520  39.009  1.00  0.00     0.313 C 
ATOM      5  O   UNL A   1      40.144  32.663  38.771  1.00  0.00    -0.252 OA
BRANCH   4   6
ATOM      6  C   UNL A   1      37.833  32.978  38.052  1.00  0.00     0.129 C 
ATOM      7  C   UNL A   1      36.418  32.849  38.635  1.00  0.00     0.025 C 
BRANCH   6   8
ATOM      8  C   UNL A   1      38.008  32.311  36.688  1.00  0.00     0.002 A 
ATOM      9  C   UNL A   1      38.653  31.086  36.485  1.00  0.00     0.010 A 
ATOM     10  C   UNL A   1      37.561  32.985  35.547  1.00  0.00     0.129 A 
ATOM     11  C   UNL A   1      38.864  30.587  35.186  1.00  0.00     0.026 A 
ATOM     12  C   UNL A   1      37.797  32.501  34.262  1.00  0.00     0.065 A 
ATOM     13  F   UNL A   1      36.881  34.134  35.674  1.00  0.00    -0.207 F 
ATOM     14  C   UNL A   1      38.470  31.295  34.048  1.00  0.00     0.037 A 
BRANCH  14  15
ATOM     15  N   UNL A   1      38.644  30.870  32.748  1.00  0.00    -0.380 N 
ATOM     16  H   UNL A   1      38.154  31.392  32.073  1.00  0.00     0.160 HD
BRANCH  15  17
ATOM     17  C   UNL A   1      39.439  29.771  32.216  1.00  0.00     0.107 C 
ATOM     18  C   UNL A   1      38.732  28.417  32.174  1.00  0.00     0.027 C 
ATOM     19  C   UNL A   1      39.984  30.024  30.802  1.00  0.00     0.136 C 
ATOM     20  C   UNL A   1      39.074  27.815  30.808  1.00  0.00     0.005 C 
ATOM     21  C   UNL A   1      40.259  28.619  30.291  1.00  0.00     0.034 C 
BRANCH  19  22
ATOM     22  O   UNL A   1      41.176  30.799  30.832  1.00  0.00    -0.391 OA
ATOM     23  H   UNL A   1      41.152  31.459  30.121  1.00  0.00     0.211 HD
ENDBRANCH  19  22
ENDBRANCH  15  17
ENDBRANCH  14  15
ENDBRANCH   6   8
ENDBRANCH   4   6
ENDBRANCH   3   4
ENDBRANCH   2   3
ENDBRANCH   1   2
BRANCH   1  24
ATOM     24  O   UNL A   1      38.762  34.883  41.612  1.00  0.00    -0.374 OA
BRANCH  24  25
ATOM     25  C   UNL A   1      40.144  35.102  41.899  1.00  0.00     0.202 C 
BRANCH  25  26
ATOM     26  C   UNL A   1      41.070  35.380  40.708  1.00  0.00     0.261 C 
BRANCH  26  27
ATOM     27  O   UNL A   1      40.342  35.711  39.512  1.00  0.00    -0.460 OA
BRANCH  27  28
ATOM     28  C   UNL A   1      40.963  36.599  38.697  1.00  0.00     0.338 C 
ATOM     29  O   UNL A   1      41.298  37.743  38.977  1.00  0.00    -0.246 OA
BRANCH  28  30
ATOM     30  C   UNL A   1      41.379  35.943  37.444  1.00  0.00     0.060 A 
ATOM     31  C   UNL A   1      40.377  35.340  36.671  1.00  0.00     0.016 A 
ATOM     32  C   UNL A   1      42.719  35.845  37.068  1.00  0.00     0.016 A 
ATOM     33  C   UNL A   1      40.717  34.589  35.548  1.00  0.00     0.010 A 
ATOM     34  C   UNL A   1      43.059  35.082  35.946  1.00  0.00     0.010 A 
ATOM     35  C   UNL A   1      42.064  34.418  35.204  1.00  0.00    -0.014 A 
BRANCH  35  36
ATOM     36  C   UNL A   1      42.428  33.429  34.161  1.00  0.00     0.031 A 
ATOM     37  C   UNL A   1      42.654  33.903  32.751  1.00  0.00     0.074 A 
ATOM     38  C   UNL A   1      42.574  32.128  34.467  1.00  0.00     0.049 A 
ATOM     39  N   UNL A   1      42.972  33.212  31.687  1.00  0.00    -0.248 NA
ATOM     40  C   UNL A   1      42.499  35.347  32.507  1.00  0.00     0.031 C 
ATOM     41  C   UNL A   1      42.387  31.547  35.796  1.00  0.00     0.029 A 
ATOM     42  N   UNL A   1      42.892  31.055  33.672  1.00  0.00    -0.354 N 
ATOM     43  C   UNL A   1      43.032  34.130  30.644  1.00  0.00     0.074 A 
ATOM     44  C   UNL A   1      42.703  35.425  31.200  1.00  0.00     0.031 C 
ATOM     45  C   UNL A   1      42.564  30.217  35.718  1.00  0.00     0.029 A 
ATOM     46  C   UNL A   1      42.858  29.851  34.333  1.00  0.00     0.049 A 
ATOM     47  H   UNL A   1      43.125  31.141  32.718  1.00  0.00     0.167 HD
ATOM     48  C   UNL A   1      43.353  33.920  29.346  1.00  0.00     0.034 A 
ATOM     49  C   UNL A   1      43.024  28.596  33.870  1.00  0.00     0.034 A 
ATOM     50  C   UNL A   1      43.700  32.637  28.797  1.00  0.00     0.049 A 
ATOM     51  C   UNL A   1      43.360  28.385  32.416  1.00  0.00     0.074 A 
ATOM     52  C   UNL A   1      44.081  32.329  27.503  1.00  0.00     0.029 A 
ATOM     53  N   UNL A   1      43.699  31.446  29.507  1.00  0.00    -0.354 N 
ATOM     54  N   UNL A   1      43.533  29.276  31.470  1.00  0.00    -0.248 NA
ATOM     55  C   UNL A   1      43.558  26.996  31.973  1.00  0.00     0.031 C 
ATOM     56  C   UNL A   1      44.288  30.947  27.425  1.00  0.00     0.029 A 
ATOM     57  C   UNL A   1      44.061  30.399  28.678  1.00  0.00     0.049 A 
ATOM     58  H   UNL A   1      43.472  31.358  30.460  1.00  0.00     0.167 HD
ATOM     59  C   UNL A   1      43.892  28.562  30.332  1.00  0.00     0.074 A 
ATOM     60  C   UNL A   1      43.932  27.165  30.711  1.00  0.00     0.031 C 
ATOM     61  C   UNL A   1      44.150  29.020  29.081  1.00  0.00     0.034 A 
BRANCH  48  62
ATOM     62  C   UNL A   1      43.375  35.115  28.431  1.00  0.00     0.023 A 
ATOM     63  C   UNL A   1      42.168  35.588  27.876  1.00  0.00     0.012 A 
ATOM     64  C   UNL A   1      44.575  35.801  28.161  1.00  0.00     0.148 A 
ATOM     65  C   UNL A   1      42.160  36.705  27.042  1.00  0.00     0.002 A 
ATOM     66  C   UNL A   1      44.553  36.938  27.363  1.00  0.00     0.091 A 
ATOM     67  F   UNL A   1      45.716  35.321  28.678  1.00  0.00    -0.205 F 
ATOM     68  C   UNL A   1      43.348  37.386  26.795  1.00  0.00     0.022 A 
BRANCH  66  69
ATOM     69  S   UNL A   1      46.020  37.924  27.044  1.00  0.00     0.127 S 
ATOM     70  O   UNL A   1      45.465  39.039  26.277  1.00  0.00    -0.237 OA
ATOM     71  O   UNL A   1      46.458  38.273  28.396  1.00  0.00    -0.237 OA
ATOM     72  O   UNL A   1      46.935  37.057  26.316  1.00  0.00    -0.744 OA
ENDBRANCH  66  69
ENDBRANCH  48  62
BRANCH  49  73
ATOM     73  C   UNL A   1      42.907  27.441  34.803  1.00  0.00     0.023 A 
ATOM     74  C   UNL A   1      41.667  26.791  34.957  1.00  0.00     0.012 A 
ATOM     75  C   UNL A   1      44.023  26.970  35.521  1.00  0.00     0.148 A 
ATOM     76  C   UNL A   1      41.535  25.710  35.830  1.00  0.00     0.002 A 
ATOM     77  C   UNL A   1      43.898  25.858  36.346  1.00  0.00     0.091 A 
ATOM     78  F   UNL A   1      45.189  27.615  35.376  1.00  0.00    -0.205 F 
ATOM     79  C   UNL A   1      42.652  25.237  36.515  1.00  0.00     0.022 A 
BRANCH  77  80
ATOM     80  S   UNL A   1      45.309  25.104  37.162  1.00  0.00     0.127 S 
ATOM     81  O   UNL A   1      45.998  24.467  36.041  1.00  0.00    -0.237 OA
ATOM     82  O   UNL A   1      45.992  26.270  37.723  1.00  0.00    -0.237 OA
ATOM     83  O   UNL A   1      44.750  24.200  38.158  1.00  0.00    -0.744 OA
ENDBRANCH  77  80
ENDBRANCH  49  73
BRANCH  61  84
ATOM     84  C   UNL A   1      44.533  28.010  28.029  1.00  0.00     0.023 A 
ATOM     85  C   UNL A   1      45.893  27.749  27.772  1.00  0.00     0.012 A 
ATOM     86  C   UNL A   1      43.546  27.264  27.354  1.00  0.00     0.148 A 
ATOM     87  C   UNL A   1      46.265  26.782  26.838  1.00  0.00     0.002 A 
ATOM     88  C   UNL A   1      43.924  26.270  26.459  1.00  0.00     0.091 A 
ATOM     89  F   UNL A   1      42.256  27.540  27.598  1.00  0.00    -0.205 F 
ATOM     90  C   UNL A   1      45.283  26.035  26.191  1.00  0.00     0.022 A 
BRANCH  88  91
ATOM     91  S   UNL A   1      42.730  25.196  25.653  1.00  0.00     0.127 S 
ATOM     92  O   UNL A   1      41.902  26.161  24.931  1.00  0.00    -0.237 OA
ATOM     93  O   UNL A   1      43.582  24.366  24.801  1.00  0.00    -0.237 OA
ATOM     94  O   UNL A   1      42.058  24.471  26.722  1.00  0.00    -0.744 OA
ENDBRANCH  88  91
ENDBRANCH  61  84
ENDBRANCH  35  36
ENDBRANCH  28  30
ENDBRANCH  27  28
ENDBRANCH  26  27
ENDBRANCH  25  26
ENDBRANCH  24  25
ENDBRANCH   1  24
TORSDOF 21
ENDMDL
MODEL 3
REMARK VINA RESULT:      -9.3      2.540      2.993
REMARK SMILES C[C@@H](C(=O)OCCOCCOC(=O)c1ccc(-c2c3nc(c(-c4cccc(S(=O)(=O)[O-])c4F)c4ccc([nH]4)c(-c4cccc(S(=O)(=O)[O-])c4F)c4nc(c(-c5cccc(S(=O)(=O)[O-])c5F)c5ccc2[nH]5)C=C4)C=C3)cc1)c1ccc(N[C@H]2CCC[C@@H]2O)cc1F
REMARK SMILES IDX 7 1 6 2 5 3 3 4 4 5 2 6 1 7 77 8 78 9 89 10 79 11 88 12
REMARK SMILES IDX 90 13 80 14 81 15 82 17 83 18 86 19 84 20 85 21 87 22 8 24
REMARK SMILES IDX 9 25 10 26 11 27 12 28 13 29 14 30 15 31 76 32 16 33 75 34
REMARK SMILES IDX 17 35 18 36 19 37 69 38 20 39 74 40 68 41 70 42 21 43 73 44
REMARK SMILES IDX 67 45 66 46 22 48 54 49 34 50 53 51 35 52 38 53 52 54 71 55
REMARK SMILES IDX 36 56 37 57 51 59 72 60 39 61 23 62 24 63 32 64 25 65 27 66
REMARK SMILES IDX 33 67 26 68 28 69 29 70 30 71 31 72 55 73 56 74 64 75 57 76
REMARK SMILES IDX 59 77 65 78 58 79 60 80 61 81 62 82 63 83 40 84 41 85 49 86
REMARK SMILES IDX 42 87 44 88 50 89 43 90 45 91 46 92 47 93 48 94
REMARK H PARENT 81 16 87 23 70 47 38 58
REMARK Flexibility Score: inf
ROOT
ATOM      1  C   UNL A   1      35.727  23.369  23.055  1.00  0.00     0.202 C 
ENDROOT
BRANCH   1   2
ATOM      2  C   UNL A   1      34.587  24.389  23.129  1.00  0.00     0.261 C 
BRANCH   2   3
ATOM      3  O   UNL A   1      34.258  24.730  24.486  1.00  0.00    -0.463 OA
BRANCH   3   4
ATOM      4  C   UNL A   1      32.933  24.665  24.798  1.00  0.00     0.313 C 
ATOM      5  O   UNL A   1      32.452  25.142  25.819  1.00  0.00    -0.252 OA
BRANCH   4   6
ATOM      6  C   UNL A   1      32.093  23.975  23.705  1.00  0.00     0.129 C 
ATOM      7  C   UNL A   1      30.699  24.586  23.507  1.00  0.00     0.025 C 
BRANCH   6   8
ATOM      8  C   UNL A   1      32.085  22.463  23.931  1.00  0.00     0.002 A 
ATOM      9  C   UNL A   1      32.036  21.853  25.190  1.00  0.00     0.010 A 
ATOM     10  C   UNL A   1      32.199  21.617  22.824  1.00  0.00     0.129 A 
ATOM     11  C   UNL A   1      32.134  20.455  25.319  1.00  0.00     0.026 A 
ATOM     12  C   UNL A   1      32.324  20.235  22.958  1.00  0.00     0.065 A 
ATOM     13  F   UNL A   1      32.188  22.132  21.586  1.00  0.00    -0.207 F 
ATOM     14  C   UNL A   1      32.311  19.619  24.213  1.00  0.00     0.037 A 
BRANCH  14  15
ATOM     15  N   UNL A   1      32.416  18.246  24.263  1.00  0.00    -0.380 N 
ATOM     16  H   UNL A   1      31.845  17.763  23.623  1.00  0.00     0.160 HD
BRANCH  15  17
ATOM     17  C   UNL A   1      33.239  17.396  25.113  1.00  0.00     0.107 C 
ATOM     18  C   UNL A   1      32.615  16.052  25.489  1.00  0.00     0.027 C 
ATOM     19  C   UNL A   1      34.626  17.086  24.529  1.00  0.00     0.136 C 
ATOM     20  C   UNL A   1      33.732  15.018  25.325  1.00  0.00     0.005 C 
ATOM     21  C   UNL A   1      35.026  15.818  25.266  1.00  0.00     0.034 C 
BRANCH  19  22
ATOM     22  O   UNL A   1      35.547  18.138  24.784  1.00  0.00    -0.391 OA
ATOM     23  H   UNL A   1      35.226  18.957  24.374  1.00  0.00     0.211 HD
ENDBRANCH  19  22
ENDBRANCH  15  17
ENDBRANCH  14  15
ENDBRANCH   6   8
ENDBRANCH   4   6
ENDBRANCH   3   4
ENDBRANCH   2   3
ENDBRANCH   1   2
BRANCH   1  24
ATOM     24  O   UNL A   1      36.653  23.343  24.141  1.00  0.00    -0.374 OA
BRANCH  24  25
ATOM     25  C   UNL A   1      36.907  22.082  24.759  1.00  0.00     0.202 C 
BRANCH  25  26
ATOM     26  C   UNL A   1      37.757  22.087  26.036  1.00  0.00     0.261 C 
BRANCH  26  27
ATOM     27  O   UNL A   1      39.154  22.304  25.765  1.00  0.00    -0.460 OA
BRANCH  27  28
ATOM     28  C   UNL A   1      39.952  22.294  26.860  1.00  0.00     0.338 C 
ATOM     29  O   UNL A   1      40.294  21.315  27.511  1.00  0.00    -0.246 OA
BRANCH  28  30
ATOM     30  C   UNL A   1      40.542  23.628  27.079  1.00  0.00     0.060 A 
ATOM     31  C   UNL A   1      41.227  23.838  28.283  1.00  0.00     0.016 A 
ATOM     32  C   UNL A   1      40.364  24.673  26.172  1.00  0.00     0.016 A 
ATOM     33  C   UNL A   1      41.691  25.110  28.611  1.00  0.00     0.010 A 
ATOM     34  C   UNL A   1      40.822  25.953  26.508  1.00  0.00     0.010 A 
ATOM     35  C   UNL A   1      41.452  26.185  27.745  1.00  0.00    -0.014 A 
BRANCH  35  36
ATOM     36  C   UNL A   1      41.730  27.566  28.207  1.00  0.00     0.031 A 
ATOM     37  C   UNL A   1      43.153  28.053  28.240  1.00  0.00     0.074 A 
ATOM     38  C   UNL A   1      40.729  28.384  28.577  1.00  0.00     0.049 A 
ATOM     39  N   UNL A   1      43.622  29.215  28.613  1.00  0.00    -0.248 NA
ATOM     40  C   UNL A   1      44.186  27.102  27.795  1.00  0.00     0.031 C 
ATOM     41  C   UNL A   1      39.310  28.031  28.585  1.00  0.00     0.029 A 
ATOM     42  N   UNL A   1      40.758  29.676  29.038  1.00  0.00    -0.354 N 
ATOM     43  C   UNL A   1      45.003  29.130  28.470  1.00  0.00     0.074 A 
ATOM     44  C   UNL A   1      45.298  27.796  27.992  1.00  0.00     0.031 C 
ATOM     45  C   UNL A   1      38.605  29.072  29.059  1.00  0.00     0.029 A 
ATOM     46  C   UNL A   1      39.524  30.157  29.406  1.00  0.00     0.049 A 
ATOM     47  H   UNL A   1      41.584  30.209  29.099  1.00  0.00     0.167 HD
ATOM     48  C   UNL A   1      45.940  30.080  28.697  1.00  0.00     0.034 A 
ATOM     49  C   UNL A   1      39.178  31.329  29.974  1.00  0.00     0.034 A 
ATOM     50  C   UNL A   1      45.645  31.412  29.153  1.00  0.00     0.049 A 
ATOM     51  C   UNL A   1      40.241  32.364  30.236  1.00  0.00     0.074 A 
ATOM     52  C   UNL A   1      46.522  32.460  29.371  1.00  0.00     0.029 A 
ATOM     53  N   UNL A   1      44.380  31.878  29.471  1.00  0.00    -0.354 N 
ATOM     54  N   UNL A   1      41.526  32.311  29.982  1.00  0.00    -0.248 NA
ATOM     55  C   UNL A   1      39.801  33.635  30.832  1.00  0.00     0.031 C 
ATOM     56  C   UNL A   1      45.788  33.553  29.844  1.00  0.00     0.029 A 
ATOM     57  C   UNL A   1      44.450  33.193  29.895  1.00  0.00     0.049 A 
ATOM     58  H   UNL A   1      43.551  31.350  29.406  1.00  0.00     0.167 HD
ATOM     59  C   UNL A   1      42.041  33.549  30.353  1.00  0.00     0.074 A 
ATOM     60  C   UNL A   1      40.926  34.338  30.832  1.00  0.00     0.031 C 
ATOM     61  C   UNL A   1      43.325  33.986  30.317  1.00  0.00     0.034 A 
BRANCH  48  62
ATOM     62  C   UNL A   1      47.376  29.723  28.422  1.00  0.00     0.023 A 
ATOM     63  C   UNL A   1      47.937  30.018  27.164  1.00  0.00     0.012 A 
ATOM     64  C   UNL A   1      48.183  29.144  29.421  1.00  0.00     0.148 A 
ATOM     65  C   UNL A   1      49.272  29.715  26.892  1.00  0.00     0.002 A 
ATOM     66  C   UNL A   1      49.523  28.883  29.157  1.00  0.00     0.091 A 
ATOM     67  F   UNL A   1      47.624  28.847  30.603  1.00  0.00    -0.205 F 
ATOM     68  C   UNL A   1      50.066  29.159  27.891  1.00  0.00     0.022 A 
BRANCH  66  69
ATOM     69  S   UNL A   1      50.644  28.233  30.400  1.00  0.00     0.127 S 
ATOM     70  O   UNL A   1      51.845  27.974  29.607  1.00  0.00    -0.237 OA
ATOM     71  O   UNL A   1      50.759  29.356  31.331  1.00  0.00    -0.237 OA
ATOM     72  O   UNL A   1      49.992  27.054  30.951  1.00  0.00    -0.744 OA
ENDBRANCH  66  69
ENDBRANCH  48  62
BRANCH  49  73
ATOM     73  C   UNL A   1      37.750  31.598  30.305  1.00  0.00     0.023 A 
ATOM     74  C   UNL A   1      37.293  31.418  31.624  1.00  0.00     0.012 A 
ATOM     75  C   UNL A   1      36.849  32.054  29.322  1.00  0.00     0.148 A 
ATOM     76  C   UNL A   1      35.959  31.661  31.953  1.00  0.00     0.002 A 
ATOM     77  C   UNL A   1      35.536  32.347  29.669  1.00  0.00     0.091 A 
ATOM     78  F   UNL A   1      37.299  32.200  28.068  1.00  0.00    -0.205 F 
ATOM     79  C   UNL A   1      35.084  32.135  30.979  1.00  0.00     0.022 A 
BRANCH  77  80
ATOM     80  S   UNL A   1      34.379  33.085  28.510  1.00  0.00     0.127 S 
ATOM     81  O   UNL A   1      35.268  33.876  27.662  1.00  0.00    -0.237 OA
ATOM     82  O   UNL A   1      33.802  31.905  27.866  1.00  0.00    -0.237 OA
ATOM     83  O   UNL A   1      33.439  33.844  29.324  1.00  0.00    -0.744 OA
ENDBRANCH  77  80
ENDBRANCH  49  73
BRANCH  61  84
ATOM     84  C   UNL A   1      43.599  35.396  30.776  1.00  0.00     0.023 A 
ATOM     85  C   UNL A   1      43.720  36.430  29.826  1.00  0.00     0.012 A 
ATOM     86  C   UNL A   1      43.658  35.708  32.148  1.00  0.00     0.148 A 
ATOM     87  C   UNL A   1      43.923  37.748  30.235  1.00  0.00     0.002 A 
ATOM     88  C   UNL A   1      43.815  37.029  32.549  1.00  0.00     0.091 A 
ATOM     89  F   UNL A   1      43.561  34.708  33.037  1.00  0.00    -0.205 F 
ATOM     90  C   UNL A   1      43.958  38.049  31.594  1.00  0.00     0.022 A 
BRANCH  88  91
ATOM     91  S   UNL A   1      43.776  37.521  34.277  1.00  0.00     0.127 S 
ATOM     92  O   UNL A   1      43.574  36.238  34.947  1.00  0.00    -0.237 OA
ATOM     93  O   UNL A   1      45.105  38.105  34.465  1.00  0.00    -0.237 OA
ATOM     94  O   UNL A   1      42.679  38.471  34.399  1.00  0.00    -0.744 OA
ENDBRANCH  88  91
ENDBRANCH  61  84
ENDBRANCH  35  36
ENDBRANCH  28  30
ENDBRANCH  27  28
ENDBRANCH  26  27
ENDBRANCH  25  26
ENDBRANCH  24  25
ENDBRANCH   1  24
TORSDOF 21
ENDMDL
