MODEL 1
REMARK VINA RESULT:     -11.6      0.000      0.000
REMARK SMILES CC1CCN(S(=O)(=O)N2CCC[C@H](c3cccc(C(=O)OCCOCCOC(=O)c4ccc(-c5c6nc(c(-c7cccc(S(=O)(=O)[O-])c7F)c7ccc([nH]7)c(-c7cccc(S(=O)(=O)[O-])c7F)c7nc(c(-c8cccc(S(=O)(=O)[O-])c8F)c8ccc5[nH]8)C=C7)C=C6)cc4)c3)C2)CC1
REMARK SMILES IDX 24 1 23 2 22 3 21 4 19 5 20 6 18 7 14 8 15 9 93 10 16 11
REMARK SMILES IDX 17 12 13 13 9 14 10 15 94 16 11 17 12 18 6 19 7 20 8 21 5 22
REMARK SMILES IDX 1 23 2 24 3 25 96 26 4 27 95 28 25 29 26 30 27 31 28 32
REMARK SMILES IDX 29 33 30 34 31 35 92 36 32 37 91 38 33 39 34 40 35 41 85 42
REMARK SMILES IDX 36 43 90 44 84 45 86 46 37 47 89 48 83 49 82 50 38 52 70 53
REMARK SMILES IDX 50 54 69 55 51 56 54 57 68 58 87 59 52 60 53 61 67 63 88 64
REMARK SMILES IDX 55 65 39 66 40 67 48 68 41 69 43 70 49 71 42 72 44 73 45 74
REMARK SMILES IDX 46 75 47 76 71 77 72 78 80 79 73 80 75 81 81 82 74 83 76 84
REMARK SMILES IDX 77 85 78 86 79 87 56 88 57 89 65 90 58 91 60 92 66 93 59 94
REMARK SMILES IDX 61 95 62 96 63 97 64 98
REMARK H PARENT 86 51 54 62
REMARK Flexibility Score: inf
ROOT
ATOM      1  O   UNL A   1      43.509  20.810  24.751  1.00  0.00    -0.374 OA
ENDROOT
BRANCH   1   2
ATOM      2  C   UNL A   1      43.200  20.556  26.123  1.00  0.00     0.202 C 
BRANCH   2   3
ATOM      3  C   UNL A   1      42.031  21.334  26.739  1.00  0.00     0.261 C 
BRANCH   3   4
ATOM      4  O   UNL A   1      41.055  21.678  25.746  1.00  0.00    -0.460 OA
BRANCH   4   5
ATOM      5  C   UNL A   1      39.902  20.966  25.794  1.00  0.00     0.338 C 
ATOM      6  O   UNL A   1      39.785  19.771  26.008  1.00  0.00    -0.246 OA
BRANCH   5   7
ATOM      7  C   UNL A   1      38.750  21.898  25.748  1.00  0.00     0.060 A 
ATOM      8  C   UNL A   1      36.506  22.511  25.003  1.00  0.00    -0.043 A 
ATOM      9  C   UNL A   1      36.671  23.746  25.651  1.00  0.00     0.004 A 
ATOM     10  C   UNL A   1      37.586  21.609  25.026  1.00  0.00     0.019 A 
ATOM     11  C   UNL A   1      37.849  24.056  26.336  1.00  0.00     0.001 A 
ATOM     12  C   UNL A   1      38.880  23.126  26.400  1.00  0.00     0.016 A 
BRANCH   8  13
ATOM     13  C   UNL A   1      35.229  22.128  24.258  1.00  0.00     0.034 C 
ATOM     14  N   UNL A   1      33.465  23.308  25.590  1.00  0.00    -0.188 NA
ATOM     15  C   UNL A   1      32.935  22.057  26.165  1.00  0.00     0.103 C 
ATOM     16  C   UNL A   1      34.102  23.178  24.254  1.00  0.00     0.111 C 
ATOM     17  C   UNL A   1      34.007  20.970  26.146  1.00  0.00     0.017 C 
ATOM     18  C   UNL A   1      34.602  20.803  24.750  1.00  0.00     0.011 C 
BRANCH  14  19
ATOM     19  S   UNL A   1      32.697  24.739  25.998  1.00  0.00     0.281 S 
ATOM     20  O   UNL A   1      33.711  25.738  26.232  1.00  0.00    -0.195 OA
ATOM     21  O   UNL A   1      31.722  24.449  27.030  1.00  0.00    -0.195 OA
BRANCH  19  22
ATOM     22  N   UNL A   1      31.813  25.157  24.608  1.00  0.00    -0.189 NA
ATOM     23  C   UNL A   1      32.396  29.373  24.733  1.00  0.00     0.008 C 
ATOM     24  C   UNL A   1      31.836  28.062  24.180  1.00  0.00    -0.012 C 
ATOM     25  C   UNL A   1      30.901  27.399  25.211  1.00  0.00     0.020 C 
ATOM     26  C   UNL A   1      32.987  27.148  23.730  1.00  0.00     0.020 C 
ATOM     27  C   UNL A   1      30.572  25.936  24.896  1.00  0.00     0.104 C 
ATOM     28  C   UNL A   1      32.477  25.749  23.428  1.00  0.00     0.104 C 
ENDBRANCH  19  22
ENDBRANCH  14  19
ENDBRANCH   8  13
ENDBRANCH   5   7
ENDBRANCH   4   5
ENDBRANCH   3   4
ENDBRANCH   2   3
ENDBRANCH   1   2
BRANCH   1  29
ATOM     29  C   UNL A   1      44.813  21.308  24.453  1.00  0.00     0.202 C 
BRANCH  29  30
ATOM     30  C   UNL A   1      45.232  22.643  25.082  1.00  0.00     0.261 C 
BRANCH  30  31
ATOM     31  O   UNL A   1      44.491  23.759  24.567  1.00  0.00    -0.460 OA
BRANCH  31  32
ATOM     32  C   UNL A   1      44.977  24.966  24.948  1.00  0.00     0.338 C 
ATOM     33  O   UNL A   1      45.937  25.553  24.477  1.00  0.00    -0.246 OA
BRANCH  32  34
ATOM     34  C   UNL A   1      44.070  25.599  25.922  1.00  0.00     0.060 A 
ATOM     35  C   UNL A   1      44.227  26.974  26.131  1.00  0.00     0.016 A 
ATOM     36  C   UNL A   1      43.151  24.865  26.675  1.00  0.00     0.016 A 
ATOM     37  C   UNL A   1      43.515  27.607  27.143  1.00  0.00     0.010 A 
ATOM     38  C   UNL A   1      42.434  25.506  27.693  1.00  0.00     0.010 A 
ATOM     39  C   UNL A   1      42.645  26.871  27.960  1.00  0.00    -0.014 A 
BRANCH  39  40
ATOM     40  C   UNL A   1      42.052  27.537  29.145  1.00  0.00     0.031 A 
ATOM     41  C   UNL A   1      42.805  27.560  30.448  1.00  0.00     0.074 A 
ATOM     42  C   UNL A   1      40.875  28.179  29.037  1.00  0.00     0.049 A 
ATOM     43  N   UNL A   1      42.505  28.171  31.565  1.00  0.00    -0.248 NA
ATOM     44  C   UNL A   1      44.060  26.794  30.503  1.00  0.00     0.031 C 
ATOM     45  C   UNL A   1      40.045  28.220  27.833  1.00  0.00     0.029 A 
ATOM     46  N   UNL A   1      40.173  28.919  29.954  1.00  0.00    -0.354 N 
ATOM     47  C   UNL A   1      43.517  27.850  32.460  1.00  0.00     0.074 A 
ATOM     48  C   UNL A   1      44.431  26.970  31.764  1.00  0.00     0.031 C 
ATOM     49  C   UNL A   1      38.944  28.946  28.086  1.00  0.00     0.029 A 
ATOM     50  C   UNL A   1      38.978  29.400  29.474  1.00  0.00     0.049 A 
ATOM     51  H   UNL A   1      40.493  29.088  30.870  1.00  0.00     0.167 HD
ATOM     52  C   UNL A   1      43.682  28.263  33.740  1.00  0.00     0.034 A 
ATOM     53  C   UNL A   1      38.018  30.120  30.085  1.00  0.00     0.034 A 
ATOM     54  C   UNL A   1      42.779  29.149  34.427  1.00  0.00     0.049 A 
ATOM     55  C   UNL A   1      38.223  30.558  31.510  1.00  0.00     0.074 A 
ATOM     56  C   UNL A   1      42.889  29.669  35.706  1.00  0.00     0.029 A 
ATOM     57  N   UNL A   1      41.589  29.633  33.904  1.00  0.00    -0.354 N 
ATOM     58  N   UNL A   1      39.249  30.352  32.300  1.00  0.00    -0.248 NA
ATOM     59  C   UNL A   1      37.152  31.363  32.115  1.00  0.00     0.031 C 
ATOM     60  C   UNL A   1      41.746  30.431  35.970  1.00  0.00     0.029 A 
ATOM     61  C   UNL A   1      40.945  30.426  34.839  1.00  0.00     0.049 A 
ATOM     62  H   UNL A   1      41.252  29.441  32.999  1.00  0.00     0.167 HD
ATOM     63  C   UNL A   1      38.961  31.025  33.483  1.00  0.00     0.074 A 
ATOM     64  C   UNL A   1      37.680  31.673  33.290  1.00  0.00     0.031 C 
ATOM     65  C   UNL A   1      39.683  31.090  34.630  1.00  0.00     0.034 A 
BRANCH  52  66
ATOM     66  C   UNL A   1      44.898  27.771  34.485  1.00  0.00     0.023 A 
ATOM     67  C   UNL A   1      46.098  28.511  34.441  1.00  0.00     0.012 A 
ATOM     68  C   UNL A   1      44.835  26.607  35.277  1.00  0.00     0.148 A 
ATOM     69  C   UNL A   1      47.224  28.083  35.145  1.00  0.00     0.002 A 
ATOM     70  C   UNL A   1      45.946  26.213  36.013  1.00  0.00     0.091 A 
ATOM     71  F   UNL A   1      43.694  25.905  35.291  1.00  0.00    -0.205 F 
ATOM     72  C   UNL A   1      47.144  26.942  35.939  1.00  0.00     0.022 A 
BRANCH  70  73
ATOM     73  S   UNL A   1      45.921  24.805  37.129  1.00  0.00     0.127 S 
ATOM     74  O   UNL A   1      47.277  24.839  37.676  1.00  0.00    -0.237 OA
ATOM     75  O   UNL A   1      44.873  25.183  38.077  1.00  0.00    -0.237 OA
ATOM     76  O   UNL A   1      45.610  23.644  36.306  1.00  0.00    -0.744 OA
ENDBRANCH  70  73
ENDBRANCH  52  66
BRANCH  53  77
ATOM     77  C   UNL A   1      36.782  30.494  29.340  1.00  0.00     0.023 A 
ATOM     78  C   UNL A   1      36.059  29.511  28.639  1.00  0.00     0.012 A 
ATOM     79  C   UNL A   1      36.317  31.823  29.338  1.00  0.00     0.148 A 
ATOM     80  C   UNL A   1      34.913  29.851  27.919  1.00  0.00     0.002 A 
ATOM     81  C   UNL A   1      35.142  32.144  28.671  1.00  0.00     0.091 A 
ATOM     82  F   UNL A   1      37.029  32.746  30.000  1.00  0.00    -0.205 F 
ATOM     83  C   UNL A   1      34.449  31.164  27.944  1.00  0.00     0.022 A 
BRANCH  81  84
ATOM     84  S   UNL A   1      34.400  33.776  28.763  1.00  0.00     0.127 S 
ATOM     85  O   UNL A   1      34.003  33.846  30.167  1.00  0.00    -0.237 OA
ATOM     86  O   UNL A   1      35.525  34.637  28.395  1.00  0.00    -0.237 OA
ATOM     87  O   UNL A   1      33.309  33.769  27.798  1.00  0.00    -0.744 OA
ENDBRANCH  81  84
ENDBRANCH  53  77
BRANCH  65  88
ATOM     88  C   UNL A   1      39.114  31.912  35.761  1.00  0.00     0.023 A 
ATOM     89  C   UNL A   1      38.081  31.387  36.564  1.00  0.00     0.012 A 
ATOM     90  C   UNL A   1      39.621  33.196  36.045  1.00  0.00     0.148 A 
ATOM     91  C   UNL A   1      37.524  32.147  37.592  1.00  0.00     0.002 A 
ATOM     92  C   UNL A   1      39.100  33.924  37.107  1.00  0.00     0.091 A 
ATOM     93  F   UNL A   1      40.594  33.688  35.264  1.00  0.00    -0.205 F 
ATOM     94  C   UNL A   1      38.038  33.410  37.870  1.00  0.00     0.022 A 
BRANCH  92  95
ATOM     95  S   UNL A   1      39.765  35.518  37.600  1.00  0.00     0.127 S 
ATOM     96  O   UNL A   1      39.473  36.339  36.426  1.00  0.00    -0.237 OA
ATOM     97  O   UNL A   1      38.963  35.838  38.782  1.00  0.00    -0.237 OA
ATOM     98  O   UNL A   1      41.178  35.295  37.873  1.00  0.00    -0.744 OA
ENDBRANCH  92  95
ENDBRANCH  65  88
ENDBRANCH  39  40
ENDBRANCH  32  34
ENDBRANCH  31  32
ENDBRANCH  30  31
ENDBRANCH  29  30
ENDBRANCH   1  29
TORSDOF 20
ENDMDL
MODEL 2
REMARK VINA RESULT:     -11.1      4.319      6.753
REMARK SMILES CC1CCN(S(=O)(=O)N2CCC[C@H](c3cccc(C(=O)OCCOCCOC(=O)c4ccc(-c5c6nc(c(-c7cccc(S(=O)(=O)[O-])c7F)c7ccc([nH]7)c(-c7cccc(S(=O)(=O)[O-])c7F)c7nc(c(-c8cccc(S(=O)(=O)[O-])c8F)c8ccc5[nH]8)C=C7)C=C6)cc4)c3)C2)CC1
REMARK SMILES IDX 24 1 23 2 22 3 21 4 19 5 20 6 18 7 14 8 15 9 93 10 16 11
REMARK SMILES IDX 17 12 13 13 9 14 10 15 94 16 11 17 12 18 6 19 7 20 8 21 5 22
REMARK SMILES IDX 1 23 2 24 3 25 96 26 4 27 95 28 25 29 26 30 27 31 28 32
REMARK SMILES IDX 29 33 30 34 31 35 92 36 32 37 91 38 33 39 34 40 35 41 85 42
REMARK SMILES IDX 36 43 90 44 84 45 86 46 37 47 89 48 83 49 82 50 38 52 70 53
REMARK SMILES IDX 50 54 69 55 51 56 54 57 68 58 87 59 52 60 53 61 67 63 88 64
REMARK SMILES IDX 55 65 39 66 40 67 48 68 41 69 43 70 49 71 42 72 44 73 45 74
REMARK SMILES IDX 46 75 47 76 71 77 72 78 80 79 73 80 75 81 81 82 74 83 76 84
REMARK SMILES IDX 77 85 78 86 79 87 56 88 57 89 65 90 58 91 60 92 66 93 59 94
REMARK SMILES IDX 61 95 62 96 63 97 64 98
REMARK H PARENT 86 51 54 62
REMARK Flexibility Score: inf
ROOT
ATOM      1  O   UNL A   1      43.651  22.365  27.279  1.00  0.00    -0.374 OA
ENDROOT
BRANCH   1   2
ATOM      2  C   UNL A   1      43.615  23.529  28.107  1.00  0.00     0.202 C 
BRANCH   2   3
ATOM      3  C   UNL A   1      42.247  23.975  28.636  1.00  0.00     0.261 C 
BRANCH   3   4
ATOM      4  O   UNL A   1      41.622  24.907  27.743  1.00  0.00    -0.460 OA
BRANCH   4   5
ATOM      5  C   UNL A   1      40.270  24.981  27.834  1.00  0.00     0.338 C 
ATOM      6  O   UNL A   1      39.476  24.060  27.735  1.00  0.00    -0.246 OA
BRANCH   5   7
ATOM      7  C   UNL A   1      39.884  26.340  28.282  1.00  0.00     0.060 A 
ATOM      8  C   UNL A   1      38.806  27.861  29.861  1.00  0.00    -0.043 A 
ATOM      9  C   UNL A   1      39.132  28.922  29.000  1.00  0.00     0.004 A 
ATOM     10  C   UNL A   1      39.155  26.559  29.457  1.00  0.00     0.019 A 
ATOM     11  C   UNL A   1      39.821  28.703  27.805  1.00  0.00     0.001 A 
ATOM     12  C   UNL A   1      40.213  27.416  27.454  1.00  0.00     0.016 A 
BRANCH   8  13
ATOM     13  C   UNL A   1      38.069  28.061  31.183  1.00  0.00     0.034 C 
ATOM     14  N   UNL A   1      38.725  30.397  31.807  1.00  0.00    -0.188 NA
ATOM     15  C   UNL A   1      39.598  29.953  32.911  1.00  0.00     0.103 C 
ATOM     16  C   UNL A   1      37.590  29.493  31.486  1.00  0.00     0.111 C 
ATOM     17  C   UNL A   1      40.060  28.517  32.675  1.00  0.00     0.017 C 
ATOM     18  C   UNL A   1      38.875  27.590  32.415  1.00  0.00     0.011 C 
BRANCH  14  19
ATOM     19  S   UNL A   1      38.557  32.045  31.562  1.00  0.00     0.281 S 
ATOM     20  O   UNL A   1      37.542  32.245  30.557  1.00  0.00    -0.195 OA
ATOM     21  O   UNL A   1      39.878  32.609  31.372  1.00  0.00    -0.195 OA
BRANCH  19  22
ATOM     22  N   UNL A   1      37.993  32.639  33.051  1.00  0.00    -0.189 NA
ATOM     23  C   UNL A   1      34.349  34.376  31.697  1.00  0.00     0.008 C 
ATOM     24  C   UNL A   1      35.420  34.017  32.727  1.00  0.00    -0.012 C 
ATOM     25  C   UNL A   1      36.758  34.696  32.370  1.00  0.00     0.020 C 
ATOM     26  C   UNL A   1      35.532  32.490  32.860  1.00  0.00     0.020 C 
ATOM     27  C   UNL A   1      37.961  34.130  33.130  1.00  0.00     0.104 C 
ATOM     28  C   UNL A   1      36.760  32.109  33.669  1.00  0.00     0.104 C 
ENDBRANCH  19  22
ENDBRANCH  14  19
ENDBRANCH   8  13
ENDBRANCH   5   7
ENDBRANCH   4   5
ENDBRANCH   3   4
ENDBRANCH   2   3
ENDBRANCH   1   2
BRANCH   1  29
ATOM     29  C   UNL A   1      44.128  22.524  25.943  1.00  0.00     0.202 C 
BRANCH  29  30
ATOM     30  C   UNL A   1      43.459  23.588  25.064  1.00  0.00     0.261 C 
BRANCH  30  31
ATOM     31  O   UNL A   1      44.400  24.335  24.278  1.00  0.00    -0.460 OA
BRANCH  31  32
ATOM     32  C   UNL A   1      45.496  24.739  24.968  1.00  0.00     0.338 C 
ATOM     33  O   UNL A   1      46.637  24.330  24.838  1.00  0.00    -0.246 OA
BRANCH  32  34
ATOM     34  C   UNL A   1      45.170  25.905  25.808  1.00  0.00     0.060 A 
ATOM     35  C   UNL A   1      46.135  26.301  26.741  1.00  0.00     0.016 A 
ATOM     36  C   UNL A   1      43.929  26.544  25.752  1.00  0.00     0.016 A 
ATOM     37  C   UNL A   1      45.836  27.292  27.669  1.00  0.00     0.010 A 
ATOM     38  C   UNL A   1      43.633  27.543  26.687  1.00  0.00     0.010 A 
ATOM     39  C   UNL A   1      44.569  27.890  27.677  1.00  0.00    -0.014 A 
BRANCH  39  40
ATOM     40  C   UNL A   1      44.223  28.801  28.797  1.00  0.00     0.031 A 
ATOM     41  C   UNL A   1      44.027  28.245  30.181  1.00  0.00     0.074 A 
ATOM     42  C   UNL A   1      44.152  30.128  28.588  1.00  0.00     0.049 A 
ATOM     43  N   UNL A   1      43.819  28.882  31.305  1.00  0.00    -0.248 NA
ATOM     44  C   UNL A   1      44.070  26.781  30.323  1.00  0.00     0.031 C 
ATOM     45  C   UNL A   1      44.312  30.786  27.291  1.00  0.00     0.029 A 
ATOM     46  N   UNL A   1      43.927  31.159  29.463  1.00  0.00    -0.354 N 
ATOM     47  C   UNL A   1      43.686  27.903  32.281  1.00  0.00     0.074 A 
ATOM     48  C   UNL A   1      43.814  26.625  31.614  1.00  0.00     0.031 C 
ATOM     49  C   UNL A   1      44.176  32.112  27.455  1.00  0.00     0.029 A 
ATOM     50  C   UNL A   1      43.899  32.395  28.861  1.00  0.00     0.049 A 
ATOM     51  H   UNL A   1      43.797  31.028  30.430  1.00  0.00     0.167 HD
ATOM     52  C   UNL A   1      43.491  28.051  33.614  1.00  0.00     0.034 A 
ATOM     53  C   UNL A   1      43.667  33.615  29.382  1.00  0.00     0.034 A 
ATOM     54  C   UNL A   1      43.377  29.323  34.278  1.00  0.00     0.049 A 
ATOM     55  C   UNL A   1      43.446  33.751  30.864  1.00  0.00     0.074 A 
ATOM     56  C   UNL A   1      43.235  29.579  35.631  1.00  0.00     0.029 A 
ATOM     57  N   UNL A   1      43.373  30.555  33.639  1.00  0.00    -0.354 N 
ATOM     58  N   UNL A   1      43.452  32.823  31.791  1.00  0.00    -0.248 NA
ATOM     59  C   UNL A   1      43.225  35.110  31.378  1.00  0.00     0.031 C 
ATOM     60  C   UNL A   1      43.100  30.960  35.805  1.00  0.00     0.029 A 
ATOM     61  C   UNL A   1      43.207  31.571  34.566  1.00  0.00     0.049 A 
ATOM     62  H   UNL A   1      43.472  30.687  32.669  1.00  0.00     0.167 HD
ATOM     63  C   UNL A   1      43.266  33.487  32.998  1.00  0.00     0.074 A 
ATOM     64  C   UNL A   1      43.186  34.900  32.686  1.00  0.00     0.031 C 
ATOM     65  C   UNL A   1      43.156  32.976  34.251  1.00  0.00     0.034 A 
BRANCH  52  66
ATOM     66  C   UNL A   1      43.403  26.801  34.454  1.00  0.00     0.023 A 
ATOM     67  C   UNL A   1      42.146  26.226  34.732  1.00  0.00     0.012 A 
ATOM     68  C   UNL A   1      44.571  26.163  34.919  1.00  0.00     0.148 A 
ATOM     69  C   UNL A   1      42.049  25.056  35.486  1.00  0.00     0.002 A 
ATOM     70  C   UNL A   1      44.470  24.972  35.627  1.00  0.00     0.091 A 
ATOM     71  F   UNL A   1      45.756  26.734  34.663  1.00  0.00    -0.205 F 
ATOM     72  C   UNL A   1      43.210  24.425  35.923  1.00  0.00     0.022 A 
BRANCH  70  73
ATOM     73  S   UNL A   1      45.907  24.038  36.165  1.00  0.00     0.127 S 
ATOM     74  O   UNL A   1      46.444  24.903  37.216  1.00  0.00    -0.237 OA
ATOM     75  O   UNL A   1      45.303  22.797  36.649  1.00  0.00    -0.237 OA
ATOM     76  O   UNL A   1      46.753  23.888  34.990  1.00  0.00    -0.744 OA
ENDBRANCH  70  73
ENDBRANCH  52  66
BRANCH  53  77
ATOM     77  C   UNL A   1      43.659  34.812  28.495  1.00  0.00     0.023 A 
ATOM     78  C   UNL A   1      42.445  35.284  27.962  1.00  0.00     0.012 A 
ATOM     79  C   UNL A   1      44.854  35.492  28.190  1.00  0.00     0.148 A 
ATOM     80  C   UNL A   1      42.425  36.391  27.112  1.00  0.00     0.002 A 
ATOM     81  C   UNL A   1      44.820  36.629  27.395  1.00  0.00     0.091 A 
ATOM     82  F   UNL A   1      46.001  35.017  28.697  1.00  0.00    -0.205 F 
ATOM     83  C   UNL A   1      43.610  37.069  26.838  1.00  0.00     0.022 A 
BRANCH  81  84
ATOM     84  S   UNL A   1      46.275  37.640  27.102  1.00  0.00     0.127 S 
ATOM     85  O   UNL A   1      46.654  38.020  28.460  1.00  0.00    -0.237 OA
ATOM     86  O   UNL A   1      47.177  36.687  26.453  1.00  0.00    -0.237 OA
ATOM     87  O   UNL A   1      45.833  38.729  26.241  1.00  0.00    -0.744 OA
ENDBRANCH  81  84
ENDBRANCH  53  77
BRANCH  65  88
ATOM     88  C   UNL A   1      42.961  33.955  35.383  1.00  0.00     0.023 A 
ATOM     89  C   UNL A   1      44.074  34.424  36.109  1.00  0.00     0.012 A 
ATOM     90  C   UNL A   1      41.676  34.432  35.710  1.00  0.00     0.148 A 
ATOM     91  C   UNL A   1      43.906  35.304  37.178  1.00  0.00     0.002 A 
ATOM     92  C   UNL A   1      41.522  35.353  36.738  1.00  0.00     0.091 A 
ATOM     93  F   UNL A   1      40.624  33.966  35.019  1.00  0.00    -0.205 F 
ATOM     94  C   UNL A   1      42.633  35.776  37.487  1.00  0.00     0.022 A 
BRANCH  92  95
ATOM     95  S   UNL A   1      39.934  36.090  37.143  1.00  0.00     0.127 S 
ATOM     96  O   UNL A   1      39.556  36.699  35.869  1.00  0.00    -0.237 OA
ATOM     97  O   UNL A   1      39.137  34.921  37.520  1.00  0.00    -0.237 OA
ATOM     98  O   UNL A   1      40.190  37.021  38.232  1.00  0.00    -0.744 OA
ENDBRANCH  92  95
ENDBRANCH  65  88
ENDBRANCH  39  40
ENDBRANCH  32  34
ENDBRANCH  31  32
ENDBRANCH  30  31
ENDBRANCH  29  30
ENDBRANCH   1  29
TORSDOF 20
ENDMDL
MODEL 3
REMARK VINA RESULT:     -11.1      4.892     11.057
REMARK SMILES CC1CCN(S(=O)(=O)N2CCC[C@H](c3cccc(C(=O)OCCOCCOC(=O)c4ccc(-c5c6nc(c(-c7cccc(S(=O)(=O)[O-])c7F)c7ccc([nH]7)c(-c7cccc(S(=O)(=O)[O-])c7F)c7nc(c(-c8cccc(S(=O)(=O)[O-])c8F)c8ccc5[nH]8)C=C7)C=C6)cc4)c3)C2)CC1
REMARK SMILES IDX 24 1 23 2 22 3 21 4 19 5 20 6 18 7 14 8 15 9 93 10 16 11
REMARK SMILES IDX 17 12 13 13 9 14 10 15 94 16 11 17 12 18 6 19 7 20 8 21 5 22
REMARK SMILES IDX 1 23 2 24 3 25 96 26 4 27 95 28 25 29 26 30 27 31 28 32
REMARK SMILES IDX 29 33 30 34 31 35 92 36 32 37 91 38 33 39 34 40 35 41 85 42
REMARK SMILES IDX 36 43 90 44 84 45 86 46 37 47 89 48 83 49 82 50 38 52 70 53
REMARK SMILES IDX 50 54 69 55 51 56 54 57 68 58 87 59 52 60 53 61 67 63 88 64
REMARK SMILES IDX 55 65 39 66 40 67 48 68 41 69 43 70 49 71 42 72 44 73 45 74
REMARK SMILES IDX 46 75 47 76 71 77 72 78 80 79 73 80 75 81 81 82 74 83 76 84
REMARK SMILES IDX 77 85 78 86 79 87 56 88 57 89 65 90 58 91 60 92 66 93 59 94
REMARK SMILES IDX 61 95 62 96 63 97 64 98
REMARK H PARENT 86 51 54 62
REMARK Flexibility Score: inf
ROOT
ATOM      1  O   UNL A   1      35.314  33.079  30.030  1.00  0.00    -0.374 OA
ENDROOT
BRANCH   1   2
ATOM      2  C   UNL A   1      34.776  31.974  29.301  1.00  0.00     0.202 C 
BRANCH   2   3
ATOM      3  C   UNL A   1      34.031  32.285  27.997  1.00  0.00     0.261 C 
BRANCH   3   4
ATOM      4  O   UNL A   1      33.590  31.083  27.350  1.00  0.00    -0.460 OA
BRANCH   4   5
ATOM      5  C   UNL A   1      32.285  31.067  26.981  1.00  0.00     0.338 C 
ATOM      6  O   UNL A   1      31.544  32.029  26.863  1.00  0.00    -0.246 OA
BRANCH   5   7
ATOM      7  C   UNL A   1      31.920  29.702  26.535  1.00  0.00     0.060 A 
ATOM      8  C   UNL A   1      31.299  28.100  24.798  1.00  0.00    -0.043 A 
ATOM      9  C   UNL A   1      31.162  27.126  25.801  1.00  0.00     0.004 A 
ATOM     10  C   UNL A   1      31.638  29.406  25.196  1.00  0.00     0.019 A 
ATOM     11  C   UNL A   1      31.400  27.428  27.144  1.00  0.00     0.001 A 
ATOM     12  C   UNL A   1      31.796  28.710  27.509  1.00  0.00     0.016 A 
BRANCH   8  13
ATOM     13  C   UNL A   1      31.065  27.806  23.318  1.00  0.00     0.034 C 
ATOM     14  N   UNL A   1      32.835  26.102  22.829  1.00  0.00    -0.188 NA
ATOM     15  C   UNL A   1      33.642  27.040  22.024  1.00  0.00     0.103 C 
ATOM     16  C   UNL A   1      31.374  26.371  22.851  1.00  0.00     0.111 C 
ATOM     17  C   UNL A   1      33.332  28.481  22.422  1.00  0.00     0.017 C 
ATOM     18  C   UNL A   1      31.831  28.758  22.372  1.00  0.00     0.011 C 
BRANCH  14  19
ATOM     19  S   UNL A   1      33.383  24.526  22.969  1.00  0.00     0.281 S 
ATOM     20  O   UNL A   1      34.581  24.539  23.772  1.00  0.00    -0.195 OA
ATOM     21  O   UNL A   1      33.412  23.940  21.644  1.00  0.00    -0.195 OA
BRANCH  19  22
ATOM     22  N   UNL A   1      32.150  23.723  23.820  1.00  0.00    -0.189 NA
ATOM     23  C   UNL A   1      34.349  20.277  25.014  1.00  0.00     0.008 C 
ATOM     24  C   UNL A   1      33.109  21.165  24.897  1.00  0.00    -0.012 C 
ATOM     25  C   UNL A   1      32.700  21.324  23.418  1.00  0.00     0.020 C 
ATOM     26  C   UNL A   1      33.353  22.506  25.606  1.00  0.00     0.020 C 
ATOM     27  C   UNL A   1      31.698  22.456  23.173  1.00  0.00     0.104 C 
ATOM     28  C   UNL A   1      32.249  23.497  25.277  1.00  0.00     0.104 C 
ENDBRANCH  19  22
ENDBRANCH  14  19
ENDBRANCH   8  13
ENDBRANCH   5   7
ENDBRANCH   4   5
ENDBRANCH   3   4
ENDBRANCH   2   3
ENDBRANCH   1   2
BRANCH   1  29
ATOM     29  C   UNL A   1      34.553  33.571  31.133  1.00  0.00     0.202 C 
BRANCH  29  30
ATOM     30  C   UNL A   1      34.811  32.955  32.514  1.00  0.00     0.261 C 
BRANCH  30  31
ATOM     31  O   UNL A   1      35.718  31.843  32.468  1.00  0.00    -0.460 OA
BRANCH  31  32
ATOM     32  C   UNL A   1      36.751  31.938  33.340  1.00  0.00     0.338 C 
ATOM     33  O   UNL A   1      36.681  32.054  34.552  1.00  0.00    -0.246 OA
BRANCH  32  34
ATOM     34  C   UNL A   1      38.030  31.699  32.647  1.00  0.00     0.060 A 
ATOM     35  C   UNL A   1      38.087  32.038  31.290  1.00  0.00     0.016 A 
ATOM     36  C   UNL A   1      39.116  31.083  33.273  1.00  0.00     0.016 A 
ATOM     37  C   UNL A   1      39.204  31.698  30.537  1.00  0.00     0.010 A 
ATOM     38  C   UNL A   1      40.242  30.745  32.512  1.00  0.00     0.010 A 
ATOM     39  C   UNL A   1      40.272  31.011  31.131  1.00  0.00    -0.014 A 
BRANCH  39  40
ATOM     40  C   UNL A   1      41.358  30.499  30.259  1.00  0.00     0.031 A 
ATOM     41  C   UNL A   1      42.533  31.379  29.930  1.00  0.00     0.074 A 
ATOM     42  C   UNL A   1      41.325  29.228  29.820  1.00  0.00     0.049 A 
ATOM     43  N   UNL A   1      43.624  31.087  29.270  1.00  0.00    -0.248 NA
ATOM     44  C   UNL A   1      42.474  32.771  30.403  1.00  0.00     0.031 C 
ATOM     45  C   UNL A   1      40.236  28.281  30.063  1.00  0.00     0.029 A 
ATOM     46  N   UNL A   1      42.231  28.515  29.078  1.00  0.00    -0.354 N 
ATOM     47  C   UNL A   1      44.372  32.257  29.230  1.00  0.00     0.074 A 
ATOM     48  C   UNL A   1      43.599  33.273  29.913  1.00  0.00     0.031 C 
ATOM     49  C   UNL A   1      40.537  27.111  29.477  1.00  0.00     0.029 A 
ATOM     50  C   UNL A   1      41.826  27.231  28.800  1.00  0.00     0.049 A 
ATOM     51  H   UNL A   1      43.090  28.888  28.772  1.00  0.00     0.167 HD
ATOM     52  C   UNL A   1      45.597  32.466  28.690  1.00  0.00     0.034 A 
ATOM     53  C   UNL A   1      42.423  26.265  28.075  1.00  0.00     0.034 A 
ATOM     54  C   UNL A   1      46.370  31.451  28.023  1.00  0.00     0.049 A 
ATOM     55  C   UNL A   1      43.780  26.526  27.479  1.00  0.00     0.074 A 
ATOM     56  C   UNL A   1      47.645  31.549  27.491  1.00  0.00     0.029 A 
ATOM     57  N   UNL A   1      45.937  30.156  27.776  1.00  0.00    -0.354 N 
ATOM     58  N   UNL A   1      44.528  27.599  27.562  1.00  0.00    -0.248 NA
ATOM     59  C   UNL A   1      44.391  25.425  26.721  1.00  0.00     0.031 C 
ATOM     60  C   UNL A   1      47.964  30.329  26.886  1.00  0.00     0.029 A 
ATOM     61  C   UNL A   1      46.908  29.454  27.081  1.00  0.00     0.049 A 
ATOM     62  H   UNL A   1      45.067  29.790  28.054  1.00  0.00     0.167 HD
ATOM     63  C   UNL A   1      45.709  27.294  26.894  1.00  0.00     0.074 A 
ATOM     64  C   UNL A   1      45.588  25.922  26.443  1.00  0.00     0.031 C 
ATOM     65  C   UNL A   1      46.791  28.080  26.660  1.00  0.00     0.034 A 
BRANCH  52  66
ATOM     66  C   UNL A   1      46.192  33.847  28.810  1.00  0.00     0.023 A 
ATOM     67  C   UNL A   1      47.057  34.151  29.881  1.00  0.00     0.012 A 
ATOM     68  C   UNL A   1      45.940  34.826  27.828  1.00  0.00     0.148 A 
ATOM     69  C   UNL A   1      47.635  35.416  29.992  1.00  0.00     0.002 A 
ATOM     70  C   UNL A   1      46.557  36.067  27.918  1.00  0.00     0.091 A 
ATOM     71  F   UNL A   1      45.100  34.526  26.828  1.00  0.00    -0.205 F 
ATOM     72  C   UNL A   1      47.394  36.369  29.006  1.00  0.00     0.022 A 
BRANCH  70  73
ATOM     73  S   UNL A   1      46.376  37.335  26.658  1.00  0.00     0.127 S 
ATOM     74  O   UNL A   1      46.767  36.607  25.451  1.00  0.00    -0.237 OA
ATOM     75  O   UNL A   1      44.951  37.651  26.743  1.00  0.00    -0.237 OA
ATOM     76  O   UNL A   1      47.267  38.420  27.047  1.00  0.00    -0.744 OA
ENDBRANCH  70  73
ENDBRANCH  52  66
BRANCH  53  77
ATOM     77  C   UNL A   1      41.749  24.949  27.895  1.00  0.00     0.023 A 
ATOM     78  C   UNL A   1      42.261  23.804  28.534  1.00  0.00     0.012 A 
ATOM     79  C   UNL A   1      40.591  24.833  27.102  1.00  0.00     0.148 A 
ATOM     80  C   UNL A   1      41.654  22.560  28.357  1.00  0.00     0.002 A 
ATOM     81  C   UNL A   1      39.955  23.605  26.980  1.00  0.00     0.091 A 
ATOM     82  F   UNL A   1      40.129  25.933  26.491  1.00  0.00    -0.205 F 
ATOM     83  C   UNL A   1      40.495  22.463  27.590  1.00  0.00     0.022 A 
BRANCH  81  84
ATOM     84  S   UNL A   1      38.388  23.416  26.125  1.00  0.00     0.127 S 
ATOM     85  O   UNL A   1      38.322  21.970  25.936  1.00  0.00    -0.237 OA
ATOM     86  O   UNL A   1      37.445  23.955  27.106  1.00  0.00    -0.237 OA
ATOM     87  O   UNL A   1      38.504  24.208  24.907  1.00  0.00    -0.744 OA
ENDBRANCH  81  84
ENDBRANCH  53  77
BRANCH  65  88
ATOM     88  C   UNL A   1      47.942  27.466  25.902  1.00  0.00     0.023 A 
ATOM     89  C   UNL A   1      48.897  26.683  26.582  1.00  0.00     0.012 A 
ATOM     90  C   UNL A   1      48.063  27.642  24.509  1.00  0.00     0.148 A 
ATOM     91  C   UNL A   1      49.983  26.135  25.900  1.00  0.00     0.002 A 
ATOM     92  C   UNL A   1      49.116  27.045  23.827  1.00  0.00     0.091 A 
ATOM     93  F   UNL A   1      47.155  28.401  23.878  1.00  0.00    -0.205 F 
ATOM     94  C   UNL A   1      50.088  26.307  24.522  1.00  0.00     0.022 A 
BRANCH  92  95
ATOM     95  S   UNL A   1      49.278  27.132  22.040  1.00  0.00     0.127 S 
ATOM     96  O   UNL A   1      49.017  28.547  21.785  1.00  0.00    -0.237 OA
ATOM     97  O   UNL A   1      50.668  26.721  21.833  1.00  0.00    -0.237 OA
ATOM     98  O   UNL A   1      48.290  26.206  21.503  1.00  0.00    -0.744 OA
ENDBRANCH  92  95
ENDBRANCH  65  88
ENDBRANCH  39  40
ENDBRANCH  32  34
ENDBRANCH  31  32
ENDBRANCH  30  31
ENDBRANCH  29  30
ENDBRANCH   1  29
TORSDOF 20
ENDMDL
