MODEL 1
REMARK VINA RESULT:     -10.5      0.000      0.000
REMARK SMILES C[NH2+][C@]1(C(=O)OCCOCCOC(=O)c2ccc(-c3c4nc(c(-c5cccc(S(=O)(=O)[O-])c5F)c5ccc([nH]5)c(-c5cccc(S(=O)(=O)[O-])c5F)c5nc(c(-c6cccc(S(=O)(=O)[O-])c6F)c6ccc3[nH]6)C=C5)C=C4)cc2)CCC[C@@H]1CCn1cc(C)cn1
REMARK SMILES IDX 9 1 8 2 7 3 6 4 4 5 5 6 3 7 78 8 81 9 79 10 80 11 2 12 1 13
REMARK SMILES IDX 82 16 83 17 84 18 85 19 89 20 86 21 88 22 87 23 10 24 11 25
REMARK SMILES IDX 12 26 13 27 14 28 15 29 16 30 77 31 17 32 76 33 18 34 19 35
REMARK SMILES IDX 20 36 70 37 21 38 75 39 69 40 71 41 22 42 74 43 68 44 67 45
REMARK SMILES IDX 23 47 55 48 35 49 54 50 36 51 39 52 53 53 72 54 37 55 38 56
REMARK SMILES IDX 52 58 73 59 40 60 24 61 25 62 33 63 26 64 28 65 34 66 27 67
REMARK SMILES IDX 29 68 30 69 31 70 32 71 56 72 57 73 65 74 58 75 60 76 66 77
REMARK SMILES IDX 59 78 61 79 62 80 63 81 64 82 41 83 42 84 50 85 43 86 45 87
REMARK SMILES IDX 51 88 44 89 46 90 47 91 48 92 49 93
REMARK H PARENT 2 14 2 15 71 46 39 57
REMARK Flexibility Score: inf
ROOT
ATOM      1  O   UNL A   1      32.374  30.669  27.108  1.00  0.00    -0.374 OA
ENDROOT
BRANCH   1   2
ATOM      2  C   UNL A   1      32.189  29.323  26.679  1.00  0.00     0.202 C 
BRANCH   2   3
ATOM      3  C   UNL A   1      32.852  28.883  25.366  1.00  0.00     0.261 C 
BRANCH   3   4
ATOM      4  O   UNL A   1      33.400  27.561  25.430  1.00  0.00    -0.459 OA
BRANCH   4   5
ATOM      5  C   UNL A   1      33.113  26.754  24.371  1.00  0.00     0.368 C 
ATOM      6  O   UNL A   1      33.287  27.073  23.197  1.00  0.00    -0.245 OA
BRANCH   5   7
ATOM      7  C   UNL A   1      32.498  25.391  24.812  1.00  0.00     0.197 C 
ATOM      8  C   UNL A   1      32.862  24.907  26.233  1.00  0.00     0.081 C 
ATOM      9  C   UNL A   1      30.977  25.629  25.007  1.00  0.00     0.064 C 
ATOM     10  C   UNL A   1      31.710  23.992  26.657  1.00  0.00     0.008 C 
ATOM     11  C   UNL A   1      30.494  24.436  25.842  1.00  0.00     0.011 C 
BRANCH   7  12
ATOM     12  N   UNL A   1      32.763  24.254  23.874  1.00  0.00    -0.334 N 
ATOM     13  C   UNL A   1      34.080  24.234  23.251  1.00  0.00     0.331 C 
ATOM     14  H   UNL A   1      32.652  23.385  24.398  1.00  0.00     0.347 HD
ATOM     15  H   UNL A   1      32.098  24.368  23.109  1.00  0.00     0.347 HD
ENDBRANCH   7  12
BRANCH   9  16
ATOM     16  C   UNL A   1      30.179  25.847  23.707  1.00  0.00     0.034 C 
BRANCH  16  17
ATOM     17  C   UNL A   1      28.958  26.750  23.878  1.00  0.00     0.144 C 
BRANCH  17  18
ATOM     18  N   UNL A   1      29.054  27.990  23.134  1.00  0.00    -0.272 N 
ATOM     19  C   UNL A   1      28.078  28.927  22.952  1.00  0.00     0.112 A 
ATOM     20  N   UNL A   1      30.195  28.278  22.490  1.00  0.00    -0.181 NA
ATOM     21  C   UNL A   1      28.636  29.918  22.169  1.00  0.00    -0.013 A 
ATOM     22  C   UNL A   1      29.953  29.464  21.925  1.00  0.00     0.138 A 
ATOM     23  C   UNL A   1      28.023  31.178  21.693  1.00  0.00     0.048 C 
ENDBRANCH  17  18
ENDBRANCH  16  17
ENDBRANCH   9  16
ENDBRANCH   5   7
ENDBRANCH   4   5
ENDBRANCH   3   4
ENDBRANCH   2   3
ENDBRANCH   1   2
BRANCH   1  24
ATOM     24  C   UNL A   1      31.573  31.682  26.498  1.00  0.00     0.202 C 
BRANCH  24  25
ATOM     25  C   UNL A   1      31.870  33.150  26.823  1.00  0.00     0.261 C 
BRANCH  25  26
ATOM     26  O   UNL A   1      32.444  33.325  28.129  1.00  0.00    -0.460 OA
BRANCH  26  27
ATOM     27  C   UNL A   1      33.563  34.089  28.153  1.00  0.00     0.338 C 
ATOM     28  O   UNL A   1      33.621  35.312  28.124  1.00  0.00    -0.246 OA
BRANCH  27  29
ATOM     29  C   UNL A   1      34.749  33.258  28.415  1.00  0.00     0.060 A 
ATOM     30  C   UNL A   1      34.546  32.027  29.051  1.00  0.00     0.016 A 
ATOM     31  C   UNL A   1      36.039  33.718  28.147  1.00  0.00     0.016 A 
ATOM     32  C   UNL A   1      35.636  31.274  29.477  1.00  0.00     0.010 A 
ATOM     33  C   UNL A   1      37.134  32.964  28.585  1.00  0.00     0.010 A 
ATOM     34  C   UNL A   1      36.936  31.763  29.288  1.00  0.00    -0.014 A 
BRANCH  34  35
ATOM     35  C   UNL A   1      38.067  31.088  29.965  1.00  0.00     0.031 A 
ATOM     36  C   UNL A   1      38.405  31.476  31.380  1.00  0.00     0.074 A 
ATOM     37  C   UNL A   1      38.772  30.131  29.336  1.00  0.00     0.049 A 
ATOM     38  N   UNL A   1      39.343  31.013  32.163  1.00  0.00    -0.248 NA
ATOM     39  C   UNL A   1      37.573  32.526  31.992  1.00  0.00     0.031 C 
ATOM     40  C   UNL A   1      38.535  29.671  27.969  1.00  0.00     0.029 A 
ATOM     41  N   UNL A   1      39.844  29.390  29.762  1.00  0.00    -0.354 N 
ATOM     42  C   UNL A   1      39.231  31.727  33.350  1.00  0.00     0.074 A 
ATOM     43  C   UNL A   1      38.142  32.663  33.181  1.00  0.00     0.031 C 
ATOM     44  C   UNL A   1      39.456  28.743  27.658  1.00  0.00     0.029 A 
ATOM     45  C   UNL A   1      40.355  28.557  28.795  1.00  0.00     0.049 A 
ATOM     46  H   UNL A   1      40.213  29.450  30.674  1.00  0.00     0.167 HD
ATOM     47  C   UNL A   1      39.958  31.601  34.486  1.00  0.00     0.034 A 
ATOM     48  C   UNL A   1      41.433  27.750  28.824  1.00  0.00     0.034 A 
ATOM     49  C   UNL A   1      41.026  30.656  34.658  1.00  0.00     0.049 A 
ATOM     50  C   UNL A   1      42.238  27.643  30.094  1.00  0.00     0.074 A 
ATOM     51  C   UNL A   1      41.793  30.418  35.784  1.00  0.00     0.029 A 
ATOM     52  N   UNL A   1      41.489  29.798  33.671  1.00  0.00    -0.354 N 
ATOM     53  N   UNL A   1      42.039  28.229  31.250  1.00  0.00    -0.248 NA
ATOM     54  C   UNL A   1      43.396  26.737  30.073  1.00  0.00     0.031 C 
ATOM     55  C   UNL A   1      42.731  29.429  35.474  1.00  0.00     0.029 A 
ATOM     56  C   UNL A   1      42.537  29.038  34.158  1.00  0.00     0.049 A 
ATOM     57  H   UNL A   1      41.125  29.739  32.758  1.00  0.00     0.167 HD
ATOM     58  C   UNL A   1      43.023  27.740  32.102  1.00  0.00     0.074 A 
ATOM     59  C   UNL A   1      43.804  26.793  31.335  1.00  0.00     0.031 C 
ATOM     60  C   UNL A   1      43.268  28.057  33.398  1.00  0.00     0.034 A 
BRANCH  47  61
ATOM     61  C   UNL A   1      39.596  32.489  35.647  1.00  0.00     0.023 A 
ATOM     62  C   UNL A   1      38.843  31.960  36.715  1.00  0.00     0.012 A 
ATOM     63  C   UNL A   1      40.041  33.823  35.708  1.00  0.00     0.148 A 
ATOM     64  C   UNL A   1      38.515  32.754  37.813  1.00  0.00     0.002 A 
ATOM     65  C   UNL A   1      39.743  34.597  36.824  1.00  0.00     0.091 A 
ATOM     66  F   UNL A   1      40.733  34.315  34.670  1.00  0.00    -0.205 F 
ATOM     67  C   UNL A   1      38.973  34.068  37.871  1.00  0.00     0.022 A 
BRANCH  65  68
ATOM     68  S   UNL A   1      40.345  36.277  37.022  1.00  0.00     0.127 S 
ATOM     69  O   UNL A   1      39.938  36.889  35.757  1.00  0.00    -0.237 OA
ATOM     70  O   UNL A   1      39.597  36.739  38.191  1.00  0.00    -0.237 OA
ATOM     71  O   UNL A   1      41.783  36.165  37.229  1.00  0.00    -0.744 OA
ENDBRANCH  65  68
ENDBRANCH  47  61
BRANCH  48  72
ATOM     72  C   UNL A   1      41.790  26.946  27.622  1.00  0.00     0.023 A 
ATOM     73  C   UNL A   1      42.408  27.574  26.524  1.00  0.00     0.012 A 
ATOM     74  C   UNL A   1      41.546  25.560  27.573  1.00  0.00     0.148 A 
ATOM     75  C   UNL A   1      42.753  26.840  25.388  1.00  0.00     0.002 A 
ATOM     76  C   UNL A   1      41.942  24.825  26.462  1.00  0.00     0.091 A 
ATOM     77  F   UNL A   1      40.938  24.984  28.619  1.00  0.00    -0.205 F 
ATOM     78  C   UNL A   1      42.532  25.466  25.360  1.00  0.00     0.022 A 
BRANCH  76  79
ATOM     79  S   UNL A   1      41.821  23.035  26.402  1.00  0.00     0.127 S 
ATOM     80  O   UNL A   1      42.382  22.653  27.694  1.00  0.00    -0.237 OA
ATOM     81  O   UNL A   1      40.376  22.836  26.272  1.00  0.00    -0.237 OA
ATOM     82  O   UNL A   1      42.586  22.634  25.229  1.00  0.00    -0.744 OA
ENDBRANCH  76  79
ENDBRANCH  48  72
BRANCH  60  83
ATOM     83  C   UNL A   1      44.410  27.355  34.087  1.00  0.00     0.023 A 
ATOM     84  C   UNL A   1      45.709  27.894  34.007  1.00  0.00     0.012 A 
ATOM     85  C   UNL A   1      44.181  26.213  34.878  1.00  0.00     0.148 A 
ATOM     86  C   UNL A   1      46.768  27.291  34.682  1.00  0.00     0.002 A 
ATOM     87  C   UNL A   1      45.234  25.644  35.586  1.00  0.00     0.091 A 
ATOM     88  F   UNL A   1      42.941  25.704  34.927  1.00  0.00    -0.205 F 
ATOM     89  C   UNL A   1      46.529  26.175  35.481  1.00  0.00     0.022 A 
BRANCH  87  90
ATOM     90  S   UNL A   1      44.997  24.263  36.711  1.00  0.00     0.127 S 
ATOM     91  O   UNL A   1      44.443  23.245  35.821  1.00  0.00    -0.237 OA
ATOM     92  O   UNL A   1      46.361  23.995  37.169  1.00  0.00    -0.237 OA
ATOM     93  O   UNL A   1      44.099  24.746  37.751  1.00  0.00    -0.744 OA
ENDBRANCH  87  90
ENDBRANCH  60  83
ENDBRANCH  34  35
ENDBRANCH  27  29
ENDBRANCH  26  27
ENDBRANCH  25  26
ENDBRANCH  24  25
ENDBRANCH   1  24
TORSDOF 21
ENDMDL
MODEL 2
REMARK VINA RESULT:     -10.1      4.966      8.270
REMARK SMILES C[NH2+][C@]1(C(=O)OCCOCCOC(=O)c2ccc(-c3c4nc(c(-c5cccc(S(=O)(=O)[O-])c5F)c5ccc([nH]5)c(-c5cccc(S(=O)(=O)[O-])c5F)c5nc(c(-c6cccc(S(=O)(=O)[O-])c6F)c6ccc3[nH]6)C=C5)C=C4)cc2)CCC[C@@H]1CCn1cc(C)cn1
REMARK SMILES IDX 9 1 8 2 7 3 6 4 4 5 5 6 3 7 78 8 81 9 79 10 80 11 2 12 1 13
REMARK SMILES IDX 82 16 83 17 84 18 85 19 89 20 86 21 88 22 87 23 10 24 11 25
REMARK SMILES IDX 12 26 13 27 14 28 15 29 16 30 77 31 17 32 76 33 18 34 19 35
REMARK SMILES IDX 20 36 70 37 21 38 75 39 69 40 71 41 22 42 74 43 68 44 67 45
REMARK SMILES IDX 23 47 55 48 35 49 54 50 36 51 39 52 53 53 72 54 37 55 38 56
REMARK SMILES IDX 52 58 73 59 40 60 24 61 25 62 33 63 26 64 28 65 34 66 27 67
REMARK SMILES IDX 29 68 30 69 31 70 32 71 56 72 57 73 65 74 58 75 60 76 66 77
REMARK SMILES IDX 59 78 61 79 62 80 63 81 64 82 41 83 42 84 50 85 43 86 45 87
REMARK SMILES IDX 51 88 44 89 46 90 47 91 48 92 49 93
REMARK H PARENT 2 14 2 15 71 46 39 57
REMARK Flexibility Score: inf
ROOT
ATOM      1  O   UNL A   1      35.116  20.598  24.612  1.00  0.00    -0.374 OA
ENDROOT
BRANCH   1   2
ATOM      2  C   UNL A   1      33.955  21.397  24.827  1.00  0.00     0.202 C 
BRANCH   2   3
ATOM      3  C   UNL A   1      33.726  22.605  23.909  1.00  0.00     0.261 C 
BRANCH   3   4
ATOM      4  O   UNL A   1      32.470  23.255  24.140  1.00  0.00    -0.459 OA
BRANCH   4   5
ATOM      5  C   UNL A   1      32.305  24.455  23.515  1.00  0.00     0.368 C 
ATOM      6  O   UNL A   1      32.260  24.592  22.294  1.00  0.00    -0.245 OA
BRANCH   5   7
ATOM      7  C   UNL A   1      32.220  25.642  24.521  1.00  0.00     0.197 C 
ATOM      8  C   UNL A   1      33.057  25.504  25.812  1.00  0.00     0.081 C 
ATOM      9  C   UNL A   1      32.961  26.838  23.865  1.00  0.00     0.064 C 
ATOM     10  C   UNL A   1      33.333  26.938  26.272  1.00  0.00     0.008 C 
ATOM     11  C   UNL A   1      33.241  27.810  25.018  1.00  0.00     0.011 C 
BRANCH   7  12
ATOM     12  N   UNL A   1      30.829  26.012  24.932  1.00  0.00    -0.334 N 
ATOM     13  C   UNL A   1      30.244  25.213  26.000  1.00  0.00     0.331 C 
ATOM     14  H   UNL A   1      30.843  26.985  25.242  1.00  0.00     0.347 HD
ATOM     15  H   UNL A   1      30.246  25.845  24.112  1.00  0.00     0.347 HD
ENDBRANCH   7  12
BRANCH   9  16
ATOM     16  C   UNL A   1      32.232  27.479  22.669  1.00  0.00     0.034 C 
BRANCH  16  17
ATOM     17  C   UNL A   1      31.982  28.978  22.832  1.00  0.00     0.144 C 
BRANCH  17  18
ATOM     18  N   UNL A   1      30.576  29.329  22.825  1.00  0.00    -0.272 N 
ATOM     19  C   UNL A   1      29.966  30.328  23.526  1.00  0.00     0.112 A 
ATOM     20  N   UNL A   1      29.723  28.588  22.101  1.00  0.00    -0.181 NA
ATOM     21  C   UNL A   1      28.625  30.263  23.202  1.00  0.00    -0.013 A 
ATOM     22  C   UNL A   1      28.539  29.173  22.306  1.00  0.00     0.138 A 
ATOM     23  C   UNL A   1      27.518  31.131  23.662  1.00  0.00     0.048 C 
ENDBRANCH  17  18
ENDBRANCH  16  17
ENDBRANCH   9  16
ENDBRANCH   5   7
ENDBRANCH   4   5
ENDBRANCH   3   4
ENDBRANCH   2   3
ENDBRANCH   1   2
BRANCH   1  24
ATOM     24  C   UNL A   1      36.387  21.162  24.938  1.00  0.00     0.202 C 
BRANCH  24  25
ATOM     25  C   UNL A   1      37.621  20.254  24.920  1.00  0.00     0.261 C 
BRANCH  25  26
ATOM     26  O   UNL A   1      38.270  20.172  26.200  1.00  0.00    -0.460 OA
BRANCH  26  27
ATOM     27  C   UNL A   1      39.615  20.328  26.160  1.00  0.00     0.338 C 
ATOM     28  O   UNL A   1      40.424  19.608  25.588  1.00  0.00    -0.246 OA
BRANCH  27  29
ATOM     29  C   UNL A   1      40.002  21.619  26.750  1.00  0.00     0.060 A 
ATOM     30  C   UNL A   1      39.468  22.779  26.173  1.00  0.00     0.016 A 
ATOM     31  C   UNL A   1      40.951  21.703  27.771  1.00  0.00     0.016 A 
ATOM     32  C   UNL A   1      39.924  24.031  26.574  1.00  0.00     0.010 A 
ATOM     33  C   UNL A   1      41.416  22.963  28.165  1.00  0.00     0.010 A 
ATOM     34  C   UNL A   1      40.935  24.127  27.539  1.00  0.00    -0.014 A 
BRANCH  34  35
ATOM     35  C   UNL A   1      41.590  25.435  27.771  1.00  0.00     0.031 A 
ATOM     36  C   UNL A   1      40.805  26.535  28.434  1.00  0.00     0.074 A 
ATOM     37  C   UNL A   1      42.871  25.634  27.414  1.00  0.00     0.049 A 
ATOM     38  N   UNL A   1      41.180  27.749  28.740  1.00  0.00    -0.248 NA
ATOM     39  C   UNL A   1      39.413  26.224  28.800  1.00  0.00     0.031 C 
ATOM     40  C   UNL A   1      43.730  24.643  26.768  1.00  0.00     0.029 A 
ATOM     41  N   UNL A   1      43.664  26.747  27.527  1.00  0.00    -0.354 N 
ATOM     42  C   UNL A   1      40.067  28.355  29.312  1.00  0.00     0.074 A 
ATOM     43  C   UNL A   1      39.000  27.379  29.301  1.00  0.00     0.031 C 
ATOM     44  C   UNL A   1      44.925  25.202  26.517  1.00  0.00     0.029 A 
ATOM     45  C   UNL A   1      44.910  26.593  26.966  1.00  0.00     0.049 A 
ATOM     46  H   UNL A   1      43.369  27.577  27.967  1.00  0.00     0.167 HD
ATOM     47  C   UNL A   1      39.951  29.605  29.820  1.00  0.00     0.034 A 
ATOM     48  C   UNL A   1      45.914  27.479  26.822  1.00  0.00     0.034 A 
ATOM     49  C   UNL A   1      41.019  30.566  29.849  1.00  0.00     0.049 A 
ATOM     50  C   UNL A   1      45.752  28.871  27.376  1.00  0.00     0.074 A 
ATOM     51  C   UNL A   1      41.016  31.841  30.382  1.00  0.00     0.029 A 
ATOM     52  N   UNL A   1      42.281  30.360  29.310  1.00  0.00    -0.354 N 
ATOM     53  N   UNL A   1      44.739  29.386  28.032  1.00  0.00    -0.248 NA
ATOM     54  C   UNL A   1      46.884  29.793  27.203  1.00  0.00     0.031 C 
ATOM     55  C   UNL A   1      42.270  32.415  30.150  1.00  0.00     0.029 A 
ATOM     56  C   UNL A   1      43.061  31.489  29.488  1.00  0.00     0.049 A 
ATOM     57  H   UNL A   1      42.577  29.533  28.866  1.00  0.00     0.167 HD
ATOM     58  C   UNL A   1      45.123  30.677  28.377  1.00  0.00     0.074 A 
ATOM     59  C   UNL A   1      46.470  30.859  27.876  1.00  0.00     0.031 C 
ATOM     60  C   UNL A   1      44.420  31.633  29.034  1.00  0.00     0.034 A 
BRANCH  47  61
ATOM     61  C   UNL A   1      38.625  29.993  30.419  1.00  0.00     0.023 A 
ATOM     62  C   UNL A   1      38.343  29.653  31.757  1.00  0.00     0.012 A 
ATOM     63  C   UNL A   1      37.684  30.735  29.680  1.00  0.00     0.148 A 
ATOM     64  C   UNL A   1      37.133  30.022  32.344  1.00  0.00     0.002 A 
ATOM     65  C   UNL A   1      36.496  31.133  30.283  1.00  0.00     0.091 A 
ATOM     66  F   UNL A   1      37.960  31.025  28.401  1.00  0.00    -0.205 F 
ATOM     67  C   UNL A   1      36.215  30.769  31.610  1.00  0.00     0.022 A 
BRANCH  65  68
ATOM     68  S   UNL A   1      35.281  32.155  29.443  1.00  0.00     0.127 S 
ATOM     69  O   UNL A   1      34.377  32.501  30.538  1.00  0.00    -0.237 OA
ATOM     70  O   UNL A   1      36.098  33.266  28.953  1.00  0.00    -0.237 OA
ATOM     71  O   UNL A   1      34.708  31.318  28.398  1.00  0.00    -0.744 OA
ENDBRANCH  65  68
ENDBRANCH  47  61
BRANCH  48  72
ATOM     72  C   UNL A   1      47.180  27.064  26.156  1.00  0.00     0.023 A 
ATOM     73  C   UNL A   1      47.390  27.381  24.800  1.00  0.00     0.012 A 
ATOM     74  C   UNL A   1      48.187  26.382  26.866  1.00  0.00     0.148 A 
ATOM     75  C   UNL A   1      48.569  27.004  24.157  1.00  0.00     0.002 A 
ATOM     76  C   UNL A   1      49.382  26.058  26.234  1.00  0.00     0.091 A 
ATOM     77  F   UNL A   1      47.961  26.071  28.149  1.00  0.00    -0.205 F 
ATOM     78  C   UNL A   1      49.569  26.353  24.874  1.00  0.00     0.022 A 
BRANCH  76  79
ATOM     79  S   UNL A   1      50.772  25.346  27.118  1.00  0.00     0.127 S 
ATOM     80  O   UNL A   1      51.174  26.450  27.984  1.00  0.00    -0.237 OA
ATOM     81  O   UNL A   1      50.145  24.217  27.807  1.00  0.00    -0.237 OA
ATOM     82  O   UNL A   1      51.729  24.960  26.090  1.00  0.00    -0.744 OA
ENDBRANCH  76  79
ENDBRANCH  48  72
BRANCH  60  83
ATOM     83  C   UNL A   1      45.098  32.956  29.282  1.00  0.00     0.023 A 
ATOM     84  C   UNL A   1      45.882  33.131  30.438  1.00  0.00     0.012 A 
ATOM     85  C   UNL A   1      45.025  33.992  28.331  1.00  0.00     0.148 A 
ATOM     86  C   UNL A   1      46.562  34.327  30.659  1.00  0.00     0.002 A 
ATOM     87  C   UNL A   1      45.742  35.165  28.535  1.00  0.00     0.091 A 
ATOM     88  F   UNL A   1      44.257  33.814  27.246  1.00  0.00    -0.205 F 
ATOM     89  C   UNL A   1      46.503  35.338  29.702  1.00  0.00     0.022 A 
BRANCH  87  90
ATOM     90  S   UNL A   1      45.797  36.481  27.312  1.00  0.00     0.127 S 
ATOM     91  O   UNL A   1      46.641  37.471  27.977  1.00  0.00    -0.237 OA
ATOM     92  O   UNL A   1      46.421  35.818  26.166  1.00  0.00    -0.237 OA
ATOM     93  O   UNL A   1      44.413  36.879  27.094  1.00  0.00    -0.744 OA
ENDBRANCH  87  90
ENDBRANCH  60  83
ENDBRANCH  34  35
ENDBRANCH  27  29
ENDBRANCH  26  27
ENDBRANCH  25  26
ENDBRANCH  24  25
ENDBRANCH   1  24
TORSDOF 21
ENDMDL
MODEL 3
REMARK VINA RESULT:     -10.1      3.231      4.970
REMARK SMILES C[NH2+][C@]1(C(=O)OCCOCCOC(=O)c2ccc(-c3c4nc(c(-c5cccc(S(=O)(=O)[O-])c5F)c5ccc([nH]5)c(-c5cccc(S(=O)(=O)[O-])c5F)c5nc(c(-c6cccc(S(=O)(=O)[O-])c6F)c6ccc3[nH]6)C=C5)C=C4)cc2)CCC[C@@H]1CCn1cc(C)cn1
REMARK SMILES IDX 9 1 8 2 7 3 6 4 4 5 5 6 3 7 78 8 81 9 79 10 80 11 2 12 1 13
REMARK SMILES IDX 82 16 83 17 84 18 85 19 89 20 86 21 88 22 87 23 10 24 11 25
REMARK SMILES IDX 12 26 13 27 14 28 15 29 16 30 77 31 17 32 76 33 18 34 19 35
REMARK SMILES IDX 20 36 70 37 21 38 75 39 69 40 71 41 22 42 74 43 68 44 67 45
REMARK SMILES IDX 23 47 55 48 35 49 54 50 36 51 39 52 53 53 72 54 37 55 38 56
REMARK SMILES IDX 52 58 73 59 40 60 24 61 25 62 33 63 26 64 28 65 34 66 27 67
REMARK SMILES IDX 29 68 30 69 31 70 32 71 56 72 57 73 65 74 58 75 60 76 66 77
REMARK SMILES IDX 59 78 61 79 62 80 63 81 64 82 41 83 42 84 50 85 43 86 45 87
REMARK SMILES IDX 51 88 44 89 46 90 47 91 48 92 49 93
REMARK H PARENT 2 14 2 15 71 46 39 57
REMARK Flexibility Score: inf
ROOT
ATOM      1  O   UNL A   1      31.439  30.555  25.394  1.00  0.00    -0.374 OA
ENDROOT
BRANCH   1   2
ATOM      2  C   UNL A   1      31.371  29.354  24.630  1.00  0.00     0.202 C 
BRANCH   2   3
ATOM      3  C   UNL A   1      32.556  29.006  23.719  1.00  0.00     0.261 C 
BRANCH   3   4
ATOM      4  O   UNL A   1      33.196  27.775  24.076  1.00  0.00    -0.459 OA
BRANCH   4   5
ATOM      5  C   UNL A   1      33.032  26.749  23.196  1.00  0.00     0.368 C 
ATOM      6  O   UNL A   1      33.315  26.816  22.002  1.00  0.00    -0.245 OA
BRANCH   5   7
ATOM      7  C   UNL A   1      32.404  25.488  23.864  1.00  0.00     0.197 C 
ATOM      8  C   UNL A   1      31.348  24.728  23.031  1.00  0.00     0.081 C 
ATOM      9  C   UNL A   1      33.517  24.407  23.912  1.00  0.00     0.064 C 
ATOM     10  C   UNL A   1      31.381  23.288  23.551  1.00  0.00     0.008 C 
ATOM     11  C   UNL A   1      32.773  23.086  24.151  1.00  0.00     0.011 C 
BRANCH   7  12
ATOM     12  N   UNL A   1      31.812  25.730  25.218  1.00  0.00    -0.334 N 
ATOM     13  C   UNL A   1      30.372  25.953  25.254  1.00  0.00     0.331 C 
ATOM     14  H   UNL A   1      32.016  24.915  25.798  1.00  0.00     0.347 HD
ATOM     15  H   UNL A   1      32.233  26.596  25.552  1.00  0.00     0.347 HD
ENDBRANCH   7  12
BRANCH   9  16
ATOM     16  C   UNL A   1      34.648  24.680  24.920  1.00  0.00     0.034 C 
BRANCH  16  17
ATOM     17  C   UNL A   1      34.807  23.588  25.978  1.00  0.00     0.144 C 
BRANCH  17  18
ATOM     18  N   UNL A   1      35.924  22.700  25.722  1.00  0.00    -0.272 N 
ATOM     19  C   UNL A   1      35.873  21.389  25.344  1.00  0.00     0.112 A 
ATOM     20  N   UNL A   1      37.173  23.153  25.909  1.00  0.00    -0.181 NA
ATOM     21  C   UNL A   1      37.183  20.969  25.234  1.00  0.00    -0.013 A 
ATOM     22  C   UNL A   1      37.942  22.109  25.585  1.00  0.00     0.138 A 
ATOM     23  C   UNL A   1      37.700  19.642  24.832  1.00  0.00     0.048 C 
ENDBRANCH  17  18
ENDBRANCH  16  17
ENDBRANCH   9  16
ENDBRANCH   5   7
ENDBRANCH   4   5
ENDBRANCH   3   4
ENDBRANCH   2   3
ENDBRANCH   1   2
BRANCH   1  24
ATOM     24  C   UNL A   1      31.728  30.444  26.789  1.00  0.00     0.202 C 
BRANCH  24  25
ATOM     25  C   UNL A   1      33.110  29.939  27.216  1.00  0.00     0.261 C 
BRANCH  25  26
ATOM     26  O   UNL A   1      34.141  30.927  27.045  1.00  0.00    -0.460 OA
BRANCH  26  27
ATOM     27  C   UNL A   1      34.786  31.269  28.186  1.00  0.00     0.338 C 
ATOM     28  O   UNL A   1      34.400  32.052  29.045  1.00  0.00    -0.246 OA
BRANCH  27  29
ATOM     29  C   UNL A   1      35.973  30.422  28.381  1.00  0.00     0.060 A 
ATOM     30  C   UNL A   1      36.086  29.739  29.599  1.00  0.00     0.016 A 
ATOM     31  C   UNL A   1      37.007  30.383  27.443  1.00  0.00     0.016 A 
ATOM     32  C   UNL A   1      37.259  29.059  29.911  1.00  0.00     0.010 A 
ATOM     33  C   UNL A   1      38.190  29.707  27.764  1.00  0.00     0.010 A 
ATOM     34  C   UNL A   1      38.335  29.080  29.014  1.00  0.00    -0.014 A 
BRANCH  34  35
ATOM     35  C   UNL A   1      39.656  28.579  29.459  1.00  0.00     0.031 A 
ATOM     36  C   UNL A   1      40.393  29.326  30.538  1.00  0.00     0.074 A 
ATOM     37  C   UNL A   1      40.184  27.465  28.922  1.00  0.00     0.049 A 
ATOM     38  N   UNL A   1      41.551  29.064  31.083  1.00  0.00    -0.248 NA
ATOM     39  C   UNL A   1      39.734  30.529  31.075  1.00  0.00     0.031 C 
ATOM     40  C   UNL A   1      39.563  26.658  27.873  1.00  0.00     0.029 A 
ATOM     41  N   UNL A   1      41.375  26.834  29.174  1.00  0.00    -0.354 N 
ATOM     42  C   UNL A   1      41.773  30.077  32.008  1.00  0.00     0.074 A 
ATOM     43  C   UNL A   1      40.634  30.966  31.944  1.00  0.00     0.031 C 
ATOM     44  C   UNL A   1      40.392  25.652  27.551  1.00  0.00     0.029 A 
ATOM     45  C   UNL A   1      41.607  25.753  28.357  1.00  0.00     0.049 A 
ATOM     46  H   UNL A   1      42.004  27.127  29.873  1.00  0.00     0.167 HD
ATOM     47  C   UNL A   1      42.820  30.241  32.850  1.00  0.00     0.034 A 
ATOM     48  C   UNL A   1      42.685  24.950  28.263  1.00  0.00     0.034 A 
ATOM     49  C   UNL A   1      43.941  29.345  32.927  1.00  0.00     0.049 A 
ATOM     50  C   UNL A   1      43.847  25.166  29.196  1.00  0.00     0.074 A 
ATOM     51  C   UNL A   1      45.030  29.398  33.777  1.00  0.00     0.029 A 
ATOM     52  N   UNL A   1      44.122  28.236  32.113  1.00  0.00    -0.354 N 
ATOM     53  N   UNL A   1      43.983  26.051  30.155  1.00  0.00    -0.248 NA
ATOM     54  C   UNL A   1      44.991  24.252  29.059  1.00  0.00     0.031 C 
ATOM     55  C   UNL A   1      45.880  28.332  33.466  1.00  0.00     0.029 A 
ATOM     56  C   UNL A   1      45.311  27.604  32.433  1.00  0.00     0.049 A 
ATOM     57  H   UNL A   1      43.498  27.943  31.411  1.00  0.00     0.167 HD
ATOM     58  C   UNL A   1      45.208  25.781  30.756  1.00  0.00     0.074 A 
ATOM     59  C   UNL A   1      45.766  24.636  30.066  1.00  0.00     0.031 C 
ATOM     60  C   UNL A   1      45.824  26.430  31.775  1.00  0.00     0.034 A 
BRANCH  47  61
ATOM     61  C   UNL A   1      42.786  31.422  33.783  1.00  0.00     0.023 A 
ATOM     62  C   UNL A   1      43.302  32.661  33.352  1.00  0.00     0.012 A 
ATOM     63  C   UNL A   1      42.201  31.323  35.059  1.00  0.00     0.148 A 
ATOM     64  C   UNL A   1      43.262  33.777  34.187  1.00  0.00     0.002 A 
ATOM     65  C   UNL A   1      42.129  32.449  35.872  1.00  0.00     0.091 A 
ATOM     66  F   UNL A   1      41.740  30.130  35.461  1.00  0.00    -0.205 F 
ATOM     67  C   UNL A   1      42.666  33.673  35.441  1.00  0.00     0.022 A 
BRANCH  65  68
ATOM     68  S   UNL A   1      41.321  32.432  37.476  1.00  0.00     0.127 S 
ATOM     69  O   UNL A   1      42.129  31.454  38.204  1.00  0.00    -0.237 OA
ATOM     70  O   UNL A   1      41.489  33.816  37.922  1.00  0.00    -0.237 OA
ATOM     71  O   UNL A   1      39.940  32.041  37.224  1.00  0.00    -0.744 OA
ENDBRANCH  65  68
ENDBRANCH  47  61
BRANCH  48  72
ATOM     72  C   UNL A   1      42.697  23.838  27.271  1.00  0.00     0.023 A 
ATOM     73  C   UNL A   1      43.325  24.024  26.025  1.00  0.00     0.012 A 
ATOM     74  C   UNL A   1      42.115  22.590  27.568  1.00  0.00     0.148 A 
ATOM     75  C   UNL A   1      43.350  22.996  25.081  1.00  0.00     0.002 A 
ATOM     76  C   UNL A   1      42.192  21.553  26.645  1.00  0.00     0.091 A 
ATOM     77  F   UNL A   1      41.503  22.439  28.750  1.00  0.00    -0.205 F 
ATOM     78  C   UNL A   1      42.795  21.759  25.394  1.00  0.00     0.022 A 
BRANCH  76  79
ATOM     79  S   UNL A   1      41.626  19.892  27.021  1.00  0.00     0.127 S 
ATOM     80  O   UNL A   1      40.753  20.124  28.167  1.00  0.00    -0.237 OA
ATOM     81  O   UNL A   1      40.937  19.521  25.784  1.00  0.00    -0.237 OA
ATOM     82  O   UNL A   1      42.835  19.121  27.286  1.00  0.00    -0.744 OA
ENDBRANCH  76  79
ENDBRANCH  48  72
BRANCH  60  83
ATOM     83  C   UNL A   1      47.160  25.906  32.234  1.00  0.00     0.023 A 
ATOM     84  C   UNL A   1      47.221  25.005  33.314  1.00  0.00     0.012 A 
ATOM     85  C   UNL A   1      48.341  26.240  31.544  1.00  0.00     0.148 A 
ATOM     86  C   UNL A   1      48.441  24.465  33.719  1.00  0.00     0.002 A 
ATOM     87  C   UNL A   1      49.547  25.663  31.923  1.00  0.00     0.091 A 
ATOM     88  F   UNL A   1      48.266  27.115  30.529  1.00  0.00    -0.205 F 
ATOM     89  C   UNL A   1      49.601  24.784  33.016  1.00  0.00     0.022 A 
BRANCH  87  90
ATOM     90  S   UNL A   1      51.073  25.945  31.017  1.00  0.00     0.127 S 
ATOM     91  O   UNL A   1      52.005  25.067  31.721  1.00  0.00    -0.237 OA
ATOM     92  O   UNL A   1      50.722  25.503  29.666  1.00  0.00    -0.237 OA
ATOM     93  O   UNL A   1      51.345  27.371  31.129  1.00  0.00    -0.744 OA
ENDBRANCH  87  90
ENDBRANCH  60  83
ENDBRANCH  34  35
ENDBRANCH  27  29
ENDBRANCH  26  27
ENDBRANCH  25  26
ENDBRANCH  24  25
ENDBRANCH   1  24
TORSDOF 21
ENDMDL
