MODEL 1
REMARK VINA RESULT:     -11.2      0.000      0.000
REMARK SMILES C[C@@H](C(=O)OCCOCCOC(=O)c1ccc(-c2c3nc(c(-c4cccc(S(=O)(=O)[O-])c4F)c4ccc([nH]4)c(-c4cccc(S(=O)(=O)[O-])c4F)c4nc(c(-c5cccc(S(=O)(=O)[O-])c5F)c5ccc2[nH]5)C=C4)C=C3)cc1)c1ccc(Cc2ccco2)cc1F
REMARK SMILES IDX 8 1 7 2 6 3 5 4 3 5 4 6 2 7 1 8 77 9 78 10 88 11 79 12 87 13
REMARK SMILES IDX 89 14 80 15 81 16 82 17 83 18 86 19 84 20 85 21 9 22 10 23
REMARK SMILES IDX 11 24 12 25 13 26 14 27 15 28 76 29 16 30 75 31 17 32 18 33
REMARK SMILES IDX 19 34 69 35 20 36 74 37 68 38 70 39 21 40 73 41 67 42 66 43
REMARK SMILES IDX 22 45 54 46 34 47 53 48 35 49 38 50 52 51 71 52 36 53 37 54
REMARK SMILES IDX 51 56 72 57 39 58 23 59 24 60 32 61 25 62 27 63 33 64 26 65
REMARK SMILES IDX 28 66 29 67 30 68 31 69 55 70 56 71 64 72 57 73 59 74 65 75
REMARK SMILES IDX 58 76 60 77 61 78 62 79 63 80 40 81 41 82 49 83 42 84 44 85
REMARK SMILES IDX 50 86 43 87 45 88 46 89 47 90 48 91
REMARK H PARENT 70 44 38 55
REMARK Flexibility Score: inf
ROOT
ATOM      1  O   UNL A   1      35.317  18.679  24.638  1.00  0.00    -0.374 OA
ENDROOT
BRANCH   1   2
ATOM      2  C   UNL A   1      33.943  18.752  24.265  1.00  0.00     0.202 C 
BRANCH   2   3
ATOM      3  C   UNL A   1      32.905  18.896  25.384  1.00  0.00     0.261 C 
BRANCH   3   4
ATOM      4  O   UNL A   1      31.984  19.973  25.149  1.00  0.00    -0.463 OA
BRANCH   4   5
ATOM      5  C   UNL A   1      32.464  21.213  25.450  1.00  0.00     0.313 C 
ATOM      6  O   UNL A   1      33.196  21.434  26.408  1.00  0.00    -0.252 OA
BRANCH   5   7
ATOM      7  C   UNL A   1      32.012  22.294  24.444  1.00  0.00     0.129 C 
ATOM      8  C   UNL A   1      32.311  21.920  22.983  1.00  0.00     0.025 C 
BRANCH   7   9
ATOM      9  C   UNL A   1      32.535  23.675  24.856  1.00  0.00     0.002 A 
ATOM     10  C   UNL A   1      33.741  24.224  24.394  1.00  0.00     0.008 A 
ATOM     11  C   UNL A   1      31.791  24.451  25.754  1.00  0.00     0.127 A 
ATOM     12  C   UNL A   1      34.191  25.473  24.854  1.00  0.00     0.005 A 
ATOM     13  C   UNL A   1      32.259  25.665  26.256  1.00  0.00     0.043 A 
ATOM     14  F   UNL A   1      30.570  24.052  26.137  1.00  0.00    -0.207 F 
ATOM     15  C   UNL A   1      33.480  26.192  25.823  1.00  0.00    -0.038 A 
BRANCH  15  16
ATOM     16  C   UNL A   1      33.924  27.553  26.320  1.00  0.00     0.111 C 
BRANCH  16  17
ATOM     17  C   UNL A   1      32.944  28.666  26.158  1.00  0.00     0.108 A 
ATOM     18  C   UNL A   1      32.633  29.793  26.895  1.00  0.00     0.046 A 
ATOM     19  O   UNL A   1      32.220  28.668  24.998  1.00  0.00    -0.469 OA
ATOM     20  C   UNL A   1      31.660  30.507  26.155  1.00  0.00     0.042 A 
ATOM     21  C   UNL A   1      31.446  29.784  25.008  1.00  0.00     0.195 A 
ENDBRANCH  16  17
ENDBRANCH  15  16
ENDBRANCH   7   9
ENDBRANCH   5   7
ENDBRANCH   4   5
ENDBRANCH   3   4
ENDBRANCH   2   3
ENDBRANCH   1   2
BRANCH   1  22
ATOM     22  C   UNL A   1      36.002  19.906  24.895  1.00  0.00     0.202 C 
BRANCH  22  23
ATOM     23  C   UNL A   1      37.537  19.871  24.898  1.00  0.00     0.261 C 
BRANCH  23  24
ATOM     24  O   UNL A   1      38.114  21.103  25.368  1.00  0.00    -0.460 OA
BRANCH  24  25
ATOM     25  C   UNL A   1      39.265  20.961  26.069  1.00  0.00     0.338 C 
ATOM     26  O   UNL A   1      40.001  19.981  26.083  1.00  0.00    -0.246 OA
BRANCH  25  27
ATOM     27  C   UNL A   1      39.648  22.239  26.692  1.00  0.00     0.060 A 
ATOM     28  C   UNL A   1      39.014  23.400  26.229  1.00  0.00     0.016 A 
ATOM     29  C   UNL A   1      40.666  22.319  27.646  1.00  0.00     0.016 A 
ATOM     30  C   UNL A   1      39.431  24.651  26.677  1.00  0.00     0.010 A 
ATOM     31  C   UNL A   1      41.089  23.578  28.087  1.00  0.00     0.010 A 
ATOM     32  C   UNL A   1      40.501  24.750  27.574  1.00  0.00    -0.014 A 
BRANCH  32  33
ATOM     33  C   UNL A   1      41.096  26.080  27.855  1.00  0.00     0.031 A 
ATOM     34  C   UNL A   1      42.497  26.365  27.390  1.00  0.00     0.074 A 
ATOM     35  C   UNL A   1      40.392  27.027  28.500  1.00  0.00     0.049 A 
ATOM     36  N   UNL A   1      43.212  27.451  27.533  1.00  0.00    -0.248 NA
ATOM     37  C   UNL A   1      43.186  25.283  26.666  1.00  0.00     0.031 C 
ATOM     38  C   UNL A   1      39.027  26.872  28.996  1.00  0.00     0.029 A 
ATOM     39  N   UNL A   1      40.743  28.302  28.868  1.00  0.00    -0.354 N 
ATOM     40  C   UNL A   1      44.440  27.177  26.942  1.00  0.00     0.074 A 
ATOM     41  C   UNL A   1      44.379  25.817  26.451  1.00  0.00     0.031 C 
ATOM     42  C   UNL A   1      38.664  27.999  29.634  1.00  0.00     0.029 A 
ATOM     43  C   UNL A   1      39.779  28.946  29.606  1.00  0.00     0.049 A 
ATOM     44  H   UNL A   1      41.604  28.715  28.627  1.00  0.00     0.167 HD
ATOM     45  C   UNL A   1      45.515  27.988  26.802  1.00  0.00     0.034 A 
ATOM     46  C   UNL A   1      39.801  30.152  30.206  1.00  0.00     0.034 A 
ATOM     47  C   UNL A   1      45.568  29.346  27.273  1.00  0.00     0.049 A 
ATOM     48  C   UNL A   1      41.016  31.030  30.054  1.00  0.00     0.074 A 
ATOM     49  C   UNL A   1      46.596  30.262  27.142  1.00  0.00     0.029 A 
ATOM     50  N   UNL A   1      44.555  29.980  27.975  1.00  0.00    -0.354 N 
ATOM     51  N   UNL A   1      42.122  30.801  29.389  1.00  0.00    -0.248 NA
ATOM     52  C   UNL A   1      40.972  32.347  30.706  1.00  0.00     0.031 C 
ATOM     53  C   UNL A   1      46.213  31.444  27.784  1.00  0.00     0.029 A 
ATOM     54  C   UNL A   1      44.936  31.272  28.293  1.00  0.00     0.049 A 
ATOM     55  H   UNL A   1      43.692  29.572  28.212  1.00  0.00     0.167 HD
ATOM     56  C   UNL A   1      42.890  31.955  29.513  1.00  0.00     0.074 A 
ATOM     57  C   UNL A   1      42.113  32.890  30.301  1.00  0.00     0.031 C 
ATOM     58  C   UNL A   1      44.132  32.211  29.032  1.00  0.00     0.034 A 
BRANCH  45  59
ATOM     59  C   UNL A   1      46.715  27.437  26.079  1.00  0.00     0.023 A 
ATOM     60  C   UNL A   1      46.842  27.638  24.689  1.00  0.00     0.012 A 
ATOM     61  C   UNL A   1      47.738  26.767  26.777  1.00  0.00     0.148 A 
ATOM     62  C   UNL A   1      47.952  27.154  24.000  1.00  0.00     0.002 A 
ATOM     63  C   UNL A   1      48.862  26.324  26.089  1.00  0.00     0.091 A 
ATOM     64  F   UNL A   1      47.588  26.563  28.093  1.00  0.00    -0.205 F 
ATOM     65  C   UNL A   1      48.967  26.508  24.701  1.00  0.00     0.022 A 
BRANCH  63  66
ATOM     66  S   UNL A   1      50.254  25.543  26.915  1.00  0.00     0.127 S 
ATOM     67  O   UNL A   1      50.607  26.551  27.914  1.00  0.00    -0.237 OA
ATOM     68  O   UNL A   1      49.646  24.330  27.464  1.00  0.00    -0.237 OA
ATOM     69  O   UNL A   1      51.252  25.307  25.882  1.00  0.00    -0.744 OA
ENDBRANCH  63  66
ENDBRANCH  45  59
BRANCH  46  70
ATOM     70  C   UNL A   1      38.616  30.614  30.984  1.00  0.00     0.023 A 
ATOM     71  C   UNL A   1      38.571  30.409  32.375  1.00  0.00     0.012 A 
ATOM     72  C   UNL A   1      37.545  31.275  30.351  1.00  0.00     0.148 A 
ATOM     73  C   UNL A   1      37.469  30.833  33.120  1.00  0.00     0.002 A 
ATOM     74  C   UNL A   1      36.477  31.744  31.107  1.00  0.00     0.091 A 
ATOM     75  F   UNL A   1      37.597  31.442  29.022  1.00  0.00    -0.205 F 
ATOM     76  C   UNL A   1      36.429  31.510  32.489  1.00  0.00     0.022 A 
BRANCH  74  77
ATOM     77  S   UNL A   1      35.160  32.737  30.395  1.00  0.00     0.127 S 
ATOM     78  O   UNL A   1      35.880  33.940  29.986  1.00  0.00    -0.237 OA
ATOM     79  O   UNL A   1      34.702  31.888  29.295  1.00  0.00    -0.237 OA
ATOM     80  O   UNL A   1      34.182  32.914  31.462  1.00  0.00    -0.744 OA
ENDBRANCH  74  77
ENDBRANCH  46  70
BRANCH  58  81
ATOM     81  C   UNL A   1      44.726  33.568  29.311  1.00  0.00     0.023 A 
ATOM     82  C   UNL A   1      45.529  33.758  30.454  1.00  0.00     0.012 A 
ATOM     83  C   UNL A   1      44.557  34.630  28.401  1.00  0.00     0.148 A 
ATOM     84  C   UNL A   1      46.128  34.993  30.702  1.00  0.00     0.002 A 
ATOM     85  C   UNL A   1      45.195  35.843  28.630  1.00  0.00     0.091 A 
ATOM     86  F   UNL A   1      43.775  34.436  27.329  1.00  0.00    -0.205 F 
ATOM     87  C   UNL A   1      45.972  36.030  29.786  1.00  0.00     0.022 A 
BRANCH  85  88
ATOM     88  S   UNL A   1      45.127  37.204  27.458  1.00  0.00     0.127 S 
ATOM     89  O   UNL A   1      46.135  36.804  26.478  1.00  0.00    -0.237 OA
ATOM     90  O   UNL A   1      43.747  37.132  26.978  1.00  0.00    -0.237 OA
ATOM     91  O   UNL A   1      45.438  38.405  28.222  1.00  0.00    -0.744 OA
ENDBRANCH  85  88
ENDBRANCH  58  81
ENDBRANCH  32  33
ENDBRANCH  25  27
ENDBRANCH  24  25
ENDBRANCH  23  24
ENDBRANCH  22  23
ENDBRANCH   1  22
TORSDOF 20
ENDMDL
MODEL 2
REMARK VINA RESULT:     -11.1      1.955      7.874
REMARK SMILES C[C@@H](C(=O)OCCOCCOC(=O)c1ccc(-c2c3nc(c(-c4cccc(S(=O)(=O)[O-])c4F)c4ccc([nH]4)c(-c4cccc(S(=O)(=O)[O-])c4F)c4nc(c(-c5cccc(S(=O)(=O)[O-])c5F)c5ccc2[nH]5)C=C4)C=C3)cc1)c1ccc(Cc2ccco2)cc1F
REMARK SMILES IDX 8 1 7 2 6 3 5 4 3 5 4 6 2 7 1 8 77 9 78 10 88 11 79 12 87 13
REMARK SMILES IDX 89 14 80 15 81 16 82 17 83 18 86 19 84 20 85 21 9 22 10 23
REMARK SMILES IDX 11 24 12 25 13 26 14 27 15 28 76 29 16 30 75 31 17 32 18 33
REMARK SMILES IDX 19 34 69 35 20 36 74 37 68 38 70 39 21 40 73 41 67 42 66 43
REMARK SMILES IDX 22 45 54 46 34 47 53 48 35 49 38 50 52 51 71 52 36 53 37 54
REMARK SMILES IDX 51 56 72 57 39 58 23 59 24 60 32 61 25 62 27 63 33 64 26 65
REMARK SMILES IDX 28 66 29 67 30 68 31 69 55 70 56 71 64 72 57 73 59 74 65 75
REMARK SMILES IDX 58 76 60 77 61 78 62 79 63 80 40 81 41 82 49 83 42 84 44 85
REMARK SMILES IDX 50 86 43 87 45 88 46 89 47 90 48 91
REMARK H PARENT 70 44 38 55
REMARK Flexibility Score: inf
ROOT
ATOM      1  O   UNL A   1      34.371  20.514  25.668  1.00  0.00    -0.374 OA
ENDROOT
BRANCH   1   2
ATOM      2  C   UNL A   1      33.063  20.987  25.354  1.00  0.00     0.202 C 
BRANCH   2   3
ATOM      3  C   UNL A   1      32.861  21.685  24.005  1.00  0.00     0.261 C 
BRANCH   3   4
ATOM      4  O   UNL A   1      32.831  23.117  24.120  1.00  0.00    -0.463 OA
BRANCH   4   5
ATOM      5  C   UNL A   1      33.694  23.775  23.296  1.00  0.00     0.313 C 
ATOM      6  O   UNL A   1      33.803  23.527  22.101  1.00  0.00    -0.252 OA
BRANCH   5   7
ATOM      7  C   UNL A   1      34.494  24.881  24.021  1.00  0.00     0.129 C 
ATOM      8  C   UNL A   1      35.184  24.383  25.303  1.00  0.00     0.025 C 
BRANCH   7   9
ATOM      9  C   UNL A   1      33.635  26.135  24.219  1.00  0.00     0.002 A 
ATOM     10  C   UNL A   1      33.056  26.501  25.443  1.00  0.00     0.008 A 
ATOM     11  C   UNL A   1      33.387  26.976  23.126  1.00  0.00     0.127 A 
ATOM     12  C   UNL A   1      32.233  27.635  25.544  1.00  0.00     0.005 A 
ATOM     13  C   UNL A   1      32.527  28.071  23.208  1.00  0.00     0.043 A 
ATOM     14  F   UNL A   1      34.011  26.764  21.959  1.00  0.00    -0.207 F 
ATOM     15  C   UNL A   1      31.920  28.412  24.421  1.00  0.00    -0.038 A 
BRANCH  15  16
ATOM     16  C   UNL A   1      31.057  29.654  24.501  1.00  0.00     0.111 C 
BRANCH  16  17
ATOM     17  C   UNL A   1      29.806  29.641  23.687  1.00  0.00     0.108 A 
ATOM     18  C   UNL A   1      29.027  28.645  23.131  1.00  0.00     0.046 A 
ATOM     19  O   UNL A   1      29.207  30.854  23.483  1.00  0.00    -0.469 OA
ATOM     20  C   UNL A   1      27.907  29.283  22.546  1.00  0.00     0.042 A 
ATOM     21  C   UNL A   1      28.061  30.625  22.791  1.00  0.00     0.195 A 
ENDBRANCH  16  17
ENDBRANCH  15  16
ENDBRANCH   7   9
ENDBRANCH   5   7
ENDBRANCH   4   5
ENDBRANCH   3   4
ENDBRANCH   2   3
ENDBRANCH   1   2
BRANCH   1  22
ATOM     22  C   UNL A   1      35.426  20.820  24.755  1.00  0.00     0.202 C 
BRANCH  22  23
ATOM     23  C   UNL A   1      36.817  20.250  25.065  1.00  0.00     0.261 C 
BRANCH  23  24
ATOM     24  O   UNL A   1      37.833  21.269  25.108  1.00  0.00    -0.460 OA
BRANCH  24  25
ATOM     25  C   UNL A   1      38.913  20.962  25.865  1.00  0.00     0.338 C 
ATOM     26  O   UNL A   1      39.484  19.880  25.929  1.00  0.00    -0.246 OA
BRANCH  25  27
ATOM     27  C   UNL A   1      39.467  22.178  26.487  1.00  0.00     0.060 A 
ATOM     28  C   UNL A   1      38.869  23.402  26.156  1.00  0.00     0.016 A 
ATOM     29  C   UNL A   1      40.597  22.139  27.305  1.00  0.00     0.016 A 
ATOM     30  C   UNL A   1      39.431  24.597  26.599  1.00  0.00     0.010 A 
ATOM     31  C   UNL A   1      41.166  23.342  27.741  1.00  0.00     0.010 A 
ATOM     32  C   UNL A   1      40.608  24.576  27.356  1.00  0.00    -0.014 A 
BRANCH  32  33
ATOM     33  C   UNL A   1      41.332  25.845  27.613  1.00  0.00     0.031 A 
ATOM     34  C   UNL A   1      40.632  26.946  28.362  1.00  0.00     0.074 A 
ATOM     35  C   UNL A   1      42.601  26.010  27.202  1.00  0.00     0.049 A 
ATOM     36  N   UNL A   1      41.070  28.134  28.689  1.00  0.00    -0.248 NA
ATOM     37  C   UNL A   1      39.253  26.672  28.803  1.00  0.00     0.031 C 
ATOM     38  C   UNL A   1      43.386  25.018  26.471  1.00  0.00     0.029 A 
ATOM     39  N   UNL A   1      43.444  27.087  27.321  1.00  0.00    -0.354 N 
ATOM     40  C   UNL A   1      40.019  28.758  29.349  1.00  0.00     0.074 A 
ATOM     41  C   UNL A   1      38.914  27.823  29.364  1.00  0.00     0.031 C 
ATOM     42  C   UNL A   1      44.589  25.543  26.177  1.00  0.00     0.029 A 
ATOM     43  C   UNL A   1      44.649  26.915  26.683  1.00  0.00     0.049 A 
ATOM     44  H   UNL A   1      43.207  27.905  27.815  1.00  0.00     0.167 HD
ATOM     45  C   UNL A   1      39.980  29.990  29.910  1.00  0.00     0.034 A 
ATOM     46  C   UNL A   1      45.676  27.770  26.511  1.00  0.00     0.034 A 
ATOM     47  C   UNL A   1      41.084  30.911  29.913  1.00  0.00     0.049 A 
ATOM     48  C   UNL A   1      45.602  29.144  27.127  1.00  0.00     0.074 A 
ATOM     49  C   UNL A   1      41.156  32.166  30.491  1.00  0.00     0.029 A 
ATOM     50  N   UNL A   1      42.305  30.684  29.297  1.00  0.00    -0.354 N 
ATOM     51  N   UNL A   1      44.646  29.674  27.852  1.00  0.00    -0.248 NA
ATOM     52  C   UNL A   1      46.763  30.025  26.932  1.00  0.00     0.031 C 
ATOM     53  C   UNL A   1      42.414  32.706  30.208  1.00  0.00     0.029 A 
ATOM     54  C   UNL A   1      43.135  31.777  29.473  1.00  0.00     0.049 A 
ATOM     55  H   UNL A   1      42.546  29.865  28.809  1.00  0.00     0.167 HD
ATOM     56  C   UNL A   1      45.102  30.934  28.226  1.00  0.00     0.074 A 
ATOM     57  C   UNL A   1      46.430  31.080  27.665  1.00  0.00     0.031 C 
ATOM     58  C   UNL A   1      44.474  31.889  28.955  1.00  0.00     0.034 A 
BRANCH  45  59
ATOM     59  C   UNL A   1      38.706  30.401  30.601  1.00  0.00     0.023 A 
ATOM     60  C   UNL A   1      38.541  30.128  31.974  1.00  0.00     0.012 A 
ATOM     61  C   UNL A   1      37.698  31.100  29.908  1.00  0.00     0.148 A 
ATOM     62  C   UNL A   1      37.380  30.516  32.640  1.00  0.00     0.002 A 
ATOM     63  C   UNL A   1      36.561  31.519  30.590  1.00  0.00     0.091 A 
ATOM     64  F   UNL A   1      37.862  31.328  28.598  1.00  0.00    -0.205 F 
ATOM     65  C   UNL A   1      36.396  31.220  31.952  1.00  0.00     0.022 A 
BRANCH  63  66
ATOM     66  S   UNL A   1      35.271  32.493  29.807  1.00  0.00     0.127 S 
ATOM     67  O   UNL A   1      36.026  33.648  29.323  1.00  0.00    -0.237 OA
ATOM     68  O   UNL A   1      34.798  31.592  28.756  1.00  0.00    -0.237 OA
ATOM     69  O   UNL A   1      34.294  32.775  30.849  1.00  0.00    -0.744 OA
ENDBRANCH  63  66
ENDBRANCH  45  59
BRANCH  46  70
ATOM     70  C   UNL A   1      46.879  27.340  25.744  1.00  0.00     0.023 A 
ATOM     71  C   UNL A   1      47.823  26.488  26.348  1.00  0.00     0.012 A 
ATOM     72  C   UNL A   1      47.078  27.754  24.413  1.00  0.00     0.148 A 
ATOM     73  C   UNL A   1      48.958  26.076  25.646  1.00  0.00     0.002 A 
ATOM     74  C   UNL A   1      48.181  27.295  23.702  1.00  0.00     0.091 A 
ATOM     75  F   UNL A   1      46.179  28.582  23.863  1.00  0.00    -0.205 F 
ATOM     76  C   UNL A   1      49.131  26.469  24.322  1.00  0.00     0.022 A 
BRANCH  74  77
ATOM     77  S   UNL A   1      48.413  27.647  21.957  1.00  0.00     0.127 S 
ATOM     78  O   UNL A   1      49.541  28.574  21.984  1.00  0.00    -0.237 OA
ATOM     79  O   UNL A   1      48.718  26.320  21.419  1.00  0.00    -0.237 OA
ATOM     80  O   UNL A   1      47.146  28.201  21.496  1.00  0.00    -0.744 OA
ENDBRANCH  74  77
ENDBRANCH  46  70
BRANCH  58  81
ATOM     81  C   UNL A   1      45.219  33.171  29.222  1.00  0.00     0.023 A 
ATOM     82  C   UNL A   1      46.085  33.260  30.330  1.00  0.00     0.012 A 
ATOM     83  C   UNL A   1      45.123  34.260  28.331  1.00  0.00     0.148 A 
ATOM     84  C   UNL A   1      46.821  34.422  30.565  1.00  0.00     0.002 A 
ATOM     85  C   UNL A   1      45.895  35.396  28.545  1.00  0.00     0.091 A 
ATOM     86  F   UNL A   1      44.280  34.164  27.293  1.00  0.00    -0.205 F 
ATOM     87  C   UNL A   1      46.736  35.483  29.667  1.00  0.00     0.022 A 
BRANCH  85  88
ATOM     88  S   UNL A   1      45.920  36.773  27.392  1.00  0.00     0.127 S 
ATOM     89  O   UNL A   1      44.537  36.791  26.919  1.00  0.00    -0.237 OA
ATOM     90  O   UNL A   1      46.283  37.897  28.255  1.00  0.00    -0.237 OA
ATOM     91  O   UNL A   1      46.921  36.436  26.388  1.00  0.00    -0.744 OA
ENDBRANCH  85  88
ENDBRANCH  58  81
ENDBRANCH  32  33
ENDBRANCH  25  27
ENDBRANCH  24  25
ENDBRANCH  23  24
ENDBRANCH  22  23
ENDBRANCH   1  22
TORSDOF 20
ENDMDL
MODEL 3
REMARK VINA RESULT:     -11.0      5.184     10.080
REMARK SMILES C[C@@H](C(=O)OCCOCCOC(=O)c1ccc(-c2c3nc(c(-c4cccc(S(=O)(=O)[O-])c4F)c4ccc([nH]4)c(-c4cccc(S(=O)(=O)[O-])c4F)c4nc(c(-c5cccc(S(=O)(=O)[O-])c5F)c5ccc2[nH]5)C=C4)C=C3)cc1)c1ccc(Cc2ccco2)cc1F
REMARK SMILES IDX 8 1 7 2 6 3 5 4 3 5 4 6 2 7 1 8 77 9 78 10 88 11 79 12 87 13
REMARK SMILES IDX 89 14 80 15 81 16 82 17 83 18 86 19 84 20 85 21 9 22 10 23
REMARK SMILES IDX 11 24 12 25 13 26 14 27 15 28 76 29 16 30 75 31 17 32 18 33
REMARK SMILES IDX 19 34 69 35 20 36 74 37 68 38 70 39 21 40 73 41 67 42 66 43
REMARK SMILES IDX 22 45 54 46 34 47 53 48 35 49 38 50 52 51 71 52 36 53 37 54
REMARK SMILES IDX 51 56 72 57 39 58 23 59 24 60 32 61 25 62 27 63 33 64 26 65
REMARK SMILES IDX 28 66 29 67 30 68 31 69 55 70 56 71 64 72 57 73 59 74 65 75
REMARK SMILES IDX 58 76 60 77 61 78 62 79 63 80 40 81 41 82 49 83 42 84 44 85
REMARK SMILES IDX 50 86 43 87 45 88 46 89 47 90 48 91
REMARK H PARENT 70 44 38 55
REMARK Flexibility Score: inf
ROOT
ATOM      1  O   UNL A   1      33.272  29.453  24.917  1.00  0.00    -0.374 OA
ENDROOT
BRANCH   1   2
ATOM      2  C   UNL A   1      33.752  28.117  25.047  1.00  0.00     0.202 C 
BRANCH   2   3
ATOM      3  C   UNL A   1      33.296  27.309  26.267  1.00  0.00     0.261 C 
BRANCH   3   4
ATOM      4  O   UNL A   1      32.949  25.955  25.936  1.00  0.00    -0.463 OA
BRANCH   4   5
ATOM      5  C   UNL A   1      31.610  25.700  25.904  1.00  0.00     0.313 C 
ATOM      6  O   UNL A   1      30.876  25.843  26.875  1.00  0.00    -0.252 OA
BRANCH   5   7
ATOM      7  C   UNL A   1      31.118  25.243  24.513  1.00  0.00     0.129 C 
ATOM      8  C   UNL A   1      32.219  24.571  23.675  1.00  0.00     0.025 C 
BRANCH   7   9
ATOM      9  C   UNL A   1      30.388  26.381  23.791  1.00  0.00     0.002 A 
ATOM     10  C   UNL A   1      30.992  27.219  22.842  1.00  0.00     0.008 A 
ATOM     11  C   UNL A   1      29.041  26.630  24.087  1.00  0.00     0.127 A 
ATOM     12  C   UNL A   1      30.282  28.281  22.257  1.00  0.00     0.005 A 
ATOM     13  C   UNL A   1      28.348  27.715  23.551  1.00  0.00     0.043 A 
ATOM     14  F   UNL A   1      28.362  25.792  24.884  1.00  0.00    -0.207 F 
ATOM     15  C   UNL A   1      28.964  28.572  22.634  1.00  0.00    -0.038 A 
BRANCH  15  16
ATOM     16  C   UNL A   1      28.163  29.692  22.004  1.00  0.00     0.111 C 
BRANCH  16  17
ATOM     17  C   UNL A   1      28.436  31.067  22.517  1.00  0.00     0.108 A 
ATOM     18  C   UNL A   1      29.056  31.571  23.645  1.00  0.00     0.046 A 
ATOM     19  O   UNL A   1      28.091  32.100  21.689  1.00  0.00    -0.469 OA
ATOM     20  C   UNL A   1      29.074  32.979  23.505  1.00  0.00     0.042 A 
ATOM     21  C   UNL A   1      28.480  33.250  22.297  1.00  0.00     0.195 A 
ENDBRANCH  16  17
ENDBRANCH  15  16
ENDBRANCH   7   9
ENDBRANCH   5   7
ENDBRANCH   4   5
ENDBRANCH   3   4
ENDBRANCH   2   3
ENDBRANCH   1   2
BRANCH   1  22
ATOM     22  C   UNL A   1      31.973  29.746  25.432  1.00  0.00     0.202 C 
BRANCH  22  23
ATOM     23  C   UNL A   1      31.859  30.874  26.466  1.00  0.00     0.261 C 
BRANCH  23  24
ATOM     24  O   UNL A   1      32.818  30.743  27.532  1.00  0.00    -0.460 OA
BRANCH  24  25
ATOM     25  C   UNL A   1      33.707  31.761  27.626  1.00  0.00     0.338 C 
ATOM     26  O   UNL A   1      33.455  32.960  27.618  1.00  0.00    -0.246 OA
BRANCH  25  27
ATOM     27  C   UNL A   1      35.049  31.243  27.944  1.00  0.00     0.060 A 
ATOM     28  C   UNL A   1      35.174  29.864  28.164  1.00  0.00     0.016 A 
ATOM     29  C   UNL A   1      36.146  32.090  28.112  1.00  0.00     0.016 A 
ATOM     30  C   UNL A   1      36.385  29.333  28.604  1.00  0.00     0.010 A 
ATOM     31  C   UNL A   1      37.358  31.556  28.563  1.00  0.00     0.010 A 
ATOM     32  C   UNL A   1      37.471  30.182  28.850  1.00  0.00    -0.014 A 
BRANCH  32  33
ATOM     33  C   UNL A   1      38.667  29.651  29.547  1.00  0.00     0.031 A 
ATOM     34  C   UNL A   1      39.039  30.213  30.891  1.00  0.00     0.074 A 
ATOM     35  C   UNL A   1      39.404  28.669  28.998  1.00  0.00     0.049 A 
ATOM     36  N   UNL A   1      40.043  29.903  31.670  1.00  0.00    -0.248 NA
ATOM     37  C   UNL A   1      38.162  31.265  31.432  1.00  0.00     0.031 C 
ATOM     38  C   UNL A   1      39.144  28.041  27.704  1.00  0.00     0.029 A 
ATOM     39  N   UNL A   1      40.539  28.045  29.455  1.00  0.00    -0.354 N 
ATOM     40  C   UNL A   1      39.935  30.735  32.778  1.00  0.00     0.074 A 
ATOM     41  C   UNL A   1      38.776  31.575  32.565  1.00  0.00     0.031 C 
ATOM     42  C   UNL A   1      40.111  27.141  27.455  1.00  0.00     0.029 A 
ATOM     43  C   UNL A   1      41.067  27.144  28.562  1.00  0.00     0.049 A 
ATOM     44  H   UNL A   1      40.935  28.226  30.337  1.00  0.00     0.167 HD
ATOM     45  C   UNL A   1      40.717  30.784  33.882  1.00  0.00     0.034 A 
ATOM     46  C   UNL A   1      42.201  26.419  28.622  1.00  0.00     0.034 A 
ATOM     47  C   UNL A   1      41.857  29.936  34.102  1.00  0.00     0.049 A 
ATOM     48  C   UNL A   1      43.067  26.505  29.853  1.00  0.00     0.074 A 
ATOM     49  C   UNL A   1      42.688  29.882  35.207  1.00  0.00     0.029 A 
ATOM     50  N   UNL A   1      42.336  29.003  33.196  1.00  0.00    -0.354 N 
ATOM     51  N   UNL A   1      42.885  27.209  30.944  1.00  0.00    -0.248 NA
ATOM     52  C   UNL A   1      44.277  25.670  29.876  1.00  0.00     0.031 C 
ATOM     53  C   UNL A   1      43.682  28.929  34.960  1.00  0.00     0.029 A 
ATOM     54  C   UNL A   1      43.455  28.373  33.711  1.00  0.00     0.049 A 
ATOM     55  H   UNL A   1      41.937  28.815  32.316  1.00  0.00     0.167 HD
ATOM     56  C   UNL A   1      43.935  26.878  31.794  1.00  0.00     0.074 A 
ATOM     57  C   UNL A   1      44.739  25.893  31.099  1.00  0.00     0.031 C 
ATOM     58  C   UNL A   1      44.216  27.356  33.031  1.00  0.00     0.034 A 
BRANCH  45  59
ATOM     59  C   UNL A   1      40.343  31.770  34.957  1.00  0.00     0.023 A 
ATOM     60  C   UNL A   1      40.938  33.048  34.965  1.00  0.00     0.012 A 
ATOM     61  C   UNL A   1      39.372  31.453  35.926  1.00  0.00     0.148 A 
ATOM     62  C   UNL A   1      40.595  33.985  35.939  1.00  0.00     0.002 A 
ATOM     63  C   UNL A   1      39.005  32.407  36.869  1.00  0.00     0.091 A 
ATOM     64  F   UNL A   1      38.836  30.224  35.918  1.00  0.00    -0.205 F 
ATOM     65  C   UNL A   1      39.622  33.669  36.883  1.00  0.00     0.022 A 
BRANCH  63  66
ATOM     66  S   UNL A   1      37.711  32.119  38.081  1.00  0.00     0.127 S 
ATOM     67  O   UNL A   1      36.671  33.040  37.627  1.00  0.00    -0.237 OA
ATOM     68  O   UNL A   1      37.403  30.704  37.873  1.00  0.00    -0.237 OA
ATOM     69  O   UNL A   1      38.300  32.427  39.377  1.00  0.00    -0.744 OA
ENDBRANCH  63  66
ENDBRANCH  45  59
BRANCH  46  70
ATOM     70  C   UNL A   1      42.568  25.521  27.490  1.00  0.00     0.023 A 
ATOM     71  C   UNL A   1      43.432  25.988  26.482  1.00  0.00     0.012 A 
ATOM     72  C   UNL A   1      42.083  24.201  27.423  1.00  0.00     0.148 A 
ATOM     73  C   UNL A   1      43.786  25.163  25.412  1.00  0.00     0.002 A 
ATOM     74  C   UNL A   1      42.483  23.367  26.386  1.00  0.00     0.091 A 
ATOM     75  F   UNL A   1      41.246  23.782  28.383  1.00  0.00    -0.205 F 
ATOM     76  C   UNL A   1      43.322  23.851  25.370  1.00  0.00     0.022 A 
BRANCH  74  77
ATOM     77  S   UNL A   1      42.038  21.629  26.325  1.00  0.00     0.127 S 
ATOM     78  O   UNL A   1      40.625  21.693  25.961  1.00  0.00    -0.237 OA
ATOM     79  O   UNL A   1      42.923  21.126  25.273  1.00  0.00    -0.237 OA
ATOM     80  O   UNL A   1      42.329  21.102  27.653  1.00  0.00    -0.744 OA
ENDBRANCH  74  77
ENDBRANCH  46  70
BRANCH  58  81
ATOM     81  C   UNL A   1      45.427  26.804  33.738  1.00  0.00     0.023 A 
ATOM     82  C   UNL A   1      46.652  27.499  33.674  1.00  0.00     0.012 A 
ATOM     83  C   UNL A   1      45.332  25.643  34.532  1.00  0.00     0.148 A 
ATOM     84  C   UNL A   1      47.771  27.030  34.363  1.00  0.00     0.002 A 
ATOM     85  C   UNL A   1      46.438  25.208  35.253  1.00  0.00     0.091 A 
ATOM     86  F   UNL A   1      44.164  24.985  34.567  1.00  0.00    -0.205 F 
ATOM     87  C   UNL A   1      47.661  25.894  35.161  1.00  0.00     0.022 A 
BRANCH  85  88
ATOM     88  S   UNL A   1      46.364  23.810  36.379  1.00  0.00     0.127 S 
ATOM     89  O   UNL A   1      45.372  24.264  37.353  1.00  0.00    -0.237 OA
ATOM     90  O   UNL A   1      45.909  22.729  35.504  1.00  0.00    -0.237 OA
ATOM     91  O   UNL A   1      47.716  23.640  36.894  1.00  0.00    -0.744 OA
ENDBRANCH  85  88
ENDBRANCH  58  81
ENDBRANCH  32  33
ENDBRANCH  25  27
ENDBRANCH  24  25
ENDBRANCH  23  24
ENDBRANCH  22  23
ENDBRANCH   1  22
TORSDOF 20
ENDMDL
