MODEL 1
REMARK VINA RESULT:     -11.7      0.000      0.000
REMARK SMILES CCOC(=O)c1cccc(Nc2c(-c3ccc(C(=O)OCCOCCOC(=O)c4ccc(-c5c6nc(c(-c7cccc(S(=O)(=O)[O-])c7F)c7ccc([nH]7)c(-c7cccc(S(=O)(=O)[O-])c7F)c7nc(c(-c8cccc(S(=O)(=O)[O-])c8F)c8ccc5[nH]8)C=C7)C=C6)cc4)cc3)nc3cnccn23)c1
REMARK SMILES IDX 21 1 20 2 18 3 19 4 17 5 14 6 15 7 93 8 16 9 92 10 13 11
REMARK SMILES IDX 12 12 100 13 94 14 95 15 99 16 96 17 98 18 97 19 11 20 10 22
REMARK SMILES IDX 6 23 7 24 101 25 8 26 9 27 4 28 5 29 3 30 2 31 1 32 22 33
REMARK SMILES IDX 23 34 24 35 25 36 26 37 27 38 28 39 29 40 30 41 91 42 31 43
REMARK SMILES IDX 90 44 32 45 33 46 34 47 84 48 35 49 89 50 83 51 85 52 36 53
REMARK SMILES IDX 88 54 82 55 81 56 37 58 69 59 49 60 68 61 50 62 53 63 67 64
REMARK SMILES IDX 86 65 51 66 52 67 66 69 87 70 54 71 38 72 39 73 47 74 40 75
REMARK SMILES IDX 42 76 48 77 41 78 43 79 44 80 45 81 46 82 70 83 71 84 79 85
REMARK SMILES IDX 72 86 74 87 80 88 73 89 75 90 76 91 77 92 78 93 55 94 56 95
REMARK SMILES IDX 64 96 57 97 59 98 65 99 58 100 60 101 61 102 62 103 63 104
REMARK H PARENT 11 21 85 57 53 68
REMARK Flexibility Score: inf
ROOT
ATOM      1  C   UNL A   1      35.631  23.936  24.030  1.00  0.00     0.261 C 
ENDROOT
BRANCH   1   2
ATOM      2  O   UNL A   1      34.203  23.918  23.863  1.00  0.00    -0.460 OA
BRANCH   2   3
ATOM      3  C   UNL A   1      33.769  24.036  22.585  1.00  0.00     0.338 C 
ATOM      4  O   UNL A   1      33.915  23.224  21.684  1.00  0.00    -0.246 OA
BRANCH   3   5
ATOM      5  C   UNL A   1      32.929  25.249  22.435  1.00  0.00     0.060 A 
ATOM      6  C   UNL A   1      31.467  27.639  22.322  1.00  0.00     0.004 A 
ATOM      7  C   UNL A   1      32.866  27.672  22.316  1.00  0.00     0.011 A 
ATOM      8  C   UNL A   1      30.806  26.402  22.331  1.00  0.00     0.011 A 
ATOM      9  C   UNL A   1      33.592  26.483  22.381  1.00  0.00     0.016 A 
ATOM     10  C   UNL A   1      31.533  25.205  22.372  1.00  0.00     0.016 A 
BRANCH   6  11
ATOM     11  C   UNL A   1      30.714  28.864  22.506  1.00  0.00     0.114 A 
ATOM     12  C   UNL A   1      30.370  29.473  23.711  1.00  0.00     0.143 A 
ATOM     13  N   UNL A   1      29.569  30.538  23.324  1.00  0.00    -0.283 N 
ATOM     14  N   UNL A   1      30.112  29.476  21.429  1.00  0.00    -0.225 NA
ATOM     15  C   UNL A   1      29.416  30.449  21.963  1.00  0.00     0.157 A 
ATOM     16  C   UNL A   1      28.956  31.581  24.003  1.00  0.00     0.115 A 
ATOM     17  C   UNL A   1      28.558  31.387  21.296  1.00  0.00     0.158 A 
ATOM     18  C   UNL A   1      28.179  32.431  23.310  1.00  0.00     0.129 A 
ATOM     19  N   UNL A   1      27.946  32.341  21.947  1.00  0.00    -0.259 NA
BRANCH  12  20
ATOM     20  N   UNL A   1      30.733  29.210  24.999  1.00  0.00    -0.339 N 
ATOM     21  H   UNL A   1      30.404  29.836  25.683  1.00  0.00     0.168 HD
BRANCH  20  22
ATOM     22  C   UNL A   1      31.531  28.135  25.465  1.00  0.00     0.040 A 
ATOM     23  C   UNL A   1      31.713  25.783  26.074  1.00  0.00     0.062 A 
ATOM     24  C   UNL A   1      33.057  25.955  26.413  1.00  0.00     0.016 A 
ATOM     25  C   UNL A   1      30.957  26.858  25.585  1.00  0.00     0.041 A 
ATOM     26  C   UNL A   1      33.649  27.203  26.254  1.00  0.00     0.003 A 
ATOM     27  C   UNL A   1      32.889  28.282  25.791  1.00  0.00     0.026 A 
BRANCH  23  28
ATOM     28  C   UNL A   1      31.104  24.466  26.336  1.00  0.00     0.338 C 
ATOM     29  O   UNL A   1      30.143  24.314  27.075  1.00  0.00    -0.246 OA
BRANCH  28  30
ATOM     30  O   UNL A   1      31.813  23.495  25.714  1.00  0.00    -0.462 OA
BRANCH  30  31
ATOM     31  C   UNL A   1      32.247  22.419  26.562  1.00  0.00     0.230 C 
ATOM     32  C   UNL A   1      33.569  22.736  27.245  1.00  0.00     0.049 C 
ENDBRANCH  30  31
ENDBRANCH  28  30
ENDBRANCH  23  28
ENDBRANCH  20  22
ENDBRANCH  12  20
ENDBRANCH   6  11
ENDBRANCH   3   5
ENDBRANCH   2   3
ENDBRANCH   1   2
BRANCH   1  33
ATOM     33  C   UNL A   1      36.234  22.564  23.716  1.00  0.00     0.202 C 
BRANCH  33  34
ATOM     34  O   UNL A   1      35.623  21.460  24.390  1.00  0.00    -0.374 OA
BRANCH  34  35
ATOM     35  C   UNL A   1      36.497  20.407  24.800  1.00  0.00     0.202 C 
BRANCH  35  36
ATOM     36  C   UNL A   1      37.490  20.769  25.910  1.00  0.00     0.261 C 
BRANCH  36  37
ATOM     37  O   UNL A   1      38.836  20.835  25.407  1.00  0.00    -0.460 OA
BRANCH  37  38
ATOM     38  C   UNL A   1      39.803  20.709  26.345  1.00  0.00     0.338 C 
ATOM     39  O   UNL A   1      40.434  19.699  26.621  1.00  0.00    -0.246 OA
BRANCH  38  40
ATOM     40  C   UNL A   1      40.140  22.035  26.903  1.00  0.00     0.060 A 
ATOM     41  C   UNL A   1      39.516  23.151  26.332  1.00  0.00     0.016 A 
ATOM     42  C   UNL A   1      41.082  22.194  27.923  1.00  0.00     0.016 A 
ATOM     43  C   UNL A   1      39.871  24.435  26.740  1.00  0.00     0.010 A 
ATOM     44  C   UNL A   1      41.440  23.484  28.327  1.00  0.00     0.010 A 
ATOM     45  C   UNL A   1      40.865  24.610  27.711  1.00  0.00    -0.014 A 
BRANCH  45  46
ATOM     46  C   UNL A   1      41.397  25.968  27.978  1.00  0.00     0.031 A 
ATOM     47  C   UNL A   1      42.789  26.308  27.521  1.00  0.00     0.074 A 
ATOM     48  C   UNL A   1      40.648  26.889  28.610  1.00  0.00     0.049 A 
ATOM     49  N   UNL A   1      43.451  27.429  27.649  1.00  0.00    -0.248 NA
ATOM     50  C   UNL A   1      43.535  25.245  26.828  1.00  0.00     0.031 C 
ATOM     51  C   UNL A   1      39.285  26.680  29.094  1.00  0.00     0.029 A 
ATOM     52  N   UNL A   1      40.940  28.181  28.966  1.00  0.00    -0.354 N 
ATOM     53  C   UNL A   1      44.695  27.202  27.071  1.00  0.00     0.074 A 
ATOM     54  C   UNL A   1      44.703  25.831  26.609  1.00  0.00     0.031 C 
ATOM     55  C   UNL A   1      38.864  27.801  29.705  1.00  0.00     0.029 A 
ATOM     56  C   UNL A   1      39.932  28.798  29.669  1.00  0.00     0.049 A 
ATOM     57  H   UNL A   1      41.789  28.625  28.739  1.00  0.00     0.167 HD
ATOM     58  C   UNL A   1      45.729  28.062  26.917  1.00  0.00     0.034 A 
ATOM     59  C   UNL A   1      39.885  30.024  30.228  1.00  0.00     0.034 A 
ATOM     60  C   UNL A   1      45.715  29.429  27.360  1.00  0.00     0.049 A 
ATOM     61  C   UNL A   1      41.063  30.951  30.074  1.00  0.00     0.074 A 
ATOM     62  C   UNL A   1      46.699  30.392  27.217  1.00  0.00     0.029 A 
ATOM     63  N   UNL A   1      44.667  30.029  28.042  1.00  0.00    -0.354 N 
ATOM     64  N   UNL A   1      42.184  30.761  29.420  1.00  0.00    -0.248 NA
ATOM     65  C   UNL A   1      40.955  32.274  30.707  1.00  0.00     0.031 C 
ATOM     66  C   UNL A   1      46.252  31.568  27.828  1.00  0.00     0.029 A 
ATOM     67  C   UNL A   1      44.983  31.343  28.336  1.00  0.00     0.049 A 
ATOM     68  H   UNL A   1      43.822  29.583  28.281  1.00  0.00     0.167 HD
ATOM     69  C   UNL A   1      42.897  31.949  29.532  1.00  0.00     0.074 A 
ATOM     70  C   UNL A   1      42.074  32.860  30.302  1.00  0.00     0.031 C 
ATOM     71  C   UNL A   1      44.129  32.256  29.053  1.00  0.00     0.034 A 
BRANCH  58  72
ATOM     72  C   UNL A   1      46.952  27.552  26.202  1.00  0.00     0.023 A 
ATOM     73  C   UNL A   1      47.053  27.710  24.805  1.00  0.00     0.012 A 
ATOM     74  C   UNL A   1      48.015  26.956  26.909  1.00  0.00     0.148 A 
ATOM     75  C   UNL A   1      48.177  27.253  24.117  1.00  0.00     0.002 A 
ATOM     76  C   UNL A   1      49.149  26.539  26.221  1.00  0.00     0.091 A 
ATOM     77  F   UNL A   1      47.889  26.791  28.233  1.00  0.00    -0.205 F 
ATOM     78  C   UNL A   1      49.226  26.677  24.826  1.00  0.00     0.022 A 
BRANCH  76  79
ATOM     79  S   UNL A   1      50.579  25.847  27.058  1.00  0.00     0.127 S 
ATOM     80  O   UNL A   1      51.609  25.959  26.026  1.00  0.00    -0.237 OA
ATOM     81  O   UNL A   1      50.749  26.759  28.191  1.00  0.00    -0.237 OA
ATOM     82  O   UNL A   1      50.203  24.489  27.429  1.00  0.00    -0.744 OA
ENDBRANCH  76  79
ENDBRANCH  58  72
BRANCH  59  83
ATOM     83  C   UNL A   1      38.655  30.468  30.942  1.00  0.00     0.023 A 
ATOM     84  C   UNL A   1      38.520  30.201  32.317  1.00  0.00     0.012 A 
ATOM     85  C   UNL A   1      37.632  31.171  30.275  1.00  0.00     0.148 A 
ATOM     86  C   UNL A   1      37.377  30.603  33.011  1.00  0.00     0.002 A 
ATOM     87  C   UNL A   1      36.521  31.614  30.982  1.00  0.00     0.091 A 
ATOM     88  F   UNL A   1      37.771  31.398  28.960  1.00  0.00    -0.205 F 
ATOM     89  C   UNL A   1      36.385  31.318  32.348  1.00  0.00     0.022 A 
BRANCH  87  90
ATOM     90  S   UNL A   1      35.255  32.648  30.236  1.00  0.00     0.127 S 
ATOM     91  O   UNL A   1      34.368  32.897  31.369  1.00  0.00    -0.237 OA
ATOM     92  O   UNL A   1      36.034  33.807  29.797  1.00  0.00    -0.237 OA
ATOM     93  O   UNL A   1      34.693  31.858  29.150  1.00  0.00    -0.744 OA
ENDBRANCH  87  90
ENDBRANCH  59  83
BRANCH  71  94
ATOM     94  C   UNL A   1      44.658  33.643  29.317  1.00  0.00     0.023 A 
ATOM     95  C   UNL A   1      45.340  33.912  30.519  1.00  0.00     0.012 A 
ATOM     96  C   UNL A   1      44.551  34.653  28.340  1.00  0.00     0.148 A 
ATOM     97  C   UNL A   1      45.882  35.175  30.759  1.00  0.00     0.002 A 
ATOM     98  C   UNL A   1      45.133  35.895  28.568  1.00  0.00     0.091 A 
ATOM     99  F   UNL A   1      43.882  34.384  27.210  1.00  0.00    -0.205 F 
ATOM    100  C   UNL A   1      45.789  36.161  29.780  1.00  0.00     0.022 A 
BRANCH  98 101
ATOM    101  S   UNL A   1      45.142  37.193  27.325  1.00  0.00     0.127 S 
ATOM    102  O   UNL A   1      43.717  37.347  27.043  1.00  0.00    -0.237 OA
ATOM    103  O   UNL A   1      45.747  38.313  28.047  1.00  0.00    -0.237 OA
ATOM    104  O   UNL A   1      45.949  36.684  26.223  1.00  0.00    -0.744 OA
ENDBRANCH  98 101
ENDBRANCH  71  94
ENDBRANCH  45  46
ENDBRANCH  38  40
ENDBRANCH  37  38
ENDBRANCH  36  37
ENDBRANCH  35  36
ENDBRANCH  34  35
ENDBRANCH  33  34
ENDBRANCH   1  33
TORSDOF 23
ENDMDL
MODEL 2
REMARK VINA RESULT:     -11.2      1.051      2.173
REMARK SMILES CCOC(=O)c1cccc(Nc2c(-c3ccc(C(=O)OCCOCCOC(=O)c4ccc(-c5c6nc(c(-c7cccc(S(=O)(=O)[O-])c7F)c7ccc([nH]7)c(-c7cccc(S(=O)(=O)[O-])c7F)c7nc(c(-c8cccc(S(=O)(=O)[O-])c8F)c8ccc5[nH]8)C=C7)C=C6)cc4)cc3)nc3cnccn23)c1
REMARK SMILES IDX 21 1 20 2 18 3 19 4 17 5 14 6 15 7 93 8 16 9 92 10 13 11
REMARK SMILES IDX 12 12 100 13 94 14 95 15 99 16 96 17 98 18 97 19 11 20 10 22
REMARK SMILES IDX 6 23 7 24 101 25 8 26 9 27 4 28 5 29 3 30 2 31 1 32 22 33
REMARK SMILES IDX 23 34 24 35 25 36 26 37 27 38 28 39 29 40 30 41 91 42 31 43
REMARK SMILES IDX 90 44 32 45 33 46 34 47 84 48 35 49 89 50 83 51 85 52 36 53
REMARK SMILES IDX 88 54 82 55 81 56 37 58 69 59 49 60 68 61 50 62 53 63 67 64
REMARK SMILES IDX 86 65 51 66 52 67 66 69 87 70 54 71 38 72 39 73 47 74 40 75
REMARK SMILES IDX 42 76 48 77 41 78 43 79 44 80 45 81 46 82 70 83 71 84 79 85
REMARK SMILES IDX 72 86 74 87 80 88 73 89 75 90 76 91 77 92 78 93 55 94 56 95
REMARK SMILES IDX 64 96 57 97 59 98 65 99 58 100 60 101 61 102 62 103 63 104
REMARK H PARENT 11 21 85 57 53 68
REMARK Flexibility Score: inf
ROOT
ATOM      1  C   UNL A   1      33.378  21.330  25.376  1.00  0.00     0.261 C 
ENDROOT
BRANCH   1   2
ATOM      2  O   UNL A   1      32.683  22.585  25.472  1.00  0.00    -0.460 OA
BRANCH   2   3
ATOM      3  C   UNL A   1      31.333  22.494  25.534  1.00  0.00     0.338 C 
ATOM      4  O   UNL A   1      30.682  21.599  26.050  1.00  0.00    -0.246 OA
BRANCH   3   5
ATOM      5  C   UNL A   1      30.707  23.733  25.012  1.00  0.00     0.060 A 
ATOM      6  C   UNL A   1      29.683  26.074  23.856  1.00  0.00     0.004 A 
ATOM      7  C   UNL A   1      29.934  24.951  23.060  1.00  0.00     0.011 A 
ATOM      8  C   UNL A   1      29.899  26.002  25.241  1.00  0.00     0.011 A 
ATOM      9  C   UNL A   1      30.451  23.790  23.635  1.00  0.00     0.016 A 
ATOM     10  C   UNL A   1      30.396  24.829  25.824  1.00  0.00     0.016 A 
BRANCH   6  11
ATOM     11  C   UNL A   1      29.387  27.350  23.236  1.00  0.00     0.114 A 
ATOM     12  C   UNL A   1      30.259  28.166  22.518  1.00  0.00     0.143 A 
ATOM     13  N   UNL A   1      29.504  29.298  22.248  1.00  0.00    -0.283 N 
ATOM     14  N   UNL A   1      28.173  27.963  23.456  1.00  0.00    -0.225 NA
ATOM     15  C   UNL A   1      28.296  29.132  22.879  1.00  0.00     0.157 A 
ATOM     16  C   UNL A   1      29.730  30.458  21.521  1.00  0.00     0.115 A 
ATOM     17  C   UNL A   1      27.336  30.198  22.836  1.00  0.00     0.158 A 
ATOM     18  C   UNL A   1      28.778  31.408  21.513  1.00  0.00     0.129 A 
ATOM     19  N   UNL A   1      27.571  31.309  22.187  1.00  0.00    -0.259 NA
BRANCH  12  20
ATOM     20  N   UNL A   1      31.534  27.967  22.078  1.00  0.00    -0.339 N 
ATOM     21  H   UNL A   1      31.895  28.644  21.460  1.00  0.00     0.168 HD
BRANCH  20  22
ATOM     22  C   UNL A   1      32.401  26.896  22.408  1.00  0.00     0.040 A 
ATOM     23  C   UNL A   1      33.828  25.797  24.050  1.00  0.00     0.062 A 
ATOM     24  C   UNL A   1      34.157  24.802  23.126  1.00  0.00     0.016 A 
ATOM     25  C   UNL A   1      32.942  26.827  23.703  1.00  0.00     0.041 A 
ATOM     26  C   UNL A   1      33.592  24.833  21.856  1.00  0.00     0.003 A 
ATOM     27  C   UNL A   1      32.729  25.874  21.501  1.00  0.00     0.026 A 
BRANCH  23  28
ATOM     28  C   UNL A   1      34.513  25.772  25.355  1.00  0.00     0.338 C 
ATOM     29  O   UNL A   1      35.077  24.779  25.789  1.00  0.00    -0.246 OA
BRANCH  28  30
ATOM     30  O   UNL A   1      34.343  26.954  25.992  1.00  0.00    -0.462 OA
BRANCH  30  31
ATOM     31  C   UNL A   1      33.098  27.093  26.696  1.00  0.00     0.230 C 
ATOM     32  C   UNL A   1      32.873  28.522  27.167  1.00  0.00     0.049 C 
ENDBRANCH  30  31
ENDBRANCH  28  30
ENDBRANCH  23  28
ENDBRANCH  20  22
ENDBRANCH  12  20
ENDBRANCH   6  11
ENDBRANCH   3   5
ENDBRANCH   2   3
ENDBRANCH   1   2
BRANCH   1  33
ATOM     33  C   UNL A   1      34.690  21.493  24.605  1.00  0.00     0.202 C 
BRANCH  33  34
ATOM     34  O   UNL A   1      35.692  20.513  24.891  1.00  0.00    -0.374 OA
BRANCH  34  35
ATOM     35  C   UNL A   1      36.977  21.012  25.270  1.00  0.00     0.202 C 
BRANCH  35  36
ATOM     36  C   UNL A   1      38.091  19.963  25.359  1.00  0.00     0.261 C 
BRANCH  36  37
ATOM     37  O   UNL A   1      39.390  20.568  25.248  1.00  0.00    -0.460 OA
BRANCH  37  38
ATOM     38  C   UNL A   1      40.164  20.467  26.353  1.00  0.00     0.338 C 
ATOM     39  O   UNL A   1      40.695  19.456  26.790  1.00  0.00    -0.246 OA
BRANCH  38  40
ATOM     40  C   UNL A   1      40.444  21.811  26.898  1.00  0.00     0.060 A 
ATOM     41  C   UNL A   1      39.911  22.908  26.209  1.00  0.00     0.016 A 
ATOM     42  C   UNL A   1      41.249  22.005  28.023  1.00  0.00     0.016 A 
ATOM     43  C   UNL A   1      40.227  24.205  26.609  1.00  0.00     0.010 A 
ATOM     44  C   UNL A   1      41.569  23.307  28.419  1.00  0.00     0.010 A 
ATOM     45  C   UNL A   1      41.091  24.411  27.692  1.00  0.00    -0.014 A 
BRANCH  45  46
ATOM     46  C   UNL A   1      41.602  25.775  27.971  1.00  0.00     0.031 A 
ATOM     47  C   UNL A   1      43.006  26.127  27.561  1.00  0.00     0.074 A 
ATOM     48  C   UNL A   1      40.823  26.691  28.574  1.00  0.00     0.049 A 
ATOM     49  N   UNL A   1      43.652  27.254  27.708  1.00  0.00    -0.248 NA
ATOM     50  C   UNL A   1      43.784  25.067  26.898  1.00  0.00     0.031 C 
ATOM     51  C   UNL A   1      39.446  26.472  29.012  1.00  0.00     0.029 A 
ATOM     52  N   UNL A   1      41.091  27.988  28.935  1.00  0.00    -0.354 N 
ATOM     53  C   UNL A   1      44.918  27.036  27.174  1.00  0.00     0.074 A 
ATOM     54  C   UNL A   1      44.953  25.663  26.717  1.00  0.00     0.031 C 
ATOM     55  C   UNL A   1      38.994  27.591  29.604  1.00  0.00     0.029 A 
ATOM     56  C   UNL A   1      40.054  28.597  29.601  1.00  0.00     0.049 A 
ATOM     57  H   UNL A   1      41.943  28.438  28.736  1.00  0.00     0.167 HD
ATOM     58  C   UNL A   1      45.949  27.905  27.052  1.00  0.00     0.034 A 
ATOM     59  C   UNL A   1      39.977  29.825  30.154  1.00  0.00     0.034 A 
ATOM     60  C   UNL A   1      45.908  29.273  27.490  1.00  0.00     0.049 A 
ATOM     61  C   UNL A   1      41.151  30.762  30.037  1.00  0.00     0.074 A 
ATOM     62  C   UNL A   1      46.887  30.244  27.377  1.00  0.00     0.029 A 
ATOM     63  N   UNL A   1      44.831  29.866  28.133  1.00  0.00    -0.354 N 
ATOM     64  N   UNL A   1      42.296  30.580  29.423  1.00  0.00    -0.248 NA
ATOM     65  C   UNL A   1      41.010  32.086  30.661  1.00  0.00     0.031 C 
ATOM     66  C   UNL A   1      46.409  31.418  27.968  1.00  0.00     0.029 A 
ATOM     67  C   UNL A   1      45.125  31.184  28.433  1.00  0.00     0.049 A 
ATOM     68  H   UNL A   1      43.982  29.413  28.344  1.00  0.00     0.167 HD
ATOM     69  C   UNL A   1      42.994  31.775  29.555  1.00  0.00     0.074 A 
ATOM     70  C   UNL A   1      42.137  32.681  30.292  1.00  0.00     0.031 C 
ATOM     71  C   UNL A   1      44.239  32.092  29.117  1.00  0.00     0.034 A 
BRANCH  58  72
ATOM     72  C   UNL A   1      47.200  27.404  26.382  1.00  0.00     0.023 A 
ATOM     73  C   UNL A   1      47.388  27.638  25.004  1.00  0.00     0.012 A 
ATOM     74  C   UNL A   1      48.204  26.740  27.114  1.00  0.00     0.148 A 
ATOM     75  C   UNL A   1      48.540  27.191  24.358  1.00  0.00     0.002 A 
ATOM     76  C   UNL A   1      49.367  26.332  26.470  1.00  0.00     0.091 A 
ATOM     77  F   UNL A   1      47.995  26.503  28.416  1.00  0.00    -0.205 F 
ATOM     78  C   UNL A   1      49.532  26.548  25.092  1.00  0.00     0.022 A 
BRANCH  76  79
ATOM     79  S   UNL A   1      50.728  25.556  27.347  1.00  0.00     0.127 S 
ATOM     80  O   UNL A   1      50.137  24.278  27.741  1.00  0.00    -0.237 OA
ATOM     81  O   UNL A   1      51.754  25.457  26.306  1.00  0.00    -0.237 OA
ATOM     82  O   UNL A   1      51.064  26.459  28.439  1.00  0.00    -0.744 OA
ENDBRANCH  76  79
ENDBRANCH  58  72
BRANCH  59  83
ATOM     83  C   UNL A   1      38.719  30.260  30.823  1.00  0.00     0.023 A 
ATOM     84  C   UNL A   1      38.543  30.004  32.196  1.00  0.00     0.012 A 
ATOM     85  C   UNL A   1      37.710  30.943  30.117  1.00  0.00     0.148 A 
ATOM     86  C   UNL A   1      37.374  30.398  32.849  1.00  0.00     0.002 A 
ATOM     87  C   UNL A   1      36.572  31.380  30.784  1.00  0.00     0.091 A 
ATOM     88  F   UNL A   1      37.888  31.160  28.805  1.00  0.00    -0.205 F 
ATOM     89  C   UNL A   1      36.395  31.095  32.148  1.00  0.00     0.022 A 
BRANCH  87  90
ATOM     90  S   UNL A   1      35.318  32.391  29.988  1.00  0.00     0.127 S 
ATOM     91  O   UNL A   1      34.844  31.501  28.931  1.00  0.00    -0.237 OA
ATOM     92  O   UNL A   1      34.369  32.610  31.081  1.00  0.00    -0.237 OA
ATOM     93  O   UNL A   1      36.008  33.594  29.544  1.00  0.00    -0.744 OA
ENDBRANCH  87  90
ENDBRANCH  59  83
BRANCH  71  94
ATOM     94  C   UNL A   1      44.746  33.484  29.394  1.00  0.00     0.023 A 
ATOM     95  C   UNL A   1      45.489  33.735  30.563  1.00  0.00     0.012 A 
ATOM     96  C   UNL A   1      44.557  34.519  28.457  1.00  0.00     0.148 A 
ATOM     97  C   UNL A   1      46.011  35.005  30.811  1.00  0.00     0.002 A 
ATOM     98  C   UNL A   1      45.118  35.770  28.690  1.00  0.00     0.091 A 
ATOM     99  F   UNL A   1      43.830  34.266  27.360  1.00  0.00    -0.205 F 
ATOM    100  C   UNL A   1      45.837  36.017  29.871  1.00  0.00     0.022 A 
BRANCH  98 101
ATOM    101  S   UNL A   1      45.022  37.104  27.491  1.00  0.00     0.127 S 
ATOM    102  O   UNL A   1      45.312  38.272  28.320  1.00  0.00    -0.237 OA
ATOM    103  O   UNL A   1      46.079  36.751  26.543  1.00  0.00    -0.237 OA
ATOM    104  O   UNL A   1      43.676  37.046  26.937  1.00  0.00    -0.744 OA
ENDBRANCH  98 101
ENDBRANCH  71  94
ENDBRANCH  45  46
ENDBRANCH  38  40
ENDBRANCH  37  38
ENDBRANCH  36  37
ENDBRANCH  35  36
ENDBRANCH  34  35
ENDBRANCH  33  34
ENDBRANCH   1  33
TORSDOF 23
ENDMDL
MODEL 3
REMARK VINA RESULT:     -11.0      1.307      2.641
REMARK SMILES CCOC(=O)c1cccc(Nc2c(-c3ccc(C(=O)OCCOCCOC(=O)c4ccc(-c5c6nc(c(-c7cccc(S(=O)(=O)[O-])c7F)c7ccc([nH]7)c(-c7cccc(S(=O)(=O)[O-])c7F)c7nc(c(-c8cccc(S(=O)(=O)[O-])c8F)c8ccc5[nH]8)C=C7)C=C6)cc4)cc3)nc3cnccn23)c1
REMARK SMILES IDX 21 1 20 2 18 3 19 4 17 5 14 6 15 7 93 8 16 9 92 10 13 11
REMARK SMILES IDX 12 12 100 13 94 14 95 15 99 16 96 17 98 18 97 19 11 20 10 22
REMARK SMILES IDX 6 23 7 24 101 25 8 26 9 27 4 28 5 29 3 30 2 31 1 32 22 33
REMARK SMILES IDX 23 34 24 35 25 36 26 37 27 38 28 39 29 40 30 41 91 42 31 43
REMARK SMILES IDX 90 44 32 45 33 46 34 47 84 48 35 49 89 50 83 51 85 52 36 53
REMARK SMILES IDX 88 54 82 55 81 56 37 58 69 59 49 60 68 61 50 62 53 63 67 64
REMARK SMILES IDX 86 65 51 66 52 67 66 69 87 70 54 71 38 72 39 73 47 74 40 75
REMARK SMILES IDX 42 76 48 77 41 78 43 79 44 80 45 81 46 82 70 83 71 84 79 85
REMARK SMILES IDX 72 86 74 87 80 88 73 89 75 90 76 91 77 92 78 93 55 94 56 95
REMARK SMILES IDX 64 96 57 97 59 98 65 99 58 100 60 101 61 102 62 103 63 104
REMARK H PARENT 11 21 85 57 53 68
REMARK Flexibility Score: inf
ROOT
ATOM      1  C   UNL A   1      34.579  22.868  25.170  1.00  0.00     0.261 C 
ENDROOT
BRANCH   1   2
ATOM      2  O   UNL A   1      33.438  23.230  24.373  1.00  0.00    -0.460 OA
BRANCH   2   3
ATOM      3  C   UNL A   1      33.726  23.786  23.172  1.00  0.00     0.338 C 
ATOM      4  O   UNL A   1      34.463  23.330  22.311  1.00  0.00    -0.246 OA
BRANCH   3   5
ATOM      5  C   UNL A   1      32.891  24.991  22.947  1.00  0.00     0.060 A 
ATOM      6  C   UNL A   1      31.467  27.388  22.648  1.00  0.00     0.004 A 
ATOM      7  C   UNL A   1      32.842  27.353  22.393  1.00  0.00     0.011 A 
ATOM      8  C   UNL A   1      30.800  26.206  23.002  1.00  0.00     0.011 A 
ATOM      9  C   UNL A   1      33.551  26.162  22.551  1.00  0.00     0.016 A 
ATOM     10  C   UNL A   1      31.505  25.003  23.138  1.00  0.00     0.016 A 
BRANCH   6  11
ATOM     11  C   UNL A   1      30.777  28.661  22.730  1.00  0.00     0.114 A 
ATOM     12  C   UNL A   1      30.416  29.356  23.882  1.00  0.00     0.143 A 
ATOM     13  N   UNL A   1      29.695  30.439  23.401  1.00  0.00    -0.283 N 
ATOM     14  N   UNL A   1      30.259  29.243  21.594  1.00  0.00    -0.225 NA
ATOM     15  C   UNL A   1      29.597  30.280  22.041  1.00  0.00     0.157 A 
ATOM     16  C   UNL A   1      29.113  31.550  23.993  1.00  0.00     0.115 A 
ATOM     17  C   UNL A   1      28.823  31.224  21.284  1.00  0.00     0.158 A 
ATOM     18  C   UNL A   1      28.417  32.401  23.218  1.00  0.00     0.129 A 
ATOM     19  N   UNL A   1      28.239  32.246  21.853  1.00  0.00    -0.259 NA
BRANCH  12  20
ATOM     20  N   UNL A   1      30.707  29.146  25.198  1.00  0.00    -0.339 N 
ATOM     21  H   UNL A   1      29.947  28.923  25.784  1.00  0.00     0.168 HD
BRANCH  20  22
ATOM     22  C   UNL A   1      31.979  29.213  25.819  1.00  0.00     0.040 A 
ATOM     23  C   UNL A   1      33.649  30.523  27.016  1.00  0.00     0.062 A 
ATOM     24  C   UNL A   1      34.512  29.425  27.051  1.00  0.00     0.016 A 
ATOM     25  C   UNL A   1      32.383  30.416  26.423  1.00  0.00     0.041 A 
ATOM     26  C   UNL A   1      34.105  28.216  26.499  1.00  0.00     0.003 A 
ATOM     27  C   UNL A   1      32.853  28.117  25.883  1.00  0.00     0.026 A 
BRANCH  23  28
ATOM     28  C   UNL A   1      34.152  31.806  27.540  1.00  0.00     0.338 C 
ATOM     29  O   UNL A   1      35.323  31.987  27.839  1.00  0.00    -0.246 OA
BRANCH  28  30
ATOM     30  O   UNL A   1      33.128  32.676  27.703  1.00  0.00    -0.462 OA
BRANCH  30  31
ATOM     31  C   UNL A   1      33.515  34.052  27.849  1.00  0.00     0.230 C 
ATOM     32  C   UNL A   1      33.359  34.534  29.283  1.00  0.00     0.049 C 
ENDBRANCH  30  31
ENDBRANCH  28  30
ENDBRANCH  23  28
ENDBRANCH  20  22
ENDBRANCH  12  20
ENDBRANCH   6  11
ENDBRANCH   3   5
ENDBRANCH   2   3
ENDBRANCH   1   2
BRANCH   1  33
ATOM     33  C   UNL A   1      34.877  21.372  25.047  1.00  0.00     0.202 C 
BRANCH  33  34
ATOM     34  O   UNL A   1      36.050  21.042  24.298  1.00  0.00    -0.374 OA
BRANCH  34  35
ATOM     35  C   UNL A   1      37.132  20.471  25.036  1.00  0.00     0.202 C 
BRANCH  35  36
ATOM     36  C   UNL A   1      38.024  21.472  25.779  1.00  0.00     0.261 C 
BRANCH  36  37
ATOM     37  O   UNL A   1      39.417  21.157  25.612  1.00  0.00    -0.460 OA
BRANCH  37  38
ATOM     38  C   UNL A   1      40.123  21.061  26.763  1.00  0.00     0.338 C 
ATOM     39  O   UNL A   1      40.558  20.040  27.276  1.00  0.00    -0.246 OA
BRANCH  38  40
ATOM     40  C   UNL A   1      40.468  22.409  27.257  1.00  0.00     0.060 A 
ATOM     41  C   UNL A   1      39.798  23.496  26.682  1.00  0.00     0.016 A 
ATOM     42  C   UNL A   1      41.457  22.617  28.222  1.00  0.00     0.016 A 
ATOM     43  C   UNL A   1      40.154  24.798  27.027  1.00  0.00     0.010 A 
ATOM     44  C   UNL A   1      41.816  23.925  28.563  1.00  0.00     0.010 A 
ATOM     45  C   UNL A   1      41.193  25.020  27.940  1.00  0.00    -0.014 A 
BRANCH  45  46
ATOM     46  C   UNL A   1      41.717  26.394  28.133  1.00  0.00     0.031 A 
ATOM     47  C   UNL A   1      42.994  26.791  27.443  1.00  0.00     0.074 A 
ATOM     48  C   UNL A   1      41.061  27.279  28.903  1.00  0.00     0.049 A 
ATOM     49  N   UNL A   1      43.629  27.934  27.473  1.00  0.00    -0.248 NA
ATOM     50  C   UNL A   1      43.641  25.763  26.611  1.00  0.00     0.031 C 
ATOM     51  C   UNL A   1      39.813  27.014  29.617  1.00  0.00     0.029 A 
ATOM     52  N   UNL A   1      41.366  28.577  29.226  1.00  0.00    -0.354 N 
ATOM     53  C   UNL A   1      44.759  27.759  26.681  1.00  0.00     0.074 A 
ATOM     54  C   UNL A   1      44.731  26.394  26.200  1.00  0.00     0.031 C 
ATOM     55  C   UNL A   1      39.468  28.112  30.312  1.00  0.00     0.029 A 
ATOM     56  C   UNL A   1      40.479  29.148  30.106  1.00  0.00     0.049 A 
ATOM     57  H   UNL A   1      42.147  29.054  28.861  1.00  0.00     0.167 HD
ATOM     58  C   UNL A   1      45.719  28.659  26.362  1.00  0.00     0.034 A 
ATOM     59  C   UNL A   1      40.489  30.365  30.687  1.00  0.00     0.034 A 
ATOM     60  C   UNL A   1      45.737  30.019  26.826  1.00  0.00     0.049 A 
ATOM     61  C   UNL A   1      41.589  31.336  30.344  1.00  0.00     0.074 A 
ATOM     62  C   UNL A   1      46.647  31.018  26.528  1.00  0.00     0.029 A 
ATOM     63  N   UNL A   1      44.806  30.571  27.692  1.00  0.00    -0.354 N 
ATOM     64  N   UNL A   1      42.583  31.196  29.500  1.00  0.00    -0.248 NA
ATOM     65  C   UNL A   1      41.549  32.647  31.010  1.00  0.00     0.031 C 
ATOM     66  C   UNL A   1      46.275  32.170  27.230  1.00  0.00     0.029 A 
ATOM     67  C   UNL A   1      45.124  31.893  27.950  1.00  0.00     0.049 A 
ATOM     68  H   UNL A   1      44.032  30.092  28.068  1.00  0.00     0.167 HD
ATOM     69  C   UNL A   1      43.263  32.408  29.506  1.00  0.00     0.074 A 
ATOM     70  C   UNL A   1      42.559  33.279  30.424  1.00  0.00     0.031 C 
ATOM     71  C   UNL A   1      44.380  32.766  28.823  1.00  0.00     0.034 A 
BRANCH  58  72
ATOM     72  C   UNL A   1      46.813  28.202  25.434  1.00  0.00     0.023 A 
ATOM     73  C   UNL A   1      46.589  28.214  24.042  1.00  0.00     0.012 A 
ATOM     74  C   UNL A   1      48.070  27.802  25.929  1.00  0.00     0.148 A 
ATOM     75  C   UNL A   1      47.586  27.803  23.158  1.00  0.00     0.002 A 
ATOM     76  C   UNL A   1      49.072  27.431  25.039  1.00  0.00     0.091 A 
ATOM     77  F   UNL A   1      48.255  27.772  27.256  1.00  0.00    -0.205 F 
ATOM     78  C   UNL A   1      48.828  27.421  23.656  1.00  0.00     0.022 A 
BRANCH  76  79
ATOM     79  S   UNL A   1      50.725  26.988  25.584  1.00  0.00     0.127 S 
ATOM     80  O   UNL A   1      50.460  25.809  26.406  1.00  0.00    -0.237 OA
ATOM     81  O   UNL A   1      51.406  26.709  24.318  1.00  0.00    -0.237 OA
ATOM     82  O   UNL A   1      51.233  28.152  26.297  1.00  0.00    -0.744 OA
ENDBRANCH  76  79
ENDBRANCH  58  72
BRANCH  59  83
ATOM     83  C   UNL A   1      39.390  30.755  31.614  1.00  0.00     0.023 A 
ATOM     84  C   UNL A   1      39.470  30.390  32.972  1.00  0.00     0.012 A 
ATOM     85  C   UNL A   1      38.283  31.501  31.167  1.00  0.00     0.148 A 
ATOM     86  C   UNL A   1      38.454  30.740  33.863  1.00  0.00     0.002 A 
ATOM     87  C   UNL A   1      37.300  31.891  32.070  1.00  0.00     0.091 A 
ATOM     88  F   UNL A   1      38.215  31.822  29.866  1.00  0.00    -0.205 F 
ATOM     89  C   UNL A   1      37.377  31.499  33.416  1.00  0.00     0.022 A 
BRANCH  87  90
ATOM     90  S   UNL A   1      35.943  32.974  31.606  1.00  0.00     0.127 S 
ATOM     91  O   UNL A   1      35.598  33.585  32.887  1.00  0.00    -0.237 OA
ATOM     92  O   UNL A   1      36.588  33.873  30.648  1.00  0.00    -0.237 OA
ATOM     93  O   UNL A   1      34.930  32.105  31.023  1.00  0.00    -0.744 OA
ENDBRANCH  87  90
ENDBRANCH  59  83
BRANCH  71  94
ATOM     94  C   UNL A   1      44.900  34.167  29.014  1.00  0.00     0.023 A 
ATOM     95  C   UNL A   1      46.019  34.390  29.838  1.00  0.00     0.012 A 
ATOM     96  C   UNL A   1      44.330  35.249  28.313  1.00  0.00     0.148 A 
ATOM     97  C   UNL A   1      46.546  35.672  29.987  1.00  0.00     0.002 A 
ATOM     98  C   UNL A   1      44.889  36.517  28.431  1.00  0.00     0.091 A 
ATOM     99  F   UNL A   1      43.253  35.022  27.548  1.00  0.00    -0.205 F 
ATOM    100  C   UNL A   1      45.990  36.732  29.275  1.00  0.00     0.022 A 
BRANCH  98 101
ATOM    101  S   UNL A   1      44.294  37.921  27.479  1.00  0.00     0.127 S 
ATOM    102  O   UNL A   1      43.875  38.840  28.535  1.00  0.00    -0.237 OA
ATOM    103  O   UNL A   1      45.493  38.335  26.750  1.00  0.00    -0.237 OA
ATOM    104  O   UNL A   1      43.226  37.405  26.634  1.00  0.00    -0.744 OA
ENDBRANCH  98 101
ENDBRANCH  71  94
ENDBRANCH  45  46
ENDBRANCH  38  40
ENDBRANCH  37  38
ENDBRANCH  36  37
ENDBRANCH  35  36
ENDBRANCH  34  35
ENDBRANCH  33  34
ENDBRANCH   1  33
TORSDOF 23
ENDMDL
