MODEL 1
REMARK VINA RESULT:      -9.7      0.000      0.000
REMARK SMILES COCCNc1cc(C)nc2cc(C(=O)OCCOCCOC(=O)c3ccc(-c4c5nc(c(-c6cccc(S(=O)(=O)[O-])c6F)c6ccc([nH]6)c(-c6cccc(S(=O)(=O)[O-])c6F)c6nc(c(-c7cccc(S(=O)(=O)[O-])c7F)c7ccc4[nH]7)C=C6)C=C5)cc3)ccc12
REMARK SMILES IDX 18 1 17 2 16 3 14 4 15 5 13 6 6 7 7 8 90 9 8 10 11 11 89 12
REMARK SMILES IDX 9 13 10 14 12 15 88 16 5 17 4 19 3 20 2 21 1 22 19 23 20 24
REMARK SMILES IDX 21 25 22 26 23 27 24 28 25 29 26 30 87 31 27 32 86 33 28 34
REMARK SMILES IDX 29 35 30 36 80 37 31 38 85 39 79 40 81 41 32 42 84 43 78 44
REMARK SMILES IDX 77 45 33 47 65 48 45 49 64 50 46 51 49 52 63 53 82 54 47 55
REMARK SMILES IDX 48 56 62 58 83 59 50 60 34 61 35 62 43 63 36 64 38 65 44 66
REMARK SMILES IDX 37 67 39 68 40 69 41 70 42 71 66 72 67 73 75 74 68 75 70 76
REMARK SMILES IDX 76 77 69 78 71 79 72 80 73 81 74 82 51 83 52 84 60 85 53 86
REMARK SMILES IDX 55 87 61 88 54 89 56 90 57 91 58 92 59 93
REMARK H PARENT 5 18 81 46 49 57
REMARK Flexibility Score: inf
ROOT
ATOM      1  C   UNL A   1      35.332  33.799  29.049  1.00  0.00     0.202 C 
ENDROOT
BRANCH   1   2
ATOM      2  C   UNL A   1      34.520  32.530  29.328  1.00  0.00     0.261 C 
BRANCH   2   3
ATOM      3  O   UNL A   1      34.046  31.928  28.113  1.00  0.00    -0.460 OA
BRANCH   3   4
ATOM      4  C   UNL A   1      34.703  30.804  27.749  1.00  0.00     0.338 C 
ATOM      5  O   UNL A   1      35.817  30.453  28.110  1.00  0.00    -0.246 OA
BRANCH   4   6
ATOM      6  C   UNL A   1      33.817  29.911  26.973  1.00  0.00     0.062 A 
ATOM      7  C   UNL A   1      31.659  27.285  24.497  1.00  0.00     0.045 A 
ATOM      8  C   UNL A   1      30.613  27.817  23.745  1.00  0.00     0.049 A 
ATOM      9  C   UNL A   1      32.344  28.133  25.394  1.00  0.00     0.023 A 
ATOM     10  C   UNL A   1      30.304  29.165  23.871  1.00  0.00     0.040 A 
ATOM     11  C   UNL A   1      31.977  29.498  25.445  1.00  0.00     0.073 A 
ATOM     12  C   UNL A   1      33.409  27.675  26.192  1.00  0.00     0.013 A 
ATOM     13  C   UNL A   1      29.189  29.773  23.074  1.00  0.00     0.067 C 
ATOM     14  N   UNL A   1      30.969  29.991  24.712  1.00  0.00    -0.253 NA
ATOM     15  C   UNL A   1      32.709  30.366  26.250  1.00  0.00     0.044 A 
ATOM     16  C   UNL A   1      34.150  28.557  26.963  1.00  0.00     0.016 A 
BRANCH   7  17
ATOM     17  N   UNL A   1      31.962  25.928  24.431  1.00  0.00    -0.382 N 
ATOM     18  H   UNL A   1      32.513  25.523  25.138  1.00  0.00     0.160 HD
BRANCH  17  19
ATOM     19  C   UNL A   1      31.477  25.092  23.339  1.00  0.00     0.141 C 
BRANCH  19  20
ATOM     20  C   UNL A   1      30.984  23.730  23.854  1.00  0.00     0.181 C 
BRANCH  20  21
ATOM     21  O   UNL A   1      31.727  23.239  24.976  1.00  0.00    -0.383 OA
ATOM     22  C   UNL A   1      30.931  22.538  25.920  1.00  0.00     0.194 C 
ENDBRANCH  20  21
ENDBRANCH  19  20
ENDBRANCH  17  19
ENDBRANCH   7  17
ENDBRANCH   4   6
ENDBRANCH   3   4
ENDBRANCH   2   3
ENDBRANCH   1   2
BRANCH   1  23
ATOM     23  O   UNL A   1      34.612  34.923  28.541  1.00  0.00    -0.374 OA
BRANCH  23  24
ATOM     24  C   UNL A   1      33.262  35.082  28.981  1.00  0.00     0.202 C 
BRANCH  24  25
ATOM     25  C   UNL A   1      32.879  36.447  29.568  1.00  0.00     0.261 C 
BRANCH  25  26
ATOM     26  O   UNL A   1      33.357  36.614  30.913  1.00  0.00    -0.460 OA
BRANCH  26  27
ATOM     27  C   UNL A   1      32.866  35.726  31.810  1.00  0.00     0.338 C 
ATOM     28  O   UNL A   1      31.694  35.404  31.962  1.00  0.00    -0.246 OA
BRANCH  27  29
ATOM     29  C   UNL A   1      33.977  35.028  32.480  1.00  0.00     0.060 A 
ATOM     30  C   UNL A   1      35.265  35.560  32.332  1.00  0.00     0.016 A 
ATOM     31  C   UNL A   1      33.773  33.848  33.198  1.00  0.00     0.016 A 
ATOM     32  C   UNL A   1      36.364  34.888  32.864  1.00  0.00     0.010 A 
ATOM     33  C   UNL A   1      34.879  33.171  33.723  1.00  0.00     0.010 A 
ATOM     34  C   UNL A   1      36.179  33.670  33.530  1.00  0.00    -0.014 A 
BRANCH  34  35
ATOM     35  C   UNL A   1      37.353  32.848  33.915  1.00  0.00     0.031 A 
ATOM     36  C   UNL A   1      38.145  33.236  35.132  1.00  0.00     0.074 A 
ATOM     37  C   UNL A   1      37.720  31.788  33.174  1.00  0.00     0.049 A 
ATOM     38  N   UNL A   1      39.243  32.711  35.607  1.00  0.00    -0.248 NA
ATOM     39  C   UNL A   1      37.632  34.372  35.917  1.00  0.00     0.031 C 
ATOM     40  C   UNL A   1      37.030  31.315  31.976  1.00  0.00     0.029 A 
ATOM     41  N   UNL A   1      38.792  30.940  33.305  1.00  0.00    -0.354 N 
ATOM     42  C   UNL A   1      39.577  33.472  36.720  1.00  0.00     0.074 A 
ATOM     43  C   UNL A   1      38.566  34.500  36.850  1.00  0.00     0.031 C 
ATOM     44  C   UNL A   1      37.717  30.282  31.458  1.00  0.00     0.029 A 
ATOM     45  C   UNL A   1      38.908  30.042  32.270  1.00  0.00     0.049 A 
ATOM     46  H   UNL A   1      39.417  30.972  34.065  1.00  0.00     0.167 HD
ATOM     47  C   UNL A   1      40.624  33.322  37.565  1.00  0.00     0.034 A 
ATOM     48  C   UNL A   1      39.881  29.150  31.994  1.00  0.00     0.034 A 
ATOM     49  C   UNL A   1      41.613  32.286  37.446  1.00  0.00     0.049 A 
ATOM     50  C   UNL A   1      41.047  29.018  32.938  1.00  0.00     0.074 A 
ATOM     51  C   UNL A   1      42.679  32.015  38.285  1.00  0.00     0.029 A 
ATOM     52  N   UNL A   1      41.669  31.360  36.416  1.00  0.00    -0.354 N 
ATOM     53  N   UNL A   1      41.285  29.663  34.054  1.00  0.00    -0.248 NA
ATOM     54  C   UNL A   1      42.067  28.012  32.602  1.00  0.00     0.031 C 
ATOM     55  C   UNL A   1      43.398  30.944  37.745  1.00  0.00     0.029 A 
ATOM     56  C   UNL A   1      42.759  30.526  36.588  1.00  0.00     0.049 A 
ATOM     57  H   UNL A   1      41.027  31.304  35.672  1.00  0.00     0.167 HD
ATOM     58  C   UNL A   1      42.455  29.118  34.572  1.00  0.00     0.074 A 
ATOM     59  C   UNL A   1      42.871  28.077  33.654  1.00  0.00     0.031 C 
ATOM     60  C   UNL A   1      43.130  29.455  35.698  1.00  0.00     0.034 A 
BRANCH  47  61
ATOM     61  C   UNL A   1      40.745  34.292  38.711  1.00  0.00     0.023 A 
ATOM     62  C   UNL A   1      41.646  35.371  38.622  1.00  0.00     0.012 A 
ATOM     63  C   UNL A   1      39.922  34.169  39.848  1.00  0.00     0.148 A 
ATOM     64  C   UNL A   1      41.749  36.296  39.660  1.00  0.00     0.002 A 
ATOM     65  C   UNL A   1      39.997  35.121  40.858  1.00  0.00     0.091 A 
ATOM     66  F   UNL A   1      39.087  33.123  39.923  1.00  0.00    -0.205 F 
ATOM     67  C   UNL A   1      40.918  36.178  40.771  1.00  0.00     0.022 A 
BRANCH  65  68
ATOM     68  S   UNL A   1      38.916  35.100  42.291  1.00  0.00     0.127 S 
ATOM     69  O   UNL A   1      39.232  36.383  42.919  1.00  0.00    -0.237 OA
ATOM     70  O   UNL A   1      37.591  35.032  41.676  1.00  0.00    -0.237 OA
ATOM     71  O   UNL A   1      39.290  33.921  43.060  1.00  0.00    -0.744 OA
ENDBRANCH  65  68
ENDBRANCH  47  61
BRANCH  48  72
ATOM     72  C   UNL A   1      39.781  28.294  30.778  1.00  0.00     0.023 A 
ATOM     73  C   UNL A   1      38.994  27.128  30.812  1.00  0.00     0.012 A 
ATOM     74  C   UNL A   1      40.448  28.638  29.586  1.00  0.00     0.148 A 
ATOM     75  C   UNL A   1      38.894  26.303  29.691  1.00  0.00     0.002 A 
ATOM     76  C   UNL A   1      40.301  27.842  28.456  1.00  0.00     0.091 A 
ATOM     77  F   UNL A   1      41.206  29.744  29.579  1.00  0.00    -0.205 F 
ATOM     78  C   UNL A   1      39.538  26.665  28.511  1.00  0.00     0.022 A 
BRANCH  76  79
ATOM     79  S   UNL A   1      40.991  28.296  26.860  1.00  0.00     0.127 S 
ATOM     80  O   UNL A   1      42.330  28.744  27.231  1.00  0.00    -0.237 OA
ATOM     81  O   UNL A   1      40.943  27.022  26.140  1.00  0.00    -0.237 OA
ATOM     82  O   UNL A   1      40.105  29.321  26.325  1.00  0.00    -0.744 OA
ENDBRANCH  76  79
ENDBRANCH  48  72
BRANCH  60  83
ATOM     83  C   UNL A   1      44.369  28.669  36.041  1.00  0.00     0.023 A 
ATOM     84  C   UNL A   1      45.636  29.150  35.657  1.00  0.00     0.012 A 
ATOM     85  C   UNL A   1      44.281  27.504  36.828  1.00  0.00     0.148 A 
ATOM     86  C   UNL A   1      46.795  28.467  36.028  1.00  0.00     0.002 A 
ATOM     87  C   UNL A   1      45.441  26.856  37.236  1.00  0.00     0.091 A 
ATOM     88  F   UNL A   1      43.064  27.054  37.170  1.00  0.00    -0.205 F 
ATOM     89  C   UNL A   1      46.698  27.330  36.827  1.00  0.00     0.022 A 
BRANCH  87  90
ATOM     90  S   UNL A   1      45.420  25.444  38.347  1.00  0.00     0.127 S 
ATOM     91  O   UNL A   1      45.142  26.082  39.633  1.00  0.00    -0.237 OA
ATOM     92  O   UNL A   1      44.317  24.646  37.812  1.00  0.00    -0.237 OA
ATOM     93  O   UNL A   1      46.730  24.820  38.231  1.00  0.00    -0.744 OA
ENDBRANCH  87  90
ENDBRANCH  60  83
ENDBRANCH  34  35
ENDBRANCH  27  29
ENDBRANCH  26  27
ENDBRANCH  25  26
ENDBRANCH  24  25
ENDBRANCH  23  24
ENDBRANCH   1  23
TORSDOF 21
ENDMDL
MODEL 2
REMARK VINA RESULT:      -9.2      0.829      7.747
REMARK SMILES COCCNc1cc(C)nc2cc(C(=O)OCCOCCOC(=O)c3ccc(-c4c5nc(c(-c6cccc(S(=O)(=O)[O-])c6F)c6ccc([nH]6)c(-c6cccc(S(=O)(=O)[O-])c6F)c6nc(c(-c7cccc(S(=O)(=O)[O-])c7F)c7ccc4[nH]7)C=C6)C=C5)cc3)ccc12
REMARK SMILES IDX 18 1 17 2 16 3 14 4 15 5 13 6 6 7 7 8 90 9 8 10 11 11 89 12
REMARK SMILES IDX 9 13 10 14 12 15 88 16 5 17 4 19 3 20 2 21 1 22 19 23 20 24
REMARK SMILES IDX 21 25 22 26 23 27 24 28 25 29 26 30 87 31 27 32 86 33 28 34
REMARK SMILES IDX 29 35 30 36 80 37 31 38 85 39 79 40 81 41 32 42 84 43 78 44
REMARK SMILES IDX 77 45 33 47 65 48 45 49 64 50 46 51 49 52 63 53 82 54 47 55
REMARK SMILES IDX 48 56 62 58 83 59 50 60 34 61 35 62 43 63 36 64 38 65 44 66
REMARK SMILES IDX 37 67 39 68 40 69 41 70 42 71 66 72 67 73 75 74 68 75 70 76
REMARK SMILES IDX 76 77 69 78 71 79 72 80 73 81 74 82 51 83 52 84 60 85 53 86
REMARK SMILES IDX 55 87 61 88 54 89 56 90 57 91 58 92 59 93
REMARK H PARENT 5 18 81 46 49 57
REMARK Flexibility Score: inf
ROOT
ATOM      1  C   UNL A   1      35.442  33.731  28.952  1.00  0.00     0.202 C 
ENDROOT
BRANCH   1   2
ATOM      2  C   UNL A   1      34.927  32.344  29.348  1.00  0.00     0.261 C 
BRANCH   2   3
ATOM      3  O   UNL A   1      34.158  31.745  28.293  1.00  0.00    -0.460 OA
BRANCH   3   4
ATOM      4  C   UNL A   1      34.788  30.747  27.634  1.00  0.00     0.338 C 
ATOM      5  O   UNL A   1      35.978  30.470  27.682  1.00  0.00    -0.246 OA
BRANCH   4   6
ATOM      6  C   UNL A   1      33.809  29.871  26.956  1.00  0.00     0.062 A 
ATOM      7  C   UNL A   1      31.379  27.218  24.779  1.00  0.00     0.045 A 
ATOM      8  C   UNL A   1      30.410  27.768  23.942  1.00  0.00     0.049 A 
ATOM      9  C   UNL A   1      32.151  28.089  25.579  1.00  0.00     0.023 A 
ATOM     10  C   UNL A   1      30.260  29.147  23.890  1.00  0.00     0.040 A 
ATOM     11  C   UNL A   1      31.947  29.482  25.449  1.00  0.00     0.073 A 
ATOM     12  C   UNL A   1      33.148  27.616  26.453  1.00  0.00     0.013 A 
ATOM     13  C   UNL A   1      29.231  29.774  22.997  1.00  0.00     0.067 C 
ATOM     14  N   UNL A   1      31.011  29.991  24.636  1.00  0.00    -0.253 NA
ATOM     15  C   UNL A   1      32.769  30.355  26.156  1.00  0.00     0.044 A 
ATOM     16  C   UNL A   1      33.981  28.497  27.124  1.00  0.00     0.016 A 
BRANCH   7  17
ATOM     17  N   UNL A   1      31.520  25.838  24.892  1.00  0.00    -0.382 N 
ATOM     18  H   UNL A   1      32.211  25.380  24.362  1.00  0.00     0.160 HD
BRANCH  17  19
ATOM     19  C   UNL A   1      30.667  25.057  25.780  1.00  0.00     0.141 C 
BRANCH  19  20
ATOM     20  C   UNL A   1      31.491  24.361  26.876  1.00  0.00     0.181 C 
BRANCH  20  21
ATOM     21  O   UNL A   1      31.103  23.001  27.108  1.00  0.00    -0.383 OA
ATOM     22  C   UNL A   1      29.698  22.799  27.069  1.00  0.00     0.194 C 
ENDBRANCH  20  21
ENDBRANCH  19  20
ENDBRANCH  17  19
ENDBRANCH   7  17
ENDBRANCH   4   6
ENDBRANCH   3   4
ENDBRANCH   2   3
ENDBRANCH   1   2
BRANCH   1  23
ATOM     23  O   UNL A   1      34.473  34.660  28.465  1.00  0.00    -0.374 OA
BRANCH  23  24
ATOM     24  C   UNL A   1      33.248  34.763  29.195  1.00  0.00     0.202 C 
BRANCH  24  25
ATOM     25  C   UNL A   1      32.945  36.112  29.857  1.00  0.00     0.261 C 
BRANCH  25  26
ATOM     26  O   UNL A   1      33.637  36.272  31.107  1.00  0.00    -0.460 OA
BRANCH  26  27
ATOM     27  C   UNL A   1      33.305  35.374  32.065  1.00  0.00     0.338 C 
ATOM     28  O   UNL A   1      32.189  34.927  32.302  1.00  0.00    -0.246 OA
BRANCH  27  29
ATOM     29  C   UNL A   1      34.526  34.838  32.690  1.00  0.00     0.060 A 
ATOM     30  C   UNL A   1      35.757  35.364  32.274  1.00  0.00     0.016 A 
ATOM     31  C   UNL A   1      34.475  33.805  33.628  1.00  0.00     0.016 A 
ATOM     32  C   UNL A   1      36.947  34.828  32.763  1.00  0.00     0.010 A 
ATOM     33  C   UNL A   1      35.671  33.263  34.109  1.00  0.00     0.010 A 
ATOM     34  C   UNL A   1      36.910  33.749  33.654  1.00  0.00    -0.014 A 
BRANCH  34  35
ATOM     35  C   UNL A   1      38.162  33.040  34.015  1.00  0.00     0.031 A 
ATOM     36  C   UNL A   1      38.605  31.873  33.176  1.00  0.00     0.074 A 
ATOM     37  C   UNL A   1      38.877  33.414  35.089  1.00  0.00     0.049 A 
ATOM     38  N   UNL A   1      39.617  31.066  33.350  1.00  0.00    -0.248 NA
ATOM     39  C   UNL A   1      37.794  31.574  31.983  1.00  0.00     0.031 C 
ATOM     40  C   UNL A   1      38.549  34.530  35.975  1.00  0.00     0.029 A 
ATOM     41  N   UNL A   1      40.012  32.870  35.637  1.00  0.00    -0.354 N 
ATOM     42  C   UNL A   1      39.546  30.140  32.317  1.00  0.00     0.074 A 
ATOM     43  C   UNL A   1      38.388  30.482  31.520  1.00  0.00     0.031 C 
ATOM     44  C   UNL A   1      39.442  34.564  36.980  1.00  0.00     0.029 A 
ATOM     45  C   UNL A   1      40.384  33.458  36.823  1.00  0.00     0.049 A 
ATOM     46  H   UNL A   1      40.511  32.129  35.222  1.00  0.00     0.167 HD
ATOM     47  C   UNL A   1      40.377  29.105  32.049  1.00  0.00     0.034 A 
ATOM     48  C   UNL A   1      41.354  33.122  37.697  1.00  0.00     0.034 A 
ATOM     49  C   UNL A   1      41.539  28.782  32.830  1.00  0.00     0.049 A 
ATOM     50  C   UNL A   1      42.251  31.952  37.387  1.00  0.00     0.074 A 
ATOM     51  C   UNL A   1      42.476  27.789  32.606  1.00  0.00     0.029 A 
ATOM     52  N   UNL A   1      41.916  29.433  33.994  1.00  0.00    -0.354 N 
ATOM     53  N   UNL A   1      42.246  31.161  36.341  1.00  0.00    -0.248 NA
ATOM     54  C   UNL A   1      43.309  31.646  38.362  1.00  0.00     0.031 C 
ATOM     55  C   UNL A   1      43.403  27.820  33.653  1.00  0.00     0.029 A 
ATOM     56  C   UNL A   1      43.063  28.855  34.510  1.00  0.00     0.049 A 
ATOM     57  H   UNL A   1      41.439  30.195  34.394  1.00  0.00     0.167 HD
ATOM     58  C   UNL A   1      43.318  30.291  36.512  1.00  0.00     0.074 A 
ATOM     59  C   UNL A   1      43.961  30.662  37.757  1.00  0.00     0.031 C 
ATOM     60  C   UNL A   1      43.726  29.271  35.718  1.00  0.00     0.034 A 
BRANCH  47  61
ATOM     61  C   UNL A   1      40.070  28.253  30.845  1.00  0.00     0.023 A 
ATOM     62  C   UNL A   1      39.056  27.278  30.917  1.00  0.00     0.012 A 
ATOM     63  C   UNL A   1      40.744  28.462  29.625  1.00  0.00     0.148 A 
ATOM     64  C   UNL A   1      38.737  26.502  29.803  1.00  0.00     0.002 A 
ATOM     65  C   UNL A   1      40.390  27.717  28.507  1.00  0.00     0.091 A 
ATOM     66  F   UNL A   1      41.721  29.379  29.583  1.00  0.00    -0.205 F 
ATOM     67  C   UNL A   1      39.396  26.729  28.597  1.00  0.00     0.022 A 
BRANCH  65  68
ATOM     68  S   UNL A   1      41.124  27.987  26.890  1.00  0.00     0.127 S 
ATOM     69  O   UNL A   1      42.548  28.051  27.219  1.00  0.00    -0.237 OA
ATOM     70  O   UNL A   1      40.719  26.783  26.164  1.00  0.00    -0.237 OA
ATOM     71  O   UNL A   1      40.544  29.224  26.387  1.00  0.00    -0.744 OA
ENDBRANCH  65  68
ENDBRANCH  47  61
BRANCH  48  72
ATOM     72  C   UNL A   1      41.543  33.921  38.941  1.00  0.00     0.023 A 
ATOM     73  C   UNL A   1      42.466  34.984  38.951  1.00  0.00     0.012 A 
ATOM     74  C   UNL A   1      40.802  33.643  40.106  1.00  0.00     0.148 A 
ATOM     75  C   UNL A   1      42.669  35.738  40.107  1.00  0.00     0.002 A 
ATOM     76  C   UNL A   1      40.969  34.432  41.237  1.00  0.00     0.091 A 
ATOM     77  F   UNL A   1      39.940  32.616  40.081  1.00  0.00    -0.205 F 
ATOM     78  C   UNL A   1      41.914  35.470  41.246  1.00  0.00     0.022 A 
BRANCH  76  79
ATOM     79  S   UNL A   1      39.954  34.240  42.707  1.00  0.00     0.127 S 
ATOM     80  O   UNL A   1      40.489  35.284  43.578  1.00  0.00    -0.237 OA
ATOM     81  O   UNL A   1      38.613  34.503  42.182  1.00  0.00    -0.237 OA
ATOM     82  O   UNL A   1      40.165  32.871  43.156  1.00  0.00    -0.744 OA
ENDBRANCH  76  79
ENDBRANCH  48  72
BRANCH  60  83
ATOM     83  C   UNL A   1      44.953  28.500  36.134  1.00  0.00     0.023 A 
ATOM     84  C   UNL A   1      46.230  28.947  35.743  1.00  0.00     0.012 A 
ATOM     85  C   UNL A   1      44.842  27.388  36.992  1.00  0.00     0.148 A 
ATOM     86  C   UNL A   1      47.377  28.282  36.179  1.00  0.00     0.002 A 
ATOM     87  C   UNL A   1      45.989  26.761  37.463  1.00  0.00     0.091 A 
ATOM     88  F   UNL A   1      43.615  26.969  37.339  1.00  0.00    -0.205 F 
ATOM     89  C   UNL A   1      47.257  27.200  37.048  1.00  0.00     0.022 A 
BRANCH  87  90
ATOM     90  S   UNL A   1      45.937  25.423  38.661  1.00  0.00     0.127 S 
ATOM     91  O   UNL A   1      47.358  25.130  38.842  1.00  0.00    -0.237 OA
ATOM     92  O   UNL A   1      45.295  26.062  39.810  1.00  0.00    -0.237 OA
ATOM     93  O   UNL A   1      45.154  24.360  38.045  1.00  0.00    -0.744 OA
ENDBRANCH  87  90
ENDBRANCH  60  83
ENDBRANCH  34  35
ENDBRANCH  27  29
ENDBRANCH  26  27
ENDBRANCH  25  26
ENDBRANCH  24  25
ENDBRANCH  23  24
ENDBRANCH   1  23
TORSDOF 21
ENDMDL
MODEL 3
REMARK VINA RESULT:      -8.9      5.250     11.106
REMARK SMILES COCCNc1cc(C)nc2cc(C(=O)OCCOCCOC(=O)c3ccc(-c4c5nc(c(-c6cccc(S(=O)(=O)[O-])c6F)c6ccc([nH]6)c(-c6cccc(S(=O)(=O)[O-])c6F)c6nc(c(-c7cccc(S(=O)(=O)[O-])c7F)c7ccc4[nH]7)C=C6)C=C5)cc3)ccc12
REMARK SMILES IDX 18 1 17 2 16 3 14 4 15 5 13 6 6 7 7 8 90 9 8 10 11 11 89 12
REMARK SMILES IDX 9 13 10 14 12 15 88 16 5 17 4 19 3 20 2 21 1 22 19 23 20 24
REMARK SMILES IDX 21 25 22 26 23 27 24 28 25 29 26 30 87 31 27 32 86 33 28 34
REMARK SMILES IDX 29 35 30 36 80 37 31 38 85 39 79 40 81 41 32 42 84 43 78 44
REMARK SMILES IDX 77 45 33 47 65 48 45 49 64 50 46 51 49 52 63 53 82 54 47 55
REMARK SMILES IDX 48 56 62 58 83 59 50 60 34 61 35 62 43 63 36 64 38 65 44 66
REMARK SMILES IDX 37 67 39 68 40 69 41 70 42 71 66 72 67 73 75 74 68 75 70 76
REMARK SMILES IDX 76 77 69 78 71 79 72 80 73 81 74 82 51 83 52 84 60 85 53 86
REMARK SMILES IDX 55 87 61 88 54 89 56 90 57 91 58 92 59 93
REMARK H PARENT 5 18 81 46 49 57
REMARK Flexibility Score: inf
ROOT
ATOM      1  C   UNL A   1      43.310  35.079  31.168  1.00  0.00     0.202 C 
ENDROOT
BRANCH   1   2
ATOM      2  C   UNL A   1      42.646  33.707  31.016  1.00  0.00     0.261 C 
BRANCH   2   3
ATOM      3  O   UNL A   1      41.218  33.820  30.911  1.00  0.00    -0.460 OA
BRANCH   3   4
ATOM      4  C   UNL A   1      40.553  32.645  30.980  1.00  0.00     0.338 C 
ATOM      5  O   UNL A   1      40.798  31.705  31.723  1.00  0.00    -0.246 OA
BRANCH   4   6
ATOM      6  C   UNL A   1      39.330  32.689  30.152  1.00  0.00     0.062 A 
ATOM      7  C   UNL A   1      35.635  32.976  28.166  1.00  0.00     0.045 A 
ATOM      8  C   UNL A   1      35.035  31.793  27.742  1.00  0.00     0.049 A 
ATOM      9  C   UNL A   1      36.913  32.908  28.763  1.00  0.00     0.023 A 
ATOM     10  C   UNL A   1      35.688  30.586  27.953  1.00  0.00     0.040 A 
ATOM     11  C   UNL A   1      37.499  31.636  28.958  1.00  0.00     0.073 A 
ATOM     12  C   UNL A   1      37.589  34.056  29.215  1.00  0.00     0.013 A 
ATOM     13  C   UNL A   1      35.070  29.293  27.515  1.00  0.00     0.067 C 
ATOM     14  N   UNL A   1      36.903  30.508  28.544  1.00  0.00    -0.253 NA
ATOM     15  C   UNL A   1      38.711  31.546  29.635  1.00  0.00     0.044 A 
ATOM     16  C   UNL A   1      38.780  33.949  29.918  1.00  0.00     0.016 A 
BRANCH   7  17
ATOM     17  N   UNL A   1      35.029  34.207  27.924  1.00  0.00    -0.382 N 
ATOM     18  H   UNL A   1      35.591  34.990  27.732  1.00  0.00     0.160 HD
BRANCH  17  19
ATOM     19  C   UNL A   1      33.579  34.357  27.948  1.00  0.00     0.141 C 
BRANCH  19  20
ATOM     20  C   UNL A   1      33.091  34.847  29.322  1.00  0.00     0.181 C 
BRANCH  20  21
ATOM     21  O   UNL A   1      32.674  36.218  29.327  1.00  0.00    -0.383 OA
ATOM     22  C   UNL A   1      32.997  36.904  30.527  1.00  0.00     0.194 C 
ENDBRANCH  20  21
ENDBRANCH  19  20
ENDBRANCH  17  19
ENDBRANCH   7  17
ENDBRANCH   4   6
ENDBRANCH   3   4
ENDBRANCH   2   3
ENDBRANCH   1   2
BRANCH   1  23
ATOM     23  O   UNL A   1      42.698  36.168  30.478  1.00  0.00    -0.374 OA
BRANCH  23  24
ATOM     24  C   UNL A   1      43.417  36.725  29.375  1.00  0.00     0.202 C 
BRANCH  24  25
ATOM     25  C   UNL A   1      44.703  37.494  29.700  1.00  0.00     0.261 C 
BRANCH  25  26
ATOM     26  O   UNL A   1      44.497  38.493  30.713  1.00  0.00    -0.460 OA
BRANCH  26  27
ATOM     27  C   UNL A   1      45.383  38.462  31.737  1.00  0.00     0.338 C 
ATOM     28  O   UNL A   1      46.525  38.904  31.738  1.00  0.00    -0.246 OA
BRANCH  27  29
ATOM     29  C   UNL A   1      44.715  37.978  32.958  1.00  0.00     0.060 A 
ATOM     30  C   UNL A   1      45.297  36.898  33.636  1.00  0.00     0.016 A 
ATOM     31  C   UNL A   1      43.515  38.534  33.405  1.00  0.00     0.016 A 
ATOM     32  C   UNL A   1      44.657  36.340  34.741  1.00  0.00     0.010 A 
ATOM     33  C   UNL A   1      42.870  37.966  34.508  1.00  0.00     0.010 A 
ATOM     34  C   UNL A   1      43.422  36.847  35.159  1.00  0.00    -0.014 A 
BRANCH  34  35
ATOM     35  C   UNL A   1      42.637  36.133  36.196  1.00  0.00     0.031 A 
ATOM     36  C   UNL A   1      41.531  35.210  35.764  1.00  0.00     0.074 A 
ATOM     37  C   UNL A   1      42.891  36.324  37.502  1.00  0.00     0.049 A 
ATOM     38  N   UNL A   1      40.674  34.547  36.494  1.00  0.00    -0.248 NA
ATOM     39  C   UNL A   1      41.366  35.013  34.313  1.00  0.00     0.031 C 
ATOM     40  C   UNL A   1      43.938  37.191  38.040  1.00  0.00     0.029 A 
ATOM     41  N   UNL A   1      42.259  35.826  38.614  1.00  0.00    -0.354 N 
ATOM     42  C   UNL A   1      39.844  33.886  35.597  1.00  0.00     0.074 A 
ATOM     43  C   UNL A   1      40.297  34.230  34.267  1.00  0.00     0.031 C 
ATOM     44  C   UNL A   1      43.852  37.194  39.382  1.00  0.00     0.029 A 
ATOM     45  C   UNL A   1      42.728  36.355  39.793  1.00  0.00     0.049 A 
ATOM     46  H   UNL A   1      41.538  35.157  38.571  1.00  0.00     0.167 HD
ATOM     47  C   UNL A   1      38.805  33.058  35.858  1.00  0.00     0.034 A 
ATOM     48  C   UNL A   1      42.282  36.202  41.056  1.00  0.00     0.034 A 
ATOM     49  C   UNL A   1      38.372  32.701  37.182  1.00  0.00     0.049 A 
ATOM     50  C   UNL A   1      41.110  35.293  41.318  1.00  0.00     0.074 A 
ATOM     51  C   UNL A   1      37.368  31.824  37.550  1.00  0.00     0.029 A 
ATOM     52  N   UNL A   1      38.907  33.213  38.354  1.00  0.00    -0.354 N 
ATOM     53  N   UNL A   1      40.413  34.578  40.469  1.00  0.00    -0.248 NA
ATOM     54  C   UNL A   1      40.681  35.144  42.717  1.00  0.00     0.031 C 
ATOM     55  C   UNL A   1      37.273  31.829  38.945  1.00  0.00     0.029 A 
ATOM     56  C   UNL A   1      38.243  32.684  39.447  1.00  0.00     0.049 A 
ATOM     57  H   UNL A   1      39.649  33.858  38.402  1.00  0.00     0.167 HD
ATOM     58  C   UNL A   1      39.491  33.867  41.230  1.00  0.00     0.074 A 
ATOM     59  C   UNL A   1      39.729  34.226  42.614  1.00  0.00     0.031 C 
ATOM     60  C   UNL A   1      38.528  33.005  40.822  1.00  0.00     0.034 A 
BRANCH  47  61
ATOM     61  C   UNL A   1      38.072  32.461  34.686  1.00  0.00     0.023 A 
ATOM     62  C   UNL A   1      38.441  31.190  34.204  1.00  0.00     0.012 A 
ATOM     63  C   UNL A   1      36.979  33.132  34.102  1.00  0.00     0.148 A 
ATOM     64  C   UNL A   1      37.754  30.608  33.140  1.00  0.00     0.002 A 
ATOM     65  C   UNL A   1      36.271  32.527  33.072  1.00  0.00     0.091 A 
ATOM     66  F   UNL A   1      36.659  34.351  34.561  1.00  0.00    -0.205 F 
ATOM     67  C   UNL A   1      36.663  31.270  32.582  1.00  0.00     0.022 A 
BRANCH  65  68
ATOM     68  S   UNL A   1      34.805  33.264  32.341  1.00  0.00     0.127 S 
ATOM     69  O   UNL A   1      33.912  33.353  33.496  1.00  0.00    -0.237 OA
ATOM     70  O   UNL A   1      35.314  34.549  31.863  1.00  0.00    -0.237 OA
ATOM     71  O   UNL A   1      34.377  32.351  31.290  1.00  0.00    -0.744 OA
ENDBRANCH  65  68
ENDBRANCH  47  61
BRANCH  48  72
ATOM     72  C   UNL A   1      42.963  36.913  42.176  1.00  0.00     0.023 A 
ATOM     73  C   UNL A   1      42.534  38.202  42.544  1.00  0.00     0.012 A 
ATOM     74  C   UNL A   1      44.021  36.312  42.885  1.00  0.00     0.148 A 
ATOM     75  C   UNL A   1      43.164  38.893  43.579  1.00  0.00     0.002 A 
ATOM     76  C   UNL A   1      44.608  36.983  43.951  1.00  0.00     0.091 A 
ATOM     77  F   UNL A   1      44.426  35.091  42.508  1.00  0.00    -0.205 F 
ATOM     78  C   UNL A   1      44.193  38.280  44.290  1.00  0.00     0.022 A 
BRANCH  76  79
ATOM     79  S   UNL A   1      45.853  36.224  45.001  1.00  0.00     0.127 S 
ATOM     80  O   UNL A   1      45.675  36.955  46.252  1.00  0.00    -0.237 OA
ATOM     81  O   UNL A   1      45.410  34.829  45.032  1.00  0.00    -0.237 OA
ATOM     82  O   UNL A   1      47.124  36.435  44.320  1.00  0.00    -0.744 OA
ENDBRANCH  76  79
ENDBRANCH  48  72
BRANCH  60  83
ATOM     83  C   UNL A   1      37.679  32.343  41.877  1.00  0.00     0.023 A 
ATOM     84  C   UNL A   1      38.168  31.220  42.571  1.00  0.00     0.012 A 
ATOM     85  C   UNL A   1      36.437  32.898  42.245  1.00  0.00     0.148 A 
ATOM     86  C   UNL A   1      37.420  30.641  43.597  1.00  0.00     0.002 A 
ATOM     87  C   UNL A   1      35.721  32.347  43.301  1.00  0.00     0.091 A 
ATOM     88  F   UNL A   1      35.982  33.958  41.560  1.00  0.00    -0.205 F 
ATOM     89  C   UNL A   1      36.206  31.211  43.970  1.00  0.00     0.022 A 
BRANCH  87  90
ATOM     90  S   UNL A   1      34.196  33.072  43.916  1.00  0.00     0.127 S 
ATOM     91  O   UNL A   1      34.032  32.379  45.193  1.00  0.00    -0.237 OA
ATOM     92  O   UNL A   1      34.550  34.486  44.031  1.00  0.00    -0.237 OA
ATOM     93  O   UNL A   1      33.179  32.783  42.914  1.00  0.00    -0.744 OA
ENDBRANCH  87  90
ENDBRANCH  60  83
ENDBRANCH  34  35
ENDBRANCH  27  29
ENDBRANCH  26  27
ENDBRANCH  25  26
ENDBRANCH  24  25
ENDBRANCH  23  24
ENDBRANCH   1  23
TORSDOF 21
ENDMDL
