MODEL 1
REMARK VINA RESULT:     -12.2      0.000      0.000
REMARK SMILES Cc1cc(C(=O)OCCOCCOC(=O)c2ccc(-c3c4nc(c(-c5cccc(S(=O)(=O)[O-])c5F)c5ccc([nH]5)c(-c5cccc(S(=O)(=O)[O-])c5F)c5nc(c(-c6cccc(S(=O)(=O)[O-])c6F)c6ccc3[nH]6)C=C5)C=C4)cc2)ccc1NC(=O)N1C[C@@H](C)[C@H](C)C1
REMARK SMILES IDX 11 1 10 2 9 3 8 4 7 5 5 6 6 7 4 8 1 9 2 10 3 11 81 12 80 13
REMARK SMILES IDX 79 14 82 15 83 16 84 18 85 19 86 20 91 21 87 22 89 23 88 24
REMARK SMILES IDX 90 25 12 26 13 27 14 28 15 29 16 30 17 31 78 32 18 33 77 34
REMARK SMILES IDX 19 35 20 36 21 37 71 38 22 39 76 40 70 41 72 42 23 43 75 44
REMARK SMILES IDX 69 45 68 46 24 48 56 49 36 50 55 51 37 52 40 53 54 54 73 55
REMARK SMILES IDX 38 56 39 57 53 59 74 60 41 61 25 62 26 63 34 64 27 65 29 66
REMARK SMILES IDX 35 67 28 68 30 69 31 70 32 71 33 72 57 73 58 74 66 75 59 76
REMARK SMILES IDX 61 77 67 78 60 79 62 80 63 81 64 82 65 83 42 84 43 85 51 86
REMARK SMILES IDX 44 87 46 88 52 89 45 90 47 91 48 92 49 93 50 94
REMARK H PARENT 82 17 72 47 40 58
REMARK Flexibility Score: inf
ROOT
ATOM      1  C   UNL A   1      42.373  18.838  26.055  1.00  0.00     0.202 C 
ENDROOT
BRANCH   1   2
ATOM      2  O   UNL A   1      41.280  19.438  25.376  1.00  0.00    -0.374 OA
BRANCH   2   3
ATOM      3  C   UNL A   1      40.205  19.965  26.147  1.00  0.00     0.202 C 
BRANCH   3   4
ATOM      4  C   UNL A   1      39.690  21.354  25.774  1.00  0.00     0.261 C 
BRANCH   4   5
ATOM      5  O   UNL A   1      38.287  21.367  25.660  1.00  0.00    -0.460 OA
BRANCH   5   6
ATOM      6  C   UNL A   1      37.749  22.596  25.800  1.00  0.00     0.338 C 
ATOM      7  O   UNL A   1      38.295  23.679  25.726  1.00  0.00    -0.246 OA
BRANCH   6   8
ATOM      8  C   UNL A   1      36.305  22.373  25.748  1.00  0.00     0.060 A 
ATOM      9  C   UNL A   1      34.180  19.489  24.651  1.00  0.00     0.046 C 
ATOM     10  C   UNL A   1      34.511  20.848  25.197  1.00  0.00    -0.027 A 
ATOM     11  C   UNL A   1      35.859  21.218  25.119  1.00  0.00     0.021 A 
ATOM     12  C   UNL A   1      33.615  21.698  25.875  1.00  0.00     0.045 A 
ATOM     13  C   UNL A   1      34.121  22.781  26.605  1.00  0.00     0.027 A 
ATOM     14  C   UNL A   1      35.439  23.163  26.496  1.00  0.00     0.018 A 
BRANCH  12  15
ATOM     15  N   UNL A   1      32.230  21.453  25.856  1.00  0.00    -0.308 N 
ATOM     16  C   UNL A   1      31.190  22.319  25.694  1.00  0.00     0.321 C 
ATOM     17  H   UNL A   1      31.972  20.510  25.978  1.00  0.00     0.171 HD
ATOM     18  O   UNL A   1      30.110  22.038  26.220  1.00  0.00    -0.248 OA
ATOM     19  N   UNL A   1      31.363  23.476  24.982  1.00  0.00    -0.324 N 
ATOM     20  C   UNL A   1      30.628  24.674  25.334  1.00  0.00     0.125 C 
ATOM     21  C   UNL A   1      32.026  23.626  23.683  1.00  0.00     0.125 C 
ATOM     22  C   UNL A   1      30.662  25.545  24.081  1.00  0.00     0.010 C 
ATOM     23  C   UNL A   1      31.989  25.136  23.417  1.00  0.00     0.010 C 
ATOM     24  C   UNL A   1      30.551  27.027  24.394  1.00  0.00     0.010 C 
ATOM     25  C   UNL A   1      32.061  25.490  21.938  1.00  0.00     0.010 C 
ENDBRANCH  12  15
ENDBRANCH   6   8
ENDBRANCH   5   6
ENDBRANCH   4   5
ENDBRANCH   3   4
ENDBRANCH   2   3
ENDBRANCH   1   2
BRANCH   1  26
ATOM     26  C   UNL A   1      43.812  18.976  25.496  1.00  0.00     0.261 C 
BRANCH  26  27
ATOM     27  O   UNL A   1      43.987  20.105  24.625  1.00  0.00    -0.460 OA
BRANCH  27  28
ATOM     28  C   UNL A   1      44.610  21.184  25.190  1.00  0.00     0.338 C 
ATOM     29  O   UNL A   1      45.758  21.189  25.597  1.00  0.00    -0.246 OA
BRANCH  28  30
ATOM     30  C   UNL A   1      43.558  22.209  25.491  1.00  0.00     0.060 A 
ATOM     31  C   UNL A   1      43.431  23.301  24.628  1.00  0.00     0.016 A 
ATOM     32  C   UNL A   1      42.963  22.271  26.749  1.00  0.00     0.016 A 
ATOM     33  C   UNL A   1      42.942  24.531  25.109  1.00  0.00     0.010 A 
ATOM     34  C   UNL A   1      42.531  23.511  27.242  1.00  0.00     0.010 A 
ATOM     35  C   UNL A   1      42.631  24.684  26.464  1.00  0.00    -0.014 A 
BRANCH  35  36
ATOM     36  C   UNL A   1      42.775  25.985  27.186  1.00  0.00     0.031 A 
ATOM     37  C   UNL A   1      41.627  26.890  27.534  1.00  0.00     0.074 A 
ATOM     38  C   UNL A   1      43.932  26.250  27.862  1.00  0.00     0.049 A 
ATOM     39  N   UNL A   1      41.791  28.088  28.013  1.00  0.00    -0.248 NA
ATOM     40  C   UNL A   1      40.213  26.567  27.353  1.00  0.00     0.031 C 
ATOM     41  C   UNL A   1      44.034  27.044  29.092  1.00  0.00     0.029 A 
ATOM     42  N   UNL A   1      45.265  25.902  27.605  1.00  0.00    -0.354 N 
ATOM     43  C   UNL A   1      40.591  28.483  28.556  1.00  0.00     0.074 A 
ATOM     44  C   UNL A   1      39.618  27.596  27.970  1.00  0.00     0.031 C 
ATOM     45  C   UNL A   1      45.314  27.326  29.346  1.00  0.00     0.029 A 
ATOM     46  C   UNL A   1      46.103  26.833  28.243  1.00  0.00     0.049 A 
ATOM     47  H   UNL A   1      45.565  25.134  27.067  1.00  0.00     0.167 HD
ATOM     48  C   UNL A   1      40.551  29.421  29.548  1.00  0.00     0.034 A 
ATOM     49  C   UNL A   1      47.169  27.483  27.704  1.00  0.00     0.034 A 
ATOM     50  C   UNL A   1      41.851  30.057  29.795  1.00  0.00     0.049 A 
ATOM     51  C   UNL A   1      46.971  28.986  27.689  1.00  0.00     0.074 A 
ATOM     52  C   UNL A   1      42.712  30.117  30.876  1.00  0.00     0.029 A 
ATOM     53  N   UNL A   1      42.511  30.681  28.742  1.00  0.00    -0.354 N 
ATOM     54  N   UNL A   1      46.117  29.633  28.437  1.00  0.00    -0.248 NA
ATOM     55  C   UNL A   1      47.657  29.878  26.753  1.00  0.00     0.031 C 
ATOM     56  C   UNL A   1      43.942  30.680  30.425  1.00  0.00     0.029 A 
ATOM     57  C   UNL A   1      43.814  31.004  29.084  1.00  0.00     0.049 A 
ATOM     58  H   UNL A   1      42.104  30.867  27.865  1.00  0.00     0.167 HD
ATOM     59  C   UNL A   1      45.878  30.860  27.863  1.00  0.00     0.074 A 
ATOM     60  C   UNL A   1      46.987  31.029  26.941  1.00  0.00     0.031 C 
ATOM     61  C   UNL A   1      44.714  31.558  28.070  1.00  0.00     0.034 A 
BRANCH  48  62
ATOM     62  C   UNL A   1      39.329  29.731  30.397  1.00  0.00     0.023 A 
ATOM     63  C   UNL A   1      39.120  28.959  31.564  1.00  0.00     0.012 A 
ATOM     64  C   UNL A   1      38.332  30.691  30.097  1.00  0.00     0.148 A 
ATOM     65  C   UNL A   1      38.014  29.155  32.402  1.00  0.00     0.002 A 
ATOM     66  C   UNL A   1      37.278  30.948  30.982  1.00  0.00     0.091 A 
ATOM     67  F   UNL A   1      38.335  31.302  28.906  1.00  0.00    -0.205 F 
ATOM     68  C   UNL A   1      37.109  30.171  32.130  1.00  0.00     0.022 A 
BRANCH  66  69
ATOM     69  S   UNL A   1      36.141  32.325  30.737  1.00  0.00     0.127 S 
ATOM     70  O   UNL A   1      37.051  33.437  30.465  1.00  0.00    -0.237 OA
ATOM     71  O   UNL A   1      35.354  31.888  29.584  1.00  0.00    -0.237 OA
ATOM     72  O   UNL A   1      35.375  32.430  31.974  1.00  0.00    -0.744 OA
ENDBRANCH  66  69
ENDBRANCH  48  62
BRANCH  49  73
ATOM     73  C   UNL A   1      47.972  26.663  26.768  1.00  0.00     0.023 A 
ATOM     74  C   UNL A   1      47.451  26.534  25.460  1.00  0.00     0.012 A 
ATOM     75  C   UNL A   1      49.337  26.423  26.988  1.00  0.00     0.148 A 
ATOM     76  C   UNL A   1      48.292  26.282  24.375  1.00  0.00     0.002 A 
ATOM     77  C   UNL A   1      50.178  26.230  25.895  1.00  0.00     0.091 A 
ATOM     78  F   UNL A   1      49.804  26.538  28.238  1.00  0.00    -0.205 F 
ATOM     79  C   UNL A   1      49.661  26.171  24.590  1.00  0.00     0.022 A 
BRANCH  77  80
ATOM     80  S   UNL A   1      51.967  26.315  26.049  1.00  0.00     0.127 S 
ATOM     81  O   UNL A   1      52.157  27.650  26.606  1.00  0.00    -0.237 OA
ATOM     82  O   UNL A   1      52.236  25.211  26.970  1.00  0.00    -0.237 OA
ATOM     83  O   UNL A   1      52.473  26.104  24.701  1.00  0.00    -0.744 OA
ENDBRANCH  77  80
ENDBRANCH  49  73
BRANCH  61  84
ATOM     84  C   UNL A   1      44.275  32.774  27.255  1.00  0.00     0.023 A 
ATOM     85  C   UNL A   1      44.153  32.741  25.850  1.00  0.00     0.012 A 
ATOM     86  C   UNL A   1      43.830  33.961  27.895  1.00  0.00     0.148 A 
ATOM     87  C   UNL A   1      43.699  33.841  25.111  1.00  0.00     0.002 A 
ATOM     88  C   UNL A   1      43.274  35.014  27.162  1.00  0.00     0.091 A 
ATOM     89  F   UNL A   1      43.952  34.086  29.225  1.00  0.00    -0.205 F 
ATOM     90  C   UNL A   1      43.241  34.973  25.767  1.00  0.00     0.022 A 
BRANCH  88  91
ATOM     91  S   UNL A   1      42.441  36.375  27.993  1.00  0.00     0.127 S 
ATOM     92  O   UNL A   1      41.966  37.179  26.871  1.00  0.00    -0.237 OA
ATOM     93  O   UNL A   1      41.383  35.695  28.744  1.00  0.00    -0.237 OA
ATOM     94  O   UNL A   1      43.471  36.975  28.832  1.00  0.00    -0.744 OA
ENDBRANCH  88  91
ENDBRANCH  61  84
ENDBRANCH  35  36
ENDBRANCH  28  30
ENDBRANCH  27  28
ENDBRANCH  26  27
ENDBRANCH   1  26
TORSDOF 18
ENDMDL
MODEL 2
REMARK VINA RESULT:     -12.2      1.121      2.116
REMARK SMILES Cc1cc(C(=O)OCCOCCOC(=O)c2ccc(-c3c4nc(c(-c5cccc(S(=O)(=O)[O-])c5F)c5ccc([nH]5)c(-c5cccc(S(=O)(=O)[O-])c5F)c5nc(c(-c6cccc(S(=O)(=O)[O-])c6F)c6ccc3[nH]6)C=C5)C=C4)cc2)ccc1NC(=O)N1C[C@@H](C)[C@H](C)C1
REMARK SMILES IDX 11 1 10 2 9 3 8 4 7 5 5 6 6 7 4 8 1 9 2 10 3 11 81 12 80 13
REMARK SMILES IDX 79 14 82 15 83 16 84 18 85 19 86 20 91 21 87 22 89 23 88 24
REMARK SMILES IDX 90 25 12 26 13 27 14 28 15 29 16 30 17 31 78 32 18 33 77 34
REMARK SMILES IDX 19 35 20 36 21 37 71 38 22 39 76 40 70 41 72 42 23 43 75 44
REMARK SMILES IDX 69 45 68 46 24 48 56 49 36 50 55 51 37 52 40 53 54 54 73 55
REMARK SMILES IDX 38 56 39 57 53 59 74 60 41 61 25 62 26 63 34 64 27 65 29 66
REMARK SMILES IDX 35 67 28 68 30 69 31 70 32 71 33 72 57 73 58 74 66 75 59 76
REMARK SMILES IDX 61 77 67 78 60 79 62 80 63 81 64 82 65 83 42 84 43 85 51 86
REMARK SMILES IDX 44 87 46 88 52 89 45 90 47 91 48 92 49 93 50 94
REMARK H PARENT 82 17 72 47 40 58
REMARK Flexibility Score: inf
ROOT
ATOM      1  C   UNL A   1      42.640  18.891  25.939  1.00  0.00     0.202 C 
ENDROOT
BRANCH   1   2
ATOM      2  O   UNL A   1      41.464  19.370  25.302  1.00  0.00    -0.374 OA
BRANCH   2   3
ATOM      3  C   UNL A   1      40.373  19.793  26.114  1.00  0.00     0.202 C 
BRANCH   3   4
ATOM      4  C   UNL A   1      40.065  21.289  26.150  1.00  0.00     0.261 C 
BRANCH   4   5
ATOM      5  O   UNL A   1      38.705  21.539  25.889  1.00  0.00    -0.460 OA
BRANCH   5   6
ATOM      6  C   UNL A   1      38.348  22.825  26.091  1.00  0.00     0.338 C 
ATOM      7  O   UNL A   1      39.054  23.780  26.343  1.00  0.00    -0.246 OA
BRANCH   6   8
ATOM      8  C   UNL A   1      36.962  22.897  25.632  1.00  0.00     0.060 A 
ATOM      9  C   UNL A   1      33.663  23.023  27.404  1.00  0.00     0.046 C 
ATOM     10  C   UNL A   1      34.627  23.007  26.253  1.00  0.00    -0.027 A 
ATOM     11  C   UNL A   1      35.964  22.762  26.589  1.00  0.00     0.021 A 
ATOM     12  C   UNL A   1      34.314  23.337  24.919  1.00  0.00     0.045 A 
ATOM     13  C   UNL A   1      35.355  23.593  24.018  1.00  0.00     0.027 A 
ATOM     14  C   UNL A   1      36.664  23.314  24.340  1.00  0.00     0.018 A 
BRANCH  12  15
ATOM     15  N   UNL A   1      32.978  23.447  24.495  1.00  0.00    -0.308 N 
ATOM     16  C   UNL A   1      32.214  22.578  23.774  1.00  0.00     0.321 C 
ATOM     17  H   UNL A   1      32.523  24.280  24.761  1.00  0.00     0.171 HD
ATOM     18  O   UNL A   1      31.313  23.040  23.070  1.00  0.00    -0.248 OA
ATOM     19  N   UNL A   1      32.469  21.234  23.824  1.00  0.00    -0.324 N 
ATOM     20  C   UNL A   1      32.232  20.396  22.666  1.00  0.00     0.125 C 
ATOM     21  C   UNL A   1      32.720  20.423  25.019  1.00  0.00     0.125 C 
ATOM     22  C   UNL A   1      32.117  18.977  23.218  1.00  0.00     0.010 C 
ATOM     23  C   UNL A   1      33.015  19.023  24.467  1.00  0.00     0.010 C 
ATOM     24  C   UNL A   1      32.514  17.920  22.202  1.00  0.00     0.010 C 
ATOM     25  C   UNL A   1      32.726  17.909  25.462  1.00  0.00     0.010 C 
ENDBRANCH  12  15
ENDBRANCH   6   8
ENDBRANCH   5   6
ENDBRANCH   4   5
ENDBRANCH   3   4
ENDBRANCH   2   3
ENDBRANCH   1   2
BRANCH   1  26
ATOM     26  C   UNL A   1      44.026  19.103  25.281  1.00  0.00     0.261 C 
BRANCH  26  27
ATOM     27  O   UNL A   1      44.145  20.347  24.571  1.00  0.00    -0.460 OA
BRANCH  27  28
ATOM     28  C   UNL A   1      44.731  21.364  25.274  1.00  0.00     0.338 C 
ATOM     29  O   UNL A   1      45.879  21.357  25.679  1.00  0.00    -0.246 OA
BRANCH  28  30
ATOM     30  C   UNL A   1      43.644  22.302  25.705  1.00  0.00     0.060 A 
ATOM     31  C   UNL A   1      43.306  23.360  24.857  1.00  0.00     0.016 A 
ATOM     32  C   UNL A   1      43.221  22.341  27.032  1.00  0.00     0.016 A 
ATOM     33  C   UNL A   1      42.781  24.554  25.387  1.00  0.00     0.010 A 
ATOM     34  C   UNL A   1      42.754  23.550  27.567  1.00  0.00     0.010 A 
ATOM     35  C   UNL A   1      42.645  24.710  26.771  1.00  0.00    -0.014 A 
BRANCH  35  36
ATOM     36  C   UNL A   1      42.771  26.035  27.452  1.00  0.00     0.031 A 
ATOM     37  C   UNL A   1      41.614  26.949  27.744  1.00  0.00     0.074 A 
ATOM     38  C   UNL A   1      43.912  26.323  28.147  1.00  0.00     0.049 A 
ATOM     39  N   UNL A   1      41.767  28.162  28.187  1.00  0.00    -0.248 NA
ATOM     40  C   UNL A   1      40.205  26.617  27.540  1.00  0.00     0.031 C 
ATOM     41  C   UNL A   1      43.984  27.158  29.351  1.00  0.00     0.029 A 
ATOM     42  N   UNL A   1      45.251  25.969  27.932  1.00  0.00    -0.354 N 
ATOM     43  C   UNL A   1      40.554  28.573  28.689  1.00  0.00     0.074 A 
ATOM     44  C   UNL A   1      39.596  27.666  28.109  1.00  0.00     0.031 C 
ATOM     45  C   UNL A   1      45.258  27.449  29.626  1.00  0.00     0.029 A 
ATOM     46  C   UNL A   1      46.073  26.921  28.559  1.00  0.00     0.049 A 
ATOM     47  H   UNL A   1      45.563  25.184  27.426  1.00  0.00     0.167 HD
ATOM     48  C   UNL A   1      40.490  29.543  29.648  1.00  0.00     0.034 A 
ATOM     49  C   UNL A   1      47.150  27.554  28.023  1.00  0.00     0.034 A 
ATOM     50  C   UNL A   1      41.783  30.189  29.904  1.00  0.00     0.049 A 
ATOM     51  C   UNL A   1      46.952  29.056  27.954  1.00  0.00     0.074 A 
ATOM     52  C   UNL A   1      42.619  30.285  31.002  1.00  0.00     0.029 A 
ATOM     53  N   UNL A   1      42.468  30.778  28.847  1.00  0.00    -0.354 N 
ATOM     54  N   UNL A   1      46.080  29.727  28.660  1.00  0.00    -0.248 NA
ATOM     55  C   UNL A   1      47.659  29.918  27.006  1.00  0.00     0.031 C 
ATOM     56  C   UNL A   1      43.859  30.835  30.562  1.00  0.00     0.029 A 
ATOM     57  C   UNL A   1      43.762  31.115  29.208  1.00  0.00     0.049 A 
ATOM     58  H   UNL A   1      42.081  30.935  27.955  1.00  0.00     0.167 HD
ATOM     59  C   UNL A   1      45.854  30.934  28.041  1.00  0.00     0.074 A 
ATOM     60  C   UNL A   1      46.984  31.073  27.140  1.00  0.00     0.031 C 
ATOM     61  C   UNL A   1      44.685  31.636  28.197  1.00  0.00     0.034 A 
BRANCH  48  62
ATOM     62  C   UNL A   1      39.248  29.878  30.458  1.00  0.00     0.023 A 
ATOM     63  C   UNL A   1      39.077  29.234  31.705  1.00  0.00     0.012 A 
ATOM     64  C   UNL A   1      38.201  30.742  30.052  1.00  0.00     0.148 A 
ATOM     65  C   UNL A   1      37.957  29.462  32.517  1.00  0.00     0.002 A 
ATOM     66  C   UNL A   1      37.130  31.038  30.903  1.00  0.00     0.091 A 
ATOM     67  F   UNL A   1      38.177  31.212  28.799  1.00  0.00    -0.205 F 
ATOM     68  C   UNL A   1      36.998  30.389  32.132  1.00  0.00     0.022 A 
BRANCH  66  69
ATOM     69  S   UNL A   1      35.920  32.314  30.505  1.00  0.00     0.127 S 
ATOM     70  O   UNL A   1      35.017  32.258  31.653  1.00  0.00    -0.237 OA
ATOM     71  O   UNL A   1      36.742  33.523  30.437  1.00  0.00    -0.237 OA
ATOM     72  O   UNL A   1      35.337  31.920  29.227  1.00  0.00    -0.744 OA
ENDBRANCH  66  69
ENDBRANCH  48  62
BRANCH  49  73
ATOM     73  C   UNL A   1      47.975  26.705  27.133  1.00  0.00     0.023 A 
ATOM     74  C   UNL A   1      47.601  26.696  25.770  1.00  0.00     0.012 A 
ATOM     75  C   UNL A   1      49.276  26.318  27.488  1.00  0.00     0.148 A 
ATOM     76  C   UNL A   1      48.535  26.414  24.772  1.00  0.00     0.002 A 
ATOM     77  C   UNL A   1      50.217  26.095  26.486  1.00  0.00     0.091 A 
ATOM     78  F   UNL A   1      49.604  26.322  28.787  1.00  0.00    -0.205 F 
ATOM     79  C   UNL A   1      49.853  26.155  25.130  1.00  0.00     0.022 A 
BRANCH  77  80
ATOM     80  S   UNL A   1      51.976  25.991  26.842  1.00  0.00     0.127 S 
ATOM     81  O   UNL A   1      51.987  25.985  28.301  1.00  0.00    -0.237 OA
ATOM     82  O   UNL A   1      52.330  24.721  26.211  1.00  0.00    -0.237 OA
ATOM     83  O   UNL A   1      52.562  27.159  26.201  1.00  0.00    -0.744 OA
ENDBRANCH  77  80
ENDBRANCH  49  73
BRANCH  61  84
ATOM     84  C   UNL A   1      44.264  32.824  27.334  1.00  0.00     0.023 A 
ATOM     85  C   UNL A   1      44.144  32.736  25.931  1.00  0.00     0.012 A 
ATOM     86  C   UNL A   1      43.834  34.042  27.923  1.00  0.00     0.148 A 
ATOM     87  C   UNL A   1      43.707  33.811  25.147  1.00  0.00     0.002 A 
ATOM     88  C   UNL A   1      43.295  35.072  27.147  1.00  0.00     0.091 A 
ATOM     89  F   UNL A   1      43.956  34.219  29.247  1.00  0.00    -0.205 F 
ATOM     90  C   UNL A   1      43.264  34.975  25.755  1.00  0.00     0.022 A 
BRANCH  88  91
ATOM     91  S   UNL A   1      42.479  36.477  27.921  1.00  0.00     0.127 S 
ATOM     92  O   UNL A   1      42.064  37.268  26.766  1.00  0.00    -0.237 OA
ATOM     93  O   UNL A   1      41.378  35.848  28.653  1.00  0.00    -0.237 OA
ATOM     94  O   UNL A   1      43.501  37.065  28.778  1.00  0.00    -0.744 OA
ENDBRANCH  88  91
ENDBRANCH  61  84
ENDBRANCH  35  36
ENDBRANCH  28  30
ENDBRANCH  27  28
ENDBRANCH  26  27
ENDBRANCH   1  26
TORSDOF 18
ENDMDL
MODEL 3
REMARK VINA RESULT:     -12.2      4.833     11.534
REMARK SMILES Cc1cc(C(=O)OCCOCCOC(=O)c2ccc(-c3c4nc(c(-c5cccc(S(=O)(=O)[O-])c5F)c5ccc([nH]5)c(-c5cccc(S(=O)(=O)[O-])c5F)c5nc(c(-c6cccc(S(=O)(=O)[O-])c6F)c6ccc3[nH]6)C=C5)C=C4)cc2)ccc1NC(=O)N1C[C@@H](C)[C@H](C)C1
REMARK SMILES IDX 11 1 10 2 9 3 8 4 7 5 5 6 6 7 4 8 1 9 2 10 3 11 81 12 80 13
REMARK SMILES IDX 79 14 82 15 83 16 84 18 85 19 86 20 91 21 87 22 89 23 88 24
REMARK SMILES IDX 90 25 12 26 13 27 14 28 15 29 16 30 17 31 78 32 18 33 77 34
REMARK SMILES IDX 19 35 20 36 21 37 71 38 22 39 76 40 70 41 72 42 23 43 75 44
REMARK SMILES IDX 69 45 68 46 24 48 56 49 36 50 55 51 37 52 40 53 54 54 73 55
REMARK SMILES IDX 38 56 39 57 53 59 74 60 41 61 25 62 26 63 34 64 27 65 29 66
REMARK SMILES IDX 35 67 28 68 30 69 31 70 32 71 33 72 57 73 58 74 66 75 59 76
REMARK SMILES IDX 61 77 67 78 60 79 62 80 63 81 64 82 65 83 42 84 43 85 51 86
REMARK SMILES IDX 44 87 46 88 52 89 45 90 47 91 48 92 49 93 50 94
REMARK H PARENT 82 17 72 47 40 58
REMARK Flexibility Score: inf
ROOT
ATOM      1  C   UNL A   1      32.966  35.667  29.193  1.00  0.00     0.202 C 
ENDROOT
BRANCH   1   2
ATOM      2  O   UNL A   1      32.562  34.358  28.816  1.00  0.00    -0.374 OA
BRANCH   2   3
ATOM      3  C   UNL A   1      33.394  33.617  27.929  1.00  0.00     0.202 C 
BRANCH   3   4
ATOM      4  C   UNL A   1      33.503  32.111  28.164  1.00  0.00     0.261 C 
BRANCH   4   5
ATOM      5  O   UNL A   1      33.385  31.395  26.958  1.00  0.00    -0.460 OA
BRANCH   5   6
ATOM      6  C   UNL A   1      32.124  30.992  26.696  1.00  0.00     0.338 C 
ATOM      7  O   UNL A   1      31.076  31.531  26.990  1.00  0.00    -0.246 OA
BRANCH   6   8
ATOM      8  C   UNL A   1      32.278  29.928  25.705  1.00  0.00     0.060 A 
ATOM      9  C   UNL A   1      30.252  28.852  22.742  1.00  0.00     0.046 C 
ATOM     10  C   UNL A   1      31.378  28.850  23.735  1.00  0.00    -0.027 A 
ATOM     11  C   UNL A   1      31.226  29.719  24.822  1.00  0.00     0.021 A 
ATOM     12  C   UNL A   1      32.596  28.156  23.591  1.00  0.00     0.045 A 
ATOM     13  C   UNL A   1      33.675  28.489  24.420  1.00  0.00     0.027 A 
ATOM     14  C   UNL A   1      33.510  29.314  25.509  1.00  0.00     0.018 A 
BRANCH  12  15
ATOM     15  N   UNL A   1      32.750  27.163  22.607  1.00  0.00    -0.308 N 
ATOM     16  C   UNL A   1      33.375  25.953  22.675  1.00  0.00     0.321 C 
ATOM     17  H   UNL A   1      32.343  27.373  21.735  1.00  0.00     0.171 HD
ATOM     18  O   UNL A   1      33.860  25.489  21.640  1.00  0.00    -0.248 OA
ATOM     19  N   UNL A   1      33.474  25.296  23.871  1.00  0.00    -0.324 N 
ATOM     20  C   UNL A   1      34.624  24.464  24.163  1.00  0.00     0.125 C 
ATOM     21  C   UNL A   1      32.410  25.090  24.859  1.00  0.00     0.125 C 
ATOM     22  C   UNL A   1      34.165  23.527  25.277  1.00  0.00     0.010 C 
ATOM     23  C   UNL A   1      33.109  24.366  26.016  1.00  0.00     0.010 C 
ATOM     24  C   UNL A   1      35.312  23.054  26.154  1.00  0.00     0.010 C 
ATOM     25  C   UNL A   1      32.161  23.535  26.868  1.00  0.00     0.010 C 
ENDBRANCH  12  15
ENDBRANCH   6   8
ENDBRANCH   5   6
ENDBRANCH   4   5
ENDBRANCH   3   4
ENDBRANCH   2   3
ENDBRANCH   1   2
BRANCH   1  26
ATOM     26  C   UNL A   1      32.913  36.103  30.679  1.00  0.00     0.261 C 
BRANCH  26  27
ATOM     27  O   UNL A   1      33.100  35.021  31.607  1.00  0.00    -0.460 OA
BRANCH  27  28
ATOM     28  C   UNL A   1      34.383  34.850  32.048  1.00  0.00     0.338 C 
ATOM     29  O   UNL A   1      35.000  35.656  32.720  1.00  0.00    -0.246 OA
BRANCH  28  30
ATOM     30  C   UNL A   1      34.963  33.679  31.313  1.00  0.00     0.060 A 
ATOM     31  C   UNL A   1      34.874  32.415  31.903  1.00  0.00     0.016 A 
ATOM     32  C   UNL A   1      35.857  33.869  30.262  1.00  0.00     0.016 A 
ATOM     33  C   UNL A   1      35.841  31.431  31.623  1.00  0.00     0.010 A 
ATOM     34  C   UNL A   1      36.854  32.911  30.027  1.00  0.00     0.010 A 
ATOM     35  C   UNL A   1      36.929  31.729  30.795  1.00  0.00    -0.014 A 
BRANCH  35  36
ATOM     36  C   UNL A   1      38.272  31.094  30.962  1.00  0.00     0.031 A 
ATOM     37  C   UNL A   1      38.739  29.890  30.195  1.00  0.00     0.074 A 
ATOM     38  C   UNL A   1      39.267  31.792  31.586  1.00  0.00     0.049 A 
ATOM     39  N   UNL A   1      39.842  29.259  30.473  1.00  0.00    -0.248 NA
ATOM     40  C   UNL A   1      38.019  29.263  29.088  1.00  0.00     0.031 C 
ATOM     41  C   UNL A   1      40.698  31.688  31.278  1.00  0.00     0.029 A 
ATOM     42  N   UNL A   1      39.241  32.718  32.637  1.00  0.00    -0.354 N 
ATOM     43  C   UNL A   1      40.152  28.472  29.389  1.00  0.00     0.074 A 
ATOM     44  C   UNL A   1      38.920  28.375  28.648  1.00  0.00     0.031 C 
ATOM     45  C   UNL A   1      41.413  32.295  32.228  1.00  0.00     0.029 A 
ATOM     46  C   UNL A   1      40.501  32.725  33.261  1.00  0.00     0.049 A 
ATOM     47  H   UNL A   1      38.470  33.273  32.896  1.00  0.00     0.167 HD
ATOM     48  C   UNL A   1      41.442  28.098  29.146  1.00  0.00     0.034 A 
ATOM     49  C   UNL A   1      40.757  32.659  34.594  1.00  0.00     0.034 A 
ATOM     50  C   UNL A   1      42.361  28.450  30.236  1.00  0.00     0.049 A 
ATOM     51  C   UNL A   1      41.554  31.421  34.960  1.00  0.00     0.074 A 
ATOM     52  C   UNL A   1      43.467  29.273  30.346  1.00  0.00     0.029 A 
ATOM     53  N   UNL A   1      42.093  27.993  31.522  1.00  0.00    -0.354 N 
ATOM     54  N   UNL A   1      42.263  30.715  34.120  1.00  0.00    -0.248 NA
ATOM     55  C   UNL A   1      41.538  30.820  36.294  1.00  0.00     0.031 C 
ATOM     56  C   UNL A   1      43.787  29.395  31.729  1.00  0.00     0.029 A 
ATOM     57  C   UNL A   1      42.906  28.612  32.458  1.00  0.00     0.049 A 
ATOM     58  H   UNL A   1      41.412  27.316  31.739  1.00  0.00     0.167 HD
ATOM     59  C   UNL A   1      42.460  29.465  34.658  1.00  0.00     0.074 A 
ATOM     60  C   UNL A   1      42.156  29.648  36.067  1.00  0.00     0.031 C 
ATOM     61  C   UNL A   1      42.695  28.356  33.884  1.00  0.00     0.034 A 
BRANCH  48  62
ATOM     62  C   UNL A   1      41.932  27.470  27.852  1.00  0.00     0.023 A 
ATOM     63  C   UNL A   1      42.103  28.313  26.729  1.00  0.00     0.012 A 
ATOM     64  C   UNL A   1      42.182  26.092  27.641  1.00  0.00     0.148 A 
ATOM     65  C   UNL A   1      42.532  27.827  25.486  1.00  0.00     0.002 A 
ATOM     66  C   UNL A   1      42.698  25.622  26.427  1.00  0.00     0.091 A 
ATOM     67  F   UNL A   1      41.832  25.203  28.579  1.00  0.00    -0.205 F 
ATOM     68  C   UNL A   1      42.862  26.486  25.342  1.00  0.00     0.022 A 
BRANCH  66  69
ATOM     69  S   UNL A   1      43.248  23.917  26.221  1.00  0.00     0.127 S 
ATOM     70  O   UNL A   1      44.085  23.714  27.402  1.00  0.00    -0.237 OA
ATOM     71  O   UNL A   1      41.988  23.172  26.233  1.00  0.00    -0.237 OA
ATOM     72  O   UNL A   1      43.947  23.880  24.941  1.00  0.00    -0.744 OA
ENDBRANCH  66  69
ENDBRANCH  48  62
BRANCH  49  73
ATOM     73  C   UNL A   1      39.789  33.398  35.438  1.00  0.00     0.023 A 
ATOM     74  C   UNL A   1      38.588  32.717  35.738  1.00  0.00     0.012 A 
ATOM     75  C   UNL A   1      40.194  34.466  36.254  1.00  0.00     0.148 A 
ATOM     76  C   UNL A   1      37.862  33.018  36.891  1.00  0.00     0.002 A 
ATOM     77  C   UNL A   1      39.497  34.722  37.432  1.00  0.00     0.091 A 
ATOM     78  F   UNL A   1      41.329  35.104  35.942  1.00  0.00    -0.205 F 
ATOM     79  C   UNL A   1      38.340  33.994  37.759  1.00  0.00     0.022 A 
BRANCH  77  80
ATOM     80  S   UNL A   1      40.167  35.786  38.717  1.00  0.00     0.127 S 
ATOM     81  O   UNL A   1      41.479  35.191  38.946  1.00  0.00    -0.237 OA
ATOM     82  O   UNL A   1      40.180  37.085  38.047  1.00  0.00    -0.237 OA
ATOM     83  O   UNL A   1      39.219  35.692  39.818  1.00  0.00    -0.744 OA
ENDBRANCH  77  80
ENDBRANCH  49  73
BRANCH  61  84
ATOM     84  C   UNL A   1      42.645  26.916  34.393  1.00  0.00     0.023 A 
ATOM     85  C   UNL A   1      41.528  26.395  35.080  1.00  0.00     0.012 A 
ATOM     86  C   UNL A   1      43.670  25.989  34.070  1.00  0.00     0.148 A 
ATOM     87  C   UNL A   1      41.463  25.059  35.498  1.00  0.00     0.002 A 
ATOM     88  C   UNL A   1      43.550  24.635  34.392  1.00  0.00     0.091 A 
ATOM     89  F   UNL A   1      44.783  26.417  33.454  1.00  0.00    -0.205 F 
ATOM     90  C   UNL A   1      42.465  24.172  35.139  1.00  0.00     0.022 A 
BRANCH  88  91
ATOM     91  S   UNL A   1      44.699  23.424  33.720  1.00  0.00     0.127 S 
ATOM     92  O   UNL A   1      44.213  22.178  34.304  1.00  0.00    -0.237 OA
ATOM     93  O   UNL A   1      44.484  23.541  32.275  1.00  0.00    -0.237 OA
ATOM     94  O   UNL A   1      46.010  23.881  34.162  1.00  0.00    -0.744 OA
ENDBRANCH  88  91
ENDBRANCH  61  84
ENDBRANCH  35  36
ENDBRANCH  28  30
ENDBRANCH  27  28
ENDBRANCH  26  27
ENDBRANCH   1  26
TORSDOF 18
ENDMDL
