MODEL 1
REMARK VINA RESULT:     -11.7      0.000      0.000
REMARK SMILES COc1c(C(=O)OCCOCCOC(=O)c2ccc(-c3c4nc(c(-c5cccc(S(=O)(=O)[O-])c5F)c5ccc([nH]5)c(-c5cccc(S(=O)(=O)[O-])c5F)c5nc(c(-c6cccc(S(=O)(=O)[O-])c6F)c6ccc3[nH]6)C=C5)C=C4)cc2)cccc1-c1ccc2ccccc2c1
REMARK SMILES IDX 11 1 10 2 9 3 8 4 7 5 5 6 6 7 4 8 3 9 82 10 79 11 81 12
REMARK SMILES IDX 80 13 2 14 1 15 83 16 84 17 92 18 85 19 91 20 86 21 90 22
REMARK SMILES IDX 87 23 89 24 88 25 12 26 13 27 14 28 15 29 16 30 17 31 78 32
REMARK SMILES IDX 18 33 77 34 19 35 20 36 21 37 71 38 22 39 76 40 70 41 72 42
REMARK SMILES IDX 23 43 75 44 69 45 68 46 24 48 56 49 36 50 55 51 37 52 40 53
REMARK SMILES IDX 54 54 73 55 38 56 39 57 53 59 74 60 41 61 25 62 26 63 34 64
REMARK SMILES IDX 27 65 29 66 35 67 28 68 30 69 31 70 32 71 33 72 57 73 58 74
REMARK SMILES IDX 66 75 59 76 61 77 67 78 60 79 62 80 63 81 64 82 65 83 42 84
REMARK SMILES IDX 43 85 51 86 44 87 46 88 52 89 45 90 47 91 48 92 49 93 50 94
REMARK H PARENT 72 47 40 58
REMARK Flexibility Score: inf
ROOT
ATOM      1  C   UNL A   1      31.704  30.738  26.700  1.00  0.00     0.202 C 
ENDROOT
BRANCH   1   2
ATOM      2  O   UNL A   1      31.408  30.145  25.434  1.00  0.00    -0.374 OA
BRANCH   2   3
ATOM      3  C   UNL A   1      32.424  29.332  24.844  1.00  0.00     0.202 C 
BRANCH   3   4
ATOM      4  C   UNL A   1      32.235  28.950  23.373  1.00  0.00     0.261 C 
BRANCH   4   5
ATOM      5  O   UNL A   1      32.568  27.571  23.148  1.00  0.00    -0.460 OA
BRANCH   5   6
ATOM      6  C   UNL A   1      31.527  26.759  22.838  1.00  0.00     0.342 C 
ATOM      7  O   UNL A   1      30.881  26.762  21.801  1.00  0.00    -0.246 OA
BRANCH   6   8
ATOM      8  C   UNL A   1      31.449  25.649  23.815  1.00  0.00     0.102 A 
ATOM      9  C   UNL A   1      32.137  24.432  23.676  1.00  0.00     0.141 A 
ATOM     10  C   UNL A   1      31.959  23.417  24.645  1.00  0.00     0.025 A 
ATOM     11  C   UNL A   1      30.576  25.856  24.895  1.00  0.00     0.019 A 
ATOM     12  C   UNL A   1      31.086  23.663  25.728  1.00  0.00     0.012 A 
ATOM     13  C   UNL A   1      30.396  24.866  25.851  1.00  0.00     0.002 A 
BRANCH   9  14
ATOM     14  O   UNL A   1      33.045  24.328  22.652  1.00  0.00    -0.495 OA
ATOM     15  C   UNL A   1      34.401  24.535  23.052  1.00  0.00     0.278 C 
ENDBRANCH   9  14
BRANCH  10  16
ATOM     16  C   UNL A   1      32.593  22.091  24.564  1.00  0.00    -0.014 A 
ATOM     17  C   UNL A   1      33.670  21.796  25.414  1.00  0.00     0.009 A 
ATOM     18  C   UNL A   1      32.145  21.099  23.679  1.00  0.00     0.017 A 
ATOM     19  C   UNL A   1      34.254  20.530  25.420  1.00  0.00     0.009 A 
ATOM     20  C   UNL A   1      32.738  19.820  23.660  1.00  0.00    -0.018 A 
ATOM     21  C   UNL A   1      33.790  19.530  24.559  1.00  0.00    -0.018 A 
ATOM     22  C   UNL A   1      32.299  18.812  22.784  1.00  0.00     0.009 A 
ATOM     23  C   UNL A   1      34.348  18.243  24.586  1.00  0.00     0.009 A 
ATOM     24  C   UNL A   1      32.877  17.541  22.809  1.00  0.00     0.001 A 
ATOM     25  C   UNL A   1      33.893  17.253  23.716  1.00  0.00     0.001 A 
ENDBRANCH  10  16
ENDBRANCH   6   8
ENDBRANCH   5   6
ENDBRANCH   4   5
ENDBRANCH   3   4
ENDBRANCH   2   3
ENDBRANCH   1   2
BRANCH   1  26
ATOM     26  C   UNL A   1      31.572  32.264  26.807  1.00  0.00     0.261 C 
BRANCH  26  27
ATOM     27  O   UNL A   1      32.834  32.944  26.699  1.00  0.00    -0.460 OA
BRANCH  27  28
ATOM     28  C   UNL A   1      33.228  33.600  27.822  1.00  0.00     0.338 C 
ATOM     29  O   UNL A   1      32.607  34.447  28.438  1.00  0.00    -0.246 OA
BRANCH  28  30
ATOM     30  C   UNL A   1      34.482  33.005  28.323  1.00  0.00     0.060 A 
ATOM     31  C   UNL A   1      34.396  31.802  29.037  1.00  0.00     0.016 A 
ATOM     32  C   UNL A   1      35.712  33.639  28.146  1.00  0.00     0.016 A 
ATOM     33  C   UNL A   1      35.543  31.235  29.592  1.00  0.00     0.010 A 
ATOM     34  C   UNL A   1      36.858  33.076  28.716  1.00  0.00     0.010 A 
ATOM     35  C   UNL A   1      36.778  31.882  29.458  1.00  0.00    -0.014 A 
BRANCH  35  36
ATOM     36  C   UNL A   1      37.977  31.358  30.155  1.00  0.00     0.031 A 
ATOM     37  C   UNL A   1      38.818  30.303  29.490  1.00  0.00     0.074 A 
ATOM     38  C   UNL A   1      38.287  31.788  31.393  1.00  0.00     0.049 A 
ATOM     39  N   UNL A   1      39.843  29.645  29.962  1.00  0.00    -0.248 NA
ATOM     40  C   UNL A   1      38.452  29.940  28.110  1.00  0.00     0.031 C 
ATOM     41  C   UNL A   1      37.548  32.804  32.142  1.00  0.00     0.029 A 
ATOM     42  N   UNL A   1      39.280  31.391  32.254  1.00  0.00    -0.354 N 
ATOM     43  C   UNL A   1      40.219  28.759  28.960  1.00  0.00     0.074 A 
ATOM     44  C   UNL A   1      39.319  28.971  27.847  1.00  0.00     0.031 C 
ATOM     45  C   UNL A   1      38.082  32.915  33.370  1.00  0.00     0.029 A 
ATOM     46  C   UNL A   1      39.179  31.958  33.503  1.00  0.00     0.049 A 
ATOM     47  H   UNL A   1      39.994  30.762  32.002  1.00  0.00     0.167 HD
ATOM     48  C   UNL A   1      41.225  27.853  28.969  1.00  0.00     0.034 A 
ATOM     49  C   UNL A   1      39.862  31.702  34.637  1.00  0.00     0.034 A 
ATOM     50  C   UNL A   1      42.136  27.665  30.065  1.00  0.00     0.049 A 
ATOM     51  C   UNL A   1      40.966  30.676  34.616  1.00  0.00     0.074 A 
ATOM     52  C   UNL A   1      43.235  26.825  30.132  1.00  0.00     0.029 A 
ATOM     53  N   UNL A   1      42.045  28.301  31.291  1.00  0.00    -0.354 N 
ATOM     54  N   UNL A   1      41.404  29.950  33.616  1.00  0.00    -0.248 NA
ATOM     55  C   UNL A   1      41.693  30.453  35.877  1.00  0.00     0.031 C 
ATOM     56  C   UNL A   1      43.784  26.926  31.413  1.00  0.00     0.029 A 
ATOM     57  C   UNL A   1      43.052  27.856  32.130  1.00  0.00     0.049 A 
ATOM     58  H   UNL A   1      41.365  28.972  31.531  1.00  0.00     0.167 HD
ATOM     59  C   UNL A   1      42.473  29.215  34.116  1.00  0.00     0.074 A 
ATOM     60  C   UNL A   1      42.637  29.602  35.501  1.00  0.00     0.031 C 
ATOM     61  C   UNL A   1      43.241  28.289  33.490  1.00  0.00     0.034 A 
BRANCH  48  62
ATOM     62  C   UNL A   1      41.418  26.990  27.751  1.00  0.00     0.023 A 
ATOM     63  C   UNL A   1      42.121  27.492  26.639  1.00  0.00     0.012 A 
ATOM     64  C   UNL A   1      41.000  25.644  27.759  1.00  0.00     0.148 A 
ATOM     65  C   UNL A   1      42.396  26.669  25.546  1.00  0.00     0.002 A 
ATOM     66  C   UNL A   1      41.315  24.820  26.687  1.00  0.00     0.091 A 
ATOM     67  F   UNL A   1      40.316  25.196  28.821  1.00  0.00    -0.205 F 
ATOM     68  C   UNL A   1      42.007  25.332  25.577  1.00  0.00     0.022 A 
BRANCH  66  69
ATOM     69  S   UNL A   1      40.930  23.066  26.665  1.00  0.00     0.127 S 
ATOM     70  O   UNL A   1      41.362  22.652  27.999  1.00  0.00    -0.237 OA
ATOM     71  O   UNL A   1      39.480  23.073  26.468  1.00  0.00    -0.237 OA
ATOM     72  O   UNL A   1      41.695  22.498  25.563  1.00  0.00    -0.744 OA
ENDBRANCH  66  69
ENDBRANCH  48  62
BRANCH  49  73
ATOM     73  C   UNL A   1      39.524  32.419  35.899  1.00  0.00     0.023 A 
ATOM     74  C   UNL A   1      40.182  33.622  36.220  1.00  0.00     0.012 A 
ATOM     75  C   UNL A   1      38.568  31.901  36.795  1.00  0.00     0.148 A 
ATOM     76  C   UNL A   1      39.929  34.271  37.429  1.00  0.00     0.002 A 
ATOM     77  C   UNL A   1      38.278  32.584  37.970  1.00  0.00     0.091 A 
ATOM     78  F   UNL A   1      37.966  30.744  36.486  1.00  0.00    -0.205 F 
ATOM     79  C   UNL A   1      38.971  33.758  38.299  1.00  0.00     0.022 A 
BRANCH  77  80
ATOM     80  S   UNL A   1      36.968  32.059  39.082  1.00  0.00     0.127 S 
ATOM     81  O   UNL A   1      36.981  30.610  38.897  1.00  0.00    -0.237 OA
ATOM     82  O   UNL A   1      37.466  32.520  40.378  1.00  0.00    -0.237 OA
ATOM     83  O   UNL A   1      35.770  32.748  38.623  1.00  0.00    -0.744 OA
ENDBRANCH  77  80
ENDBRANCH  49  73
BRANCH  61  84
ATOM     84  C   UNL A   1      44.360  27.654  34.277  1.00  0.00     0.023 A 
ATOM     85  C   UNL A   1      45.609  28.299  34.368  1.00  0.00     0.012 A 
ATOM     86  C   UNL A   1      44.147  26.456  34.987  1.00  0.00     0.148 A 
ATOM     87  C   UNL A   1      46.640  27.741  35.124  1.00  0.00     0.002 A 
ATOM     88  C   UNL A   1      45.162  25.934  35.779  1.00  0.00     0.091 A 
ATOM     89  F   UNL A   1      42.956  25.849  34.876  1.00  0.00    -0.205 F 
ATOM     90  C   UNL A   1      46.414  26.567  35.837  1.00  0.00     0.022 A 
BRANCH  88  91
ATOM     91  S   UNL A   1      44.930  24.481  36.811  1.00  0.00     0.127 S 
ATOM     92  O   UNL A   1      43.892  24.935  37.734  1.00  0.00    -0.237 OA
ATOM     93  O   UNL A   1      44.488  23.480  35.841  1.00  0.00    -0.237 OA
ATOM     94  O   UNL A   1      46.226  24.206  37.416  1.00  0.00    -0.744 OA
ENDBRANCH  88  91
ENDBRANCH  61  84
ENDBRANCH  35  36
ENDBRANCH  28  30
ENDBRANCH  27  28
ENDBRANCH  26  27
ENDBRANCH   1  26
TORSDOF 19
ENDMDL
MODEL 2
REMARK VINA RESULT:     -11.5      1.642      1.992
REMARK SMILES COc1c(C(=O)OCCOCCOC(=O)c2ccc(-c3c4nc(c(-c5cccc(S(=O)(=O)[O-])c5F)c5ccc([nH]5)c(-c5cccc(S(=O)(=O)[O-])c5F)c5nc(c(-c6cccc(S(=O)(=O)[O-])c6F)c6ccc3[nH]6)C=C5)C=C4)cc2)cccc1-c1ccc2ccccc2c1
REMARK SMILES IDX 11 1 10 2 9 3 8 4 7 5 5 6 6 7 4 8 3 9 82 10 79 11 81 12
REMARK SMILES IDX 80 13 2 14 1 15 83 16 84 17 92 18 85 19 91 20 86 21 90 22
REMARK SMILES IDX 87 23 89 24 88 25 12 26 13 27 14 28 15 29 16 30 17 31 78 32
REMARK SMILES IDX 18 33 77 34 19 35 20 36 21 37 71 38 22 39 76 40 70 41 72 42
REMARK SMILES IDX 23 43 75 44 69 45 68 46 24 48 56 49 36 50 55 51 37 52 40 53
REMARK SMILES IDX 54 54 73 55 38 56 39 57 53 59 74 60 41 61 25 62 26 63 34 64
REMARK SMILES IDX 27 65 29 66 35 67 28 68 30 69 31 70 32 71 33 72 57 73 58 74
REMARK SMILES IDX 66 75 59 76 61 77 67 78 60 79 62 80 63 81 64 82 65 83 42 84
REMARK SMILES IDX 43 85 51 86 44 87 46 88 52 89 45 90 47 91 48 92 49 93 50 94
REMARK H PARENT 72 47 40 58
REMARK Flexibility Score: inf
ROOT
ATOM      1  C   UNL A   1      32.143  31.165  26.880  1.00  0.00     0.202 C 
ENDROOT
BRANCH   1   2
ATOM      2  O   UNL A   1      31.461  30.569  25.775  1.00  0.00    -0.374 OA
BRANCH   2   3
ATOM      3  C   UNL A   1      32.204  29.648  24.974  1.00  0.00     0.202 C 
BRANCH   3   4
ATOM      4  C   UNL A   1      31.395  28.654  24.135  1.00  0.00     0.261 C 
BRANCH   4   5
ATOM      5  O   UNL A   1      31.289  27.384  24.797  1.00  0.00    -0.460 OA
BRANCH   5   6
ATOM      6  C   UNL A   1      31.031  26.323  23.993  1.00  0.00     0.342 C 
ATOM      7  O   UNL A   1      30.999  26.322  22.772  1.00  0.00    -0.246 OA
BRANCH   6   8
ATOM      8  C   UNL A   1      31.078  25.072  24.783  1.00  0.00     0.102 A 
ATOM      9  C   UNL A   1      31.876  23.965  24.453  1.00  0.00     0.141 A 
ATOM     10  C   UNL A   1      31.815  22.798  25.252  1.00  0.00     0.025 A 
ATOM     11  C   UNL A   1      30.209  25.022  25.886  1.00  0.00     0.019 A 
ATOM     12  C   UNL A   1      30.942  22.786  26.362  1.00  0.00     0.012 A 
ATOM     13  C   UNL A   1      30.143  23.883  26.676  1.00  0.00     0.002 A 
BRANCH   9  14
ATOM     14  O   UNL A   1      32.771  24.110  23.423  1.00  0.00    -0.495 OA
ATOM     15  C   UNL A   1      34.034  24.649  23.817  1.00  0.00     0.278 C 
ENDBRANCH   9  14
BRANCH  10  16
ATOM     16  C   UNL A   1      32.571  21.570  24.961  1.00  0.00    -0.014 A 
ATOM     17  C   UNL A   1      33.765  21.322  25.656  1.00  0.00     0.009 A 
ATOM     18  C   UNL A   1      32.130  20.621  24.026  1.00  0.00     0.017 A 
ATOM     19  C   UNL A   1      34.476  20.138  25.464  1.00  0.00     0.009 A 
ATOM     20  C   UNL A   1      32.848  19.427  23.806  1.00  0.00    -0.018 A 
ATOM     21  C   UNL A   1      34.023  19.177  24.553  1.00  0.00    -0.018 A 
ATOM     22  C   UNL A   1      32.418  18.464  22.878  1.00  0.00     0.009 A 
ATOM     23  C   UNL A   1      34.712  17.968  24.382  1.00  0.00     0.009 A 
ATOM     24  C   UNL A   1      33.126  17.272  22.705  1.00  0.00     0.001 A 
ATOM     25  C   UNL A   1      34.265  17.019  23.463  1.00  0.00     0.001 A 
ENDBRANCH  10  16
ENDBRANCH   6   8
ENDBRANCH   5   6
ENDBRANCH   4   5
ENDBRANCH   3   4
ENDBRANCH   2   3
ENDBRANCH   1   2
BRANCH   1  26
ATOM     26  C   UNL A   1      31.942  32.672  27.096  1.00  0.00     0.261 C 
BRANCH  26  27
ATOM     27  O   UNL A   1      33.180  33.385  27.259  1.00  0.00    -0.460 OA
BRANCH  27  28
ATOM     28  C   UNL A   1      33.248  34.168  28.367  1.00  0.00     0.338 C 
ATOM     29  O   UNL A   1      32.432  34.991  28.740  1.00  0.00    -0.246 OA
BRANCH  28  30
ATOM     30  C   UNL A   1      34.400  33.754  29.191  1.00  0.00     0.060 A 
ATOM     31  C   UNL A   1      35.661  34.266  28.857  1.00  0.00     0.016 A 
ATOM     32  C   UNL A   1      34.258  32.841  30.236  1.00  0.00     0.016 A 
ATOM     33  C   UNL A   1      36.792  33.852  29.560  1.00  0.00     0.010 A 
ATOM     34  C   UNL A   1      35.397  32.417  30.930  1.00  0.00     0.010 A 
ATOM     35  C   UNL A   1      36.671  32.904  30.583  1.00  0.00    -0.014 A 
BRANCH  35  36
ATOM     36  C   UNL A   1      37.881  32.360  31.247  1.00  0.00     0.031 A 
ATOM     37  C   UNL A   1      38.615  31.209  30.617  1.00  0.00     0.074 A 
ATOM     38  C   UNL A   1      38.293  32.861  32.427  1.00  0.00     0.049 A 
ATOM     39  N   UNL A   1      39.629  30.525  31.078  1.00  0.00    -0.248 NA
ATOM     40  C   UNL A   1      38.142  30.767  29.294  1.00  0.00     0.031 C 
ATOM     41  C   UNL A   1      37.663  33.974  33.137  1.00  0.00     0.029 A 
ATOM     42  N   UNL A   1      39.315  32.468  33.256  1.00  0.00    -0.354 N 
ATOM     43  C   UNL A   1      39.888  29.545  30.127  1.00  0.00     0.074 A 
ATOM     44  C   UNL A   1      38.933  29.729  29.057  1.00  0.00     0.031 C 
ATOM     45  C   UNL A   1      38.281  34.142  34.318  1.00  0.00     0.029 A 
ATOM     46  C   UNL A   1      39.326  33.131  34.461  1.00  0.00     0.049 A 
ATOM     47  H   UNL A   1      39.974  31.779  33.012  1.00  0.00     0.167 HD
ATOM     48  C   UNL A   1      40.840  28.582  30.147  1.00  0.00     0.034 A 
ATOM     49  C   UNL A   1      40.065  32.919  35.569  1.00  0.00     0.034 A 
ATOM     50  C   UNL A   1      41.807  28.419  31.199  1.00  0.00     0.049 A 
ATOM     51  C   UNL A   1      41.105  31.827  35.562  1.00  0.00     0.074 A 
ATOM     52  C   UNL A   1      42.858  27.520  31.265  1.00  0.00     0.029 A 
ATOM     53  N   UNL A   1      41.831  29.150  32.375  1.00  0.00    -0.354 N 
ATOM     54  N   UNL A   1      41.435  31.003  34.597  1.00  0.00    -0.248 NA
ATOM     55  C   UNL A   1      41.897  31.654  36.791  1.00  0.00     0.031 C 
ATOM     56  C   UNL A   1      43.493  27.681  32.500  1.00  0.00     0.029 A 
ATOM     57  C   UNL A   1      42.862  28.706  33.184  1.00  0.00     0.049 A 
ATOM     58  H   UNL A   1      41.207  29.877  32.601  1.00  0.00     0.167 HD
ATOM     59  C   UNL A   1      42.491  30.243  35.089  1.00  0.00     0.074 A 
ATOM     60  C   UNL A   1      42.764  30.720  36.427  1.00  0.00     0.031 C 
ATOM     61  C   UNL A   1      43.162  29.227  34.492  1.00  0.00     0.034 A 
BRANCH  48  62
ATOM     62  C   UNL A   1      40.904  27.620  28.991  1.00  0.00     0.023 A 
ATOM     63  C   UNL A   1      39.955  26.584  28.885  1.00  0.00     0.012 A 
ATOM     64  C   UNL A   1      41.835  27.818  27.952  1.00  0.00     0.148 A 
ATOM     65  C   UNL A   1      39.940  25.751  27.767  1.00  0.00     0.002 A 
ATOM     66  C   UNL A   1      41.786  27.012  26.822  1.00  0.00     0.091 A 
ATOM     67  F   UNL A   1      42.740  28.798  28.085  1.00  0.00    -0.205 F 
ATOM     68  C   UNL A   1      40.844  25.973  26.731  1.00  0.00     0.022 A 
BRANCH  66  69
ATOM     69  S   UNL A   1      42.852  27.267  25.400  1.00  0.00     0.127 S 
ATOM     70  O   UNL A   1      42.687  26.006  24.678  1.00  0.00    -0.237 OA
ATOM     71  O   UNL A   1      42.230  28.424  24.755  1.00  0.00    -0.237 OA
ATOM     72  O   UNL A   1      44.186  27.506  25.931  1.00  0.00    -0.744 OA
ENDBRANCH  66  69
ENDBRANCH  48  62
BRANCH  49  73
ATOM     73  C   UNL A   1      39.850  33.747  36.788  1.00  0.00     0.023 A 
ATOM     74  C   UNL A   1      40.402  35.040  36.863  1.00  0.00     0.012 A 
ATOM     75  C   UNL A   1      39.119  33.249  37.885  1.00  0.00     0.148 A 
ATOM     76  C   UNL A   1      40.270  35.804  38.024  1.00  0.00     0.002 A 
ATOM     77  C   UNL A   1      38.941  34.038  39.015  1.00  0.00     0.091 A 
ATOM     78  F   UNL A   1      38.619  32.008  37.807  1.00  0.00    -0.205 F 
ATOM     79  C   UNL A   1      39.533  35.307  39.096  1.00  0.00     0.022 A 
BRANCH  77  80
ATOM     80  S   UNL A   1      37.899  33.524  40.385  1.00  0.00     0.127 S 
ATOM     81  O   UNL A   1      36.677  33.117  39.695  1.00  0.00    -0.237 OA
ATOM     82  O   UNL A   1      38.675  32.427  40.963  1.00  0.00    -0.237 OA
ATOM     83  O   UNL A   1      37.784  34.694  41.246  1.00  0.00    -0.744 OA
ENDBRANCH  77  80
ENDBRANCH  49  73
BRANCH  61  84
ATOM     84  C   UNL A   1      44.291  28.584  35.259  1.00  0.00     0.023 A 
ATOM     85  C   UNL A   1      45.608  29.060  35.103  1.00  0.00     0.012 A 
ATOM     86  C   UNL A   1      44.032  27.557  36.189  1.00  0.00     0.148 A 
ATOM     87  C   UNL A   1      46.655  28.499  35.834  1.00  0.00     0.002 A 
ATOM     88  C   UNL A   1      45.073  27.040  36.951  1.00  0.00     0.091 A 
ATOM     89  F   UNL A   1      42.775  27.108  36.314  1.00  0.00    -0.205 F 
ATOM     90  C   UNL A   1      46.386  27.498  36.765  1.00  0.00     0.022 A 
BRANCH  88  91
ATOM     91  S   UNL A   1      44.807  25.821  38.244  1.00  0.00     0.127 S 
ATOM     92  O   UNL A   1      43.861  26.514  39.117  1.00  0.00    -0.237 OA
ATOM     93  O   UNL A   1      44.239  24.697  37.499  1.00  0.00    -0.237 OA
ATOM     94  O   UNL A   1      46.116  25.559  38.827  1.00  0.00    -0.744 OA
ENDBRANCH  88  91
ENDBRANCH  61  84
ENDBRANCH  35  36
ENDBRANCH  28  30
ENDBRANCH  27  28
ENDBRANCH  26  27
ENDBRANCH   1  26
TORSDOF 19
ENDMDL
MODEL 3
REMARK VINA RESULT:     -11.5      5.228      8.844
REMARK SMILES COc1c(C(=O)OCCOCCOC(=O)c2ccc(-c3c4nc(c(-c5cccc(S(=O)(=O)[O-])c5F)c5ccc([nH]5)c(-c5cccc(S(=O)(=O)[O-])c5F)c5nc(c(-c6cccc(S(=O)(=O)[O-])c6F)c6ccc3[nH]6)C=C5)C=C4)cc2)cccc1-c1ccc2ccccc2c1
REMARK SMILES IDX 11 1 10 2 9 3 8 4 7 5 5 6 6 7 4 8 3 9 82 10 79 11 81 12
REMARK SMILES IDX 80 13 2 14 1 15 83 16 84 17 92 18 85 19 91 20 86 21 90 22
REMARK SMILES IDX 87 23 89 24 88 25 12 26 13 27 14 28 15 29 16 30 17 31 78 32
REMARK SMILES IDX 18 33 77 34 19 35 20 36 21 37 71 38 22 39 76 40 70 41 72 42
REMARK SMILES IDX 23 43 75 44 69 45 68 46 24 48 56 49 36 50 55 51 37 52 40 53
REMARK SMILES IDX 54 54 73 55 38 56 39 57 53 59 74 60 41 61 25 62 26 63 34 64
REMARK SMILES IDX 27 65 29 66 35 67 28 68 30 69 31 70 32 71 33 72 57 73 58 74
REMARK SMILES IDX 66 75 59 76 61 77 67 78 60 79 62 80 63 81 64 82 65 83 42 84
REMARK SMILES IDX 43 85 51 86 44 87 46 88 52 89 45 90 47 91 48 92 49 93 50 94
REMARK H PARENT 72 47 40 58
REMARK Flexibility Score: inf
ROOT
ATOM      1  C   UNL A   1      37.349  20.588  24.921  1.00  0.00     0.202 C 
ENDROOT
BRANCH   1   2
ATOM      2  O   UNL A   1      36.906  21.723  25.666  1.00  0.00    -0.374 OA
BRANCH   2   3
ATOM      3  C   UNL A   1      35.495  21.899  25.804  1.00  0.00     0.202 C 
BRANCH   3   4
ATOM      4  C   UNL A   1      34.699  22.139  24.518  1.00  0.00     0.261 C 
BRANCH   4   5
ATOM      5  O   UNL A   1      33.628  21.191  24.386  1.00  0.00    -0.460 OA
BRANCH   5   6
ATOM      6  C   UNL A   1      32.562  21.608  23.660  1.00  0.00     0.342 C 
ATOM      7  O   UNL A   1      32.139  21.108  22.628  1.00  0.00    -0.246 OA
BRANCH   6   8
ATOM      8  C   UNL A   1      31.776  22.590  24.441  1.00  0.00     0.102 A 
ATOM      9  C   UNL A   1      31.499  23.897  24.007  1.00  0.00     0.141 A 
ATOM     10  C   UNL A   1      30.775  24.772  24.850  1.00  0.00     0.025 A 
ATOM     11  C   UNL A   1      31.356  22.154  25.709  1.00  0.00     0.019 A 
ATOM     12  C   UNL A   1      30.354  24.299  26.113  1.00  0.00     0.012 A 
ATOM     13  C   UNL A   1      30.644  23.006  26.542  1.00  0.00     0.002 A 
BRANCH   9  14
ATOM     14  O   UNL A   1      31.854  24.230  22.724  1.00  0.00    -0.495 OA
ATOM     15  C   UNL A   1      33.147  24.827  22.613  1.00  0.00     0.278 C 
ENDBRANCH   9  14
BRANCH  10  16
ATOM     16  C   UNL A   1      30.479  26.173  24.511  1.00  0.00    -0.014 A 
ATOM     17  C   UNL A   1      31.456  27.154  24.744  1.00  0.00     0.009 A 
ATOM     18  C   UNL A   1      29.257  26.565  23.942  1.00  0.00     0.017 A 
ATOM     19  C   UNL A   1      31.245  28.481  24.372  1.00  0.00     0.009 A 
ATOM     20  C   UNL A   1      29.021  27.907  23.579  1.00  0.00    -0.018 A 
ATOM     21  C   UNL A   1      30.038  28.869  23.779  1.00  0.00    -0.018 A 
ATOM     22  C   UNL A   1      27.807  28.316  23.003  1.00  0.00     0.009 A 
ATOM     23  C   UNL A   1      29.833  30.194  23.368  1.00  0.00     0.009 A 
ATOM     24  C   UNL A   1      27.609  29.644  22.618  1.00  0.00     0.001 A 
ATOM     25  C   UNL A   1      28.624  30.580  22.790  1.00  0.00     0.001 A 
ENDBRANCH  10  16
ENDBRANCH   6   8
ENDBRANCH   5   6
ENDBRANCH   4   5
ENDBRANCH   3   4
ENDBRANCH   2   3
ENDBRANCH   1   2
BRANCH   1  26
ATOM     26  C   UNL A   1      38.714  19.993  25.296  1.00  0.00     0.261 C 
BRANCH  26  27
ATOM     27  O   UNL A   1      39.145  20.368  26.615  1.00  0.00    -0.460 OA
BRANCH  27  28
ATOM     28  C   UNL A   1      40.485  20.543  26.751  1.00  0.00     0.338 C 
ATOM     29  O   UNL A   1      41.365  19.745  26.481  1.00  0.00    -0.246 OA
BRANCH  28  30
ATOM     30  C   UNL A   1      40.763  21.945  27.118  1.00  0.00     0.060 A 
ATOM     31  C   UNL A   1      40.223  22.952  26.306  1.00  0.00     0.016 A 
ATOM     32  C   UNL A   1      41.578  22.267  28.203  1.00  0.00     0.016 A 
ATOM     33  C   UNL A   1      40.513  24.291  26.568  1.00  0.00     0.010 A 
ATOM     34  C   UNL A   1      41.878  23.610  28.454  1.00  0.00     0.010 A 
ATOM     35  C   UNL A   1      41.364  24.627  27.628  1.00  0.00    -0.014 A 
BRANCH  35  36
ATOM     36  C   UNL A   1      41.784  26.036  27.834  1.00  0.00     0.031 A 
ATOM     37  C   UNL A   1      43.185  26.449  27.477  1.00  0.00     0.074 A 
ATOM     38  C   UNL A   1      40.933  26.926  28.377  1.00  0.00     0.049 A 
ATOM     39  N   UNL A   1      43.780  27.597  27.668  1.00  0.00    -0.248 NA
ATOM     40  C   UNL A   1      44.028  25.435  26.823  1.00  0.00     0.031 C 
ATOM     41  C   UNL A   1      39.551  26.643  28.766  1.00  0.00     0.029 A 
ATOM     42  N   UNL A   1      41.122  28.238  28.736  1.00  0.00    -0.354 N 
ATOM     43  C   UNL A   1      45.078  27.433  27.200  1.00  0.00     0.074 A 
ATOM     44  C   UNL A   1      45.182  26.077  26.706  1.00  0.00     0.031 C 
ATOM     45  C   UNL A   1      39.033  27.734  29.355  1.00  0.00     0.029 A 
ATOM     46  C   UNL A   1      40.054  28.778  29.414  1.00  0.00     0.049 A 
ATOM     47  H   UNL A   1      41.942  28.741  28.530  1.00  0.00     0.167 HD
ATOM     48  C   UNL A   1      46.089  28.333  27.184  1.00  0.00     0.034 A 
ATOM     49  C   UNL A   1      39.929  29.962  30.047  1.00  0.00     0.034 A 
ATOM     50  C   UNL A   1      45.975  29.689  27.650  1.00  0.00     0.049 A 
ATOM     51  C   UNL A   1      41.080  30.936  30.023  1.00  0.00     0.074 A 
ATOM     52  C   UNL A   1      46.924  30.695  27.599  1.00  0.00     0.029 A 
ATOM     53  N   UNL A   1      44.858  30.223  28.270  1.00  0.00    -0.354 N 
ATOM     54  N   UNL A   1      42.252  30.818  29.448  1.00  0.00    -0.248 NA
ATOM     55  C   UNL A   1      40.879  32.221  30.711  1.00  0.00     0.031 C 
ATOM     56  C   UNL A   1      46.394  31.827  28.226  1.00  0.00     0.029 A 
ATOM     57  C   UNL A   1      45.102  31.537  28.631  1.00  0.00     0.049 A 
ATOM     58  H   UNL A   1      44.016  29.740  28.432  1.00  0.00     0.167 HD
ATOM     59  C   UNL A   1      42.911  32.021  29.676  1.00  0.00     0.074 A 
ATOM     60  C   UNL A   1      42.000  32.865  30.417  1.00  0.00     0.031 C 
ATOM     61  C   UNL A   1      44.167  32.388  29.319  1.00  0.00     0.034 A 
BRANCH  48  62
ATOM     62  C   UNL A   1      47.422  27.899  26.634  1.00  0.00     0.023 A 
ATOM     63  C   UNL A   1      48.410  27.398  27.503  1.00  0.00     0.012 A 
ATOM     64  C   UNL A   1      47.646  27.881  25.243  1.00  0.00     0.148 A 
ATOM     65  C   UNL A   1      49.609  26.896  26.996  1.00  0.00     0.002 A 
ATOM     66  C   UNL A   1      48.823  27.341  24.743  1.00  0.00     0.091 A 
ATOM     67  F   UNL A   1      46.697  28.381  24.439  1.00  0.00    -0.205 F 
ATOM     68  C   UNL A   1      49.809  26.854  25.618  1.00  0.00     0.022 A 
BRANCH  66  69
ATOM     69  S   UNL A   1      49.142  27.167  22.984  1.00  0.00     0.127 S 
ATOM     70  O   UNL A   1      50.588  26.954  22.967  1.00  0.00    -0.237 OA
ATOM     71  O   UNL A   1      48.348  25.987  22.645  1.00  0.00    -0.237 OA
ATOM     72  O   UNL A   1      48.691  28.407  22.367  1.00  0.00    -0.744 OA
ENDBRANCH  66  69
ENDBRANCH  48  62
BRANCH  49  73
ATOM     73  C   UNL A   1      38.670  30.301  30.770  1.00  0.00     0.023 A 
ATOM     74  C   UNL A   1      38.463  29.821  32.078  1.00  0.00     0.012 A 
ATOM     75  C   UNL A   1      37.666  31.076  30.157  1.00  0.00     0.148 A 
ATOM     76  C   UNL A   1      37.262  30.069  32.744  1.00  0.00     0.002 A 
ATOM     77  C   UNL A   1      36.497  31.370  30.850  1.00  0.00     0.091 A 
ATOM     78  F   UNL A   1      37.869  31.506  28.904  1.00  0.00    -0.205 F 
ATOM     79  C   UNL A   1      36.284  30.850  32.135  1.00  0.00     0.022 A 
BRANCH  77  80
ATOM     80  S   UNL A   1      35.245  32.473  30.186  1.00  0.00     0.127 S 
ATOM     81  O   UNL A   1      34.754  31.714  29.039  1.00  0.00    -0.237 OA
ATOM     82  O   UNL A   1      34.307  32.576  31.304  1.00  0.00    -0.237 OA
ATOM     83  O   UNL A   1      35.944  33.713  29.877  1.00  0.00    -0.744 OA
ENDBRANCH  77  80
ENDBRANCH  49  73
BRANCH  61  84
ATOM     84  C   UNL A   1      44.624  33.779  29.683  1.00  0.00     0.023 A 
ATOM     85  C   UNL A   1      45.346  33.992  30.874  1.00  0.00     0.012 A 
ATOM     86  C   UNL A   1      44.399  34.859  28.807  1.00  0.00     0.148 A 
ATOM     87  C   UNL A   1      45.806  35.266  31.204  1.00  0.00     0.002 A 
ATOM     88  C   UNL A   1      44.906  36.115  29.118  1.00  0.00     0.091 A 
ATOM     89  F   UNL A   1      43.697  34.640  27.686  1.00  0.00    -0.205 F 
ATOM     90  C   UNL A   1      45.597  36.324  30.323  1.00  0.00     0.022 A 
BRANCH  88  91
ATOM     91  S   UNL A   1      44.772  37.514  27.998  1.00  0.00     0.127 S 
ATOM     92  O   UNL A   1      45.686  38.476  28.613  1.00  0.00    -0.237 OA
ATOM     93  O   UNL A   1      45.244  36.946  26.735  1.00  0.00    -0.237 OA
ATOM     94  O   UNL A   1      43.367  37.899  28.001  1.00  0.00    -0.744 OA
ENDBRANCH  88  91
ENDBRANCH  61  84
ENDBRANCH  35  36
ENDBRANCH  28  30
ENDBRANCH  27  28
ENDBRANCH  26  27
ENDBRANCH   1  26
TORSDOF 19
ENDMDL
