MODEL 1
REMARK VINA RESULT:     -11.2      0.000      0.000
REMARK SMILES C[C@@H](C(=O)OCCOCCOC(=O)c1ccc(-c2c3nc(c(-c4cccc(S(=O)(=O)[O-])c4F)c4ccc([nH]4)c(-c4cccc(S(=O)(=O)[O-])c4F)c4nc(c(-c5cccc(S(=O)(=O)[O-])c5F)c5ccc2[nH]5)C=C4)C=C3)cc1)c1ccc(-c2cccc(OC(=O)NC3CC3)c2)c(F)c1
REMARK SMILES IDX 7 1 6 2 5 3 3 4 4 5 2 6 1 7 77 8 78 9 96 10 79 11 94 12
REMARK SMILES IDX 80 13 95 14 81 15 82 16 93 17 83 18 85 19 84 20 86 21 87 22
REMARK SMILES IDX 88 23 89 24 90 26 91 27 92 28 8 29 9 30 10 31 11 32 12 33
REMARK SMILES IDX 13 34 14 35 15 36 76 37 16 38 75 39 17 40 18 41 19 42 69 43
REMARK SMILES IDX 20 44 74 45 68 46 70 47 21 48 73 49 67 50 66 51 22 53 54 54
REMARK SMILES IDX 34 55 53 56 35 57 38 58 52 59 71 60 36 61 37 62 51 64 72 65
REMARK SMILES IDX 39 66 23 67 24 68 32 69 25 70 27 71 33 72 26 73 28 74 29 75
REMARK SMILES IDX 30 76 31 77 55 78 56 79 64 80 57 81 59 82 65 83 58 84 60 85
REMARK SMILES IDX 61 86 62 87 63 88 40 89 41 90 49 91 42 92 44 93 50 94 43 95
REMARK SMILES IDX 45 96 46 97 47 98 48 99
REMARK H PARENT 89 25 70 52 38 63
REMARK Flexibility Score: inf
ROOT
ATOM      1  C   UNL A   1      37.054  21.820  24.284  1.00  0.00     0.202 C 
ENDROOT
BRANCH   1   2
ATOM      2  C   UNL A   1      35.532  22.000  24.331  1.00  0.00     0.261 C 
BRANCH   2   3
ATOM      3  O   UNL A   1      34.907  20.998  25.161  1.00  0.00    -0.463 OA
BRANCH   3   4
ATOM      4  C   UNL A   1      34.272  21.451  26.277  1.00  0.00     0.313 C 
ATOM      5  O   UNL A   1      34.846  21.742  27.322  1.00  0.00    -0.252 OA
BRANCH   4   6
ATOM      6  C   UNL A   1      32.752  21.584  26.085  1.00  0.00     0.126 C 
ATOM      7  C   UNL A   1      32.158  20.811  24.906  1.00  0.00     0.025 C 
BRANCH   6   8
ATOM      8  C   UNL A   1      32.350  23.057  26.021  1.00  0.00    -0.031 A 
ATOM      9  C   UNL A   1      31.012  23.451  25.870  1.00  0.00     0.005 A 
ATOM     10  C   UNL A   1      33.330  24.052  26.012  1.00  0.00     0.044 A 
ATOM     11  C   UNL A   1      30.666  24.777  25.604  1.00  0.00     0.012 A 
ATOM     12  C   UNL A   1      32.976  25.381  25.775  1.00  0.00     0.131 A 
ATOM     13  C   UNL A   1      31.651  25.765  25.517  1.00  0.00     0.018 A 
ATOM     14  F   UNL A   1      33.958  26.295  25.757  1.00  0.00    -0.206 F 
BRANCH  13  15
ATOM     15  C   UNL A   1      31.309  27.116  25.050  1.00  0.00    -0.012 A 
ATOM     16  C   UNL A   1      31.833  28.276  25.643  1.00  0.00     0.009 A 
ATOM     17  C   UNL A   1      30.366  27.263  24.017  1.00  0.00     0.056 A 
ATOM     18  C   UNL A   1      31.437  29.544  25.206  1.00  0.00     0.004 A 
ATOM     19  C   UNL A   1      29.973  28.523  23.583  1.00  0.00     0.133 A 
ATOM     20  C   UNL A   1      30.508  29.667  24.174  1.00  0.00     0.047 A 
BRANCH  19  21
ATOM     21  O   UNL A   1      29.040  28.746  22.543  1.00  0.00    -0.410 OA
BRANCH  21  22
ATOM     22  C   UNL A   1      27.715  29.146  22.698  1.00  0.00     0.412 C 
ATOM     23  O   UNL A   1      26.844  28.559  23.334  1.00  0.00    -0.224 OA
ATOM     24  N   UNL A   1      27.400  30.306  22.043  1.00  0.00    -0.318 N 
ATOM     25  H   UNL A   1      26.456  30.578  22.109  1.00  0.00     0.167 HD
BRANCH  24  26
ATOM     26  C   UNL A   1      28.227  31.179  21.284  1.00  0.00     0.085 C 
ATOM     27  C   UNL A   1      27.876  32.550  20.782  1.00  0.00     0.027 C 
ATOM     28  C   UNL A   1      28.784  32.405  21.964  1.00  0.00     0.027 C 
ENDBRANCH  24  26
ENDBRANCH  21  22
ENDBRANCH  19  21
ENDBRANCH  13  15
ENDBRANCH   6   8
ENDBRANCH   4   6
ENDBRANCH   3   4
ENDBRANCH   2   3
ENDBRANCH   1   2
BRANCH   1  29
ATOM     29  O   UNL A   1      37.672  21.065  25.330  1.00  0.00    -0.374 OA
BRANCH  29  30
ATOM     30  C   UNL A   1      38.948  21.504  25.776  1.00  0.00     0.202 C 
BRANCH  30  31
ATOM     31  C   UNL A   1      39.867  20.495  26.475  1.00  0.00     0.261 C 
BRANCH  31  32
ATOM     32  O   UNL A   1      40.604  19.685  25.552  1.00  0.00    -0.460 OA
BRANCH  32  33
ATOM     33  C   UNL A   1      41.888  19.464  25.930  1.00  0.00     0.338 C 
ATOM     34  O   UNL A   1      42.472  18.394  25.964  1.00  0.00    -0.246 OA
BRANCH  33  35
ATOM     35  C   UNL A   1      42.579  20.749  26.121  1.00  0.00     0.060 A 
ATOM     36  C   UNL A   1      42.892  21.109  27.439  1.00  0.00     0.016 A 
ATOM     37  C   UNL A   1      42.859  21.607  25.057  1.00  0.00     0.016 A 
ATOM     38  C   UNL A   1      43.436  22.360  27.705  1.00  0.00     0.010 A 
ATOM     39  C   UNL A   1      43.396  22.868  25.329  1.00  0.00     0.010 A 
ATOM     40  C   UNL A   1      43.645  23.262  26.657  1.00  0.00    -0.014 A 
BRANCH  40  41
ATOM     41  C   UNL A   1      43.974  24.670  26.977  1.00  0.00     0.031 A 
ATOM     42  C   UNL A   1      45.391  25.142  26.803  1.00  0.00     0.074 A 
ATOM     43  C   UNL A   1      43.015  25.520  27.386  1.00  0.00     0.049 A 
ATOM     44  N   UNL A   1      45.902  26.322  27.029  1.00  0.00    -0.248 NA
ATOM     45  C   UNL A   1      46.361  24.151  26.306  1.00  0.00     0.031 C 
ATOM     46  C   UNL A   1      41.606  25.176  27.569  1.00  0.00     0.029 A 
ATOM     47  N   UNL A   1      43.091  26.843  27.737  1.00  0.00    -0.354 N 
ATOM     48  C   UNL A   1      47.257  26.208  26.742  1.00  0.00     0.074 A 
ATOM     49  C   UNL A   1      47.491  24.842  26.331  1.00  0.00     0.031 C 
ATOM     50  C   UNL A   1      40.950  26.259  28.022  1.00  0.00     0.029 A 
ATOM     51  C   UNL A   1      41.899  27.358  28.190  1.00  0.00     0.049 A 
ATOM     52  H   UNL A   1      43.917  27.372  27.671  1.00  0.00     0.167 HD
ATOM     53  C   UNL A   1      48.217  27.160  26.806  1.00  0.00     0.034 A 
ATOM     54  C   UNL A   1      41.617  28.570  28.705  1.00  0.00     0.034 A 
ATOM     55  C   UNL A   1      47.972  28.522  27.197  1.00  0.00     0.049 A 
ATOM     56  C   UNL A   1      42.712  29.600  28.796  1.00  0.00     0.074 A 
ATOM     57  C   UNL A   1      48.866  29.577  27.244  1.00  0.00     0.029 A 
ATOM     58  N   UNL A   1      46.750  29.014  27.628  1.00  0.00    -0.354 N 
ATOM     59  N   UNL A   1      43.964  29.511  28.418  1.00  0.00    -0.248 NA
ATOM     60  C   UNL A   1      42.347  30.909  29.356  1.00  0.00     0.031 C 
ATOM     61  C   UNL A   1      48.195  30.695  27.747  1.00  0.00     0.029 A 
ATOM     62  C   UNL A   1      46.871  30.352  27.965  1.00  0.00     0.049 A 
ATOM     63  H   UNL A   1      45.919  28.490  27.686  1.00  0.00     0.167 HD
ATOM     64  C   UNL A   1      44.525  30.761  28.655  1.00  0.00     0.074 A 
ATOM     65  C   UNL A   1      43.470  31.595  29.194  1.00  0.00     0.031 C 
ATOM     66  C   UNL A   1      45.799  31.181  28.454  1.00  0.00     0.034 A 
BRANCH  53  67
ATOM     67  C   UNL A   1      49.625  26.765  26.444  1.00  0.00     0.023 A 
ATOM     68  C   UNL A   1      50.366  25.924  27.300  1.00  0.00     0.012 A 
ATOM     69  C   UNL A   1      50.193  27.182  25.224  1.00  0.00     0.148 A 
ATOM     70  C   UNL A   1      51.661  25.531  26.961  1.00  0.00     0.002 A 
ATOM     71  C   UNL A   1      51.464  26.747  24.871  1.00  0.00     0.091 A 
ATOM     72  F   UNL A   1      49.481  28.000  24.435  1.00  0.00    -0.205 F 
ATOM     73  C   UNL A   1      52.204  25.932  25.743  1.00  0.00     0.022 A 
BRANCH  71  74
ATOM     74  S   UNL A   1      52.218  27.141  23.289  1.00  0.00     0.127 S 
ATOM     75  O   UNL A   1      53.528  26.502  23.421  1.00  0.00    -0.237 OA
ATOM     76  O   UNL A   1      51.312  26.485  22.347  1.00  0.00    -0.237 OA
ATOM     77  O   UNL A   1      52.240  28.594  23.204  1.00  0.00    -0.744 OA
ENDBRANCH  71  74
ENDBRANCH  53  67
BRANCH  54  78
ATOM     78  C   UNL A   1      40.232  28.885  29.156  1.00  0.00     0.023 A 
ATOM     79  C   UNL A   1      39.261  29.271  28.213  1.00  0.00     0.012 A 
ATOM     80  C   UNL A   1      39.873  28.800  30.515  1.00  0.00     0.148 A 
ATOM     81  C   UNL A   1      37.967  29.600  28.619  1.00  0.00     0.002 A 
ATOM     82  C   UNL A   1      38.569  29.073  30.906  1.00  0.00     0.091 A 
ATOM     83  F   UNL A   1      40.816  28.445  31.400  1.00  0.00    -0.205 F 
ATOM     84  C   UNL A   1      37.618  29.493  29.962  1.00  0.00     0.022 A 
BRANCH  82  85
ATOM     85  S   UNL A   1      37.998  28.840  32.593  1.00  0.00     0.127 S 
ATOM     86  O   UNL A   1      38.158  27.399  32.767  1.00  0.00    -0.237 OA
ATOM     87  O   UNL A   1      38.944  29.664  33.346  1.00  0.00    -0.237 OA
ATOM     88  O   UNL A   1      36.626  29.330  32.615  1.00  0.00    -0.744 OA
ENDBRANCH  82  85
ENDBRANCH  54  78
BRANCH  66  89
ATOM     89  C   UNL A   1      46.120  32.620  28.766  1.00  0.00     0.023 A 
ATOM     90  C   UNL A   1      46.612  32.977  30.037  1.00  0.00     0.012 A 
ATOM     91  C   UNL A   1      46.003  33.608  27.768  1.00  0.00     0.148 A 
ATOM     92  C   UNL A   1      46.943  34.302  30.321  1.00  0.00     0.002 A 
ATOM     93  C   UNL A   1      46.388  34.915  28.041  1.00  0.00     0.091 A 
ATOM     94  F   UNL A   1      45.520  33.251  26.569  1.00  0.00    -0.205 F 
ATOM     95  C   UNL A   1      46.844  35.267  29.322  1.00  0.00     0.022 A 
BRANCH  93  96
ATOM     96  S   UNL A   1      46.391  36.202  26.788  1.00  0.00     0.127 S 
ATOM     97  O   UNL A   1      45.026  36.716  26.887  1.00  0.00    -0.237 OA
ATOM     98  O   UNL A   1      47.424  37.112  27.283  1.00  0.00    -0.237 OA
ATOM     99  O   UNL A   1      46.718  35.541  25.531  1.00  0.00    -0.744 OA
ENDBRANCH  93  96
ENDBRANCH  66  89
ENDBRANCH  40  41
ENDBRANCH  33  35
ENDBRANCH  32  33
ENDBRANCH  31  32
ENDBRANCH  30  31
ENDBRANCH  29  30
ENDBRANCH   1  29
TORSDOF 22
ENDMDL
MODEL 2
REMARK VINA RESULT:     -11.2      1.522      2.308
REMARK SMILES C[C@@H](C(=O)OCCOCCOC(=O)c1ccc(-c2c3nc(c(-c4cccc(S(=O)(=O)[O-])c4F)c4ccc([nH]4)c(-c4cccc(S(=O)(=O)[O-])c4F)c4nc(c(-c5cccc(S(=O)(=O)[O-])c5F)c5ccc2[nH]5)C=C4)C=C3)cc1)c1ccc(-c2cccc(OC(=O)NC3CC3)c2)c(F)c1
REMARK SMILES IDX 7 1 6 2 5 3 3 4 4 5 2 6 1 7 77 8 78 9 96 10 79 11 94 12
REMARK SMILES IDX 80 13 95 14 81 15 82 16 93 17 83 18 85 19 84 20 86 21 87 22
REMARK SMILES IDX 88 23 89 24 90 26 91 27 92 28 8 29 9 30 10 31 11 32 12 33
REMARK SMILES IDX 13 34 14 35 15 36 76 37 16 38 75 39 17 40 18 41 19 42 69 43
REMARK SMILES IDX 20 44 74 45 68 46 70 47 21 48 73 49 67 50 66 51 22 53 54 54
REMARK SMILES IDX 34 55 53 56 35 57 38 58 52 59 71 60 36 61 37 62 51 64 72 65
REMARK SMILES IDX 39 66 23 67 24 68 32 69 25 70 27 71 33 72 26 73 28 74 29 75
REMARK SMILES IDX 30 76 31 77 55 78 56 79 64 80 57 81 59 82 65 83 58 84 60 85
REMARK SMILES IDX 61 86 62 87 63 88 40 89 41 90 49 91 42 92 44 93 50 94 43 95
REMARK SMILES IDX 45 96 46 97 47 98 48 99
REMARK H PARENT 89 25 70 52 38 63
REMARK Flexibility Score: inf
ROOT
ATOM      1  C   UNL A   1      36.906  23.120  25.706  1.00  0.00     0.202 C 
ENDROOT
BRANCH   1   2
ATOM      2  C   UNL A   1      35.959  22.983  24.509  1.00  0.00     0.261 C 
BRANCH   2   3
ATOM      3  O   UNL A   1      34.633  22.593  24.927  1.00  0.00    -0.463 OA
BRANCH   3   4
ATOM      4  C   UNL A   1      34.354  21.262  24.879  1.00  0.00     0.313 C 
ATOM      5  O   UNL A   1      35.203  20.379  24.959  1.00  0.00    -0.252 OA
BRANCH   4   6
ATOM      6  C   UNL A   1      32.850  20.973  24.736  1.00  0.00     0.126 C 
ATOM      7  C   UNL A   1      32.467  19.937  23.677  1.00  0.00     0.025 C 
BRANCH   6   8
ATOM      8  C   UNL A   1      32.076  22.272  24.523  1.00  0.00    -0.031 A 
ATOM      9  C   UNL A   1      31.992  22.884  23.263  1.00  0.00     0.005 A 
ATOM     10  C   UNL A   1      31.510  22.939  25.612  1.00  0.00     0.044 A 
ATOM     11  C   UNL A   1      31.467  24.168  23.106  1.00  0.00     0.012 A 
ATOM     12  C   UNL A   1      30.959  24.211  25.446  1.00  0.00     0.131 A 
ATOM     13  C   UNL A   1      30.969  24.872  24.207  1.00  0.00     0.018 A 
ATOM     14  F   UNL A   1      30.447  24.816  26.528  1.00  0.00    -0.206 F 
BRANCH  13  15
ATOM     15  C   UNL A   1      30.596  26.287  24.077  1.00  0.00    -0.012 A 
ATOM     16  C   UNL A   1      29.412  26.701  23.444  1.00  0.00     0.009 A 
ATOM     17  C   UNL A   1      31.485  27.274  24.537  1.00  0.00     0.056 A 
ATOM     18  C   UNL A   1      29.121  28.060  23.289  1.00  0.00     0.004 A 
ATOM     19  C   UNL A   1      31.196  28.624  24.384  1.00  0.00     0.133 A 
ATOM     20  C   UNL A   1      30.014  29.022  23.761  1.00  0.00     0.047 A 
BRANCH  19  21
ATOM     21  O   UNL A   1      32.038  29.669  24.832  1.00  0.00    -0.410 OA
BRANCH  21  22
ATOM     22  C   UNL A   1      31.789  30.522  25.904  1.00  0.00     0.412 C 
ATOM     23  O   UNL A   1      31.060  31.510  25.899  1.00  0.00    -0.224 OA
ATOM     24  N   UNL A   1      32.462  30.193  27.050  1.00  0.00    -0.318 N 
ATOM     25  H   UNL A   1      32.329  30.812  27.804  1.00  0.00     0.167 HD
BRANCH  24  26
ATOM     26  C   UNL A   1      33.322  29.092  27.319  1.00  0.00     0.085 C 
ATOM     27  C   UNL A   1      34.433  28.578  26.450  1.00  0.00     0.027 C 
ATOM     28  C   UNL A   1      34.760  29.380  27.671  1.00  0.00     0.027 C 
ENDBRANCH  24  26
ENDBRANCH  21  22
ENDBRANCH  19  21
ENDBRANCH  13  15
ENDBRANCH   6   8
ENDBRANCH   4   6
ENDBRANCH   3   4
ENDBRANCH   2   3
ENDBRANCH   1   2
BRANCH   1  29
ATOM     29  O   UNL A   1      38.304  22.915  25.481  1.00  0.00    -0.374 OA
BRANCH  29  30
ATOM     30  C   UNL A   1      38.969  21.999  26.342  1.00  0.00     0.202 C 
BRANCH  30  31
ATOM     31  C   UNL A   1      39.408  20.645  25.772  1.00  0.00     0.261 C 
BRANCH  31  32
ATOM     32  O   UNL A   1      40.289  19.934  26.649  1.00  0.00    -0.460 OA
BRANCH  32  33
ATOM     33  C   UNL A   1      41.548  19.800  26.162  1.00  0.00     0.338 C 
ATOM     34  O   UNL A   1      41.990  18.872  25.506  1.00  0.00    -0.246 OA
BRANCH  33  35
ATOM     35  C   UNL A   1      42.295  21.051  26.367  1.00  0.00     0.060 A 
ATOM     36  C   UNL A   1      42.525  21.441  27.694  1.00  0.00     0.016 A 
ATOM     37  C   UNL A   1      42.708  21.853  25.302  1.00  0.00     0.016 A 
ATOM     38  C   UNL A   1      43.118  22.668  27.963  1.00  0.00     0.010 A 
ATOM     39  C   UNL A   1      43.295  23.091  25.577  1.00  0.00     0.010 A 
ATOM     40  C   UNL A   1      43.462  23.519  26.907  1.00  0.00    -0.014 A 
BRANCH  40  41
ATOM     41  C   UNL A   1      43.846  24.917  27.209  1.00  0.00     0.031 A 
ATOM     42  C   UNL A   1      45.274  25.337  27.003  1.00  0.00     0.074 A 
ATOM     43  C   UNL A   1      42.926  25.803  27.629  1.00  0.00     0.049 A 
ATOM     44  N   UNL A   1      45.831  26.500  27.208  1.00  0.00    -0.248 NA
ATOM     45  C   UNL A   1      46.200  24.308  26.496  1.00  0.00     0.031 C 
ATOM     46  C   UNL A   1      41.510  25.511  27.842  1.00  0.00     0.029 A 
ATOM     47  N   UNL A   1      43.055  27.126  27.966  1.00  0.00    -0.354 N 
ATOM     48  C   UNL A   1      47.176  26.336  26.895  1.00  0.00     0.074 A 
ATOM     49  C   UNL A   1      47.353  24.960  26.492  1.00  0.00     0.031 C 
ATOM     50  C   UNL A   1      40.901  26.620  28.298  1.00  0.00     0.029 A 
ATOM     51  C   UNL A   1      41.891  27.686  28.437  1.00  0.00     0.049 A 
ATOM     52  H   UNL A   1      43.898  27.625  27.879  1.00  0.00     0.167 HD
ATOM     53  C   UNL A   1      48.169  27.254  26.932  1.00  0.00     0.034 A 
ATOM     54  C   UNL A   1      41.662  28.912  28.947  1.00  0.00     0.034 A 
ATOM     55  C   UNL A   1      47.980  28.627  27.315  1.00  0.00     0.049 A 
ATOM     56  C   UNL A   1      42.794  29.903  29.007  1.00  0.00     0.074 A 
ATOM     57  C   UNL A   1      48.912  29.650  27.336  1.00  0.00     0.029 A 
ATOM     58  N   UNL A   1      46.785  29.165  27.766  1.00  0.00    -0.354 N 
ATOM     59  N   UNL A   1      44.034  29.767  28.606  1.00  0.00    -0.248 NA
ATOM     60  C   UNL A   1      42.486  31.229  29.563  1.00  0.00     0.031 C 
ATOM     61  C   UNL A   1      48.290  30.795  27.841  1.00  0.00     0.029 A 
ATOM     62  C   UNL A   1      46.959  30.501  28.088  1.00  0.00     0.049 A 
ATOM     63  H   UNL A   1      45.938  28.671  27.845  1.00  0.00     0.167 HD
ATOM     64  C   UNL A   1      44.644  30.998  28.821  1.00  0.00     0.074 A 
ATOM     65  C   UNL A   1      43.630  31.873  29.372  1.00  0.00     0.031 C 
ATOM     66  C   UNL A   1      45.927  31.371  28.591  1.00  0.00     0.034 A 
BRANCH  53  67
ATOM     67  C   UNL A   1      49.556  26.806  26.546  1.00  0.00     0.023 A 
ATOM     68  C   UNL A   1      50.281  25.944  27.392  1.00  0.00     0.012 A 
ATOM     69  C   UNL A   1      50.114  27.197  25.313  1.00  0.00     0.148 A 
ATOM     70  C   UNL A   1      51.555  25.503  27.032  1.00  0.00     0.002 A 
ATOM     71  C   UNL A   1      51.362  26.714  24.939  1.00  0.00     0.091 A 
ATOM     72  F   UNL A   1      49.418  28.036  24.533  1.00  0.00    -0.205 F 
ATOM     73  C   UNL A   1      52.089  25.877  25.802  1.00  0.00     0.022 A 
BRANCH  71  74
ATOM     74  S   UNL A   1      52.100  27.073  23.341  1.00  0.00     0.127 S 
ATOM     75  O   UNL A   1      52.308  28.519  23.431  1.00  0.00    -0.237 OA
ATOM     76  O   UNL A   1      53.327  26.278  23.386  1.00  0.00    -0.237 OA
ATOM     77  O   UNL A   1      51.131  26.645  22.344  1.00  0.00    -0.744 OA
ENDBRANCH  71  74
ENDBRANCH  53  67
BRANCH  54  78
ATOM     78  C   UNL A   1      40.299  29.279  29.423  1.00  0.00     0.023 A 
ATOM     79  C   UNL A   1      39.385  29.874  28.532  1.00  0.00     0.012 A 
ATOM     80  C   UNL A   1      39.902  29.037  30.752  1.00  0.00     0.148 A 
ATOM     81  C   UNL A   1      38.114  30.254  28.965  1.00  0.00     0.002 A 
ATOM     82  C   UNL A   1      38.617  29.365  31.163  1.00  0.00     0.091 A 
ATOM     83  F   UNL A   1      40.792  28.483  31.589  1.00  0.00    -0.205 F 
ATOM     84  C   UNL A   1      37.727  29.992  30.277  1.00  0.00     0.022 A 
BRANCH  82  85
ATOM     85  S   UNL A   1      37.989  28.950  32.794  1.00  0.00     0.127 S 
ATOM     86  O   UNL A   1      36.616  29.441  32.720  1.00  0.00    -0.237 OA
ATOM     87  O   UNL A   1      38.126  27.494  32.806  1.00  0.00    -0.237 OA
ATOM     88  O   UNL A   1      38.857  29.642  33.738  1.00  0.00    -0.744 OA
ENDBRANCH  82  85
ENDBRANCH  54  78
BRANCH  66  89
ATOM     89  C   UNL A   1      46.305  32.801  28.883  1.00  0.00     0.023 A 
ATOM     90  C   UNL A   1      46.860  33.146  30.131  1.00  0.00     0.012 A 
ATOM     91  C   UNL A   1      46.176  33.789  27.887  1.00  0.00     0.148 A 
ATOM     92  C   UNL A   1      47.243  34.461  30.396  1.00  0.00     0.002 A 
ATOM     93  C   UNL A   1      46.612  35.084  28.139  1.00  0.00     0.091 A 
ATOM     94  F   UNL A   1      45.633  33.444  26.711  1.00  0.00    -0.205 F 
ATOM     95  C   UNL A   1      47.131  35.425  29.398  1.00  0.00     0.022 A 
BRANCH  93  96
ATOM     96  S   UNL A   1      46.601  36.367  26.882  1.00  0.00     0.127 S 
ATOM     97  O   UNL A   1      45.178  36.690  26.798  1.00  0.00    -0.237 OA
ATOM     98  O   UNL A   1      47.428  37.407  27.495  1.00  0.00    -0.237 OA
ATOM     99  O   UNL A   1      47.174  35.765  25.685  1.00  0.00    -0.744 OA
ENDBRANCH  93  96
ENDBRANCH  66  89
ENDBRANCH  40  41
ENDBRANCH  33  35
ENDBRANCH  32  33
ENDBRANCH  31  32
ENDBRANCH  30  31
ENDBRANCH  29  30
ENDBRANCH   1  29
TORSDOF 22
ENDMDL
MODEL 3
REMARK VINA RESULT:     -10.9      1.639      7.511
REMARK SMILES C[C@@H](C(=O)OCCOCCOC(=O)c1ccc(-c2c3nc(c(-c4cccc(S(=O)(=O)[O-])c4F)c4ccc([nH]4)c(-c4cccc(S(=O)(=O)[O-])c4F)c4nc(c(-c5cccc(S(=O)(=O)[O-])c5F)c5ccc2[nH]5)C=C4)C=C3)cc1)c1ccc(-c2cccc(OC(=O)NC3CC3)c2)c(F)c1
REMARK SMILES IDX 7 1 6 2 5 3 3 4 4 5 2 6 1 7 77 8 78 9 96 10 79 11 94 12
REMARK SMILES IDX 80 13 95 14 81 15 82 16 93 17 83 18 85 19 84 20 86 21 87 22
REMARK SMILES IDX 88 23 89 24 90 26 91 27 92 28 8 29 9 30 10 31 11 32 12 33
REMARK SMILES IDX 13 34 14 35 15 36 76 37 16 38 75 39 17 40 18 41 19 42 69 43
REMARK SMILES IDX 20 44 74 45 68 46 70 47 21 48 73 49 67 50 66 51 22 53 54 54
REMARK SMILES IDX 34 55 53 56 35 57 38 58 52 59 71 60 36 61 37 62 51 64 72 65
REMARK SMILES IDX 39 66 23 67 24 68 32 69 25 70 27 71 33 72 26 73 28 74 29 75
REMARK SMILES IDX 30 76 31 77 55 78 56 79 64 80 57 81 59 82 65 83 58 84 60 85
REMARK SMILES IDX 61 86 62 87 63 88 40 89 41 90 49 91 42 92 44 93 50 94 43 95
REMARK SMILES IDX 45 96 46 97 47 98 48 99
REMARK H PARENT 89 25 70 52 38 63
REMARK Flexibility Score: inf
ROOT
ATOM      1  C   UNL A   1      36.777  21.692  24.380  1.00  0.00     0.202 C 
ENDROOT
BRANCH   1   2
ATOM      2  C   UNL A   1      35.253  21.522  24.386  1.00  0.00     0.261 C 
BRANCH   2   3
ATOM      3  O   UNL A   1      34.810  20.777  25.540  1.00  0.00    -0.463 OA
BRANCH   3   4
ATOM      4  C   UNL A   1      34.153  21.488  26.499  1.00  0.00     0.313 C 
ATOM      5  O   UNL A   1      34.674  21.884  27.537  1.00  0.00    -0.252 OA
BRANCH   4   6
ATOM      6  C   UNL A   1      32.684  21.766  26.134  1.00  0.00     0.126 C 
ATOM      7  C   UNL A   1      32.145  21.012  24.916  1.00  0.00     0.025 C 
BRANCH   6   8
ATOM      8  C   UNL A   1      32.448  23.268  25.985  1.00  0.00    -0.031 A 
ATOM      9  C   UNL A   1      31.325  23.897  26.545  1.00  0.00     0.005 A 
ATOM     10  C   UNL A   1      33.304  24.039  25.196  1.00  0.00     0.044 A 
ATOM     11  C   UNL A   1      30.999  25.219  26.239  1.00  0.00     0.012 A 
ATOM     12  C   UNL A   1      32.989  25.369  24.916  1.00  0.00     0.131 A 
ATOM     13  C   UNL A   1      31.812  25.973  25.386  1.00  0.00     0.018 A 
ATOM     14  F   UNL A   1      33.835  26.060  24.136  1.00  0.00    -0.206 F 
BRANCH  13  15
ATOM     15  C   UNL A   1      31.371  27.292  24.914  1.00  0.00    -0.012 A 
ATOM     16  C   UNL A   1      31.866  28.492  25.451  1.00  0.00     0.009 A 
ATOM     17  C   UNL A   1      30.363  27.366  23.936  1.00  0.00     0.056 A 
ATOM     18  C   UNL A   1      31.378  29.727  25.013  1.00  0.00     0.004 A 
ATOM     19  C   UNL A   1      29.878  28.593  23.501  1.00  0.00     0.133 A 
ATOM     20  C   UNL A   1      30.384  29.777  24.036  1.00  0.00     0.047 A 
BRANCH  19  21
ATOM     21  O   UNL A   1      28.874  28.742  22.514  1.00  0.00    -0.410 OA
BRANCH  21  22
ATOM     22  C   UNL A   1      27.582  29.218  22.722  1.00  0.00     0.412 C 
ATOM     23  O   UNL A   1      26.689  28.660  23.352  1.00  0.00    -0.224 OA
ATOM     24  N   UNL A   1      27.329  30.425  22.126  1.00  0.00    -0.318 N 
ATOM     25  H   UNL A   1      26.406  30.754  22.228  1.00  0.00     0.167 HD
BRANCH  24  26
ATOM     26  C   UNL A   1      28.194  31.278  21.386  1.00  0.00     0.085 C 
ATOM     27  C   UNL A   1      27.846  32.597  20.760  1.00  0.00     0.027 C 
ATOM     28  C   UNL A   1      28.644  32.567  22.026  1.00  0.00     0.027 C 
ENDBRANCH  24  26
ENDBRANCH  21  22
ENDBRANCH  19  21
ENDBRANCH  13  15
ENDBRANCH   6   8
ENDBRANCH   4   6
ENDBRANCH   3   4
ENDBRANCH   2   3
ENDBRANCH   1   2
BRANCH   1  29
ATOM     29  O   UNL A   1      37.500  21.297  25.550  1.00  0.00    -0.374 OA
BRANCH  29  30
ATOM     30  C   UNL A   1      38.751  21.931  25.780  1.00  0.00     0.202 C 
BRANCH  30  31
ATOM     31  C   UNL A   1      39.804  21.192  26.614  1.00  0.00     0.261 C 
BRANCH  31  32
ATOM     32  O   UNL A   1      40.492  20.181  25.868  1.00  0.00    -0.460 OA
BRANCH  32  33
ATOM     33  C   UNL A   1      41.729  19.899  26.349  1.00  0.00     0.338 C 
ATOM     34  O   UNL A   1      42.224  18.796  26.507  1.00  0.00    -0.246 OA
BRANCH  33  35
ATOM     35  C   UNL A   1      42.505  21.142  26.485  1.00  0.00     0.060 A 
ATOM     36  C   UNL A   1      42.848  21.535  27.786  1.00  0.00     0.016 A 
ATOM     37  C   UNL A   1      42.837  21.934  25.385  1.00  0.00     0.016 A 
ATOM     38  C   UNL A   1      43.476  22.756  27.998  1.00  0.00     0.010 A 
ATOM     39  C   UNL A   1      43.458  23.167  25.604  1.00  0.00     0.010 A 
ATOM     40  C   UNL A   1      43.739  23.598  26.913  1.00  0.00    -0.014 A 
BRANCH  40  41
ATOM     41  C   UNL A   1      44.163  24.993  27.174  1.00  0.00     0.031 A 
ATOM     42  C   UNL A   1      43.159  25.965  27.728  1.00  0.00     0.074 A 
ATOM     43  C   UNL A   1      45.433  25.374  26.950  1.00  0.00     0.049 A 
ATOM     44  N   UNL A   1      43.308  27.228  28.024  1.00  0.00    -0.248 NA
ATOM     45  C   UNL A   1      41.806  25.443  27.985  1.00  0.00     0.031 C 
ATOM     46  C   UNL A   1      46.494  24.511  26.435  1.00  0.00     0.029 A 
ATOM     47  N   UNL A   1      46.036  26.595  27.113  1.00  0.00    -0.354 N 
ATOM     48  C   UNL A   1      42.063  27.663  28.463  1.00  0.00     0.074 A 
ATOM     49  C   UNL A   1      41.168  26.531  28.390  1.00  0.00     0.031 C 
ATOM     50  C   UNL A   1      47.618  25.237  26.301  1.00  0.00     0.029 A 
ATOM     51  C   UNL A   1      47.345  26.619  26.691  1.00  0.00     0.049 A 
ATOM     52  H   UNL A   1      45.578  27.377  27.494  1.00  0.00     0.167 HD
ATOM     53  C   UNL A   1      41.703  28.894  28.897  1.00  0.00     0.034 A 
ATOM     54  C   UNL A   1      48.211  27.647  26.605  1.00  0.00     0.034 A 
ATOM     55  C   UNL A   1      42.605  30.009  28.985  1.00  0.00     0.049 A 
ATOM     56  C   UNL A   1      47.773  29.013  27.065  1.00  0.00     0.074 A 
ATOM     57  C   UNL A   1      42.353  31.284  29.462  1.00  0.00     0.029 A 
ATOM     58  N   UNL A   1      43.928  29.992  28.571  1.00  0.00    -0.354 N 
ATOM     59  N   UNL A   1      46.626  29.384  27.580  1.00  0.00    -0.248 NA
ATOM     60  C   UNL A   1      48.761  30.096  26.959  1.00  0.00     0.031 C 
ATOM     61  C   UNL A   1      43.510  32.049  29.292  1.00  0.00     0.029 A 
ATOM     62  C   UNL A   1      44.499  31.240  28.759  1.00  0.00     0.049 A 
ATOM     63  H   UNL A   1      44.393  29.209  28.198  1.00  0.00     0.167 HD
ATOM     64  C   UNL A   1      46.767  30.730  27.897  1.00  0.00     0.074 A 
ATOM     65  C   UNL A   1      48.118  31.104  27.533  1.00  0.00     0.031 C 
ATOM     66  C   UNL A   1      45.860  31.583  28.435  1.00  0.00     0.034 A 
BRANCH  53  67
ATOM     67  C   UNL A   1      40.270  29.101  29.312  1.00  0.00     0.023 A 
ATOM     68  C   UNL A   1      39.283  29.364  28.341  1.00  0.00     0.012 A 
ATOM     69  C   UNL A   1      39.893  28.978  30.664  1.00  0.00     0.148 A 
ATOM     70  C   UNL A   1      37.949  29.532  28.712  1.00  0.00     0.002 A 
ATOM     71  C   UNL A   1      38.556  29.098  31.020  1.00  0.00     0.091 A 
ATOM     72  F   UNL A   1      40.849  28.750  31.576  1.00  0.00    -0.205 F 
ATOM     73  C   UNL A   1      37.584  29.387  30.048  1.00  0.00     0.022 A 
BRANCH  71  74
ATOM     74  S   UNL A   1      37.975  28.847  32.701  1.00  0.00     0.127 S 
ATOM     75  O   UNL A   1      36.603  29.350  32.616  1.00  0.00    -0.237 OA
ATOM     76  O   UNL A   1      38.084  27.396  32.849  1.00  0.00    -0.237 OA
ATOM     77  O   UNL A   1      38.867  29.616  33.556  1.00  0.00    -0.744 OA
ENDBRANCH  71  74
ENDBRANCH  53  67
BRANCH  54  78
ATOM     78  C   UNL A   1      49.588  27.421  26.083  1.00  0.00     0.023 A 
ATOM     79  C   UNL A   1      49.798  27.308  24.695  1.00  0.00     0.012 A 
ATOM     80  C   UNL A   1      50.689  27.322  26.954  1.00  0.00     0.148 A 
ATOM     81  C   UNL A   1      51.075  27.065  24.188  1.00  0.00     0.002 A 
ATOM     82  C   UNL A   1      51.966  27.138  26.440  1.00  0.00     0.091 A 
ATOM     83  F   UNL A   1      50.466  27.418  28.273  1.00  0.00    -0.205 F 
ATOM     84  C   UNL A   1      52.160  26.989  25.057  1.00  0.00     0.022 A 
BRANCH  82  85
ATOM     85  S   UNL A   1      53.435  27.154  27.473  1.00  0.00     0.127 S 
ATOM     86  O   UNL A   1      53.362  25.846  28.118  1.00  0.00    -0.237 OA
ATOM     87  O   UNL A   1      54.499  27.297  26.479  1.00  0.00    -0.237 OA
ATOM     88  O   UNL A   1      53.282  28.302  28.357  1.00  0.00    -0.744 OA
ENDBRANCH  82  85
ENDBRANCH  54  78
BRANCH  66  89
ATOM     89  C   UNL A   1      46.306  32.996  28.714  1.00  0.00     0.023 A 
ATOM     90  C   UNL A   1      46.151  33.995  27.733  1.00  0.00     0.012 A 
ATOM     91  C   UNL A   1      46.812  33.345  29.982  1.00  0.00     0.148 A 
ATOM     92  C   UNL A   1      46.531  35.311  27.997  1.00  0.00     0.002 A 
ATOM     93  C   UNL A   1      47.134  34.668  30.257  1.00  0.00     0.091 A 
ATOM     94  F   UNL A   1      46.964  32.378  30.898  1.00  0.00    -0.205 F 
ATOM     95  C   UNL A   1      47.009  35.650  29.260  1.00  0.00     0.022 A 
BRANCH  93  96
ATOM     96  S   UNL A   1      47.661  35.216  31.884  1.00  0.00     0.127 S 
ATOM     97  O   UNL A   1      48.932  34.509  32.039  1.00  0.00    -0.237 OA
ATOM     98  O   UNL A   1      47.785  36.662  31.698  1.00  0.00    -0.237 OA
ATOM     99  O   UNL A   1      46.608  34.813  32.806  1.00  0.00    -0.744 OA
ENDBRANCH  93  96
ENDBRANCH  66  89
ENDBRANCH  40  41
ENDBRANCH  33  35
ENDBRANCH  32  33
ENDBRANCH  31  32
ENDBRANCH  30  31
ENDBRANCH  29  30
ENDBRANCH   1  29
TORSDOF 22
ENDMDL
