MODEL 1
REMARK VINA RESULT:     -10.6      0.000      0.000
REMARK SMILES [NH3+][C@@]1(C(=O)OCCOCCOC(=O)c2ccc(-c3c4nc(c(-c5cccc(S(=O)(=O)[O-])c5F)c5ccc([nH]5)c(-c5cccc(S(=O)(=O)[O-])c5F)c5nc(c(-c6cccc(S(=O)(=O)[O-])c6F)c6ccc3[nH]6)C=C5)C=C4)cc2)CC[C@H](SC2CCOCC2)C1
REMARK SMILES IDX 9 1 8 2 7 3 6 4 5 5 3 6 4 7 2 8 77 9 87 10 78 11 79 12 1 13
REMARK SMILES IDX 80 17 81 18 82 19 86 20 83 21 85 22 84 23 10 24 11 25 12 26
REMARK SMILES IDX 13 27 14 28 15 29 76 30 16 31 75 32 17 33 18 34 19 35 69 36
REMARK SMILES IDX 20 37 74 38 68 39 70 40 21 41 73 42 67 43 66 44 22 46 54 47
REMARK SMILES IDX 34 48 53 49 35 50 38 51 52 52 71 53 36 54 37 55 51 57 72 58
REMARK SMILES IDX 39 59 23 60 24 61 32 62 25 63 27 64 33 65 26 66 28 67 29 68
REMARK SMILES IDX 30 69 31 70 55 71 56 72 64 73 57 74 59 75 65 76 58 77 60 78
REMARK SMILES IDX 61 79 62 80 63 81 40 82 41 83 49 84 42 85 44 86 50 87 43 88
REMARK SMILES IDX 45 89 46 90 47 91 48 92
REMARK H PARENT 1 14 1 15 1 16 70 45 38 56
REMARK Flexibility Score: inf
ROOT
ATOM      1  C   UNL A   1      35.706  21.016  25.159  1.00  0.00     0.202 C 
ENDROOT
BRANCH   1   2
ATOM      2  O   UNL A   1      35.717  22.338  25.692  1.00  0.00    -0.374 OA
BRANCH   2   3
ATOM      3  C   UNL A   1      35.365  23.407  24.809  1.00  0.00     0.202 C 
BRANCH   3   4
ATOM      4  C   UNL A   1      34.780  23.007  23.452  1.00  0.00     0.261 C 
BRANCH   4   5
ATOM      5  O   UNL A   1      34.329  24.158  22.716  1.00  0.00    -0.459 OA
BRANCH   5   6
ATOM      6  C   UNL A   1      32.982  24.298  22.585  1.00  0.00     0.368 C 
ATOM      7  O   UNL A   1      32.161  23.486  23.000  1.00  0.00    -0.245 OA
BRANCH   6   8
ATOM      8  C   UNL A   1      32.590  25.636  21.876  1.00  0.00     0.193 C 
ATOM      9  C   UNL A   1      33.720  26.645  22.072  1.00  0.00     0.082 C 
ATOM     10  C   UNL A   1      31.351  26.356  22.448  1.00  0.00     0.095 C 
ATOM     11  C   UNL A   1      33.392  27.281  23.417  1.00  0.00     0.022 C 
ATOM     12  C   UNL A   1      31.878  27.465  23.387  1.00  0.00     0.054 C 
BRANCH   8  13
ATOM     13  N   UNL A   1      32.408  25.352  20.432  1.00  0.00    -0.343 N 
ATOM     14  H   UNL A   1      32.901  24.492  20.190  1.00  0.00     0.345 HD
ATOM     15  H   UNL A   1      32.784  26.125  19.884  1.00  0.00     0.345 HD
ATOM     16  H   UNL A   1      31.414  25.242  20.230  1.00  0.00     0.345 HD
ENDBRANCH   8  13
BRANCH  12  17
ATOM     17  S   UNL A   1      31.038  27.368  25.009  1.00  0.00    -0.155 SA
BRANCH  17  18
ATOM     18  C   UNL A   1      31.179  25.593  25.484  1.00  0.00     0.051 C 
ATOM     19  C   UNL A   1      29.920  25.017  26.134  1.00  0.00     0.043 C 
ATOM     20  C   UNL A   1      32.434  25.303  26.308  1.00  0.00     0.043 C 
ATOM     21  C   UNL A   1      30.150  23.556  26.497  1.00  0.00     0.161 C 
ATOM     22  C   UNL A   1      32.492  23.829  26.693  1.00  0.00     0.161 C 
ATOM     23  O   UNL A   1      31.284  23.442  27.354  1.00  0.00    -0.381 OA
ENDBRANCH  17  18
ENDBRANCH  12  17
ENDBRANCH   6   8
ENDBRANCH   5   6
ENDBRANCH   4   5
ENDBRANCH   3   4
ENDBRANCH   2   3
ENDBRANCH   1   2
BRANCH   1  24
ATOM     24  C   UNL A   1      37.062  20.317  24.993  1.00  0.00     0.261 C 
BRANCH  24  25
ATOM     25  O   UNL A   1      38.165  21.238  24.963  1.00  0.00    -0.460 OA
BRANCH  25  26
ATOM     26  C   UNL A   1      39.112  21.001  25.900  1.00  0.00     0.338 C 
ATOM     27  O   UNL A   1      39.689  19.938  26.104  1.00  0.00    -0.246 OA
BRANCH  26  28
ATOM     28  C   UNL A   1      39.521  22.243  26.581  1.00  0.00     0.060 A 
ATOM     29  C   UNL A   1      38.904  23.425  26.155  1.00  0.00     0.016 A 
ATOM     30  C   UNL A   1      40.557  22.283  27.517  1.00  0.00     0.016 A 
ATOM     31  C   UNL A   1      39.384  24.658  26.585  1.00  0.00     0.010 A 
ATOM     32  C   UNL A   1      41.040  23.525  27.950  1.00  0.00     0.010 A 
ATOM     33  C   UNL A   1      40.496  24.716  27.435  1.00  0.00    -0.014 A 
BRANCH  33  34
ATOM     34  C   UNL A   1      41.183  26.021  27.603  1.00  0.00     0.031 A 
ATOM     35  C   UNL A   1      40.463  27.140  28.308  1.00  0.00     0.074 A 
ATOM     36  C   UNL A   1      42.454  26.192  27.200  1.00  0.00     0.049 A 
ATOM     37  N   UNL A   1      40.910  28.317  28.664  1.00  0.00    -0.248 NA
ATOM     38  C   UNL A   1      39.054  26.901  28.656  1.00  0.00     0.031 C 
ATOM     39  C   UNL A   1      43.254  25.198  26.489  1.00  0.00     0.029 A 
ATOM     40  N   UNL A   1      43.288  27.275  27.326  1.00  0.00    -0.354 N 
ATOM     41  C   UNL A   1      39.835  28.966  29.260  1.00  0.00     0.074 A 
ATOM     42  C   UNL A   1      38.707  28.062  29.193  1.00  0.00     0.031 C 
ATOM     43  C   UNL A   1      44.459  25.727  26.217  1.00  0.00     0.029 A 
ATOM     44  C   UNL A   1      44.515  27.094  26.735  1.00  0.00     0.049 A 
ATOM     45  H   UNL A   1      43.032  28.101  27.794  1.00  0.00     0.167 HD
ATOM     46  C   UNL A   1      39.792  30.190  29.837  1.00  0.00     0.034 A 
ATOM     47  C   UNL A   1      45.563  27.934  26.624  1.00  0.00     0.034 A 
ATOM     48  C   UNL A   1      40.917  31.080  29.929  1.00  0.00     0.049 A 
ATOM     49  C   UNL A   1      45.506  29.282  27.294  1.00  0.00     0.074 A 
ATOM     50  C   UNL A   1      40.991  32.314  30.550  1.00  0.00     0.029 A 
ATOM     51  N   UNL A   1      42.165  30.836  29.375  1.00  0.00    -0.354 N 
ATOM     52  N   UNL A   1      44.533  29.818  27.990  1.00  0.00    -0.248 NA
ATOM     53  C   UNL A   1      46.711  30.121  27.206  1.00  0.00     0.031 C 
ATOM     54  C   UNL A   1      42.280  32.826  30.353  1.00  0.00     0.029 A 
ATOM     55  C   UNL A   1      43.013  31.901  29.628  1.00  0.00     0.049 A 
ATOM     56  H   UNL A   1      42.410  30.025  28.874  1.00  0.00     0.167 HD
ATOM     57  C   UNL A   1      45.014  31.041  28.447  1.00  0.00     0.074 A 
ATOM     58  C   UNL A   1      46.376  31.155  27.966  1.00  0.00     0.031 C 
ATOM     59  C   UNL A   1      44.382  31.986  29.185  1.00  0.00     0.034 A 
BRANCH  46  60
ATOM     60  C   UNL A   1      38.482  30.619  30.444  1.00  0.00     0.023 A 
ATOM     61  C   UNL A   1      38.206  30.309  31.793  1.00  0.00     0.012 A 
ATOM     62  C   UNL A   1      37.535  31.338  29.694  1.00  0.00     0.148 A 
ATOM     63  C   UNL A   1      36.990  30.674  32.371  1.00  0.00     0.002 A 
ATOM     64  C   UNL A   1      36.342  31.735  30.289  1.00  0.00     0.091 A 
ATOM     65  F   UNL A   1      37.799  31.597  28.405  1.00  0.00    -0.205 F 
ATOM     66  C   UNL A   1      36.063  31.394  31.623  1.00  0.00     0.022 A 
BRANCH  64  67
ATOM     67  S   UNL A   1      35.125  32.727  29.417  1.00  0.00     0.127 S 
ATOM     68  O   UNL A   1      34.629  31.779  28.420  1.00  0.00    -0.237 OA
ATOM     69  O   UNL A   1      34.167  33.052  30.476  1.00  0.00    -0.237 OA
ATOM     70  O   UNL A   1      35.855  33.874  28.895  1.00  0.00    -0.744 OA
ENDBRANCH  64  67
ENDBRANCH  46  60
BRANCH  47  71
ATOM     71  C   UNL A   1      46.774  27.488  25.882  1.00  0.00     0.023 A 
ATOM     72  C   UNL A   1      46.934  27.828  24.526  1.00  0.00     0.012 A 
ATOM     73  C   UNL A   1      47.797  26.779  26.541  1.00  0.00     0.148 A 
ATOM     74  C   UNL A   1      48.088  27.457  23.834  1.00  0.00     0.002 A 
ATOM     75  C   UNL A   1      48.967  26.462  25.862  1.00  0.00     0.091 A 
ATOM     76  F   UNL A   1      47.615  26.450  27.827  1.00  0.00    -0.205 F 
ATOM     77  C   UNL A   1      49.109  26.787  24.504  1.00  0.00     0.022 A 
BRANCH  75  78
ATOM     78  S   UNL A   1      50.387  25.731  26.685  1.00  0.00     0.127 S 
ATOM     79  O   UNL A   1      51.342  25.612  25.585  1.00  0.00    -0.237 OA
ATOM     80  O   UNL A   1      50.716  26.753  27.680  1.00  0.00    -0.237 OA
ATOM     81  O   UNL A   1      49.911  24.476  27.249  1.00  0.00    -0.744 OA
ENDBRANCH  75  78
ENDBRANCH  47  71
BRANCH  59  82
ATOM     82  C   UNL A   1      45.155  33.231  29.541  1.00  0.00     0.023 A 
ATOM     83  C   UNL A   1      45.936  33.257  30.713  1.00  0.00     0.012 A 
ATOM     84  C   UNL A   1      45.166  34.346  28.680  1.00  0.00     0.148 A 
ATOM     85  C   UNL A   1      46.689  34.385  31.040  1.00  0.00     0.002 A 
ATOM     86  C   UNL A   1      45.954  35.450  28.990  1.00  0.00     0.091 A 
ATOM     87  F   UNL A   1      44.401  34.315  27.579  1.00  0.00    -0.205 F 
ATOM     88  C   UNL A   1      46.707  35.475  30.174  1.00  0.00     0.022 A 
BRANCH  86  89
ATOM     89  S   UNL A   1      46.104  36.854  27.879  1.00  0.00     0.127 S 
ATOM     90  O   UNL A   1      44.750  37.402  27.904  1.00  0.00    -0.237 OA
ATOM     91  O   UNL A   1      47.109  37.683  28.550  1.00  0.00    -0.237 OA
ATOM     92  O   UNL A   1      46.540  36.303  26.603  1.00  0.00    -0.744 OA
ENDBRANCH  86  89
ENDBRANCH  59  82
ENDBRANCH  33  34
ENDBRANCH  26  28
ENDBRANCH  25  26
ENDBRANCH  24  25
ENDBRANCH   1  24
TORSDOF 20
ENDMDL
MODEL 2
REMARK VINA RESULT:     -10.6      4.927      7.603
REMARK SMILES [NH3+][C@@]1(C(=O)OCCOCCOC(=O)c2ccc(-c3c4nc(c(-c5cccc(S(=O)(=O)[O-])c5F)c5ccc([nH]5)c(-c5cccc(S(=O)(=O)[O-])c5F)c5nc(c(-c6cccc(S(=O)(=O)[O-])c6F)c6ccc3[nH]6)C=C5)C=C4)cc2)CC[C@H](SC2CCOCC2)C1
REMARK SMILES IDX 9 1 8 2 7 3 6 4 5 5 3 6 4 7 2 8 77 9 87 10 78 11 79 12 1 13
REMARK SMILES IDX 80 17 81 18 82 19 86 20 83 21 85 22 84 23 10 24 11 25 12 26
REMARK SMILES IDX 13 27 14 28 15 29 76 30 16 31 75 32 17 33 18 34 19 35 69 36
REMARK SMILES IDX 20 37 74 38 68 39 70 40 21 41 73 42 67 43 66 44 22 46 54 47
REMARK SMILES IDX 34 48 53 49 35 50 38 51 52 52 71 53 36 54 37 55 51 57 72 58
REMARK SMILES IDX 39 59 23 60 24 61 32 62 25 63 27 64 33 65 26 66 28 67 29 68
REMARK SMILES IDX 30 69 31 70 55 71 56 72 64 73 57 74 59 75 65 76 58 77 60 78
REMARK SMILES IDX 61 79 62 80 63 81 40 82 41 83 49 84 42 85 44 86 50 87 43 88
REMARK SMILES IDX 45 89 46 90 47 91 48 92
REMARK H PARENT 1 14 1 15 1 16 70 45 38 56
REMARK Flexibility Score: inf
ROOT
ATOM      1  C   UNL A   1      32.692  29.694  25.118  1.00  0.00     0.202 C 
ENDROOT
BRANCH   1   2
ATOM      2  O   UNL A   1      32.508  28.369  24.626  1.00  0.00    -0.374 OA
BRANCH   2   3
ATOM      3  C   UNL A   1      32.593  27.298  25.570  1.00  0.00     0.202 C 
BRANCH   3   4
ATOM      4  C   UNL A   1      31.469  26.259  25.527  1.00  0.00     0.261 C 
BRANCH   4   5
ATOM      5  O   UNL A   1      31.935  25.006  24.995  1.00  0.00    -0.459 OA
BRANCH   5   6
ATOM      6  C   UNL A   1      31.501  24.684  23.746  1.00  0.00     0.368 C 
ATOM      7  O   UNL A   1      30.324  24.698  23.400  1.00  0.00    -0.245 OA
BRANCH   6   8
ATOM      8  C   UNL A   1      32.680  24.330  22.781  1.00  0.00     0.193 C 
ATOM      9  C   UNL A   1      32.851  22.813  22.751  1.00  0.00     0.082 C 
ATOM     10  C   UNL A   1      34.070  24.848  23.205  1.00  0.00     0.095 C 
ATOM     11  C   UNL A   1      33.764  22.540  23.939  1.00  0.00     0.022 C 
ATOM     12  C   UNL A   1      34.793  23.665  23.888  1.00  0.00     0.054 C 
BRANCH   8  13
ATOM     13  N   UNL A   1      32.328  24.828  21.429  1.00  0.00    -0.343 N 
ATOM     14  H   UNL A   1      32.110  25.823  21.479  1.00  0.00     0.345 HD
ATOM     15  H   UNL A   1      31.516  24.319  21.080  1.00  0.00     0.345 HD
ATOM     16  H   UNL A   1      33.117  24.685  20.798  1.00  0.00     0.345 HD
ENDBRANCH   8  13
BRANCH  12  17
ATOM     17  S   UNL A   1      35.470  24.190  25.505  1.00  0.00    -0.155 SA
BRANCH  17  18
ATOM     18  C   UNL A   1      37.179  23.501  25.523  1.00  0.00     0.051 C 
ATOM     19  C   UNL A   1      37.238  21.974  25.570  1.00  0.00     0.043 C 
ATOM     20  C   UNL A   1      38.060  24.142  26.596  1.00  0.00     0.043 C 
ATOM     21  C   UNL A   1      38.690  21.514  25.597  1.00  0.00     0.161 C 
ATOM     22  C   UNL A   1      39.453  23.524  26.584  1.00  0.00     0.161 C 
ATOM     23  O   UNL A   1      39.365  22.102  26.707  1.00  0.00    -0.381 OA
ENDBRANCH  17  18
ENDBRANCH  12  17
ENDBRANCH   6   8
ENDBRANCH   5   6
ENDBRANCH   4   5
ENDBRANCH   3   4
ENDBRANCH   2   3
ENDBRANCH   1   2
BRANCH   1  24
ATOM     24  C   UNL A   1      31.902  30.090  26.372  1.00  0.00     0.261 C 
BRANCH  24  25
ATOM     25  O   UNL A   1      32.733  30.231  27.535  1.00  0.00    -0.460 OA
BRANCH  25  26
ATOM     26  C   UNL A   1      33.495  31.350  27.542  1.00  0.00     0.338 C 
ATOM     27  O   UNL A   1      33.093  32.507  27.504  1.00  0.00    -0.246 OA
BRANCH  26  28
ATOM     28  C   UNL A   1      34.917  31.034  27.770  1.00  0.00     0.060 A 
ATOM     29  C   UNL A   1      35.244  29.680  27.912  1.00  0.00     0.016 A 
ATOM     30  C   UNL A   1      35.886  32.021  27.963  1.00  0.00     0.016 A 
ATOM     31  C   UNL A   1      36.514  29.311  28.345  1.00  0.00     0.010 A 
ATOM     32  C   UNL A   1      37.164  31.648  28.399  1.00  0.00     0.010 A 
ATOM     33  C   UNL A   1      37.461  30.297  28.652  1.00  0.00    -0.014 A 
BRANCH  33  34
ATOM     34  C   UNL A   1      38.666  29.895  29.419  1.00  0.00     0.031 A 
ATOM     35  C   UNL A   1      38.820  30.369  30.840  1.00  0.00     0.074 A 
ATOM     36  C   UNL A   1      39.580  29.063  28.889  1.00  0.00     0.049 A 
ATOM     37  N   UNL A   1      39.729  30.049  31.726  1.00  0.00    -0.248 NA
ATOM     38  C   UNL A   1      37.819  31.331  31.326  1.00  0.00     0.031 C 
ATOM     39  C   UNL A   1      39.559  28.550  27.521  1.00  0.00     0.029 A 
ATOM     40  N   UNL A   1      40.709  28.514  29.442  1.00  0.00    -0.354 N 
ATOM     41  C   UNL A   1      39.421  30.782  32.865  1.00  0.00     0.074 A 
ATOM     42  C   UNL A   1      38.259  31.584  32.550  1.00  0.00     0.031 C 
ATOM     43  C   UNL A   1      40.643  27.778  27.332  1.00  0.00     0.029 A 
ATOM     44  C   UNL A   1      41.431  27.743  28.564  1.00  0.00     0.049 A 
ATOM     45  H   UNL A   1      40.976  28.658  30.378  1.00  0.00     0.167 HD
ATOM     46  C   UNL A   1      40.030  30.772  34.075  1.00  0.00     0.034 A 
ATOM     47  C   UNL A   1      42.596  27.085  28.733  1.00  0.00     0.034 A 
ATOM     48  C   UNL A   1      41.168  29.956  34.400  1.00  0.00     0.049 A 
ATOM     49  C   UNL A   1      43.244  27.065  30.092  1.00  0.00     0.074 A 
ATOM     50  C   UNL A   1      41.817  29.828  35.615  1.00  0.00     0.029 A 
ATOM     51  N   UNL A   1      41.836  29.138  33.502  1.00  0.00    -0.354 N 
ATOM     52  N   UNL A   1      42.852  27.639  31.203  1.00  0.00    -0.248 NA
ATOM     53  C   UNL A   1      44.469  26.263  30.234  1.00  0.00     0.031 C 
ATOM     54  C   UNL A   1      42.891  28.946  35.446  1.00  0.00     0.029 A 
ATOM     55  C   UNL A   1      42.897  28.509  34.131  1.00  0.00     0.049 A 
ATOM     56  H   UNL A   1      41.591  29.022  32.556  1.00  0.00     0.167 HD
ATOM     57  C   UNL A   1      43.761  27.249  32.181  1.00  0.00     0.074 A 
ATOM     58  C   UNL A   1      44.712  26.368  31.534  1.00  0.00     0.031 C 
ATOM     59  C   UNL A   1      43.811  27.598  33.490  1.00  0.00     0.034 A 
BRANCH  46  60
ATOM     60  C   UNL A   1      39.445  31.653  35.147  1.00  0.00     0.023 A 
ATOM     61  C   UNL A   1      38.435  31.145  35.992  1.00  0.00     0.012 A 
ATOM     62  C   UNL A   1      39.899  32.972  35.331  1.00  0.00     0.148 A 
ATOM     63  C   UNL A   1      37.861  31.950  36.975  1.00  0.00     0.002 A 
ATOM     64  C   UNL A   1      39.351  33.755  36.341  1.00  0.00     0.091 A 
ATOM     65  F   UNL A   1      40.836  33.450  34.500  1.00  0.00    -0.205 F 
ATOM     66  C   UNL A   1      38.324  33.250  37.156  1.00  0.00     0.022 A 
BRANCH  64  67
ATOM     67  S   UNL A   1      39.940  35.415  36.687  1.00  0.00     0.127 S 
ATOM     68  O   UNL A   1      39.432  36.157  35.534  1.00  0.00    -0.237 OA
ATOM     69  O   UNL A   1      39.275  35.728  37.954  1.00  0.00    -0.237 OA
ATOM     70  O   UNL A   1      41.390  35.305  36.782  1.00  0.00    -0.744 OA
ENDBRANCH  64  67
ENDBRANCH  46  60
BRANCH  47  71
ATOM     71  C   UNL A   1      43.187  26.351  27.581  1.00  0.00     0.023 A 
ATOM     72  C   UNL A   1      44.053  27.015  26.692  1.00  0.00     0.012 A 
ATOM     73  C   UNL A   1      42.938  24.976  27.403  1.00  0.00     0.148 A 
ATOM     74  C   UNL A   1      44.652  26.324  25.638  1.00  0.00     0.002 A 
ATOM     75  C   UNL A   1      43.582  24.282  26.386  1.00  0.00     0.091 A 
ATOM     76  F   UNL A   1      42.096  24.369  28.251  1.00  0.00    -0.205 F 
ATOM     77  C   UNL A   1      44.427  24.957  25.492  1.00  0.00     0.022 A 
BRANCH  75  78
ATOM     78  S   UNL A   1      43.463  22.497  26.217  1.00  0.00     0.127 S 
ATOM     79  O   UNL A   1      44.834  22.139  25.859  1.00  0.00    -0.237 OA
ATOM     80  O   UNL A   1      43.051  22.095  27.563  1.00  0.00    -0.237 OA
ATOM     81  O   UNL A   1      42.459  22.266  25.189  1.00  0.00    -0.744 OA
ENDBRANCH  75  78
ENDBRANCH  47  71
BRANCH  59  82
ATOM     82  C   UNL A   1      44.921  27.017  34.329  1.00  0.00     0.023 A 
ATOM     83  C   UNL A   1      46.173  27.663  34.375  1.00  0.00     0.012 A 
ATOM     84  C   UNL A   1      44.705  25.876  35.126  1.00  0.00     0.148 A 
ATOM     85  C   UNL A   1      47.200  27.163  35.175  1.00  0.00     0.002 A 
ATOM     86  C   UNL A   1      45.720  25.410  35.955  1.00  0.00     0.091 A 
ATOM     87  F   UNL A   1      43.516  25.260  35.056  1.00  0.00    -0.205 F 
ATOM     88  C   UNL A   1      46.971  26.045  35.973  1.00  0.00     0.022 A 
BRANCH  86  89
ATOM     89  S   UNL A   1      45.471  24.032  37.083  1.00  0.00     0.127 S 
ATOM     90  O   UNL A   1      46.820  23.828  37.607  1.00  0.00    -0.237 OA
ATOM     91  O   UNL A   1      44.519  24.582  38.049  1.00  0.00    -0.237 OA
ATOM     92  O   UNL A   1      44.938  22.948  36.269  1.00  0.00    -0.744 OA
ENDBRANCH  86  89
ENDBRANCH  59  82
ENDBRANCH  33  34
ENDBRANCH  26  28
ENDBRANCH  25  26
ENDBRANCH  24  25
ENDBRANCH   1  24
TORSDOF 20
ENDMDL
MODEL 3
REMARK VINA RESULT:     -10.5      4.970      7.648
REMARK SMILES [NH3+][C@@]1(C(=O)OCCOCCOC(=O)c2ccc(-c3c4nc(c(-c5cccc(S(=O)(=O)[O-])c5F)c5ccc([nH]5)c(-c5cccc(S(=O)(=O)[O-])c5F)c5nc(c(-c6cccc(S(=O)(=O)[O-])c6F)c6ccc3[nH]6)C=C5)C=C4)cc2)CC[C@H](SC2CCOCC2)C1
REMARK SMILES IDX 9 1 8 2 7 3 6 4 5 5 3 6 4 7 2 8 77 9 87 10 78 11 79 12 1 13
REMARK SMILES IDX 80 17 81 18 82 19 86 20 83 21 85 22 84 23 10 24 11 25 12 26
REMARK SMILES IDX 13 27 14 28 15 29 76 30 16 31 75 32 17 33 18 34 19 35 69 36
REMARK SMILES IDX 20 37 74 38 68 39 70 40 21 41 73 42 67 43 66 44 22 46 54 47
REMARK SMILES IDX 34 48 53 49 35 50 38 51 52 52 71 53 36 54 37 55 51 57 72 58
REMARK SMILES IDX 39 59 23 60 24 61 32 62 25 63 27 64 33 65 26 66 28 67 29 68
REMARK SMILES IDX 30 69 31 70 55 71 56 72 64 73 57 74 59 75 65 76 58 77 60 78
REMARK SMILES IDX 61 79 62 80 63 81 40 82 41 83 49 84 42 85 44 86 50 87 43 88
REMARK SMILES IDX 45 89 46 90 47 91 48 92
REMARK H PARENT 1 14 1 15 1 16 70 45 38 56
REMARK Flexibility Score: inf
ROOT
ATOM      1  C   UNL A   1      32.452  29.728  25.351  1.00  0.00     0.202 C 
ENDROOT
BRANCH   1   2
ATOM      2  O   UNL A   1      32.400  28.363  25.759  1.00  0.00    -0.374 OA
BRANCH   2   3
ATOM      3  C   UNL A   1      33.621  27.620  25.729  1.00  0.00     0.202 C 
BRANCH   3   4
ATOM      4  C   UNL A   1      33.500  26.119  25.453  1.00  0.00     0.261 C 
BRANCH   4   5
ATOM      5  O   UNL A   1      33.891  25.801  24.105  1.00  0.00    -0.459 OA
BRANCH   5   6
ATOM      6  C   UNL A   1      32.964  26.040  23.138  1.00  0.00     0.368 C 
ATOM      7  O   UNL A   1      32.593  27.160  22.800  1.00  0.00    -0.245 OA
BRANCH   6   8
ATOM      8  C   UNL A   1      32.447  24.722  22.472  1.00  0.00     0.193 C 
ATOM      9  C   UNL A   1      31.005  24.482  22.912  1.00  0.00     0.082 C 
ATOM     10  C   UNL A   1      33.179  23.430  22.891  1.00  0.00     0.095 C 
ATOM     11  C   UNL A   1      31.161  23.735  24.231  1.00  0.00     0.022 C 
ATOM     12  C   UNL A   1      32.306  22.760  23.976  1.00  0.00     0.054 C 
BRANCH   8  13
ATOM     13  N   UNL A   1      32.506  24.901  21.001  1.00  0.00    -0.343 N 
ATOM     14  H   UNL A   1      33.446  24.683  20.669  1.00  0.00     0.345 HD
ATOM     15  H   UNL A   1      32.279  25.867  20.767  1.00  0.00     0.345 HD
ATOM     16  H   UNL A   1      31.835  24.276  20.555  1.00  0.00     0.345 HD
ENDBRANCH   8  13
BRANCH  12  17
ATOM     17  S   UNL A   1      33.326  22.342  25.436  1.00  0.00    -0.155 SA
BRANCH  17  18
ATOM     18  C   UNL A   1      33.541  20.515  25.329  1.00  0.00     0.051 C 
ATOM     19  C   UNL A   1      34.887  20.075  24.753  1.00  0.00     0.043 C 
ATOM     20  C   UNL A   1      32.366  19.825  24.632  1.00  0.00     0.043 C 
ATOM     21  C   UNL A   1      34.951  18.554  24.696  1.00  0.00     0.161 C 
ATOM     22  C   UNL A   1      32.601  18.322  24.550  1.00  0.00     0.161 C 
ATOM     23  O   UNL A   1      33.860  18.051  23.928  1.00  0.00    -0.381 OA
ENDBRANCH  17  18
ENDBRANCH  12  17
ENDBRANCH   6   8
ENDBRANCH   5   6
ENDBRANCH   4   5
ENDBRANCH   3   4
ENDBRANCH   2   3
ENDBRANCH   1   2
BRANCH   1  24
ATOM     24  C   UNL A   1      31.855  30.768  26.309  1.00  0.00     0.261 C 
BRANCH  24  25
ATOM     25  O   UNL A   1      32.598  30.892  27.533  1.00  0.00    -0.460 OA
BRANCH  25  26
ATOM     26  C   UNL A   1      33.404  31.978  27.585  1.00  0.00     0.338 C 
ATOM     27  O   UNL A   1      33.050  33.151  27.605  1.00  0.00    -0.246 OA
BRANCH  26  28
ATOM     28  C   UNL A   1      34.814  31.595  27.787  1.00  0.00     0.060 A 
ATOM     29  C   UNL A   1      35.080  30.227  27.920  1.00  0.00     0.016 A 
ATOM     30  C   UNL A   1      35.832  32.535  27.964  1.00  0.00     0.016 A 
ATOM     31  C   UNL A   1      36.338  29.797  28.330  1.00  0.00     0.010 A 
ATOM     32  C   UNL A   1      37.099  32.101  28.376  1.00  0.00     0.010 A 
ATOM     33  C   UNL A   1      37.336  30.737  28.621  1.00  0.00    -0.014 A 
BRANCH  33  34
ATOM     34  C   UNL A   1      38.535  30.277  29.365  1.00  0.00     0.031 A 
ATOM     35  C   UNL A   1      38.713  30.702  30.799  1.00  0.00     0.074 A 
ATOM     36  C   UNL A   1      39.419  29.435  28.803  1.00  0.00     0.049 A 
ATOM     37  N   UNL A   1      39.618  30.329  31.667  1.00  0.00    -0.248 NA
ATOM     38  C   UNL A   1      37.745  31.678  31.323  1.00  0.00     0.031 C 
ATOM     39  C   UNL A   1      39.373  28.965  27.420  1.00  0.00     0.029 A 
ATOM     40  N   UNL A   1      40.536  28.837  29.329  1.00  0.00    -0.354 N 
ATOM     41  C   UNL A   1      39.341  31.036  32.831  1.00  0.00     0.074 A 
ATOM     42  C   UNL A   1      38.201  31.880  32.550  1.00  0.00     0.031 C 
ATOM     43  C   UNL A   1      40.432  28.168  27.199  1.00  0.00     0.029 A 
ATOM     44  C   UNL A   1      41.229  28.072  28.422  1.00  0.00     0.049 A 
ATOM     45  H   UNL A   1      40.814  28.945  30.267  1.00  0.00     0.167 HD
ATOM     46  C   UNL A   1      39.958  30.970  34.035  1.00  0.00     0.034 A 
ATOM     47  C   UNL A   1      42.375  27.376  28.562  1.00  0.00     0.034 A 
ATOM     48  C   UNL A   1      41.075  30.113  34.326  1.00  0.00     0.049 A 
ATOM     49  C   UNL A   1      43.033  27.295  29.914  1.00  0.00     0.074 A 
ATOM     50  C   UNL A   1      41.728  29.928  35.530  1.00  0.00     0.029 A 
ATOM     51  N   UNL A   1      41.711  29.303  33.397  1.00  0.00    -0.354 N 
ATOM     52  N   UNL A   1      42.666  27.847  31.045  1.00  0.00    -0.248 NA
ATOM     53  C   UNL A   1      44.235  26.454  30.021  1.00  0.00     0.031 C 
ATOM     54  C   UNL A   1      42.775  29.021  35.326  1.00  0.00     0.029 A 
ATOM     55  C   UNL A   1      42.758  28.625  33.998  1.00  0.00     0.049 A 
ATOM     56  H   UNL A   1      41.456  29.223  32.450  1.00  0.00     0.167 HD
ATOM     57  C   UNL A   1      43.570  27.400  32.003  1.00  0.00     0.074 A 
ATOM     58  C   UNL A   1      44.490  26.512  31.321  1.00  0.00     0.031 C 
ATOM     59  C   UNL A   1      43.640  27.707  33.322  1.00  0.00     0.034 A 
BRANCH  46  60
ATOM     60  C   UNL A   1      39.407  31.835  35.138  1.00  0.00     0.023 A 
ATOM     61  C   UNL A   1      38.409  31.321  35.993  1.00  0.00     0.012 A 
ATOM     62  C   UNL A   1      39.883  33.143  35.341  1.00  0.00     0.148 A 
ATOM     63  C   UNL A   1      37.866  32.111  37.005  1.00  0.00     0.002 A 
ATOM     64  C   UNL A   1      39.366  33.911  36.380  1.00  0.00     0.091 A 
ATOM     65  F   UNL A   1      40.809  33.628  34.501  1.00  0.00    -0.205 F 
ATOM     66  C   UNL A   1      38.350  33.401  37.205  1.00  0.00     0.022 A 
BRANCH  64  67
ATOM     67  S   UNL A   1      39.985  35.555  36.750  1.00  0.00     0.127 S 
ATOM     68  O   UNL A   1      39.307  35.851  38.011  1.00  0.00    -0.237 OA
ATOM     69  O   UNL A   1      41.427  35.329  36.872  1.00  0.00    -0.237 OA
ATOM     70  O   UNL A   1      39.602  36.384  35.614  1.00  0.00    -0.744 OA
ENDBRANCH  64  67
ENDBRANCH  46  60
BRANCH  47  71
ATOM     71  C   UNL A   1      42.935  26.660  27.383  1.00  0.00     0.023 A 
ATOM     72  C   UNL A   1      43.886  27.295  26.561  1.00  0.00     0.012 A 
ATOM     73  C   UNL A   1      42.571  25.326  27.114  1.00  0.00     0.148 A 
ATOM     74  C   UNL A   1      44.455  26.616  25.482  1.00  0.00     0.002 A 
ATOM     75  C   UNL A   1      43.183  24.639  26.074  1.00  0.00     0.091 A 
ATOM     76  F   UNL A   1      41.652  24.750  27.899  1.00  0.00    -0.205 F 
ATOM     77  C   UNL A   1      44.114  25.286  25.247  1.00  0.00     0.022 A 
BRANCH  75  78
ATOM     78  S   UNL A   1      42.912  22.885  25.792  1.00  0.00     0.127 S 
ATOM     79  O   UNL A   1      43.698  22.284  26.866  1.00  0.00    -0.237 OA
ATOM     80  O   UNL A   1      41.462  22.776  25.952  1.00  0.00    -0.237 OA
ATOM     81  O   UNL A   1      43.386  22.627  24.439  1.00  0.00    -0.744 OA
ENDBRANCH  75  78
ENDBRANCH  47  71
BRANCH  59  82
ATOM     82  C   UNL A   1      44.739  27.069  34.133  1.00  0.00     0.023 A 
ATOM     83  C   UNL A   1      46.011  27.673  34.183  1.00  0.00     0.012 A 
ATOM     84  C   UNL A   1      44.494  25.914  34.902  1.00  0.00     0.148 A 
ATOM     85  C   UNL A   1      47.030  27.120  34.959  1.00  0.00     0.002 A 
ATOM     86  C   UNL A   1      45.501  25.394  35.708  1.00  0.00     0.091 A 
ATOM     87  F   UNL A   1      43.285  25.338  34.828  1.00  0.00    -0.205 F 
ATOM     88  C   UNL A   1      46.773  25.988  35.729  1.00  0.00     0.022 A 
BRANCH  86  89
ATOM     89  S   UNL A   1      45.219  23.995  36.801  1.00  0.00     0.127 S 
ATOM     90  O   UNL A   1      44.262  24.550  37.756  1.00  0.00    -0.237 OA
ATOM     91  O   UNL A   1      44.661  22.991  35.893  1.00  0.00    -0.237 OA
ATOM     92  O   UNL A   1      46.526  23.649  37.344  1.00  0.00    -0.744 OA
ENDBRANCH  86  89
ENDBRANCH  59  82
ENDBRANCH  33  34
ENDBRANCH  26  28
ENDBRANCH  25  26
ENDBRANCH  24  25
ENDBRANCH   1  24
TORSDOF 20
ENDMDL
