MODEL 1
REMARK VINA RESULT:     -10.9      0.000      0.000
REMARK SMILES CN(C)c1cccc(C(C)(C)C(=O)OCCOCCOC(=O)c2ccc(-c3c4nc(c(-c5cccc(S(=O)(=O)[O-])c5F)c5ccc([nH]5)c(-c5cccc(S(=O)(=O)[O-])c5F)c5nc(c(-c6cccc(S(=O)(=O)[O-])c6F)c6ccc3[nH]6)C=C5)C=C4)cc2)c1
REMARK SMILES IDX 18 1 17 2 16 3 15 4 14 5 12 6 13 7 9 8 10 9 11 10 8 11 4 12
REMARK SMILES IDX 5 13 86 14 6 15 7 16 2 17 1 18 3 19 19 20 20 21 21 22 22 23
REMARK SMILES IDX 23 24 24 25 85 26 25 27 84 28 26 29 27 30 28 31 78 32 29 33
REMARK SMILES IDX 83 34 77 35 79 36 30 37 82 38 76 39 75 40 31 42 63 43 43 44
REMARK SMILES IDX 62 45 44 46 47 47 61 48 80 49 45 50 46 51 60 53 81 54 48 55
REMARK SMILES IDX 32 56 33 57 41 58 34 59 36 60 42 61 35 62 37 63 38 64 39 65
REMARK SMILES IDX 40 66 64 67 65 68 73 69 66 70 68 71 74 72 67 73 69 74 70 75
REMARK SMILES IDX 71 76 72 77 49 78 50 79 58 80 51 81 53 82 59 83 52 84 54 85
REMARK SMILES IDX 55 86 56 87 57 88
REMARK H PARENT 79 41 47 52
REMARK Flexibility Score: inf
ROOT
ATOM      1  C   UNL A   1      31.155  31.597  26.467  1.00  0.00     0.202 C 
ENDROOT
BRANCH   1   2
ATOM      2  O   UNL A   1      31.807  30.336  26.639  1.00  0.00    -0.374 OA
BRANCH   2   3
ATOM      3  C   UNL A   1      32.962  30.082  25.838  1.00  0.00     0.202 C 
BRANCH   3   4
ATOM      4  C   UNL A   1      33.248  28.621  25.475  1.00  0.00     0.261 C 
BRANCH   4   5
ATOM      5  O   UNL A   1      32.403  28.172  24.405  1.00  0.00    -0.463 OA
BRANCH   5   6
ATOM      6  C   UNL A   1      31.661  27.060  24.666  1.00  0.00     0.316 C 
ATOM      7  O   UNL A   1      31.621  26.509  25.763  1.00  0.00    -0.251 OA
BRANCH   6   8
ATOM      8  C   UNL A   1      30.824  26.594  23.453  1.00  0.00     0.087 C 
ATOM      9  C   UNL A   1      30.703  25.065  23.659  1.00  0.00     0.028 C 
ATOM     10  C   UNL A   1      31.522  26.823  22.094  1.00  0.00     0.028 C 
BRANCH   8  11
ATOM     11  C   UNL A   1      29.429  27.267  23.415  1.00  0.00    -0.029 A 
ATOM     12  C   UNL A   1      27.979  29.202  22.861  1.00  0.00     0.036 A 
ATOM     13  C   UNL A   1      26.898  28.506  23.412  1.00  0.00     0.026 A 
ATOM     14  C   UNL A   1      29.227  28.553  22.857  1.00  0.00     0.030 A 
ATOM     15  C   UNL A   1      27.051  27.219  23.929  1.00  0.00     0.002 A 
ATOM     16  C   UNL A   1      28.303  26.606  23.929  1.00  0.00     0.005 A 
BRANCH  12  17
ATOM     17  N   UNL A   1      27.801  30.496  22.368  1.00  0.00    -0.378 N 
ATOM     18  C   UNL A   1      28.396  30.878  21.094  1.00  0.00     0.143 C 
ATOM     19  C   UNL A   1      27.654  31.542  23.375  1.00  0.00     0.143 C 
ENDBRANCH  12  17
ENDBRANCH   8  11
ENDBRANCH   6   8
ENDBRANCH   5   6
ENDBRANCH   4   5
ENDBRANCH   3   4
ENDBRANCH   2   3
ENDBRANCH   1   2
BRANCH   1  20
ATOM     20  C   UNL A   1      31.964  32.868  26.757  1.00  0.00     0.261 C 
BRANCH  20  21
ATOM     21  O   UNL A   1      32.771  32.761  27.944  1.00  0.00    -0.460 OA
BRANCH  21  22
ATOM     22  C   UNL A   1      33.842  33.589  27.975  1.00  0.00     0.338 C 
ATOM     23  O   UNL A   1      33.828  34.814  27.926  1.00  0.00    -0.246 OA
BRANCH  22  24
ATOM     24  C   UNL A   1      35.071  32.834  28.276  1.00  0.00     0.060 A 
ATOM     25  C   UNL A   1      34.926  31.504  28.693  1.00  0.00     0.016 A 
ATOM     26  C   UNL A   1      36.331  33.434  28.245  1.00  0.00     0.016 A 
ATOM     27  C   UNL A   1      36.033  30.785  29.134  1.00  0.00     0.010 A 
ATOM     28  C   UNL A   1      37.442  32.712  28.698  1.00  0.00     0.010 A 
ATOM     29  C   UNL A   1      37.290  31.400  29.182  1.00  0.00    -0.014 A 
BRANCH  29  30
ATOM     30  C   UNL A   1      38.409  30.717  29.878  1.00  0.00     0.031 A 
ATOM     31  C   UNL A   1      38.685  31.052  31.320  1.00  0.00     0.074 A 
ATOM     32  C   UNL A   1      39.158  29.799  29.240  1.00  0.00     0.049 A 
ATOM     33  N   UNL A   1      39.605  30.579  32.117  1.00  0.00    -0.248 NA
ATOM     34  C   UNL A   1      37.807  32.056  31.945  1.00  0.00     0.031 C 
ATOM     35  C   UNL A   1      38.984  29.385  27.849  1.00  0.00     0.029 A 
ATOM     36  N   UNL A   1      40.233  29.065  29.677  1.00  0.00    -0.354 N 
ATOM     37  C   UNL A   1      39.443  31.248  33.324  1.00  0.00     0.074 A 
ATOM     38  C   UNL A   1      38.336  32.162  33.157  1.00  0.00     0.031 C 
ATOM     39  C   UNL A   1      39.937  28.487  27.538  1.00  0.00     0.029 A 
ATOM     40  C   UNL A   1      40.798  28.280  28.701  1.00  0.00     0.049 A 
ATOM     41  H   UNL A   1      40.566  29.098  30.603  1.00  0.00     0.167 HD
ATOM     42  C   UNL A   1      40.146  31.104  34.473  1.00  0.00     0.034 A 
ATOM     43  C   UNL A   1      41.896  27.498  28.738  1.00  0.00     0.034 A 
ATOM     44  C   UNL A   1      41.221  30.166  34.650  1.00  0.00     0.049 A 
ATOM     45  C   UNL A   1      42.663  27.370  30.030  1.00  0.00     0.074 A 
ATOM     46  C   UNL A   1      41.944  29.896  35.798  1.00  0.00     0.029 A 
ATOM     47  N   UNL A   1      41.736  29.357  33.651  1.00  0.00    -0.354 N 
ATOM     48  N   UNL A   1      42.407  27.900  31.201  1.00  0.00    -0.248 NA
ATOM     49  C   UNL A   1      43.856  26.507  30.012  1.00  0.00     0.031 C 
ATOM     50  C   UNL A   1      42.917  28.943  35.486  1.00  0.00     0.029 A 
ATOM     51  C   UNL A   1      42.782  28.601  34.150  1.00  0.00     0.049 A 
ATOM     52  H   UNL A   1      41.409  29.325  32.723  1.00  0.00     0.167 HD
ATOM     53  C   UNL A   1      43.377  27.404  32.066  1.00  0.00     0.074 A 
ATOM     54  C   UNL A   1      44.215  26.515  31.289  1.00  0.00     0.031 C 
ATOM     55  C   UNL A   1      43.566  27.669  33.381  1.00  0.00     0.034 A 
BRANCH  42  56
ATOM     56  C   UNL A   1      39.761  31.961  35.649  1.00  0.00     0.023 A 
ATOM     57  C   UNL A   1      40.269  33.270  35.755  1.00  0.00     0.012 A 
ATOM     58  C   UNL A   1      38.829  31.498  36.598  1.00  0.00     0.148 A 
ATOM     59  C   UNL A   1      39.866  34.103  36.799  1.00  0.00     0.002 A 
ATOM     60  C   UNL A   1      38.402  32.347  37.612  1.00  0.00     0.091 A 
ATOM     61  F   UNL A   1      38.377  30.241  36.488  1.00  0.00    -0.205 F 
ATOM     62  C   UNL A   1      38.925  33.646  37.719  1.00  0.00     0.022 A 
BRANCH  60  63
ATOM     63  S   UNL A   1      37.138  31.880  38.800  1.00  0.00     0.127 S 
ATOM     64  O   UNL A   1      36.867  30.496  38.413  1.00  0.00    -0.237 OA
ATOM     65  O   UNL A   1      37.842  32.031  40.073  1.00  0.00    -0.237 OA
ATOM     66  O   UNL A   1      36.035  32.808  38.600  1.00  0.00    -0.744 OA
ENDBRANCH  60  63
ENDBRANCH  42  56
BRANCH  43  67
ATOM     67  C   UNL A   1      42.324  26.742  27.527  1.00  0.00     0.023 A 
ATOM     68  C   UNL A   1      42.956  27.425  26.468  1.00  0.00     0.012 A 
ATOM     69  C   UNL A   1      42.101  25.357  27.411  1.00  0.00     0.148 A 
ATOM     70  C   UNL A   1      43.320  26.750  25.303  1.00  0.00     0.002 A 
ATOM     71  C   UNL A   1      42.517  24.680  26.270  1.00  0.00     0.091 A 
ATOM     72  F   UNL A   1      41.476  24.726  28.416  1.00  0.00    -0.205 F 
ATOM     73  C   UNL A   1      43.111  25.377  25.207  1.00  0.00     0.022 A 
BRANCH  71  74
ATOM     74  S   UNL A   1      42.396  22.894  26.125  1.00  0.00     0.127 S 
ATOM     75  O   UNL A   1      40.990  22.661  26.441  1.00  0.00    -0.237 OA
ATOM     76  O   UNL A   1      42.757  22.675  24.723  1.00  0.00    -0.237 OA
ATOM     77  O   UNL A   1      43.363  22.364  27.077  1.00  0.00    -0.744 OA
ENDBRANCH  71  74
ENDBRANCH  43  67
BRANCH  55  78
ATOM     78  C   UNL A   1      44.694  26.963  34.087  1.00  0.00     0.023 A 
ATOM     79  C   UNL A   1      46.016  27.423  33.931  1.00  0.00     0.012 A 
ATOM     80  C   UNL A   1      44.432  25.896  34.969  1.00  0.00     0.148 A 
ATOM     81  C   UNL A   1      47.065  26.813  34.618  1.00  0.00     0.002 A 
ATOM     82  C   UNL A   1      45.476  25.324  35.689  1.00  0.00     0.091 A 
ATOM     83  F   UNL A   1      43.170  25.461  35.092  1.00  0.00    -0.205 F 
ATOM     84  C   UNL A   1      46.794  25.773  35.506  1.00  0.00     0.022 A 
BRANCH  82  85
ATOM     85  S   UNL A   1      45.204  24.049  36.925  1.00  0.00     0.127 S 
ATOM     86  O   UNL A   1      44.040  24.569  37.639  1.00  0.00    -0.237 OA
ATOM     87  O   UNL A   1      44.938  22.869  36.103  1.00  0.00    -0.237 OA
ATOM     88  O   UNL A   1      46.435  23.977  37.702  1.00  0.00    -0.744 OA
ENDBRANCH  82  85
ENDBRANCH  55  78
ENDBRANCH  29  30
ENDBRANCH  22  24
ENDBRANCH  21  22
ENDBRANCH  20  21
ENDBRANCH   1  20
TORSDOF 19
ENDMDL
MODEL 2
REMARK VINA RESULT:     -10.7      5.165     10.323
REMARK SMILES CN(C)c1cccc(C(C)(C)C(=O)OCCOCCOC(=O)c2ccc(-c3c4nc(c(-c5cccc(S(=O)(=O)[O-])c5F)c5ccc([nH]5)c(-c5cccc(S(=O)(=O)[O-])c5F)c5nc(c(-c6cccc(S(=O)(=O)[O-])c6F)c6ccc3[nH]6)C=C5)C=C4)cc2)c1
REMARK SMILES IDX 18 1 17 2 16 3 15 4 14 5 12 6 13 7 9 8 10 9 11 10 8 11 4 12
REMARK SMILES IDX 5 13 86 14 6 15 7 16 2 17 1 18 3 19 19 20 20 21 21 22 22 23
REMARK SMILES IDX 23 24 24 25 85 26 25 27 84 28 26 29 27 30 28 31 78 32 29 33
REMARK SMILES IDX 83 34 77 35 79 36 30 37 82 38 76 39 75 40 31 42 63 43 43 44
REMARK SMILES IDX 62 45 44 46 47 47 61 48 80 49 45 50 46 51 60 53 81 54 48 55
REMARK SMILES IDX 32 56 33 57 41 58 34 59 36 60 42 61 35 62 37 63 38 64 39 65
REMARK SMILES IDX 40 66 64 67 65 68 73 69 66 70 68 71 74 72 67 73 69 74 70 75
REMARK SMILES IDX 71 76 72 77 49 78 50 79 58 80 51 81 53 82 59 83 52 84 54 85
REMARK SMILES IDX 55 86 56 87 57 88
REMARK H PARENT 79 41 47 52
REMARK Flexibility Score: inf
ROOT
ATOM      1  C   UNL A   1      35.677  21.243  25.219  1.00  0.00     0.202 C 
ENDROOT
BRANCH   1   2
ATOM      2  O   UNL A   1      35.540  22.050  26.390  1.00  0.00    -0.374 OA
BRANCH   2   3
ATOM      3  C   UNL A   1      34.647  23.162  26.318  1.00  0.00     0.202 C 
BRANCH   3   4
ATOM      4  C   UNL A   1      34.775  24.078  25.095  1.00  0.00     0.261 C 
BRANCH   4   5
ATOM      5  O   UNL A   1      33.492  24.541  24.650  1.00  0.00    -0.463 OA
BRANCH   5   6
ATOM      6  C   UNL A   1      33.514  25.525  23.709  1.00  0.00     0.316 C 
ATOM      7  O   UNL A   1      33.878  25.351  22.549  1.00  0.00    -0.251 OA
BRANCH   6   8
ATOM      8  C   UNL A   1      32.977  26.877  24.235  1.00  0.00     0.087 C 
ATOM      9  C   UNL A   1      33.796  27.926  23.447  1.00  0.00     0.028 C 
ATOM     10  C   UNL A   1      33.250  27.109  25.737  1.00  0.00     0.028 C 
BRANCH   8  11
ATOM     11  C   UNL A   1      31.458  27.039  23.975  1.00  0.00    -0.029 A 
ATOM     12  C   UNL A   1      29.543  28.356  23.109  1.00  0.00     0.036 A 
ATOM     13  C   UNL A   1      28.687  27.349  23.568  1.00  0.00     0.026 A 
ATOM     14  C   UNL A   1      30.923  28.167  23.308  1.00  0.00     0.030 A 
ATOM     15  C   UNL A   1      29.182  26.203  24.189  1.00  0.00     0.002 A 
ATOM     16  C   UNL A   1      30.554  26.049  24.390  1.00  0.00     0.005 A 
BRANCH  12  17
ATOM     17  N   UNL A   1      29.018  29.502  22.507  1.00  0.00    -0.378 N 
ATOM     18  C   UNL A   1      29.780  30.198  21.479  1.00  0.00     0.143 C 
ATOM     19  C   UNL A   1      28.137  30.308  23.346  1.00  0.00     0.143 C 
ENDBRANCH  12  17
ENDBRANCH   8  11
ENDBRANCH   6   8
ENDBRANCH   5   6
ENDBRANCH   4   5
ENDBRANCH   3   4
ENDBRANCH   2   3
ENDBRANCH   1   2
BRANCH   1  20
ATOM     20  C   UNL A   1      36.999  20.490  25.017  1.00  0.00     0.261 C 
BRANCH  20  21
ATOM     21  O   UNL A   1      38.140  21.365  24.958  1.00  0.00    -0.460 OA
BRANCH  21  22
ATOM     22  C   UNL A   1      39.096  21.109  25.881  1.00  0.00     0.338 C 
ATOM     23  O   UNL A   1      39.664  20.040  26.077  1.00  0.00    -0.246 OA
BRANCH  22  24
ATOM     24  C   UNL A   1      39.535  22.356  26.532  1.00  0.00     0.060 A 
ATOM     25  C   UNL A   1      38.908  23.545  26.136  1.00  0.00     0.016 A 
ATOM     26  C   UNL A   1      40.597  22.381  27.437  1.00  0.00     0.016 A 
ATOM     27  C   UNL A   1      39.376  24.770  26.601  1.00  0.00     0.010 A 
ATOM     28  C   UNL A   1      41.072  23.615  27.897  1.00  0.00     0.010 A 
ATOM     29  C   UNL A   1      40.490  24.816  27.449  1.00  0.00    -0.014 A 
BRANCH  29  30
ATOM     30  C   UNL A   1      41.130  26.122  27.740  1.00  0.00     0.031 A 
ATOM     31  C   UNL A   1      42.539  26.365  27.269  1.00  0.00     0.074 A 
ATOM     32  C   UNL A   1      40.461  27.084  28.402  1.00  0.00     0.049 A 
ATOM     33  N   UNL A   1      43.287  27.427  27.412  1.00  0.00    -0.248 NA
ATOM     34  C   UNL A   1      43.192  25.265  26.538  1.00  0.00     0.031 C 
ATOM     35  C   UNL A   1      39.092  26.970  28.903  1.00  0.00     0.029 A 
ATOM     36  N   UNL A   1      40.855  28.342  28.785  1.00  0.00    -0.354 N 
ATOM     37  C   UNL A   1      44.508  27.114  26.825  1.00  0.00     0.074 A 
ATOM     38  C   UNL A   1      44.402  25.762  26.322  1.00  0.00     0.031 C 
ATOM     39  C   UNL A   1      38.769  28.103  29.550  1.00  0.00     0.029 A 
ATOM     40  C   UNL A   1      39.913  29.013  29.527  1.00  0.00     0.049 A 
ATOM     41  H   UNL A   1      41.731  28.726  28.551  1.00  0.00     0.167 HD
ATOM     42  C   UNL A   1      45.612  27.888  26.704  1.00  0.00     0.034 A 
ATOM     43  C   UNL A   1      39.975  30.215  30.133  1.00  0.00     0.034 A 
ATOM     44  C   UNL A   1      45.702  29.245  27.170  1.00  0.00     0.049 A 
ATOM     45  C   UNL A   1      41.225  31.047  29.990  1.00  0.00     0.074 A 
ATOM     46  C   UNL A   1      46.753  30.133  27.028  1.00  0.00     0.029 A 
ATOM     47  N   UNL A   1      44.712  29.905  27.878  1.00  0.00    -0.354 N 
ATOM     48  N   UNL A   1      42.314  30.792  29.307  1.00  0.00    -0.248 NA
ATOM     49  C   UNL A   1      41.239  32.349  30.676  1.00  0.00     0.031 C 
ATOM     50  C   UNL A   1      46.409  31.323  27.676  1.00  0.00     0.029 A 
ATOM     51  C   UNL A   1      45.133  31.184  28.198  1.00  0.00     0.049 A 
ATOM     52  H   UNL A   1      43.838  29.522  28.119  1.00  0.00     0.167 HD
ATOM     53  C   UNL A   1      43.124  31.915  29.446  1.00  0.00     0.074 A 
ATOM     54  C   UNL A   1      42.391  32.860  30.262  1.00  0.00     0.031 C 
ATOM     55  C   UNL A   1      44.367  32.139  28.954  1.00  0.00     0.034 A 
BRANCH  42  56
ATOM     56  C   UNL A   1      46.815  27.301  26.016  1.00  0.00     0.023 A 
ATOM     57  C   UNL A   1      46.972  27.461  24.626  1.00  0.00     0.012 A 
ATOM     58  C   UNL A   1      47.831  26.672  26.762  1.00  0.00     0.148 A 
ATOM     59  C   UNL A   1      48.116  26.988  23.983  1.00  0.00     0.002 A 
ATOM     60  C   UNL A   1      48.985  26.239  26.121  1.00  0.00     0.091 A 
ATOM     61  F   UNL A   1      47.649  26.512  28.080  1.00  0.00    -0.205 F 
ATOM     62  C   UNL A   1      49.126  26.389  24.732  1.00  0.00     0.022 A 
BRANCH  60  63
ATOM     63  S   UNL A   1      50.375  25.524  27.006  1.00  0.00     0.127 S 
ATOM     64  O   UNL A   1      51.318  25.269  25.917  1.00  0.00    -0.237 OA
ATOM     65  O   UNL A   1      50.761  26.612  27.904  1.00  0.00    -0.237 OA
ATOM     66  O   UNL A   1      49.861  24.337  27.673  1.00  0.00    -0.744 OA
ENDBRANCH  60  63
ENDBRANCH  42  56
BRANCH  43  67
ATOM     67  C   UNL A   1      38.809  30.731  30.905  1.00  0.00     0.023 A 
ATOM     68  C   UNL A   1      38.670  30.391  32.266  1.00  0.00     0.012 A 
ATOM     69  C   UNL A   1      37.833  31.547  30.300  1.00  0.00     0.148 A 
ATOM     70  C   UNL A   1      37.561  30.819  32.997  1.00  0.00     0.002 A 
ATOM     71  C   UNL A   1      36.760  32.016  31.050  1.00  0.00     0.091 A 
ATOM     72  F   UNL A   1      37.966  31.842  28.999  1.00  0.00    -0.205 F 
ATOM     73  C   UNL A   1      36.611  31.640  32.393  1.00  0.00     0.022 A 
BRANCH  71  74
ATOM     74  S   UNL A   1      35.565  33.177  30.378  1.00  0.00     0.127 S 
ATOM     75  O   UNL A   1      34.609  32.283  29.730  1.00  0.00    -0.237 OA
ATOM     76  O   UNL A   1      35.068  33.839  31.586  1.00  0.00    -0.237 OA
ATOM     77  O   UNL A   1      36.328  34.048  29.495  1.00  0.00    -0.744 OA
ENDBRANCH  71  74
ENDBRANCH  43  67
BRANCH  55  78
ATOM     78  C   UNL A   1      45.008  33.472  29.241  1.00  0.00     0.023 A 
ATOM     79  C   UNL A   1      45.817  33.630  30.382  1.00  0.00     0.012 A 
ATOM     80  C   UNL A   1      44.874  34.543  28.334  1.00  0.00     0.148 A 
ATOM     81  C   UNL A   1      46.459  34.842  30.635  1.00  0.00     0.002 A 
ATOM     82  C   UNL A   1      45.557  35.732  28.566  1.00  0.00     0.091 A 
ATOM     83  F   UNL A   1      44.086  34.379  27.262  1.00  0.00    -0.205 F 
ATOM     84  C   UNL A   1      46.340  35.887  29.721  1.00  0.00     0.022 A 
BRANCH  82  85
ATOM     85  S   UNL A   1      45.539  37.093  27.393  1.00  0.00     0.127 S 
ATOM     86  O   UNL A   1      46.318  36.542  26.286  1.00  0.00    -0.237 OA
ATOM     87  O   UNL A   1      44.111  37.247  27.116  1.00  0.00    -0.237 OA
ATOM     88  O   UNL A   1      46.144  38.223  28.084  1.00  0.00    -0.744 OA
ENDBRANCH  82  85
ENDBRANCH  55  78
ENDBRANCH  29  30
ENDBRANCH  22  24
ENDBRANCH  21  22
ENDBRANCH  20  21
ENDBRANCH   1  20
TORSDOF 19
ENDMDL
MODEL 3
REMARK VINA RESULT:     -10.6      6.129     12.502
REMARK SMILES CN(C)c1cccc(C(C)(C)C(=O)OCCOCCOC(=O)c2ccc(-c3c4nc(c(-c5cccc(S(=O)(=O)[O-])c5F)c5ccc([nH]5)c(-c5cccc(S(=O)(=O)[O-])c5F)c5nc(c(-c6cccc(S(=O)(=O)[O-])c6F)c6ccc3[nH]6)C=C5)C=C4)cc2)c1
REMARK SMILES IDX 18 1 17 2 16 3 15 4 14 5 12 6 13 7 9 8 10 9 11 10 8 11 4 12
REMARK SMILES IDX 5 13 86 14 6 15 7 16 2 17 1 18 3 19 19 20 20 21 21 22 22 23
REMARK SMILES IDX 23 24 24 25 85 26 25 27 84 28 26 29 27 30 28 31 78 32 29 33
REMARK SMILES IDX 83 34 77 35 79 36 30 37 82 38 76 39 75 40 31 42 63 43 43 44
REMARK SMILES IDX 62 45 44 46 47 47 61 48 80 49 45 50 46 51 60 53 81 54 48 55
REMARK SMILES IDX 32 56 33 57 41 58 34 59 36 60 42 61 35 62 37 63 38 64 39 65
REMARK SMILES IDX 40 66 64 67 65 68 73 69 66 70 68 71 74 72 67 73 69 74 70 75
REMARK SMILES IDX 71 76 72 77 49 78 50 79 58 80 51 81 53 82 59 83 52 84 54 85
REMARK SMILES IDX 55 86 56 87 57 88
REMARK H PARENT 79 41 47 52
REMARK Flexibility Score: inf
ROOT
ATOM      1  C   UNL A   1      42.655  20.681  26.359  1.00  0.00     0.202 C 
ENDROOT
BRANCH   1   2
ATOM      2  O   UNL A   1      43.240  20.938  25.080  1.00  0.00    -0.374 OA
BRANCH   2   3
ATOM      3  C   UNL A   1      43.344  22.302  24.670  1.00  0.00     0.202 C 
BRANCH   3   4
ATOM      4  C   UNL A   1      44.537  22.671  23.781  1.00  0.00     0.261 C 
BRANCH   4   5
ATOM      5  O   UNL A   1      45.371  23.660  24.405  1.00  0.00    -0.463 OA
BRANCH   5   6
ATOM      6  C   UNL A   1      45.988  23.270  25.554  1.00  0.00     0.316 C 
ATOM      7  O   UNL A   1      46.402  22.131  25.753  1.00  0.00    -0.251 OA
BRANCH   6   8
ATOM      8  C   UNL A   1      46.168  24.427  26.565  1.00  0.00     0.087 C 
ATOM      9  C   UNL A   1      45.908  25.695  25.718  1.00  0.00     0.028 C 
ATOM     10  C   UNL A   1      47.601  24.535  27.132  1.00  0.00     0.028 C 
BRANCH   8  11
ATOM     11  C   UNL A   1      45.173  24.326  27.748  1.00  0.00    -0.029 A 
ATOM     12  C   UNL A   1      44.639  24.611  30.153  1.00  0.00     0.036 A 
ATOM     13  C   UNL A   1      43.371  24.077  29.901  1.00  0.00     0.026 A 
ATOM     14  C   UNL A   1      45.512  24.743  29.057  1.00  0.00     0.030 A 
ATOM     15  C   UNL A   1      42.986  23.698  28.614  1.00  0.00     0.002 A 
ATOM     16  C   UNL A   1      43.878  23.823  27.549  1.00  0.00     0.005 A 
BRANCH  12  17
ATOM     17  N   UNL A   1      45.004  24.965  31.454  1.00  0.00    -0.378 N 
ATOM     18  C   UNL A   1      44.793  24.028  32.549  1.00  0.00     0.143 C 
ATOM     19  C   UNL A   1      44.922  26.388  31.768  1.00  0.00     0.143 C 
ENDBRANCH  12  17
ENDBRANCH   8  11
ENDBRANCH   6   8
ENDBRANCH   5   6
ENDBRANCH   4   5
ENDBRANCH   3   4
ENDBRANCH   2   3
ENDBRANCH   1   2
BRANCH   1  20
ATOM     20  C   UNL A   1      41.124  20.702  26.464  1.00  0.00     0.261 C 
BRANCH  20  21
ATOM     21  O   UNL A   1      40.630  21.814  27.233  1.00  0.00    -0.460 OA
BRANCH  21  22
ATOM     22  C   UNL A   1      39.607  22.488  26.657  1.00  0.00     0.338 C 
ATOM     23  O   UNL A   1      38.676  22.010  26.018  1.00  0.00    -0.246 OA
BRANCH  22  24
ATOM     24  C   UNL A   1      39.633  23.907  27.055  1.00  0.00     0.060 A 
ATOM     25  C   UNL A   1      40.094  24.833  26.110  1.00  0.00     0.016 A 
ATOM     26  C   UNL A   1      39.307  24.316  28.348  1.00  0.00     0.016 A 
ATOM     27  C   UNL A   1      40.284  26.164  26.471  1.00  0.00     0.010 A 
ATOM     28  C   UNL A   1      39.507  25.654  28.712  1.00  0.00     0.010 A 
ATOM     29  C   UNL A   1      40.035  26.573  27.786  1.00  0.00    -0.014 A 
BRANCH  29  30
ATOM     30  C   UNL A   1      40.469  27.922  28.224  1.00  0.00     0.031 A 
ATOM     31  C   UNL A   1      41.935  28.264  28.189  1.00  0.00     0.074 A 
ATOM     32  C   UNL A   1      39.570  28.836  28.633  1.00  0.00     0.049 A 
ATOM     33  N   UNL A   1      42.533  29.376  28.525  1.00  0.00    -0.248 NA
ATOM     34  C   UNL A   1      42.849  27.210  27.714  1.00  0.00     0.031 C 
ATOM     35  C   UNL A   1      38.125  28.626  28.705  1.00  0.00     0.029 A 
ATOM     36  N   UNL A   1      39.746  30.120  29.086  1.00  0.00    -0.354 N 
ATOM     37  C   UNL A   1      43.892  29.149  28.336  1.00  0.00     0.074 A 
ATOM     38  C   UNL A   1      44.032  27.792  27.857  1.00  0.00     0.031 C 
ATOM     39  C   UNL A   1      37.547  29.736  29.199  1.00  0.00     0.029 A 
ATOM     40  C   UNL A   1      38.582  30.724  29.497  1.00  0.00     0.049 A 
ATOM     41  H   UNL A   1      40.624  30.565  29.115  1.00  0.00     0.167 HD
ATOM     42  C   UNL A   1      44.927  29.999  28.532  1.00  0.00     0.034 A 
ATOM     43  C   UNL A   1      38.379  31.929  30.065  1.00  0.00     0.034 A 
ATOM     44  C   UNL A   1      44.782  31.360  28.971  1.00  0.00     0.049 A 
ATOM     45  C   UNL A   1      39.556  32.847  30.281  1.00  0.00     0.074 A 
ATOM     46  C   UNL A   1      45.766  32.321  29.128  1.00  0.00     0.029 A 
ATOM     47  N   UNL A   1      43.583  31.950  29.335  1.00  0.00    -0.354 N 
ATOM     48  N   UNL A   1      40.814  32.669  29.962  1.00  0.00    -0.248 NA
ATOM     49  C   UNL A   1      39.277  34.149  30.909  1.00  0.00     0.031 C 
ATOM     50  C   UNL A   1      45.165  33.485  29.615  1.00  0.00     0.029 A 
ATOM     51  C   UNL A   1      43.803  33.257  29.736  1.00  0.00     0.049 A 
ATOM     52  H   UNL A   1      42.705  31.507  29.313  1.00  0.00     0.167 HD
ATOM     53  C   UNL A   1      41.468  33.847  30.308  1.00  0.00     0.074 A 
ATOM     54  C   UNL A   1      40.463  34.740  30.846  1.00  0.00     0.031 C 
ATOM     55  C   UNL A   1      42.783  34.157  30.206  1.00  0.00     0.034 A 
BRANCH  42  56
ATOM     56  C   UNL A   1      46.318  29.498  28.249  1.00  0.00     0.023 A 
ATOM     57  C   UNL A   1      46.836  29.578  26.942  1.00  0.00     0.012 A 
ATOM     58  C   UNL A   1      47.138  29.031  29.295  1.00  0.00     0.148 A 
ATOM     59  C   UNL A   1      48.149  29.186  26.677  1.00  0.00     0.002 A 
ATOM     60  C   UNL A   1      48.456  28.681  29.030  1.00  0.00     0.091 A 
ATOM     61  F   UNL A   1      46.614  28.943  30.526  1.00  0.00    -0.205 F 
ATOM     62  C   UNL A   1      48.960  28.749  27.720  1.00  0.00     0.022 A 
BRANCH  60  63
ATOM     63  S   UNL A   1      49.603  28.178  30.317  1.00  0.00     0.127 S 
ATOM     64  O   UNL A   1      50.892  28.371  29.654  1.00  0.00    -0.237 OA
ATOM     65  O   UNL A   1      49.314  29.141  31.380  1.00  0.00    -0.237 OA
ATOM     66  O   UNL A   1      49.270  26.798  30.638  1.00  0.00    -0.744 OA
ENDBRANCH  60  63
ENDBRANCH  42  56
BRANCH  43  67
ATOM     67  C   UNL A   1      37.003  32.364  30.441  1.00  0.00     0.023 A 
ATOM     68  C   UNL A   1      36.543  32.154  31.756  1.00  0.00     0.012 A 
ATOM     69  C   UNL A   1      36.145  32.972  29.504  1.00  0.00     0.148 A 
ATOM     70  C   UNL A   1      35.242  32.505  32.119  1.00  0.00     0.002 A 
ATOM     71  C   UNL A   1      34.870  33.370  29.888  1.00  0.00     0.091 A 
ATOM     72  F   UNL A   1      36.589  33.143  28.250  1.00  0.00    -0.205 F 
ATOM     73  C   UNL A   1      34.409  33.122  31.190  1.00  0.00     0.022 A 
BRANCH  71  74
ATOM     74  S   UNL A   1      33.785  34.283  28.786  1.00  0.00     0.127 S 
ATOM     75  O   UNL A   1      32.686  34.645  29.677  1.00  0.00    -0.237 OA
ATOM     76  O   UNL A   1      34.637  35.399  28.371  1.00  0.00    -0.237 OA
ATOM     77  O   UNL A   1      33.458  33.355  27.711  1.00  0.00    -0.744 OA
ENDBRANCH  71  74
ENDBRANCH  43  67
BRANCH  55  78
ATOM     78  C   UNL A   1      43.218  35.533  30.638  1.00  0.00     0.023 A 
ATOM     79  C   UNL A   1      43.635  35.751  31.966  1.00  0.00     0.012 A 
ATOM     80  C   UNL A   1      43.292  36.589  29.708  1.00  0.00     0.148 A 
ATOM     81  C   UNL A   1      44.089  37.007  32.369  1.00  0.00     0.002 A 
ATOM     82  C   UNL A   1      43.792  37.824  30.104  1.00  0.00     0.091 A 
ATOM     83  F   UNL A   1      42.875  36.367  28.453  1.00  0.00    -0.205 F 
ATOM     84  C   UNL A   1      44.180  38.038  31.437  1.00  0.00     0.022 A 
BRANCH  82  85
ATOM     85  S   UNL A   1      44.037  39.177  28.948  1.00  0.00     0.127 S 
ATOM     86  O   UNL A   1      44.734  38.509  27.850  1.00  0.00    -0.237 OA
ATOM     87  O   UNL A   1      42.664  39.579  28.643  1.00  0.00    -0.237 OA
ATOM     88  O   UNL A   1      44.813  40.180  29.664  1.00  0.00    -0.744 OA
ENDBRANCH  82  85
ENDBRANCH  55  78
ENDBRANCH  29  30
ENDBRANCH  22  24
ENDBRANCH  21  22
ENDBRANCH  20  21
ENDBRANCH   1  20
TORSDOF 19
ENDMDL
