MODEL 1
REMARK VINA RESULT:     -11.3      0.000      0.000
REMARK SMILES O=C(OCCOCCOC(=O)C1([C@H]2CS(=O)(=O)C[C@H]2O)CCCC1)c1ccc(-c2c3nc(c(-c4cccc(S(=O)(=O)[O-])c4F)c4ccc([nH]4)c(-c4cccc(S(=O)(=O)[O-])c4F)c4nc(c(-c5cccc(S(=O)(=O)[O-])c5F)c5ccc2[nH]5)C=C4)C=C3)cc1
REMARK SMILES IDX 5 1 4 2 3 3 2 4 1 5 25 6 26 7 87 8 27 9 86 10 28 11 29 12
REMARK SMILES IDX 30 13 80 14 31 15 85 16 79 17 81 18 32 19 84 20 78 21 77 22
REMARK SMILES IDX 33 24 65 25 45 26 64 27 46 28 49 29 63 30 82 31 47 32 48 33
REMARK SMILES IDX 62 35 83 36 50 37 34 38 35 39 43 40 36 41 38 42 44 43 37 44
REMARK SMILES IDX 39 45 40 46 41 47 42 48 66 49 67 50 75 51 68 52 70 53 76 54
REMARK SMILES IDX 69 55 71 56 72 57 73 58 74 59 51 60 52 61 60 62 53 63 55 64
REMARK SMILES IDX 61 65 54 66 56 67 57 68 58 69 59 70 6 71 7 72 8 73 9 74
REMARK SMILES IDX 10 75 11 76 12 77 21 78 24 79 22 80 23 81 13 82 14 83 19 84
REMARK SMILES IDX 15 85 18 86 16 87 17 88 20 89
REMARK H PARENT 81 23 49 34 20 90
REMARK Flexibility Score: inf
ROOT
ATOM      1  C   UNL A   1      31.234  29.374  24.375  1.00  0.00     0.202 C 
ENDROOT
BRANCH   1   2
ATOM      2  C   UNL A   1      31.454  30.128  25.679  1.00  0.00     0.261 C 
BRANCH   2   3
ATOM      3  O   UNL A   1      32.838  30.445  25.882  1.00  0.00    -0.460 OA
BRANCH   3   4
ATOM      4  C   UNL A   1      33.287  31.270  26.867  1.00  0.00     0.338 C 
ATOM      5  O   UNL A   1      32.666  32.282  27.165  1.00  0.00    -0.246 OA
BRANCH   4   6
ATOM      6  C   UNL A   1      34.516  30.908  27.615  1.00  0.00     0.060 A 
ATOM      7  C   UNL A   1      35.402  31.888  28.044  1.00  0.00     0.016 A 
ATOM      8  C   UNL A   1      34.787  29.584  27.941  1.00  0.00     0.016 A 
ATOM      9  C   UNL A   1      36.644  31.588  28.542  1.00  0.00     0.010 A 
ATOM     10  C   UNL A   1      35.944  29.285  28.668  1.00  0.00     0.010 A 
ATOM     11  C   UNL A   1      36.884  30.292  28.956  1.00  0.00    -0.014 A 
BRANCH  11  12
ATOM     12  C   UNL A   1      38.120  30.051  29.719  1.00  0.00     0.031 A 
ATOM     13  C   UNL A   1      39.193  29.229  29.093  1.00  0.00     0.074 A 
ATOM     14  C   UNL A   1      38.273  30.631  30.929  1.00  0.00     0.049 A 
ATOM     15  N   UNL A   1      40.269  28.736  29.634  1.00  0.00    -0.248 NA
ATOM     16  C   UNL A   1      39.023  28.902  27.666  1.00  0.00     0.031 C 
ATOM     17  C   UNL A   1      37.311  31.544  31.565  1.00  0.00     0.029 A 
ATOM     18  N   UNL A   1      39.294  30.560  31.837  1.00  0.00    -0.354 N 
ATOM     19  C   UNL A   1      40.852  27.956  28.647  1.00  0.00     0.074 A 
ATOM     20  C   UNL A   1      40.030  28.068  27.464  1.00  0.00     0.031 C 
ATOM     21  C   UNL A   1      37.804  31.974  32.734  1.00  0.00     0.029 A 
ATOM     22  C   UNL A   1      39.047  31.270  32.991  1.00  0.00     0.049 A 
ATOM     23  H   UNL A   1      40.121  30.051  31.681  1.00  0.00     0.167 HD
ATOM     24  C   UNL A   1      41.967  27.200  28.746  1.00  0.00     0.034 A 
ATOM     25  C   UNL A   1      39.720  31.291  34.154  1.00  0.00     0.034 A 
ATOM     26  C   UNL A   1      42.762  27.149  29.941  1.00  0.00     0.049 A 
ATOM     27  C   UNL A   1      40.936  30.416  34.250  1.00  0.00     0.074 A 
ATOM     28  C   UNL A   1      43.900  26.410  30.195  1.00  0.00     0.029 A 
ATOM     29  N   UNL A   1      42.487  27.880  31.094  1.00  0.00    -0.354 N 
ATOM     30  N   UNL A   1      41.475  29.656  33.324  1.00  0.00    -0.248 NA
ATOM     31  C   UNL A   1      41.636  30.393  35.537  1.00  0.00     0.031 C 
ATOM     32  C   UNL A   1      44.295  26.672  31.513  1.00  0.00     0.029 A 
ATOM     33  C   UNL A   1      43.429  27.606  32.066  1.00  0.00     0.049 A 
ATOM     34  H   UNL A   1      41.731  28.501  31.201  1.00  0.00     0.167 HD
ATOM     35  C   UNL A   1      42.593  29.080  33.906  1.00  0.00     0.074 A 
ATOM     36  C   UNL A   1      42.663  29.601  35.261  1.00  0.00     0.031 C 
ATOM     37  C   UNL A   1      43.474  28.191  33.384  1.00  0.00     0.034 A 
BRANCH  24  38
ATOM     38  C   UNL A   1      42.317  26.345  27.561  1.00  0.00     0.023 A 
ATOM     39  C   UNL A   1      42.951  26.907  26.434  1.00  0.00     0.012 A 
ATOM     40  C   UNL A   1      41.952  24.985  27.540  1.00  0.00     0.148 A 
ATOM     41  C   UNL A   1      43.163  26.143  25.285  1.00  0.00     0.002 A 
ATOM     42  C   UNL A   1      42.211  24.219  26.411  1.00  0.00     0.091 A 
ATOM     43  F   UNL A   1      41.319  24.477  28.607  1.00  0.00    -0.205 F 
ATOM     44  C   UNL A   1      42.797  24.799  25.276  1.00  0.00     0.022 A 
BRANCH  42  45
ATOM     45  S   UNL A   1      41.834  22.465  26.327  1.00  0.00     0.127 S 
ATOM     46  O   UNL A   1      42.678  22.034  25.212  1.00  0.00    -0.237 OA
ATOM     47  O   UNL A   1      42.274  21.995  27.640  1.00  0.00    -0.237 OA
ATOM     48  O   UNL A   1      40.400  22.370  26.095  1.00  0.00    -0.744 OA
ENDBRANCH  42  45
ENDBRANCH  24  38
BRANCH  25  49
ATOM     49  C   UNL A   1      39.251  32.134  35.293  1.00  0.00     0.023 A 
ATOM     50  C   UNL A   1      38.342  31.595  36.223  1.00  0.00     0.012 A 
ATOM     51  C   UNL A   1      39.730  33.447  35.489  1.00  0.00     0.148 A 
ATOM     52  C   UNL A   1      37.900  32.353  37.309  1.00  0.00     0.002 A 
ATOM     53  C   UNL A   1      39.329  34.176  36.604  1.00  0.00     0.091 A 
ATOM     54  F   UNL A   1      40.587  33.951  34.591  1.00  0.00    -0.205 F 
ATOM     55  C   UNL A   1      38.400  33.637  37.507  1.00  0.00     0.022 A 
BRANCH  53  56
ATOM     56  S   UNL A   1      40.016  35.787  37.007  1.00  0.00     0.127 S 
ATOM     57  O   UNL A   1      39.325  36.103  38.255  1.00  0.00    -0.237 OA
ATOM     58  O   UNL A   1      41.440  35.480  37.152  1.00  0.00    -0.237 OA
ATOM     59  O   UNL A   1      39.699  36.647  35.876  1.00  0.00    -0.744 OA
ENDBRANCH  53  56
ENDBRANCH  25  49
BRANCH  37  60
ATOM     60  C   UNL A   1      44.613  27.773  34.268  1.00  0.00     0.023 A 
ATOM     61  C   UNL A   1      45.818  28.499  34.256  1.00  0.00     0.012 A 
ATOM     62  C   UNL A   1      44.442  26.711  35.177  1.00  0.00     0.148 A 
ATOM     63  C   UNL A   1      46.854  28.154  35.121  1.00  0.00     0.002 A 
ATOM     64  C   UNL A   1      45.455  26.413  36.075  1.00  0.00     0.091 A 
ATOM     65  F   UNL A   1      43.292  26.024  35.148  1.00  0.00    -0.205 F 
ATOM     66  C   UNL A   1      46.667  27.123  36.040  1.00  0.00     0.022 A 
BRANCH  64  67
ATOM     67  S   UNL A   1      45.253  25.182  37.365  1.00  0.00     0.127 S 
ATOM     68  O   UNL A   1      45.093  23.957  36.584  1.00  0.00    -0.237 OA
ATOM     69  O   UNL A   1      46.520  25.285  38.090  1.00  0.00    -0.237 OA
ATOM     70  O   UNL A   1      44.084  25.590  38.131  1.00  0.00    -0.744 OA
ENDBRANCH  64  67
ENDBRANCH  37  60
ENDBRANCH  11  12
ENDBRANCH   4   6
ENDBRANCH   3   4
ENDBRANCH   2   3
ENDBRANCH   1   2
BRANCH   1  71
ATOM     71  O   UNL A   1      30.755  28.046  24.444  1.00  0.00    -0.374 OA
BRANCH  71  72
ATOM     72  C   UNL A   1      30.080  27.512  23.318  1.00  0.00     0.202 C 
BRANCH  72  73
ATOM     73  C   UNL A   1      31.145  27.153  22.285  1.00  0.00     0.261 C 
BRANCH  73  74
ATOM     74  O   UNL A   1      31.533  25.779  22.481  1.00  0.00    -0.463 OA
BRANCH  74  75
ATOM     75  C   UNL A   1      32.866  25.471  22.417  1.00  0.00     0.312 C 
ATOM     76  O   UNL A   1      33.651  25.885  21.577  1.00  0.00    -0.252 OA
BRANCH  75  77
ATOM     77  C   UNL A   1      33.248  24.482  23.547  1.00  0.00     0.074 C 
ATOM     78  C   UNL A   1      34.756  24.158  23.495  1.00  0.00     0.019 C 
ATOM     79  C   UNL A   1      33.077  25.327  24.833  1.00  0.00     0.019 C 
ATOM     80  C   UNL A   1      35.263  24.221  24.921  1.00  0.00     0.001 C 
ATOM     81  C   UNL A   1      34.358  25.196  25.647  1.00  0.00     0.001 C 
BRANCH  77  82
ATOM     82  C   UNL A   1      32.291  23.212  23.510  1.00  0.00     0.051 C 
ATOM     83  C   UNL A   1      32.988  21.839  23.618  1.00  0.00     0.144 C 
ATOM     84  C   UNL A   1      31.108  23.075  24.499  1.00  0.00     0.134 C 
ATOM     85  S   UNL A   1      32.705  21.163  25.244  1.00  0.00     0.153 S 
ATOM     86  C   UNL A   1      31.582  22.414  25.783  1.00  0.00     0.169 C 
ATOM     87  O   UNL A   1      31.973  19.918  25.124  1.00  0.00    -0.229 OA
ATOM     88  O   UNL A   1      33.920  21.268  26.022  1.00  0.00    -0.229 OA
BRANCH  84  89
ATOM     89  O   UNL A   1      30.409  24.281  24.730  1.00  0.00    -0.392 OA
ATOM     90  H   UNL A   1      29.759  24.147  25.436  1.00  0.00     0.211 HD
ENDBRANCH  84  89
ENDBRANCH  77  82
ENDBRANCH  75  77
ENDBRANCH  74  75
ENDBRANCH  73  74
ENDBRANCH  72  73
ENDBRANCH  71  72
ENDBRANCH   1  71
TORSDOF 19
ENDMDL
MODEL 2
REMARK VINA RESULT:     -11.2      1.556      2.017
REMARK SMILES O=C(OCCOCCOC(=O)C1([C@H]2CS(=O)(=O)C[C@H]2O)CCCC1)c1ccc(-c2c3nc(c(-c4cccc(S(=O)(=O)[O-])c4F)c4ccc([nH]4)c(-c4cccc(S(=O)(=O)[O-])c4F)c4nc(c(-c5cccc(S(=O)(=O)[O-])c5F)c5ccc2[nH]5)C=C4)C=C3)cc1
REMARK SMILES IDX 5 1 4 2 3 3 2 4 1 5 25 6 26 7 87 8 27 9 86 10 28 11 29 12
REMARK SMILES IDX 30 13 80 14 31 15 85 16 79 17 81 18 32 19 84 20 78 21 77 22
REMARK SMILES IDX 33 24 65 25 45 26 64 27 46 28 49 29 63 30 82 31 47 32 48 33
REMARK SMILES IDX 62 35 83 36 50 37 34 38 35 39 43 40 36 41 38 42 44 43 37 44
REMARK SMILES IDX 39 45 40 46 41 47 42 48 66 49 67 50 75 51 68 52 70 53 76 54
REMARK SMILES IDX 69 55 71 56 72 57 73 58 74 59 51 60 52 61 60 62 53 63 55 64
REMARK SMILES IDX 61 65 54 66 56 67 57 68 58 69 59 70 6 71 7 72 8 73 9 74
REMARK SMILES IDX 10 75 11 76 12 77 21 78 24 79 22 80 23 81 13 82 14 83 19 84
REMARK SMILES IDX 15 85 18 86 16 87 17 88 20 89
REMARK H PARENT 81 23 49 34 20 90
REMARK Flexibility Score: inf
ROOT
ATOM      1  C   UNL A   1      31.669  28.649  24.081  1.00  0.00     0.202 C 
ENDROOT
BRANCH   1   2
ATOM      2  C   UNL A   1      31.659  29.697  25.186  1.00  0.00     0.261 C 
BRANCH   2   3
ATOM      3  O   UNL A   1      32.953  29.848  25.785  1.00  0.00    -0.460 OA
BRANCH   3   4
ATOM      4  C   UNL A   1      33.247  30.796  26.717  1.00  0.00     0.338 C 
ATOM      5  O   UNL A   1      32.477  31.725  26.928  1.00  0.00    -0.246 OA
BRANCH   4   6
ATOM      6  C   UNL A   1      34.491  30.671  27.514  1.00  0.00     0.060 A 
ATOM      7  C   UNL A   1      34.942  29.427  27.939  1.00  0.00     0.016 A 
ATOM      8  C   UNL A   1      35.258  31.790  27.818  1.00  0.00     0.016 A 
ATOM      9  C   UNL A   1      35.957  29.286  28.850  1.00  0.00     0.010 A 
ATOM     10  C   UNL A   1      36.439  31.629  28.551  1.00  0.00     0.010 A 
ATOM     11  C   UNL A   1      36.780  30.370  29.082  1.00  0.00    -0.014 A 
BRANCH  11  12
ATOM     12  C   UNL A   1      38.007  30.126  29.859  1.00  0.00     0.031 A 
ATOM     13  C   UNL A   1      39.106  29.347  29.225  1.00  0.00     0.074 A 
ATOM     14  C   UNL A   1      38.126  30.665  31.091  1.00  0.00     0.049 A 
ATOM     15  N   UNL A   1      40.182  28.855  29.768  1.00  0.00    -0.248 NA
ATOM     16  C   UNL A   1      38.969  29.068  27.784  1.00  0.00     0.031 C 
ATOM     17  C   UNL A   1      37.135  31.536  31.741  1.00  0.00     0.029 A 
ATOM     18  N   UNL A   1      39.131  30.581  32.016  1.00  0.00    -0.354 N 
ATOM     19  C   UNL A   1      40.798  28.122  28.765  1.00  0.00     0.074 A 
ATOM     20  C   UNL A   1      39.995  28.260  27.572  1.00  0.00     0.031 C 
ATOM     21  C   UNL A   1      37.598  31.933  32.933  1.00  0.00     0.029 A 
ATOM     22  C   UNL A   1      38.850  31.244  33.189  1.00  0.00     0.049 A 
ATOM     23  H   UNL A   1      39.971  30.093  31.857  1.00  0.00     0.167 HD
ATOM     24  C   UNL A   1      41.926  27.384  28.859  1.00  0.00     0.034 A 
ATOM     25  C   UNL A   1      39.501  31.236  34.365  1.00  0.00     0.034 A 
ATOM     26  C   UNL A   1      42.699  27.306  30.066  1.00  0.00     0.049 A 
ATOM     27  C   UNL A   1      40.732  30.381  34.453  1.00  0.00     0.074 A 
ATOM     28  C   UNL A   1      43.847  26.580  30.315  1.00  0.00     0.029 A 
ATOM     29  N   UNL A   1      42.390  27.989  31.239  1.00  0.00    -0.354 N 
ATOM     30  N   UNL A   1      41.302  29.665  33.511  1.00  0.00    -0.248 NA
ATOM     31  C   UNL A   1      41.408  30.325  35.751  1.00  0.00     0.031 C 
ATOM     32  C   UNL A   1      44.213  26.802  31.648  1.00  0.00     0.029 A 
ATOM     33  C   UNL A   1      43.319  27.699  32.218  1.00  0.00     0.049 A 
ATOM     34  H   UNL A   1      41.619  28.592  31.353  1.00  0.00     0.167 HD
ATOM     35  C   UNL A   1      42.420  29.090  34.093  1.00  0.00     0.074 A 
ATOM     36  C   UNL A   1      42.455  29.563  35.466  1.00  0.00     0.031 C 
ATOM     37  C   UNL A   1      43.328  28.237  33.557  1.00  0.00     0.034 A 
BRANCH  24  38
ATOM     38  C   UNL A   1      42.314  26.579  27.651  1.00  0.00     0.023 A 
ATOM     39  C   UNL A   1      42.926  27.198  26.543  1.00  0.00     0.012 A 
ATOM     40  C   UNL A   1      42.006  25.205  27.590  1.00  0.00     0.148 A 
ATOM     41  C   UNL A   1      43.173  26.478  25.373  1.00  0.00     0.002 A 
ATOM     42  C   UNL A   1      42.299  24.483  26.441  1.00  0.00     0.091 A 
ATOM     43  F   UNL A   1      41.392  24.641  28.640  1.00  0.00    -0.205 F 
ATOM     44  C   UNL A   1      42.864  25.120  25.324  1.00  0.00     0.022 A 
BRANCH  42  45
ATOM     45  S   UNL A   1      41.997  22.719  26.305  1.00  0.00     0.127 S 
ATOM     46  O   UNL A   1      40.535  22.669  26.280  1.00  0.00    -0.237 OA
ATOM     47  O   UNL A   1      42.639  22.396  25.031  1.00  0.00    -0.237 OA
ATOM     48  O   UNL A   1      42.621  22.111  27.472  1.00  0.00    -0.744 OA
ENDBRANCH  42  45
ENDBRANCH  24  38
BRANCH  25  49
ATOM     49  C   UNL A   1      38.994  32.029  35.524  1.00  0.00     0.023 A 
ATOM     50  C   UNL A   1      39.168  33.425  35.534  1.00  0.00     0.012 A 
ATOM     51  C   UNL A   1      38.302  31.419  36.592  1.00  0.00     0.148 A 
ATOM     52  C   UNL A   1      38.687  34.196  36.595  1.00  0.00     0.002 A 
ATOM     53  C   UNL A   1      37.777  32.198  37.617  1.00  0.00     0.091 A 
ATOM     54  F   UNL A   1      38.152  30.087  36.574  1.00  0.00    -0.205 F 
ATOM     55  C   UNL A   1      37.982  33.585  37.630  1.00  0.00     0.022 A 
BRANCH  53  56
ATOM     56  S   UNL A   1      36.749  31.515  38.924  1.00  0.00     0.127 S 
ATOM     57  O   UNL A   1      37.602  31.690  40.097  1.00  0.00    -0.237 OA
ATOM     58  O   UNL A   1      35.579  32.394  38.878  1.00  0.00    -0.237 OA
ATOM     59  O   UNL A   1      36.481  30.137  38.539  1.00  0.00    -0.744 OA
ENDBRANCH  53  56
ENDBRANCH  25  49
BRANCH  37  60
ATOM     60  C   UNL A   1      44.458  27.809  34.447  1.00  0.00     0.023 A 
ATOM     61  C   UNL A   1      45.632  28.582  34.517  1.00  0.00     0.012 A 
ATOM     62  C   UNL A   1      44.308  26.685  35.281  1.00  0.00     0.148 A 
ATOM     63  C   UNL A   1      46.657  28.225  35.390  1.00  0.00     0.002 A 
ATOM     64  C   UNL A   1      45.307  26.371  36.188  1.00  0.00     0.091 A 
ATOM     65  F   UNL A   1      43.189  25.955  35.174  1.00  0.00    -0.205 F 
ATOM     66  C   UNL A   1      46.488  27.130  36.236  1.00  0.00     0.022 A 
BRANCH  64  67
ATOM     67  S   UNL A   1      45.121  25.052  37.392  1.00  0.00     0.127 S 
ATOM     68  O   UNL A   1      43.941  25.491  38.134  1.00  0.00    -0.237 OA
ATOM     69  O   UNL A   1      44.907  23.884  36.537  1.00  0.00    -0.237 OA
ATOM     70  O   UNL A   1      46.363  25.024  38.152  1.00  0.00    -0.744 OA
ENDBRANCH  64  67
ENDBRANCH  37  60
ENDBRANCH  11  12
ENDBRANCH   4   6
ENDBRANCH   3   4
ENDBRANCH   2   3
ENDBRANCH   1   2
BRANCH   1  71
ATOM     71  O   UNL A   1      32.441  28.906  22.925  1.00  0.00    -0.374 OA
BRANCH  71  72
ATOM     72  C   UNL A   1      33.623  28.151  22.721  1.00  0.00     0.202 C 
BRANCH  72  73
ATOM     73  C   UNL A   1      33.224  26.888  21.964  1.00  0.00     0.261 C 
BRANCH  73  74
ATOM     74  O   UNL A   1      33.711  25.742  22.690  1.00  0.00    -0.463 OA
BRANCH  74  75
ATOM     75  C   UNL A   1      32.794  24.846  23.169  1.00  0.00     0.312 C 
ATOM     76  O   UNL A   1      31.584  24.915  23.012  1.00  0.00    -0.252 OA
BRANCH  75  77
ATOM     77  C   UNL A   1      33.499  23.733  23.983  1.00  0.00     0.074 C 
ATOM     78  C   UNL A   1      34.651  23.111  23.164  1.00  0.00     0.019 C 
ATOM     79  C   UNL A   1      34.208  24.513  25.117  1.00  0.00     0.019 C 
ATOM     80  C   UNL A   1      35.831  22.981  24.104  1.00  0.00     0.001 C 
ATOM     81  C   UNL A   1      35.666  24.073  25.142  1.00  0.00     0.001 C 
BRANCH  77  82
ATOM     82  C   UNL A   1      32.429  22.689  24.526  1.00  0.00     0.051 C 
ATOM     83  C   UNL A   1      32.471  21.285  23.887  1.00  0.00     0.144 C 
ATOM     84  C   UNL A   1      32.316  22.374  26.038  1.00  0.00     0.134 C 
ATOM     85  S   UNL A   1      33.183  20.132  25.047  1.00  0.00     0.153 S 
ATOM     86  C   UNL A   1      33.278  21.255  26.405  1.00  0.00     0.169 C 
ATOM     87  O   UNL A   1      32.206  19.112  25.369  1.00  0.00    -0.229 OA
ATOM     88  O   UNL A   1      34.528  19.804  24.626  1.00  0.00    -0.229 OA
BRANCH  84  89
ATOM     89  O   UNL A   1      32.450  23.506  26.871  1.00  0.00    -0.392 OA
ATOM     90  H   UNL A   1      32.021  24.268  26.453  1.00  0.00     0.211 HD
ENDBRANCH  84  89
ENDBRANCH  77  82
ENDBRANCH  75  77
ENDBRANCH  74  75
ENDBRANCH  73  74
ENDBRANCH  72  73
ENDBRANCH  71  72
ENDBRANCH   1  71
TORSDOF 19
ENDMDL
MODEL 3
REMARK VINA RESULT:     -11.1      5.208      9.974
REMARK SMILES O=C(OCCOCCOC(=O)C1([C@H]2CS(=O)(=O)C[C@H]2O)CCCC1)c1ccc(-c2c3nc(c(-c4cccc(S(=O)(=O)[O-])c4F)c4ccc([nH]4)c(-c4cccc(S(=O)(=O)[O-])c4F)c4nc(c(-c5cccc(S(=O)(=O)[O-])c5F)c5ccc2[nH]5)C=C4)C=C3)cc1
REMARK SMILES IDX 5 1 4 2 3 3 2 4 1 5 25 6 26 7 87 8 27 9 86 10 28 11 29 12
REMARK SMILES IDX 30 13 80 14 31 15 85 16 79 17 81 18 32 19 84 20 78 21 77 22
REMARK SMILES IDX 33 24 65 25 45 26 64 27 46 28 49 29 63 30 82 31 47 32 48 33
REMARK SMILES IDX 62 35 83 36 50 37 34 38 35 39 43 40 36 41 38 42 44 43 37 44
REMARK SMILES IDX 39 45 40 46 41 47 42 48 66 49 67 50 75 51 68 52 70 53 76 54
REMARK SMILES IDX 69 55 71 56 72 57 73 58 74 59 51 60 52 61 60 62 53 63 55 64
REMARK SMILES IDX 61 65 54 66 56 67 57 68 58 69 59 70 6 71 7 72 8 73 9 74
REMARK SMILES IDX 10 75 11 76 12 77 21 78 24 79 22 80 23 81 13 82 14 83 19 84
REMARK SMILES IDX 15 85 18 86 16 87 17 88 20 89
REMARK H PARENT 81 23 49 34 20 90
REMARK Flexibility Score: inf
ROOT
ATOM      1  C   UNL A   1      35.791  20.433  25.010  1.00  0.00     0.202 C 
ENDROOT
BRANCH   1   2
ATOM      2  C   UNL A   1      37.144  21.089  24.768  1.00  0.00     0.261 C 
BRANCH   2   3
ATOM      3  O   UNL A   1      37.658  21.701  25.958  1.00  0.00    -0.460 OA
BRANCH   3   4
ATOM      4  C   UNL A   1      38.981  21.728  26.281  1.00  0.00     0.338 C 
ATOM      5  O   UNL A   1      39.663  20.713  26.209  1.00  0.00    -0.246 OA
BRANCH   4   6
ATOM      6  C   UNL A   1      39.606  23.013  26.679  1.00  0.00     0.060 A 
ATOM      7  C   UNL A   1      40.697  23.037  27.538  1.00  0.00     0.016 A 
ATOM      8  C   UNL A   1      39.141  24.219  26.166  1.00  0.00     0.016 A 
ATOM      9  C   UNL A   1      41.165  24.199  28.097  1.00  0.00     0.010 A 
ATOM     10  C   UNL A   1      39.772  25.409  26.546  1.00  0.00     0.010 A 
ATOM     11  C   UNL A   1      40.780  25.397  27.529  1.00  0.00    -0.014 A 
BRANCH  11  12
ATOM     12  C   UNL A   1      41.489  26.608  27.975  1.00  0.00     0.031 A 
ATOM     13  C   UNL A   1      40.748  27.602  28.800  1.00  0.00     0.074 A 
ATOM     14  C   UNL A   1      42.798  26.753  27.679  1.00  0.00     0.049 A 
ATOM     15  N   UNL A   1      41.100  28.807  29.144  1.00  0.00    -0.248 NA
ATOM     16  C   UNL A   1      39.422  27.190  29.294  1.00  0.00     0.031 C 
ATOM     17  C   UNL A   1      43.626  25.768  26.966  1.00  0.00     0.029 A 
ATOM     18  N   UNL A   1      43.675  27.768  27.950  1.00  0.00    -0.354 N 
ATOM     19  C   UNL A   1      40.001  29.337  29.804  1.00  0.00     0.074 A 
ATOM     20  C   UNL A   1      38.984  28.311  29.843  1.00  0.00     0.031 C 
ATOM     21  C   UNL A   1      44.889  26.209  26.893  1.00  0.00     0.029 A 
ATOM     22  C   UNL A   1      44.932  27.557  27.431  1.00  0.00     0.049 A 
ATOM     23  H   UNL A   1      43.428  28.571  28.464  1.00  0.00     0.167 HD
ATOM     24  C   UNL A   1      39.865  30.583  30.307  1.00  0.00     0.034 A 
ATOM     25  C   UNL A   1      45.982  28.391  27.340  1.00  0.00     0.034 A 
ATOM     26  C   UNL A   1      40.922  31.553  30.264  1.00  0.00     0.049 A 
ATOM     27  C   UNL A   1      45.793  29.780  27.876  1.00  0.00     0.074 A 
ATOM     28  C   UNL A   1      40.919  32.860  30.710  1.00  0.00     0.029 A 
ATOM     29  N   UNL A   1      42.185  31.310  29.732  1.00  0.00    -0.354 N 
ATOM     30  N   UNL A   1      44.743  30.292  28.478  1.00  0.00    -0.248 NA
ATOM     31  C   UNL A   1      46.916  30.709  27.722  1.00  0.00     0.031 C 
ATOM     32  C   UNL A   1      42.171  33.414  30.420  1.00  0.00     0.029 A 
ATOM     33  C   UNL A   1      42.969  32.442  29.832  1.00  0.00     0.049 A 
ATOM     34  H   UNL A   1      42.477  30.454  29.341  1.00  0.00     0.167 HD
ATOM     35  C   UNL A   1      45.085  31.595  28.799  1.00  0.00     0.074 A 
ATOM     36  C   UNL A   1      46.451  31.785  28.342  1.00  0.00     0.031 C 
ATOM     37  C   UNL A   1      44.341  32.558  29.400  1.00  0.00     0.034 A 
BRANCH  24  38
ATOM     38  C   UNL A   1      38.517  30.947  30.865  1.00  0.00     0.023 A 
ATOM     39  C   UNL A   1      38.164  30.582  32.181  1.00  0.00     0.012 A 
ATOM     40  C   UNL A   1      37.570  31.599  30.052  1.00  0.00     0.148 A 
ATOM     41  C   UNL A   1      36.872  30.808  32.657  1.00  0.00     0.002 A 
ATOM     42  C   UNL A   1      36.301  31.865  30.550  1.00  0.00     0.091 A 
ATOM     43  F   UNL A   1      37.912  31.906  28.793  1.00  0.00    -0.205 F 
ATOM     44  C   UNL A   1      35.943  31.453  31.844  1.00  0.00     0.022 A 
BRANCH  42  45
ATOM     45  S   UNL A   1      35.057  32.746  29.602  1.00  0.00     0.127 S 
ATOM     46  O   UNL A   1      34.530  31.684  28.745  1.00  0.00    -0.237 OA
ATOM     47  O   UNL A   1      34.139  33.196  30.647  1.00  0.00    -0.237 OA
ATOM     48  O   UNL A   1      35.760  33.815  28.908  1.00  0.00    -0.744 OA
ENDBRANCH  42  45
ENDBRANCH  24  38
BRANCH  25  49
ATOM     49  C   UNL A   1      47.260  27.945  26.710  1.00  0.00     0.023 A 
ATOM     50  C   UNL A   1      48.304  27.471  27.526  1.00  0.00     0.012 A 
ATOM     51  C   UNL A   1      47.433  27.941  25.310  1.00  0.00     0.148 A 
ATOM     52  C   UNL A   1      49.503  27.028  26.965  1.00  0.00     0.002 A 
ATOM     53  C   UNL A   1      48.609  27.446  24.754  1.00  0.00     0.091 A 
ATOM     54  F   UNL A   1      46.435  28.404  24.545  1.00  0.00    -0.205 F 
ATOM     55  C   UNL A   1      49.652  27.005  25.581  1.00  0.00     0.022 A 
BRANCH  53  56
ATOM     56  S   UNL A   1      48.840  27.261  22.981  1.00  0.00     0.127 S 
ATOM     57  O   UNL A   1      50.295  27.303  22.864  1.00  0.00    -0.237 OA
ATOM     58  O   UNL A   1      48.240  25.948  22.735  1.00  0.00    -0.237 OA
ATOM     59  O   UNL A   1      48.125  28.372  22.370  1.00  0.00    -0.744 OA
ENDBRANCH  53  56
ENDBRANCH  25  49
BRANCH  37  60
ATOM     60  C   UNL A   1      45.014  33.878  29.639  1.00  0.00     0.023 A 
ATOM     61  C   UNL A   1      45.752  34.089  30.819  1.00  0.00     0.012 A 
ATOM     62  C   UNL A   1      44.984  34.871  28.643  1.00  0.00     0.148 A 
ATOM     63  C   UNL A   1      46.432  35.288  31.016  1.00  0.00     0.002 A 
ATOM     64  C   UNL A   1      45.711  36.038  28.821  1.00  0.00     0.091 A 
ATOM     65  F   UNL A   1      44.253  34.651  27.542  1.00  0.00    -0.205 F 
ATOM     66  C   UNL A   1      46.425  36.255  30.012  1.00  0.00     0.022 A 
BRANCH  64  67
ATOM     67  S   UNL A   1      45.851  37.280  27.533  1.00  0.00     0.127 S 
ATOM     68  O   UNL A   1      46.734  38.261  28.162  1.00  0.00    -0.237 OA
ATOM     69  O   UNL A   1      46.457  36.522  26.439  1.00  0.00    -0.237 OA
ATOM     70  O   UNL A   1      44.494  37.740  27.270  1.00  0.00    -0.744 OA
ENDBRANCH  64  67
ENDBRANCH  37  60
ENDBRANCH  11  12
ENDBRANCH   4   6
ENDBRANCH   3   4
ENDBRANCH   2   3
ENDBRANCH   1   2
BRANCH   1  71
ATOM     71  O   UNL A   1      34.634  21.240  24.926  1.00  0.00    -0.374 OA
BRANCH  71  72
ATOM     72  C   UNL A   1      33.590  21.023  25.860  1.00  0.00     0.202 C 
BRANCH  72  73
ATOM     73  C   UNL A   1      33.813  21.993  27.017  1.00  0.00     0.261 C 
BRANCH  73  74
ATOM     74  O   UNL A   1      33.712  23.340  26.515  1.00  0.00    -0.463 OA
BRANCH  74  75
ATOM     75  C   UNL A   1      32.517  23.992  26.657  1.00  0.00     0.312 C 
ATOM     76  O   UNL A   1      31.614  23.666  27.413  1.00  0.00    -0.252 OA
BRANCH  75  77
ATOM     77  C   UNL A   1      32.441  25.199  25.689  1.00  0.00     0.074 C 
ATOM     78  C   UNL A   1      31.501  26.286  26.253  1.00  0.00     0.019 C 
ATOM     79  C   UNL A   1      33.855  25.823  25.784  1.00  0.00     0.019 C 
ATOM     80  C   UNL A   1      32.202  27.614  26.053  1.00  0.00     0.001 C 
ATOM     81  C   UNL A   1      33.687  27.311  26.064  1.00  0.00     0.001 C 
BRANCH  77  82
ATOM     82  C   UNL A   1      32.081  24.703  24.221  1.00  0.00     0.051 C 
ATOM     83  C   UNL A   1      31.071  25.573  23.444  1.00  0.00     0.144 C 
ATOM     84  C   UNL A   1      33.190  24.445  23.172  1.00  0.00     0.134 C 
ATOM     85  S   UNL A   1      31.936  26.499  22.189  1.00  0.00     0.153 S 
ATOM     86  C   UNL A   1      33.507  25.733  22.428  1.00  0.00     0.169 C 
ATOM     87  O   UNL A   1      31.439  26.117  20.883  1.00  0.00    -0.229 OA
ATOM     88  O   UNL A   1      32.031  27.883  22.601  1.00  0.00    -0.229 OA
BRANCH  84  89
ATOM     89  O   UNL A   1      34.342  23.818  23.696  1.00  0.00    -0.392 OA
ATOM     90  H   UNL A   1      34.469  24.093  24.617  1.00  0.00     0.211 HD
ENDBRANCH  84  89
ENDBRANCH  77  82
ENDBRANCH  75  77
ENDBRANCH  74  75
ENDBRANCH  73  74
ENDBRANCH  72  73
ENDBRANCH  71  72
ENDBRANCH   1  71
TORSDOF 19
ENDMDL
