MODEL 1
REMARK VINA RESULT:     -11.1      0.000      0.000
REMARK SMILES CCc1cc(C(=O)N[C@@H]2C=C[C@H](C(=O)OCCOCCOC(=O)c3ccc(-c4c5nc(c(-c6cccc(S(=O)(=O)[O-])c6F)c6ccc([nH]6)c(-c6cccc(S(=O)(=O)[O-])c6F)c6nc(c(-c7cccc(S(=O)(=O)[O-])c7F)c7ccc4[nH]7)C=C6)C=C5)cc3)C2)n(C)n1
REMARK SMILES IDX 18 1 17 2 16 3 15 4 13 5 14 6 12 7 9 8 10 9 87 10 11 11 8 12
REMARK SMILES IDX 6 13 7 14 5 16 3 17 4 18 90 19 88 20 89 21 2 22 1 23 19 24
REMARK SMILES IDX 20 25 21 26 22 27 23 28 24 29 25 30 86 31 26 32 85 33 27 34
REMARK SMILES IDX 28 35 29 36 79 37 30 38 84 39 78 40 80 41 31 42 83 43 77 44
REMARK SMILES IDX 76 45 32 47 64 48 44 49 63 50 45 51 48 52 62 53 81 54 46 55
REMARK SMILES IDX 47 56 61 58 82 59 49 60 33 61 34 62 42 63 35 64 37 65 43 66
REMARK SMILES IDX 36 67 38 68 39 69 40 70 41 71 65 72 66 73 74 74 67 75 69 76
REMARK SMILES IDX 75 77 68 78 70 79 71 80 72 81 73 82 50 83 51 84 59 85 52 86
REMARK SMILES IDX 54 87 60 88 53 89 55 90 56 91 57 92 58 93
REMARK H PARENT 8 15 80 46 48 57
REMARK Flexibility Score: inf
ROOT
ATOM      1  O   UNL A   1      31.312  29.669  26.556  1.00  0.00    -0.374 OA
ENDROOT
BRANCH   1   2
ATOM      2  C   UNL A   1      31.948  28.758  27.448  1.00  0.00     0.202 C 
BRANCH   2   3
ATOM      3  C   UNL A   1      32.894  27.710  26.862  1.00  0.00     0.261 C 
BRANCH   3   4
ATOM      4  O   UNL A   1      32.233  26.754  26.019  1.00  0.00    -0.463 OA
BRANCH   4   5
ATOM      5  C   UNL A   1      32.983  25.701  25.604  1.00  0.00     0.312 C 
ATOM      6  O   UNL A   1      34.154  25.779  25.250  1.00  0.00    -0.252 OA
BRANCH   5   7
ATOM      7  C   UNL A   1      32.271  24.363  25.723  1.00  0.00     0.124 C 
ATOM      8  C   UNL A   1      32.219  23.457  23.481  1.00  0.00     0.106 C 
ATOM      9  C   UNL A   1      30.850  23.888  23.932  1.00  0.00    -0.006 C 
ATOM     10  C   UNL A   1      32.906  23.311  24.814  1.00  0.00     0.048 C 
ATOM     11  C   UNL A   1      30.874  24.367  25.184  1.00  0.00    -0.014 C 
BRANCH   8  12
ATOM     12  N   UNL A   1      32.712  24.420  22.512  1.00  0.00    -0.344 N 
ATOM     13  C   UNL A   1      32.828  25.734  22.169  1.00  0.00     0.270 C 
ATOM     14  O   UNL A   1      33.623  25.849  21.222  1.00  0.00    -0.268 OA
ATOM     15  H   UNL A   1      33.152  23.902  21.799  1.00  0.00     0.164 HD
BRANCH  13  16
ATOM     16  C   UNL A   1      32.105  26.930  22.577  1.00  0.00     0.126 A 
ATOM     17  C   UNL A   1      30.266  28.245  22.719  1.00  0.00     0.063 A 
ATOM     18  C   UNL A   1      30.703  26.936  22.492  1.00  0.00     0.059 A 
ATOM     19  N   UNL A   1      31.308  29.062  22.781  1.00  0.00    -0.178 NA
ATOM     20  N   UNL A   1      32.379  28.245  22.916  1.00  0.00    -0.263 N 
ATOM     21  C   UNL A   1      33.516  28.942  23.455  1.00  0.00     0.174 C 
BRANCH  17  22
ATOM     22  C   UNL A   1      28.887  28.783  22.869  1.00  0.00     0.055 C 
ATOM     23  C   UNL A   1      28.885  30.295  23.089  1.00  0.00     0.011 C 
ENDBRANCH  17  22
ENDBRANCH  13  16
ENDBRANCH   8  12
ENDBRANCH   5   7
ENDBRANCH   4   5
ENDBRANCH   3   4
ENDBRANCH   2   3
ENDBRANCH   1   2
BRANCH   1  24
ATOM     24  C   UNL A   1      31.982  30.868  26.189  1.00  0.00     0.202 C 
BRANCH  24  25
ATOM     25  C   UNL A   1      31.617  32.170  26.910  1.00  0.00     0.261 C 
BRANCH  25  26
ATOM     26  O   UNL A   1      32.611  33.200  26.799  1.00  0.00    -0.460 OA
BRANCH  26  27
ATOM     27  C   UNL A   1      33.160  33.569  27.979  1.00  0.00     0.338 C 
ATOM     28  O   UNL A   1      32.641  34.278  28.842  1.00  0.00    -0.246 OA
BRANCH  27  29
ATOM     29  C   UNL A   1      34.436  32.879  28.213  1.00  0.00     0.060 A 
ATOM     30  C   UNL A   1      34.378  31.555  28.669  1.00  0.00     0.016 A 
ATOM     31  C   UNL A   1      35.659  33.545  28.115  1.00  0.00     0.016 A 
ATOM     32  C   UNL A   1      35.537  30.912  29.090  1.00  0.00     0.010 A 
ATOM     33  C   UNL A   1      36.823  32.898  28.547  1.00  0.00     0.010 A 
ATOM     34  C   UNL A   1      36.758  31.598  29.079  1.00  0.00    -0.014 A 
BRANCH  34  35
ATOM     35  C   UNL A   1      37.922  30.999  29.775  1.00  0.00     0.031 A 
ATOM     36  C   UNL A   1      38.210  31.402  31.196  1.00  0.00     0.074 A 
ATOM     37  C   UNL A   1      38.692  30.085  29.159  1.00  0.00     0.049 A 
ATOM     38  N   UNL A   1      39.150  30.980  32.001  1.00  0.00    -0.248 NA
ATOM     39  C   UNL A   1      37.321  32.414  31.790  1.00  0.00     0.031 C 
ATOM     40  C   UNL A   1      38.511  29.617  27.785  1.00  0.00     0.029 A 
ATOM     41  N   UNL A   1      39.791  29.397  29.610  1.00  0.00    -0.354 N 
ATOM     42  C   UNL A   1      38.982  31.689  33.185  1.00  0.00     0.074 A 
ATOM     43  C   UNL A   1      37.860  32.580  32.989  1.00  0.00     0.031 C 
ATOM     44  C   UNL A   1      39.482  28.734  27.496  1.00  0.00     0.029 A 
ATOM     45  C   UNL A   1      40.357  28.585  28.658  1.00  0.00     0.049 A 
ATOM     46  H   UNL A   1      40.139  29.479  30.526  1.00  0.00     0.167 HD
ATOM     47  C   UNL A   1      39.684  31.591  34.338  1.00  0.00     0.034 A 
ATOM     48  C   UNL A   1      41.461  27.814  28.716  1.00  0.00     0.034 A 
ATOM     49  C   UNL A   1      40.784  30.685  34.539  1.00  0.00     0.049 A 
ATOM     50  C   UNL A   1      42.227  27.726  30.011  1.00  0.00     0.074 A 
ATOM     51  C   UNL A   1      41.532  30.480  35.685  1.00  0.00     0.029 A 
ATOM     52  N   UNL A   1      41.299  29.841  33.567  1.00  0.00    -0.354 N 
ATOM     53  N   UNL A   1      41.979  28.308  31.160  1.00  0.00    -0.248 NA
ATOM     54  C   UNL A   1      43.401  26.841  30.029  1.00  0.00     0.031 C 
ATOM     55  C   UNL A   1      42.513  29.524  35.400  1.00  0.00     0.029 A 
ATOM     56  C   UNL A   1      42.360  29.117  34.083  1.00  0.00     0.049 A 
ATOM     57  H   UNL A   1      40.961  29.767  32.647  1.00  0.00     0.167 HD
ATOM     58  C   UNL A   1      42.940  27.833  32.045  1.00  0.00     0.074 A 
ATOM     59  C   UNL A   1      43.763  26.899  31.304  1.00  0.00     0.031 C 
ATOM     60  C   UNL A   1      43.133  28.148  33.349  1.00  0.00     0.034 A 
BRANCH  47  61
ATOM     61  C   UNL A   1      39.263  32.466  35.489  1.00  0.00     0.023 A 
ATOM     62  C   UNL A   1      38.369  31.961  36.455  1.00  0.00     0.012 A 
ATOM     63  C   UNL A   1      39.788  33.763  35.645  1.00  0.00     0.148 A 
ATOM     64  C   UNL A   1      37.982  32.744  37.542  1.00  0.00     0.002 A 
ATOM     65  C   UNL A   1      39.429  34.522  36.752  1.00  0.00     0.091 A 
ATOM     66  F   UNL A   1      40.616  34.235  34.702  1.00  0.00    -0.205 F 
ATOM     67  C   UNL A   1      38.519  34.019  37.697  1.00  0.00     0.022 A 
BRANCH  65  68
ATOM     68  S   UNL A   1      40.124  36.147  37.077  1.00  0.00     0.127 S 
ATOM     69  O   UNL A   1      41.528  35.824  37.322  1.00  0.00    -0.237 OA
ATOM     70  O   UNL A   1      39.872  36.849  35.817  1.00  0.00    -0.237 OA
ATOM     71  O   UNL A   1      39.393  36.674  38.220  1.00  0.00    -0.744 OA
ENDBRANCH  65  68
ENDBRANCH  47  61
BRANCH  48  72
ATOM     72  C   UNL A   1      41.880  27.026  27.525  1.00  0.00     0.023 A 
ATOM     73  C   UNL A   1      42.500  27.678  26.441  1.00  0.00     0.012 A 
ATOM     74  C   UNL A   1      41.689  25.631  27.469  1.00  0.00     0.148 A 
ATOM     75  C   UNL A   1      42.895  26.959  25.312  1.00  0.00     0.002 A 
ATOM     76  C   UNL A   1      42.133  24.914  26.365  1.00  0.00     0.091 A 
ATOM     77  F   UNL A   1      41.080  25.033  28.503  1.00  0.00    -0.205 F 
ATOM     78  C   UNL A   1      42.722  25.578  25.278  1.00  0.00     0.022 A 
BRANCH  76  79
ATOM     79  S   UNL A   1      42.060  23.121  26.296  1.00  0.00     0.127 S 
ATOM     80  O   UNL A   1      42.544  22.854  24.943  1.00  0.00    -0.237 OA
ATOM     81  O   UNL A   1      42.980  22.737  27.366  1.00  0.00    -0.237 OA
ATOM     82  O   UNL A   1      40.668  22.776  26.552  1.00  0.00    -0.744 OA
ENDBRANCH  76  79
ENDBRANCH  48  72
BRANCH  60  83
ATOM     83  C   UNL A   1      44.253  27.454  34.080  1.00  0.00     0.023 A 
ATOM     84  C   UNL A   1      45.518  28.069  34.174  1.00  0.00     0.012 A 
ATOM     85  C   UNL A   1      44.032  26.228  34.737  1.00  0.00     0.148 A 
ATOM     86  C   UNL A   1      46.553  27.458  34.879  1.00  0.00     0.002 A 
ATOM     87  C   UNL A   1      45.054  25.647  35.478  1.00  0.00     0.091 A 
ATOM     88  F   UNL A   1      42.828  25.647  34.621  1.00  0.00    -0.205 F 
ATOM     89  C   UNL A   1      46.319  26.254  35.541  1.00  0.00     0.022 A 
BRANCH  87  90
ATOM     90  S   UNL A   1      44.809  24.149  36.440  1.00  0.00     0.127 S 
ATOM     91  O   UNL A   1      44.158  24.668  37.641  1.00  0.00    -0.237 OA
ATOM     92  O   UNL A   1      43.940  23.356  35.569  1.00  0.00    -0.237 OA
ATOM     93  O   UNL A   1      46.137  23.584  36.638  1.00  0.00    -0.744 OA
ENDBRANCH  87  90
ENDBRANCH  60  83
ENDBRANCH  34  35
ENDBRANCH  27  29
ENDBRANCH  26  27
ENDBRANCH  25  26
ENDBRANCH  24  25
ENDBRANCH   1  24
TORSDOF 20
ENDMDL
MODEL 2
REMARK VINA RESULT:     -11.1      4.948     10.201
REMARK SMILES CCc1cc(C(=O)N[C@@H]2C=C[C@H](C(=O)OCCOCCOC(=O)c3ccc(-c4c5nc(c(-c6cccc(S(=O)(=O)[O-])c6F)c6ccc([nH]6)c(-c6cccc(S(=O)(=O)[O-])c6F)c6nc(c(-c7cccc(S(=O)(=O)[O-])c7F)c7ccc4[nH]7)C=C6)C=C5)cc3)C2)n(C)n1
REMARK SMILES IDX 18 1 17 2 16 3 15 4 13 5 14 6 12 7 9 8 10 9 87 10 11 11 8 12
REMARK SMILES IDX 6 13 7 14 5 16 3 17 4 18 90 19 88 20 89 21 2 22 1 23 19 24
REMARK SMILES IDX 20 25 21 26 22 27 23 28 24 29 25 30 86 31 26 32 85 33 27 34
REMARK SMILES IDX 28 35 29 36 79 37 30 38 84 39 78 40 80 41 31 42 83 43 77 44
REMARK SMILES IDX 76 45 32 47 64 48 44 49 63 50 45 51 48 52 62 53 81 54 46 55
REMARK SMILES IDX 47 56 61 58 82 59 49 60 33 61 34 62 42 63 35 64 37 65 43 66
REMARK SMILES IDX 36 67 38 68 39 69 40 70 41 71 65 72 66 73 74 74 67 75 69 76
REMARK SMILES IDX 75 77 68 78 70 79 71 80 72 81 73 82 50 83 51 84 59 85 52 86
REMARK SMILES IDX 54 87 60 88 53 89 55 90 56 91 57 92 58 93
REMARK H PARENT 8 15 80 46 48 57
REMARK Flexibility Score: inf
ROOT
ATOM      1  O   UNL A   1      34.657  21.049  26.309  1.00  0.00    -0.374 OA
ENDROOT
BRANCH   1   2
ATOM      2  C   UNL A   1      33.794  21.687  27.247  1.00  0.00     0.202 C 
BRANCH   2   3
ATOM      3  C   UNL A   1      33.738  23.215  27.256  1.00  0.00     0.261 C 
BRANCH   3   4
ATOM      4  O   UNL A   1      32.802  23.756  26.312  1.00  0.00    -0.463 OA
BRANCH   4   5
ATOM      5  C   UNL A   1      32.832  25.103  26.142  1.00  0.00     0.312 C 
ATOM      6  O   UNL A   1      33.836  25.745  25.854  1.00  0.00    -0.252 OA
BRANCH   5   7
ATOM      7  C   UNL A   1      31.463  25.758  26.231  1.00  0.00     0.124 C 
ATOM      8  C   UNL A   1      30.978  26.546  23.996  1.00  0.00     0.106 C 
ATOM      9  C   UNL A   1      31.256  27.688  24.935  1.00  0.00    -0.006 C 
ATOM     10  C   UNL A   1      30.625  25.466  24.985  1.00  0.00     0.048 C 
ATOM     11  C   UNL A   1      31.499  27.254  26.180  1.00  0.00    -0.014 C 
BRANCH   8  12
ATOM     12  N   UNL A   1      32.124  26.380  23.119  1.00  0.00    -0.344 N 
ATOM     13  C   UNL A   1      32.943  25.507  22.466  1.00  0.00     0.270 C 
ATOM     14  O   UNL A   1      33.656  26.127  21.661  1.00  0.00    -0.268 OA
ATOM     15  H   UNL A   1      32.447  27.285  22.904  1.00  0.00     0.164 HD
BRANCH  13  16
ATOM     16  C   UNL A   1      33.229  24.091  22.653  1.00  0.00     0.126 A 
ATOM     17  C   UNL A   1      32.648  21.924  22.965  1.00  0.00     0.063 A 
ATOM     18  C   UNL A   1      32.180  23.166  22.525  1.00  0.00     0.059 A 
ATOM     19  N   UNL A   1      33.856  22.061  23.495  1.00  0.00    -0.178 NA
ATOM     20  N   UNL A   1      34.265  23.292  23.104  1.00  0.00    -0.263 N 
ATOM     21  C   UNL A   1      35.695  23.426  23.187  1.00  0.00     0.174 C 
BRANCH  17  22
ATOM     22  C   UNL A   1      32.000  20.586  22.924  1.00  0.00     0.055 C 
ATOM     23  C   UNL A   1      32.753  19.561  23.771  1.00  0.00     0.011 C 
ENDBRANCH  17  22
ENDBRANCH  13  16
ENDBRANCH   8  12
ENDBRANCH   5   7
ENDBRANCH   4   5
ENDBRANCH   3   4
ENDBRANCH   2   3
ENDBRANCH   1   2
BRANCH   1  24
ATOM     24  C   UNL A   1      35.986  21.529  26.146  1.00  0.00     0.202 C 
BRANCH  24  25
ATOM     25  C   UNL A   1      36.976  20.700  25.321  1.00  0.00     0.261 C 
BRANCH  25  26
ATOM     26  O   UNL A   1      38.198  21.387  25.010  1.00  0.00    -0.460 OA
BRANCH  26  27
ATOM     27  C   UNL A   1      39.202  21.155  25.886  1.00  0.00     0.338 C 
ATOM     28  O   UNL A   1      39.849  20.113  26.004  1.00  0.00    -0.246 OA
BRANCH  27  29
ATOM     29  C   UNL A   1      39.571  22.377  26.613  1.00  0.00     0.060 A 
ATOM     30  C   UNL A   1      38.972  23.576  26.202  1.00  0.00     0.016 A 
ATOM     31  C   UNL A   1      40.570  22.378  27.588  1.00  0.00     0.016 A 
ATOM     32  C   UNL A   1      39.417  24.788  26.718  1.00  0.00     0.010 A 
ATOM     33  C   UNL A   1      41.021  23.601  28.099  1.00  0.00     0.010 A 
ATOM     34  C   UNL A   1      40.478  24.810  27.631  1.00  0.00    -0.014 A 
BRANCH  34  35
ATOM     35  C   UNL A   1      41.112  26.109  27.962  1.00  0.00     0.031 A 
ATOM     36  C   UNL A   1      42.520  26.374  27.499  1.00  0.00     0.074 A 
ATOM     37  C   UNL A   1      40.431  27.052  28.636  1.00  0.00     0.049 A 
ATOM     38  N   UNL A   1      43.251  27.447  27.647  1.00  0.00    -0.248 NA
ATOM     39  C   UNL A   1      43.194  25.284  26.774  1.00  0.00     0.031 C 
ATOM     40  C   UNL A   1      39.063  26.910  29.134  1.00  0.00     0.029 A 
ATOM     41  N   UNL A   1      40.806  28.312  29.028  1.00  0.00    -0.354 N 
ATOM     42  C   UNL A   1      44.475  27.157  27.056  1.00  0.00     0.074 A 
ATOM     43  C   UNL A   1      44.395  25.800  26.562  1.00  0.00     0.031 C 
ATOM     44  C   UNL A   1      38.721  28.033  29.788  1.00  0.00     0.029 A 
ATOM     45  C   UNL A   1      39.847  28.965  29.765  1.00  0.00     0.049 A 
ATOM     46  H   UNL A   1      41.677  28.710  28.803  1.00  0.00     0.167 HD
ATOM     47  C   UNL A   1      45.560  27.955  26.918  1.00  0.00     0.034 A 
ATOM     48  C   UNL A   1      39.879  30.175  30.358  1.00  0.00     0.034 A 
ATOM     49  C   UNL A   1      45.628  29.313  27.389  1.00  0.00     0.049 A 
ATOM     50  C   UNL A   1      41.101  31.041  30.192  1.00  0.00     0.074 A 
ATOM     51  C   UNL A   1      46.667  30.218  27.259  1.00  0.00     0.029 A 
ATOM     52  N   UNL A   1      44.619  29.958  28.088  1.00  0.00    -0.354 N 
ATOM     53  N   UNL A   1      42.202  30.799  29.523  1.00  0.00    -0.248 NA
ATOM     54  C   UNL A   1      41.066  32.366  30.830  1.00  0.00     0.031 C 
ATOM     55  C   UNL A   1      46.292  31.405  27.898  1.00  0.00     0.029 A 
ATOM     56  C   UNL A   1      45.011  31.247  28.403  1.00  0.00     0.049 A 
ATOM     57  H   UNL A   1      43.752  29.559  28.325  1.00  0.00     0.167 HD
ATOM     58  C   UNL A   1      42.974  31.951  29.626  1.00  0.00     0.074 A 
ATOM     59  C   UNL A   1      42.205  32.899  30.407  1.00  0.00     0.031 C 
ATOM     60  C   UNL A   1      44.212  32.199  29.131  1.00  0.00     0.034 A 
BRANCH  47  61
ATOM     61  C   UNL A   1      46.757  27.389  26.199  1.00  0.00     0.023 A 
ATOM     62  C   UNL A   1      47.559  26.423  26.840  1.00  0.00     0.012 A 
ATOM     63  C   UNL A   1      47.056  27.771  24.878  1.00  0.00     0.148 A 
ATOM     64  C   UNL A   1      48.658  25.868  26.187  1.00  0.00     0.002 A 
ATOM     65  C   UNL A   1      48.129  27.183  24.219  1.00  0.00     0.091 A 
ATOM     66  F   UNL A   1      46.297  28.710  24.296  1.00  0.00    -0.205 F 
ATOM     67  C   UNL A   1      48.937  26.239  24.874  1.00  0.00     0.022 A 
BRANCH  65  68
ATOM     68  S   UNL A   1      48.524  27.542  22.503  1.00  0.00     0.127 S 
ATOM     69  O   UNL A   1      49.752  28.323  22.640  1.00  0.00    -0.237 OA
ATOM     70  O   UNL A   1      48.714  26.203  21.943  1.00  0.00    -0.237 OA
ATOM     71  O   UNL A   1      47.377  28.264  21.971  1.00  0.00    -0.744 OA
ENDBRANCH  65  68
ENDBRANCH  47  61
BRANCH  48  72
ATOM     72  C   UNL A   1      38.697  30.657  31.124  1.00  0.00     0.023 A 
ATOM     73  C   UNL A   1      38.650  30.478  32.520  1.00  0.00     0.012 A 
ATOM     74  C   UNL A   1      37.630  31.314  30.479  1.00  0.00     0.148 A 
ATOM     75  C   UNL A   1      37.549  30.917  33.256  1.00  0.00     0.002 A 
ATOM     76  C   UNL A   1      36.561  31.796  31.225  1.00  0.00     0.091 A 
ATOM     77  F   UNL A   1      37.685  31.457  29.147  1.00  0.00    -0.205 F 
ATOM     78  C   UNL A   1      36.511  31.585  32.611  1.00  0.00     0.022 A 
BRANCH  76  79
ATOM     79  S   UNL A   1      35.245  32.773  30.491  1.00  0.00     0.127 S 
ATOM     80  O   UNL A   1      35.969  33.959  30.039  1.00  0.00    -0.237 OA
ATOM     81  O   UNL A   1      34.775  31.894  29.420  1.00  0.00    -0.237 OA
ATOM     82  O   UNL A   1      34.276  32.987  31.556  1.00  0.00    -0.744 OA
ENDBRANCH  76  79
ENDBRANCH  48  72
BRANCH  60  83
ATOM     83  C   UNL A   1      44.805  33.562  29.380  1.00  0.00     0.023 A 
ATOM     84  C   UNL A   1      45.463  33.829  30.597  1.00  0.00     0.012 A 
ATOM     85  C   UNL A   1      44.778  34.552  28.378  1.00  0.00     0.148 A 
ATOM     86  C   UNL A   1      46.051  35.071  30.827  1.00  0.00     0.002 A 
ATOM     87  C   UNL A   1      45.407  35.771  28.596  1.00  0.00     0.091 A 
ATOM     88  F   UNL A   1      44.131  34.287  27.233  1.00  0.00    -0.205 F 
ATOM     89  C   UNL A   1      46.035  36.038  29.823  1.00  0.00     0.022 A 
BRANCH  87  90
ATOM     90  S   UNL A   1      45.517  37.034  27.322  1.00  0.00     0.127 S 
ATOM     91  O   UNL A   1      46.410  38.009  27.945  1.00  0.00    -0.237 OA
ATOM     92  O   UNL A   1      46.105  36.299  26.201  1.00  0.00    -0.237 OA
ATOM     93  O   UNL A   1      44.152  37.487  27.093  1.00  0.00    -0.744 OA
ENDBRANCH  87  90
ENDBRANCH  60  83
ENDBRANCH  34  35
ENDBRANCH  27  29
ENDBRANCH  26  27
ENDBRANCH  25  26
ENDBRANCH  24  25
ENDBRANCH   1  24
TORSDOF 20
ENDMDL
MODEL 3
REMARK VINA RESULT:     -11.1      4.730      7.734
REMARK SMILES CCc1cc(C(=O)N[C@@H]2C=C[C@H](C(=O)OCCOCCOC(=O)c3ccc(-c4c5nc(c(-c6cccc(S(=O)(=O)[O-])c6F)c6ccc([nH]6)c(-c6cccc(S(=O)(=O)[O-])c6F)c6nc(c(-c7cccc(S(=O)(=O)[O-])c7F)c7ccc4[nH]7)C=C6)C=C5)cc3)C2)n(C)n1
REMARK SMILES IDX 18 1 17 2 16 3 15 4 13 5 14 6 12 7 9 8 10 9 87 10 11 11 8 12
REMARK SMILES IDX 6 13 7 14 5 16 3 17 4 18 90 19 88 20 89 21 2 22 1 23 19 24
REMARK SMILES IDX 20 25 21 26 22 27 23 28 24 29 25 30 86 31 26 32 85 33 27 34
REMARK SMILES IDX 28 35 29 36 79 37 30 38 84 39 78 40 80 41 31 42 83 43 77 44
REMARK SMILES IDX 76 45 32 47 64 48 44 49 63 50 45 51 48 52 62 53 81 54 46 55
REMARK SMILES IDX 47 56 61 58 82 59 49 60 33 61 34 62 42 63 35 64 37 65 43 66
REMARK SMILES IDX 36 67 38 68 39 69 40 70 41 71 65 72 66 73 74 74 67 75 69 76
REMARK SMILES IDX 75 77 68 78 70 79 71 80 72 81 73 82 50 83 51 84 59 85 52 86
REMARK SMILES IDX 54 87 60 88 53 89 55 90 56 91 57 92 58 93
REMARK H PARENT 8 15 80 46 48 57
REMARK Flexibility Score: inf
ROOT
ATOM      1  O   UNL A   1      35.444  22.426  26.229  1.00  0.00    -0.374 OA
ENDROOT
BRANCH   1   2
ATOM      2  C   UNL A   1      34.248  23.165  26.462  1.00  0.00     0.202 C 
BRANCH   2   3
ATOM      3  C   UNL A   1      34.083  24.515  25.765  1.00  0.00     0.261 C 
BRANCH   3   4
ATOM      4  O   UNL A   1      34.537  24.513  24.403  1.00  0.00    -0.463 OA
BRANCH   4   5
ATOM      5  C   UNL A   1      33.802  25.241  23.524  1.00  0.00     0.312 C 
ATOM      6  O   UNL A   1      33.750  26.466  23.508  1.00  0.00    -0.252 OA
BRANCH   5   7
ATOM      7  C   UNL A   1      33.117  24.397  22.459  1.00  0.00     0.124 C 
ATOM      8  C   UNL A   1      30.847  24.096  23.235  1.00  0.00     0.106 C 
ATOM      9  C   UNL A   1      31.633  22.816  23.320  1.00  0.00    -0.006 C 
ATOM     10  C   UNL A   1      31.676  24.852  22.230  1.00  0.00     0.048 C 
ATOM     11  C   UNL A   1      32.883  22.976  22.867  1.00  0.00    -0.014 C 
BRANCH   8  12
ATOM     12  N   UNL A   1      30.675  24.623  24.577  1.00  0.00    -0.344 N 
ATOM     13  C   UNL A   1      30.583  25.734  25.363  1.00  0.00     0.270 C 
ATOM     14  O   UNL A   1      30.199  25.410  26.499  1.00  0.00    -0.268 OA
ATOM     15  H   UNL A   1      30.585  23.846  25.176  1.00  0.00     0.164 HD
BRANCH  13  16
ATOM     16  C   UNL A   1      30.989  27.119  25.169  1.00  0.00     0.126 A 
ATOM     17  C   UNL A   1      31.748  29.133  25.876  1.00  0.00     0.063 A 
ATOM     18  C   UNL A   1      31.671  27.775  26.206  1.00  0.00     0.059 A 
ATOM     19  N   UNL A   1      31.028  29.371  24.788  1.00  0.00    -0.178 NA
ATOM     20  N   UNL A   1      30.774  28.148  24.268  1.00  0.00    -0.263 N 
ATOM     21  C   UNL A   1      30.417  28.226  22.876  1.00  0.00     0.174 C 
BRANCH  17  22
ATOM     22  C   UNL A   1      32.469  30.244  26.552  1.00  0.00     0.055 C 
ATOM     23  C   UNL A   1      31.677  31.551  26.503  1.00  0.00     0.011 C 
ENDBRANCH  17  22
ENDBRANCH  13  16
ENDBRANCH   8  12
ENDBRANCH   5   7
ENDBRANCH   4   5
ENDBRANCH   3   4
ENDBRANCH   2   3
ENDBRANCH   1   2
BRANCH   1  24
ATOM     24  C   UNL A   1      35.387  21.236  25.452  1.00  0.00     0.202 C 
BRANCH  24  25
ATOM     25  C   UNL A   1      36.698  20.546  25.059  1.00  0.00     0.261 C 
BRANCH  25  26
ATOM     26  O   UNL A   1      37.820  21.436  24.955  1.00  0.00    -0.460 OA
BRANCH  26  27
ATOM     27  C   UNL A   1      38.835  21.148  25.801  1.00  0.00     0.338 C 
ATOM     28  O   UNL A   1      39.404  20.062  25.925  1.00  0.00    -0.246 OA
BRANCH  27  29
ATOM     29  C   UNL A   1      39.322  22.355  26.482  1.00  0.00     0.060 A 
ATOM     30  C   UNL A   1      38.741  23.578  26.120  1.00  0.00     0.016 A 
ATOM     31  C   UNL A   1      40.408  22.315  27.359  1.00  0.00     0.016 A 
ATOM     32  C   UNL A   1      39.284  24.772  26.583  1.00  0.00     0.010 A 
ATOM     33  C   UNL A   1      40.957  23.518  27.817  1.00  0.00     0.010 A 
ATOM     34  C   UNL A   1      40.427  24.749  27.393  1.00  0.00    -0.014 A 
BRANCH  34  35
ATOM     35  C   UNL A   1      41.145  26.020  27.654  1.00  0.00     0.031 A 
ATOM     36  C   UNL A   1      40.443  27.111  28.417  1.00  0.00     0.074 A 
ATOM     37  C   UNL A   1      42.414  26.186  27.246  1.00  0.00     0.049 A 
ATOM     38  N   UNL A   1      40.892  28.283  28.785  1.00  0.00    -0.248 NA
ATOM     39  C   UNL A   1      39.052  26.848  28.820  1.00  0.00     0.031 C 
ATOM     40  C   UNL A   1      43.196  25.200  26.500  1.00  0.00     0.029 A 
ATOM     41  N   UNL A   1      43.265  27.252  27.393  1.00  0.00    -0.354 N 
ATOM     42  C   UNL A   1      39.836  28.906  29.440  1.00  0.00     0.074 A 
ATOM     43  C   UNL A   1      38.717  27.989  29.405  1.00  0.00     0.031 C 
ATOM     44  C   UNL A   1      44.406  25.719  26.232  1.00  0.00     0.029 A 
ATOM     45  C   UNL A   1      44.480  27.073  26.777  1.00  0.00     0.049 A 
ATOM     46  H   UNL A   1      43.027  28.067  27.890  1.00  0.00     0.167 HD
ATOM     47  C   UNL A   1      39.806  30.121  30.036  1.00  0.00     0.034 A 
ATOM     48  C   UNL A   1      45.529  27.912  26.661  1.00  0.00     0.034 A 
ATOM     49  C   UNL A   1      40.927  31.020  30.091  1.00  0.00     0.049 A 
ATOM     50  C   UNL A   1      45.468  29.260  27.330  1.00  0.00     0.074 A 
ATOM     51  C   UNL A   1      41.010  32.255  30.708  1.00  0.00     0.029 A 
ATOM     52  N   UNL A   1      42.158  30.785  29.498  1.00  0.00    -0.354 N 
ATOM     53  N   UNL A   1      44.506  29.783  28.052  1.00  0.00    -0.248 NA
ATOM     54  C   UNL A   1      46.656  30.119  27.202  1.00  0.00     0.031 C 
ATOM     55  C   UNL A   1      42.287  32.776  30.472  1.00  0.00     0.029 A 
ATOM     56  C   UNL A   1      43.007  31.853  29.729  1.00  0.00     0.049 A 
ATOM     57  H   UNL A   1      42.394  29.976  28.990  1.00  0.00     0.167 HD
ATOM     58  C   UNL A   1      44.985  31.011  28.496  1.00  0.00     0.074 A 
ATOM     59  C   UNL A   1      46.330  31.146  27.976  1.00  0.00     0.031 C 
ATOM     60  C   UNL A   1      44.364  31.948  29.254  1.00  0.00     0.034 A 
BRANCH  47  61
ATOM     61  C   UNL A   1      38.523  30.539  30.707  1.00  0.00     0.023 A 
ATOM     62  C   UNL A   1      38.310  30.212  32.062  1.00  0.00     0.012 A 
ATOM     63  C   UNL A   1      37.557  31.296  30.018  1.00  0.00     0.148 A 
ATOM     64  C   UNL A   1      37.142  30.607  32.711  1.00  0.00     0.002 A 
ATOM     65  C   UNL A   1      36.414  31.721  30.684  1.00  0.00     0.091 A 
ATOM     66  F   UNL A   1      37.767  31.574  28.724  1.00  0.00    -0.205 F 
ATOM     67  C   UNL A   1      36.199  31.370  32.027  1.00  0.00     0.022 A 
BRANCH  65  68
ATOM     68  S   UNL A   1      35.177  32.769  29.908  1.00  0.00     0.127 S 
ATOM     69  O   UNL A   1      35.984  33.908  29.474  1.00  0.00    -0.237 OA
ATOM     70  O   UNL A   1      34.689  31.919  28.822  1.00  0.00    -0.237 OA
ATOM     71  O   UNL A   1      34.192  33.056  30.941  1.00  0.00    -0.744 OA
ENDBRANCH  65  68
ENDBRANCH  47  61
BRANCH  48  72
ATOM     72  C   UNL A   1      46.746  27.480  25.920  1.00  0.00     0.023 A 
ATOM     73  C   UNL A   1      46.874  27.785  24.551  1.00  0.00     0.012 A 
ATOM     74  C   UNL A   1      47.787  26.788  26.570  1.00  0.00     0.148 A 
ATOM     75  C   UNL A   1      48.003  27.384  23.836  1.00  0.00     0.002 A 
ATOM     76  C   UNL A   1      48.933  26.439  25.865  1.00  0.00     0.091 A 
ATOM     77  F   UNL A   1      47.638  26.490  27.869  1.00  0.00    -0.205 F 
ATOM     78  C   UNL A   1      49.036  26.721  24.494  1.00  0.00     0.022 A 
BRANCH  76  79
ATOM     79  S   UNL A   1      50.359  25.695  26.664  1.00  0.00     0.127 S 
ATOM     80  O   UNL A   1      51.288  25.550  25.545  1.00  0.00    -0.237 OA
ATOM     81  O   UNL A   1      50.728  26.718  27.642  1.00  0.00    -0.237 OA
ATOM     82  O   UNL A   1      49.874  24.453  27.251  1.00  0.00    -0.744 OA
ENDBRANCH  76  79
ENDBRANCH  48  72
BRANCH  60  83
ATOM     83  C   UNL A   1      45.140  33.191  29.606  1.00  0.00     0.023 A 
ATOM     84  C   UNL A   1      45.917  33.223  30.782  1.00  0.00     0.012 A 
ATOM     85  C   UNL A   1      45.158  34.298  28.736  1.00  0.00     0.148 A 
ATOM     86  C   UNL A   1      46.671  34.350  31.102  1.00  0.00     0.002 A 
ATOM     87  C   UNL A   1      45.949  35.400  29.038  1.00  0.00     0.091 A 
ATOM     88  F   UNL A   1      44.397  34.258  27.632  1.00  0.00    -0.205 F 
ATOM     89  C   UNL A   1      46.697  35.433  30.226  1.00  0.00     0.022 A 
BRANCH  87  90
ATOM     90  S   UNL A   1      46.117  36.796  27.918  1.00  0.00     0.127 S 
ATOM     91  O   UNL A   1      46.332  37.901  28.849  1.00  0.00    -0.237 OA
ATOM     92  O   UNL A   1      47.292  36.425  27.129  1.00  0.00    -0.237 OA
ATOM     93  O   UNL A   1      44.875  36.846  27.158  1.00  0.00    -0.744 OA
ENDBRANCH  87  90
ENDBRANCH  60  83
ENDBRANCH  34  35
ENDBRANCH  27  29
ENDBRANCH  26  27
ENDBRANCH  25  26
ENDBRANCH  24  25
ENDBRANCH   1  24
TORSDOF 20
ENDMDL
