MODEL 1
REMARK VINA RESULT:     -11.2      0.000      0.000
REMARK SMILES O=C(OCCOCCOC(=O)c1ccc(NC(=O)c2ccc([N+](=O)[O-])cc2Cl)cc1Cl)c1ccc(-c2c3nc(c(-c4cccc(S(=O)(=O)[O-])c4F)c4ccc([nH]4)c(-c4cccc(S(=O)(=O)[O-])c4F)c4nc(c(-c5cccc(S(=O)(=O)[O-])c5F)c5ccc2[nH]5)C=C4)C=C3)cc1
REMARK SMILES IDX 6 1 5 2 4 3 3 4 2 5 1 6 32 7 33 8 94 9 34 10 93 11 35 12
REMARK SMILES IDX 36 13 37 14 87 15 38 16 92 17 86 18 88 19 39 20 91 21 85 22
REMARK SMILES IDX 84 23 40 25 72 26 52 27 71 28 53 29 56 30 70 31 89 32 54 33
REMARK SMILES IDX 55 34 69 36 90 37 57 38 41 39 42 40 50 41 43 42 45 43 51 44
REMARK SMILES IDX 44 45 46 46 47 47 48 48 49 49 73 50 74 51 82 52 75 53 77 54
REMARK SMILES IDX 83 55 76 56 78 57 79 58 80 59 81 60 58 61 59 62 67 63 60 64
REMARK SMILES IDX 62 65 68 66 61 67 63 68 64 69 65 70 66 71 7 72 8 73 9 74
REMARK SMILES IDX 10 75 11 76 12 77 13 78 30 79 14 80 29 81 31 82 15 83 16 84
REMARK SMILES IDX 17 85 18 87 19 88 20 89 27 90 21 91 26 92 28 93 22 94 23 95
REMARK SMILES IDX 24 96 25 97
REMARK H PARENT 88 24 56 35 16 86
REMARK Flexibility Score: inf
ROOT
ATOM      1  O   UNL A   1      31.087  31.411  25.852  1.00  0.00    -0.374 OA
ENDROOT
BRANCH   1   2
ATOM      2  C   UNL A   1      31.170  32.706  26.449  1.00  0.00     0.202 C 
BRANCH   2   3
ATOM      3  C   UNL A   1      32.455  32.977  27.241  1.00  0.00     0.261 C 
BRANCH   3   4
ATOM      4  O   UNL A   1      32.335  34.196  27.995  1.00  0.00    -0.460 OA
BRANCH   4   5
ATOM      5  C   UNL A   1      33.263  34.814  28.762  1.00  0.00     0.338 C 
ATOM      6  O   UNL A   1      33.193  36.036  28.891  1.00  0.00    -0.246 OA
BRANCH   5   7
ATOM      7  C   UNL A   1      34.370  34.094  29.464  1.00  0.00     0.060 A 
ATOM      8  C   UNL A   1      34.186  33.064  30.388  1.00  0.00     0.016 A 
ATOM      9  C   UNL A   1      35.687  34.424  29.103  1.00  0.00     0.016 A 
ATOM     10  C   UNL A   1      35.259  32.447  31.010  1.00  0.00     0.010 A 
ATOM     11  C   UNL A   1      36.777  33.766  29.682  1.00  0.00     0.010 A 
ATOM     12  C   UNL A   1      36.560  32.791  30.662  1.00  0.00    -0.014 A 
BRANCH  12  13
ATOM     13  C   UNL A   1      37.656  32.166  31.421  1.00  0.00     0.031 A 
ATOM     14  C   UNL A   1      38.448  31.076  30.768  1.00  0.00     0.074 A 
ATOM     15  C   UNL A   1      38.006  32.681  32.614  1.00  0.00     0.049 A 
ATOM     16  N   UNL A   1      39.484  30.428  31.220  1.00  0.00    -0.248 NA
ATOM     17  C   UNL A   1      38.026  30.674  29.415  1.00  0.00     0.031 C 
ATOM     18  C   UNL A   1      37.335  33.805  33.274  1.00  0.00     0.029 A 
ATOM     19  N   UNL A   1      39.023  32.352  33.469  1.00  0.00    -0.354 N 
ATOM     20  C   UNL A   1      39.809  29.508  30.231  1.00  0.00     0.074 A 
ATOM     21  C   UNL A   1      38.871  29.691  29.147  1.00  0.00     0.031 C 
ATOM     22  C   UNL A   1      37.975  34.086  34.420  1.00  0.00     0.029 A 
ATOM     23  C   UNL A   1      39.060  33.130  34.602  1.00  0.00     0.049 A 
ATOM     24  H   UNL A   1      39.665  31.627  33.289  1.00  0.00     0.167 HD
ATOM     25  C   UNL A   1      40.804  28.592  30.235  1.00  0.00     0.034 A 
ATOM     26  C   UNL A   1      39.876  33.058  35.671  1.00  0.00     0.034 A 
ATOM     27  C   UNL A   1      41.731  28.442  31.322  1.00  0.00     0.049 A 
ATOM     28  C   UNL A   1      40.946  31.999  35.666  1.00  0.00     0.074 A 
ATOM     29  C   UNL A   1      42.760  27.532  31.461  1.00  0.00     0.029 A 
ATOM     30  N   UNL A   1      41.728  29.228  32.467  1.00  0.00    -0.354 N 
ATOM     31  N   UNL A   1      41.263  31.153  34.713  1.00  0.00    -0.248 NA
ATOM     32  C   UNL A   1      41.776  31.889  36.871  1.00  0.00     0.031 C 
ATOM     33  C   UNL A   1      43.364  27.751  32.704  1.00  0.00     0.029 A 
ATOM     34  C   UNL A   1      42.731  28.819  33.326  1.00  0.00     0.049 A 
ATOM     35  H   UNL A   1      41.103  29.969  32.642  1.00  0.00     0.167 HD
ATOM     36  C   UNL A   1      42.346  30.428  35.192  1.00  0.00     0.074 A 
ATOM     37  C   UNL A   1      42.644  30.954  36.511  1.00  0.00     0.031 C 
ATOM     38  C   UNL A   1      43.022  29.407  34.610  1.00  0.00     0.034 A 
BRANCH  25  39
ATOM     39  C   UNL A   1      40.895  27.675  29.046  1.00  0.00     0.023 A 
ATOM     40  C   UNL A   1      40.170  26.467  29.024  1.00  0.00     0.012 A 
ATOM     41  C   UNL A   1      41.732  27.999  27.960  1.00  0.00     0.148 A 
ATOM     42  C   UNL A   1      40.309  25.576  27.959  1.00  0.00     0.002 A 
ATOM     43  C   UNL A   1      41.835  27.125  26.885  1.00  0.00     0.091 A 
ATOM     44  F   UNL A   1      42.437  29.138  28.016  1.00  0.00    -0.205 F 
ATOM     45  C   UNL A   1      41.135  25.907  26.889  1.00  0.00     0.022 A 
BRANCH  43  46
ATOM     46  S   UNL A   1      42.835  27.489  25.439  1.00  0.00     0.127 S 
ATOM     47  O   UNL A   1      42.212  28.717  24.949  1.00  0.00    -0.237 OA
ATOM     48  O   UNL A   1      44.165  27.671  26.023  1.00  0.00    -0.237 OA
ATOM     49  O   UNL A   1      42.711  26.332  24.565  1.00  0.00    -0.744 OA
ENDBRANCH  43  46
ENDBRANCH  25  39
BRANCH  26  50
ATOM     50  C   UNL A   1      39.723  34.012  36.807  1.00  0.00     0.023 A 
ATOM     51  C   UNL A   1      40.119  35.355  36.650  1.00  0.00     0.012 A 
ATOM     52  C   UNL A   1      39.170  33.604  38.037  1.00  0.00     0.148 A 
ATOM     53  C   UNL A   1      39.991  36.264  37.702  1.00  0.00     0.002 A 
ATOM     54  C   UNL A   1      38.992  34.527  39.062  1.00  0.00     0.091 A 
ATOM     55  F   UNL A   1      38.819  32.318  38.182  1.00  0.00    -0.205 F 
ATOM     56  C   UNL A   1      39.417  35.854  38.903  1.00  0.00     0.022 A 
BRANCH  54  57
ATOM     57  S   UNL A   1      38.148  34.111  40.594  1.00  0.00     0.127 S 
ATOM     58  O   UNL A   1      36.988  33.371  40.104  1.00  0.00    -0.237 OA
ATOM     59  O   UNL A   1      39.151  33.298  41.283  1.00  0.00    -0.237 OA
ATOM     60  O   UNL A   1      37.863  35.384  41.241  1.00  0.00    -0.744 OA
ENDBRANCH  54  57
ENDBRANCH  26  50
BRANCH  38  61
ATOM     61  C   UNL A   1      44.170  28.818  35.382  1.00  0.00     0.023 A 
ATOM     62  C   UNL A   1      45.441  29.422  35.317  1.00  0.00     0.012 A 
ATOM     63  C   UNL A   1      43.964  27.718  36.237  1.00  0.00     0.148 A 
ATOM     64  C   UNL A   1      46.499  28.920  36.071  1.00  0.00     0.002 A 
ATOM     65  C   UNL A   1      45.010  27.257  37.025  1.00  0.00     0.091 A 
ATOM     66  F   UNL A   1      42.752  27.146  36.264  1.00  0.00    -0.205 F 
ATOM     67  C   UNL A   1      46.281  27.848  36.934  1.00  0.00     0.022 A 
BRANCH  65  68
ATOM     68  S   UNL A   1      44.784  25.955  38.240  1.00  0.00     0.127 S 
ATOM     69  O   UNL A   1      46.153  25.476  38.422  1.00  0.00    -0.237 OA
ATOM     70  O   UNL A   1      44.234  26.684  39.382  1.00  0.00    -0.237 OA
ATOM     71  O   UNL A   1      43.862  25.003  37.634  1.00  0.00    -0.744 OA
ENDBRANCH  65  68
ENDBRANCH  38  61
ENDBRANCH  12  13
ENDBRANCH   5   7
ENDBRANCH   4   5
ENDBRANCH   3   4
ENDBRANCH   2   3
ENDBRANCH   1   2
BRANCH   1  72
ATOM     72  C   UNL A   1      32.145  30.504  26.201  1.00  0.00     0.202 C 
BRANCH  72  73
ATOM     73  C   UNL A   1      32.257  29.415  25.135  1.00  0.00     0.261 C 
BRANCH  73  74
ATOM     74  O   UNL A   1      31.063  28.622  25.210  1.00  0.00    -0.460 OA
BRANCH  74  75
ATOM     75  C   UNL A   1      30.731  27.955  24.079  1.00  0.00     0.339 C 
ATOM     76  O   UNL A   1      30.503  28.420  22.974  1.00  0.00    -0.246 OA
BRANCH  75  77
ATOM     77  C   UNL A   1      30.976  26.521  24.317  1.00  0.00     0.078 A 
ATOM     78  C   UNL A   1      30.752  26.059  25.622  1.00  0.00     0.019 A 
ATOM     79  C   UNL A   1      31.321  25.615  23.318  1.00  0.00     0.057 A 
ATOM     80  C   UNL A   1      30.797  24.692  25.912  1.00  0.00     0.027 A 
ATOM     81  C   UNL A   1      31.364  24.246  23.615  1.00  0.00     0.047 A 
ATOM     82  Cl  UNL A   1      31.739  26.090  21.710  1.00  0.00    -0.083 Cl
ATOM     83  C   UNL A   1      31.060  23.771  24.899  1.00  0.00     0.043 A 
BRANCH  83  84
ATOM     84  N   UNL A   1      31.072  22.374  25.067  1.00  0.00    -0.322 N 
ATOM     85  C   UNL A   1      32.082  21.450  25.180  1.00  0.00     0.257 C 
ATOM     86  H   UNL A   1      30.172  21.979  25.114  1.00  0.00     0.170 HD
ATOM     87  O   UNL A   1      31.820  20.249  25.137  1.00  0.00    -0.269 OA
BRANCH  85  88
ATOM     88  C   UNL A   1      33.488  21.833  25.380  1.00  0.00     0.059 A 
ATOM     89  C   UNL A   1      34.337  21.731  24.265  1.00  0.00     0.022 A 
ATOM     90  C   UNL A   1      34.005  22.211  26.627  1.00  0.00     0.060 A 
ATOM     91  C   UNL A   1      35.686  22.069  24.378  1.00  0.00     0.086 A 
ATOM     92  C   UNL A   1      35.355  22.556  26.744  1.00  0.00     0.107 A 
ATOM     93  Cl  UNL A   1      33.045  22.251  28.061  1.00  0.00    -0.083 Cl
ATOM     94  C   UNL A   1      36.187  22.492  25.616  1.00  0.00     0.270 A 
BRANCH  94  95
ATOM     95  N   UNL A   1      37.600  22.868  25.737  1.00  0.00     0.062 N 
ATOM     96  O   UNL A   1      38.438  21.957  25.722  1.00  0.00    -0.258 OA
ATOM     97  O   UNL A   1      37.861  24.074  25.844  1.00  0.00    -0.258 OA
ENDBRANCH  94  95
ENDBRANCH  85  88
ENDBRANCH  83  84
ENDBRANCH  75  77
ENDBRANCH  74  75
ENDBRANCH  73  74
ENDBRANCH  72  73
ENDBRANCH   1  72
TORSDOF 20
ENDMDL
MODEL 2
REMARK VINA RESULT:     -11.1      3.487      8.712
REMARK SMILES O=C(OCCOCCOC(=O)c1ccc(NC(=O)c2ccc([N+](=O)[O-])cc2Cl)cc1Cl)c1ccc(-c2c3nc(c(-c4cccc(S(=O)(=O)[O-])c4F)c4ccc([nH]4)c(-c4cccc(S(=O)(=O)[O-])c4F)c4nc(c(-c5cccc(S(=O)(=O)[O-])c5F)c5ccc2[nH]5)C=C4)C=C3)cc1
REMARK SMILES IDX 6 1 5 2 4 3 3 4 2 5 1 6 32 7 33 8 94 9 34 10 93 11 35 12
REMARK SMILES IDX 36 13 37 14 87 15 38 16 92 17 86 18 88 19 39 20 91 21 85 22
REMARK SMILES IDX 84 23 40 25 72 26 52 27 71 28 53 29 56 30 70 31 89 32 54 33
REMARK SMILES IDX 55 34 69 36 90 37 57 38 41 39 42 40 50 41 43 42 45 43 51 44
REMARK SMILES IDX 44 45 46 46 47 47 48 48 49 49 73 50 74 51 82 52 75 53 77 54
REMARK SMILES IDX 83 55 76 56 78 57 79 58 80 59 81 60 58 61 59 62 67 63 60 64
REMARK SMILES IDX 62 65 68 66 61 67 63 68 64 69 65 70 66 71 7 72 8 73 9 74
REMARK SMILES IDX 10 75 11 76 12 77 13 78 30 79 14 80 29 81 31 82 15 83 16 84
REMARK SMILES IDX 17 85 18 87 19 88 20 89 27 90 21 91 26 92 28 93 22 94 23 95
REMARK SMILES IDX 24 96 25 97
REMARK H PARENT 88 24 56 35 16 86
REMARK Flexibility Score: inf
ROOT
ATOM      1  O   UNL A   1      32.366  28.571  24.392  1.00  0.00    -0.374 OA
ENDROOT
BRANCH   1   2
ATOM      2  C   UNL A   1      32.514  28.437  25.806  1.00  0.00     0.202 C 
BRANCH   2   3
ATOM      3  C   UNL A   1      33.846  28.942  26.372  1.00  0.00     0.261 C 
BRANCH   3   4
ATOM      4  O   UNL A   1      33.623  29.997  27.323  1.00  0.00    -0.460 OA
BRANCH   4   5
ATOM      5  C   UNL A   1      34.532  30.711  28.029  1.00  0.00     0.338 C 
ATOM      6  O   UNL A   1      34.219  31.837  28.412  1.00  0.00    -0.246 OA
BRANCH   5   7
ATOM      7  C   UNL A   1      35.897  30.205  28.370  1.00  0.00     0.060 A 
ATOM      8  C   UNL A   1      36.201  29.438  29.496  1.00  0.00     0.016 A 
ATOM      9  C   UNL A   1      36.927  30.453  27.447  1.00  0.00     0.016 A 
ATOM     10  C   UNL A   1      37.493  29.011  29.757  1.00  0.00     0.010 A 
ATOM     11  C   UNL A   1      38.223  29.976  27.672  1.00  0.00     0.010 A 
ATOM     12  C   UNL A   1      38.512  29.275  28.848  1.00  0.00    -0.014 A 
BRANCH  12  13
ATOM     13  C   UNL A   1      39.879  28.876  29.223  1.00  0.00     0.031 A 
ATOM     14  C   UNL A   1      40.533  29.563  30.381  1.00  0.00     0.074 A 
ATOM     15  C   UNL A   1      40.443  27.817  28.614  1.00  0.00     0.049 A 
ATOM     16  N   UNL A   1      41.698  29.338  30.921  1.00  0.00    -0.248 NA
ATOM     17  C   UNL A   1      39.764  30.640  31.029  1.00  0.00     0.031 C 
ATOM     18  C   UNL A   1      39.826  27.038  27.537  1.00  0.00     0.029 A 
ATOM     19  N   UNL A   1      41.642  27.194  28.830  1.00  0.00    -0.354 N 
ATOM     20  C   UNL A   1      41.824  30.274  31.939  1.00  0.00     0.074 A 
ATOM     21  C   UNL A   1      40.613  31.061  31.954  1.00  0.00     0.031 C 
ATOM     22  C   UNL A   1      40.643  26.028  27.202  1.00  0.00     0.029 A 
ATOM     23  C   UNL A   1      41.860  26.120  27.999  1.00  0.00     0.049 A 
ATOM     24  H   UNL A   1      42.287  27.487  29.513  1.00  0.00     0.167 HD
ATOM     25  C   UNL A   1      42.865  30.456  32.783  1.00  0.00     0.034 A 
ATOM     26  C   UNL A   1      42.936  25.317  27.890  1.00  0.00     0.034 A 
ATOM     27  C   UNL A   1      44.052  29.648  32.753  1.00  0.00     0.049 A 
ATOM     28  C   UNL A   1      44.097  25.574  28.813  1.00  0.00     0.074 A 
ATOM     29  C   UNL A   1      45.188  29.753  33.532  1.00  0.00     0.029 A 
ATOM     30  N   UNL A   1      44.254  28.585  31.884  1.00  0.00    -0.354 N 
ATOM     31  N   UNL A   1      44.194  26.443  29.791  1.00  0.00    -0.248 NA
ATOM     32  C   UNL A   1      45.288  24.736  28.628  1.00  0.00     0.031 C 
ATOM     33  C   UNL A   1      46.089  28.766  33.114  1.00  0.00     0.029 A 
ATOM     34  C   UNL A   1      45.501  28.028  32.096  1.00  0.00     0.049 A 
ATOM     35  H   UNL A   1      43.603  28.272  31.214  1.00  0.00     0.167 HD
ATOM     36  C   UNL A   1      45.446  26.240  30.358  1.00  0.00     0.074 A 
ATOM     37  C   UNL A   1      46.059  25.147  29.626  1.00  0.00     0.031 C 
ATOM     38  C   UNL A   1      46.048  26.906  31.375  1.00  0.00     0.034 A 
BRANCH  25  39
ATOM     39  C   UNL A   1      42.760  31.592  33.764  1.00  0.00     0.023 A 
ATOM     40  C   UNL A   1      43.339  32.842  33.466  1.00  0.00     0.012 A 
ATOM     41  C   UNL A   1      42.114  31.406  35.001  1.00  0.00     0.148 A 
ATOM     42  C   UNL A   1      43.312  33.877  34.403  1.00  0.00     0.002 A 
ATOM     43  C   UNL A   1      42.057  32.452  35.913  1.00  0.00     0.091 A 
ATOM     44  F   UNL A   1      41.598  30.199  35.277  1.00  0.00    -0.205 F 
ATOM     45  C   UNL A   1      42.667  33.684  35.622  1.00  0.00     0.022 A 
BRANCH  43  46
ATOM     46  S   UNL A   1      41.205  32.315  37.488  1.00  0.00     0.127 S 
ATOM     47  O   UNL A   1      41.034  33.720  37.855  1.00  0.00    -0.237 OA
ATOM     48  O   UNL A   1      39.969  31.629  37.109  1.00  0.00    -0.237 OA
ATOM     49  O   UNL A   1      42.085  31.543  38.353  1.00  0.00    -0.744 OA
ENDBRANCH  43  46
ENDBRANCH  25  39
BRANCH  26  50
ATOM     50  C   UNL A   1      42.956  24.207  26.894  1.00  0.00     0.023 A 
ATOM     51  C   UNL A   1      43.682  24.356  25.696  1.00  0.00     0.012 A 
ATOM     52  C   UNL A   1      42.279  22.995  27.134  1.00  0.00     0.148 A 
ATOM     53  C   UNL A   1      43.710  23.333  24.747  1.00  0.00     0.002 A 
ATOM     54  C   UNL A   1      42.357  21.958  26.211  1.00  0.00     0.091 A 
ATOM     55  F   UNL A   1      41.572  22.875  28.267  1.00  0.00    -0.205 F 
ATOM     56  C   UNL A   1      43.059  22.130  25.009  1.00  0.00     0.022 A 
BRANCH  54  57
ATOM     57  S   UNL A   1      41.652  20.336  26.527  1.00  0.00     0.127 S 
ATOM     58  O   UNL A   1      40.219  20.617  26.474  1.00  0.00    -0.237 OA
ATOM     59  O   UNL A   1      42.167  19.554  25.403  1.00  0.00    -0.237 OA
ATOM     60  O   UNL A   1      42.171  19.930  27.826  1.00  0.00    -0.744 OA
ENDBRANCH  54  57
ENDBRANCH  26  50
BRANCH  38  61
ATOM     61  C   UNL A   1      47.423  26.446  31.774  1.00  0.00     0.023 A 
ATOM     62  C   UNL A   1      48.556  26.995  31.142  1.00  0.00     0.012 A 
ATOM     63  C   UNL A   1      47.590  25.535  32.834  1.00  0.00     0.148 A 
ATOM     64  C   UNL A   1      49.837  26.619  31.541  1.00  0.00     0.002 A 
ATOM     65  C   UNL A   1      48.869  25.206  33.261  1.00  0.00     0.091 A 
ATOM     66  F   UNL A   1      46.496  25.009  33.405  1.00  0.00    -0.205 F 
ATOM     67  C   UNL A   1      49.994  25.737  32.608  1.00  0.00     0.022 A 
BRANCH  65  68
ATOM     68  S   UNL A   1      49.156  24.165  34.695  1.00  0.00     0.127 S 
ATOM     69  O   UNL A   1      50.609  24.009  34.664  1.00  0.00    -0.237 OA
ATOM     70  O   UNL A   1      48.654  24.994  35.790  1.00  0.00    -0.237 OA
ATOM     71  O   UNL A   1      48.389  22.948  34.462  1.00  0.00    -0.744 OA
ENDBRANCH  65  68
ENDBRANCH  38  61
ENDBRANCH  12  13
ENDBRANCH   5   7
ENDBRANCH   4   5
ENDBRANCH   3   4
ENDBRANCH   2   3
ENDBRANCH   1   2
BRANCH   1  72
ATOM     72  C   UNL A   1      33.587  28.505  23.637  1.00  0.00     0.202 C 
BRANCH  72  73
ATOM     73  C   UNL A   1      33.262  28.377  22.149  1.00  0.00     0.261 C 
BRANCH  73  74
ATOM     74  O   UNL A   1      33.653  27.059  21.739  1.00  0.00    -0.460 OA
BRANCH  74  75
ATOM     75  C   UNL A   1      32.674  26.124  21.759  1.00  0.00     0.339 C 
ATOM     76  O   UNL A   1      31.856  25.877  20.888  1.00  0.00    -0.246 OA
BRANCH  75  77
ATOM     77  C   UNL A   1      32.933  25.228  22.901  1.00  0.00     0.078 A 
ATOM     78  C   UNL A   1      34.188  24.603  22.930  1.00  0.00     0.019 A 
ATOM     79  C   UNL A   1      32.053  25.050  23.965  1.00  0.00     0.057 A 
ATOM     80  C   UNL A   1      34.593  23.868  24.048  1.00  0.00     0.027 A 
ATOM     81  C   UNL A   1      32.466  24.312  25.083  1.00  0.00     0.047 A 
ATOM     82  Cl  UNL A   1      30.441  25.671  23.976  1.00  0.00    -0.083 Cl
ATOM     83  C   UNL A   1      33.750  23.754  25.153  1.00  0.00     0.043 A 
BRANCH  83  84
ATOM     84  N   UNL A   1      34.078  23.089  26.348  1.00  0.00    -0.322 N 
ATOM     85  C   UNL A   1      34.067  21.767  26.722  1.00  0.00     0.257 C 
ATOM     86  H   UNL A   1      34.378  23.695  27.063  1.00  0.00     0.170 HD
ATOM     87  O   UNL A   1      34.231  21.464  27.902  1.00  0.00    -0.269 OA
BRANCH  85  88
ATOM     88  C   UNL A   1      33.890  20.672  25.756  1.00  0.00     0.059 A 
ATOM     89  C   UNL A   1      32.589  20.161  25.608  1.00  0.00     0.022 A 
ATOM     90  C   UNL A   1      34.959  20.091  25.058  1.00  0.00     0.060 A 
ATOM     91  C   UNL A   1      32.344  19.116  24.716  1.00  0.00     0.086 A 
ATOM     92  C   UNL A   1      34.716  19.048  24.159  1.00  0.00     0.107 A 
ATOM     93  Cl  UNL A   1      36.596  20.595  25.273  1.00  0.00    -0.083 Cl
ATOM     94  C   UNL A   1      33.408  18.572  23.986  1.00  0.00     0.270 A 
BRANCH  94  95
ATOM     95  N   UNL A   1      33.154  17.487  23.032  1.00  0.00     0.062 N 
ATOM     96  O   UNL A   1      33.738  16.411  23.220  1.00  0.00    -0.258 OA
ATOM     97  O   UNL A   1      32.370  17.718  22.102  1.00  0.00    -0.258 OA
ENDBRANCH  94  95
ENDBRANCH  85  88
ENDBRANCH  83  84
ENDBRANCH  75  77
ENDBRANCH  74  75
ENDBRANCH  73  74
ENDBRANCH  72  73
ENDBRANCH   1  72
TORSDOF 20
ENDMDL
MODEL 3
REMARK VINA RESULT:     -11.1      5.569     10.194
REMARK SMILES O=C(OCCOCCOC(=O)c1ccc(NC(=O)c2ccc([N+](=O)[O-])cc2Cl)cc1Cl)c1ccc(-c2c3nc(c(-c4cccc(S(=O)(=O)[O-])c4F)c4ccc([nH]4)c(-c4cccc(S(=O)(=O)[O-])c4F)c4nc(c(-c5cccc(S(=O)(=O)[O-])c5F)c5ccc2[nH]5)C=C4)C=C3)cc1
REMARK SMILES IDX 6 1 5 2 4 3 3 4 2 5 1 6 32 7 33 8 94 9 34 10 93 11 35 12
REMARK SMILES IDX 36 13 37 14 87 15 38 16 92 17 86 18 88 19 39 20 91 21 85 22
REMARK SMILES IDX 84 23 40 25 72 26 52 27 71 28 53 29 56 30 70 31 89 32 54 33
REMARK SMILES IDX 55 34 69 36 90 37 57 38 41 39 42 40 50 41 43 42 45 43 51 44
REMARK SMILES IDX 44 45 46 46 47 47 48 48 49 49 73 50 74 51 82 52 75 53 77 54
REMARK SMILES IDX 83 55 76 56 78 57 79 58 80 59 81 60 58 61 59 62 67 63 60 64
REMARK SMILES IDX 62 65 68 66 61 67 63 68 64 69 65 70 66 71 7 72 8 73 9 74
REMARK SMILES IDX 10 75 11 76 12 77 13 78 30 79 14 80 29 81 31 82 15 83 16 84
REMARK SMILES IDX 17 85 18 87 19 88 20 89 27 90 21 91 26 92 28 93 22 94 23 95
REMARK SMILES IDX 24 96 25 97
REMARK H PARENT 88 24 56 35 16 86
REMARK Flexibility Score: inf
ROOT
ATOM      1  O   UNL A   1      38.193  21.381  25.267  1.00  0.00    -0.374 OA
ENDROOT
BRANCH   1   2
ATOM      2  C   UNL A   1      39.285  20.928  26.069  1.00  0.00     0.202 C 
BRANCH   2   3
ATOM      3  C   UNL A   1      39.552  19.420  26.012  1.00  0.00     0.261 C 
BRANCH   3   4
ATOM      4  O   UNL A   1      40.849  19.158  25.450  1.00  0.00    -0.460 OA
BRANCH   4   5
ATOM      5  C   UNL A   1      42.070  19.374  25.994  1.00  0.00     0.338 C 
ATOM      6  O   UNL A   1      42.800  18.404  26.194  1.00  0.00    -0.246 OA
BRANCH   5   7
ATOM      7  C   UNL A   1      42.582  20.730  26.365  1.00  0.00     0.060 A 
ATOM      8  C   UNL A   1      42.678  21.211  27.671  1.00  0.00     0.016 A 
ATOM      9  C   UNL A   1      43.076  21.539  25.328  1.00  0.00     0.016 A 
ATOM     10  C   UNL A   1      43.153  22.484  27.943  1.00  0.00     0.010 A 
ATOM     11  C   UNL A   1      43.611  22.804  25.598  1.00  0.00     0.010 A 
ATOM     12  C   UNL A   1      43.622  23.289  26.910  1.00  0.00    -0.014 A 
BRANCH  12  13
ATOM     13  C   UNL A   1      44.029  24.663  27.249  1.00  0.00     0.031 A 
ATOM     14  C   UNL A   1      45.425  25.096  26.926  1.00  0.00     0.074 A 
ATOM     15  C   UNL A   1      43.104  25.528  27.704  1.00  0.00     0.049 A 
ATOM     16  N   UNL A   1      45.980  26.266  27.080  1.00  0.00    -0.248 NA
ATOM     17  C   UNL A   1      46.311  24.079  26.333  1.00  0.00     0.031 C 
ATOM     18  C   UNL A   1      41.698  25.200  27.958  1.00  0.00     0.029 A 
ATOM     19  N   UNL A   1      43.194  26.860  28.006  1.00  0.00    -0.354 N 
ATOM     20  C   UNL A   1      47.292  26.115  26.651  1.00  0.00     0.074 A 
ATOM     21  C   UNL A   1      47.449  24.746  26.215  1.00  0.00     0.031 C 
ATOM     22  C   UNL A   1      41.053  26.308  28.355  1.00  0.00     0.029 A 
ATOM     23  C   UNL A   1      42.008  27.406  28.437  1.00  0.00     0.049 A 
ATOM     24  H   UNL A   1      44.028  27.376  27.922  1.00  0.00     0.167 HD
ATOM     25  C   UNL A   1      48.277  27.042  26.627  1.00  0.00     0.034 A 
ATOM     26  C   UNL A   1      41.739  28.654  28.866  1.00  0.00     0.034 A 
ATOM     27  C   UNL A   1      48.088  28.400  27.054  1.00  0.00     0.049 A 
ATOM     28  C   UNL A   1      42.866  29.651  28.870  1.00  0.00     0.074 A 
ATOM     29  C   UNL A   1      49.012  29.425  27.110  1.00  0.00     0.029 A 
ATOM     30  N   UNL A   1      46.882  28.917  27.510  1.00  0.00    -0.354 N 
ATOM     31  N   UNL A   1      44.095  29.506  28.435  1.00  0.00    -0.248 NA
ATOM     32  C   UNL A   1      42.569  30.984  29.410  1.00  0.00     0.031 C 
ATOM     33  C   UNL A   1      48.369  30.557  27.625  1.00  0.00     0.029 A 
ATOM     34  C   UNL A   1      47.038  30.245  27.860  1.00  0.00     0.049 A 
ATOM     35  H   UNL A   1      46.039  28.412  27.573  1.00  0.00     0.167 HD
ATOM     36  C   UNL A   1      44.714  30.735  28.623  1.00  0.00     0.074 A 
ATOM     37  C   UNL A   1      43.713  31.619  29.189  1.00  0.00     0.031 C 
ATOM     38  C   UNL A   1      45.996  31.100  28.374  1.00  0.00     0.034 A 
BRANCH  25  39
ATOM     39  C   UNL A   1      49.633  26.589  26.161  1.00  0.00     0.023 A 
ATOM     40  C   UNL A   1      50.458  25.827  27.013  1.00  0.00     0.012 A 
ATOM     41  C   UNL A   1      50.104  26.950  24.884  1.00  0.00     0.148 A 
ATOM     42  C   UNL A   1      51.748  25.469  26.617  1.00  0.00     0.002 A 
ATOM     43  C   UNL A   1      51.374  26.556  24.481  1.00  0.00     0.091 A 
ATOM     44  F   UNL A   1      49.316  27.702  24.102  1.00  0.00    -0.205 F 
ATOM     45  C   UNL A   1      52.202  25.827  25.351  1.00  0.00     0.022 A 
BRANCH  43  46
ATOM     46  S   UNL A   1      52.027  26.928  22.851  1.00  0.00     0.127 S 
ATOM     47  O   UNL A   1      53.153  25.998  22.764  1.00  0.00    -0.237 OA
ATOM     48  O   UNL A   1      50.895  26.597  21.984  1.00  0.00    -0.237 OA
ATOM     49  O   UNL A   1      52.380  28.339  22.873  1.00  0.00    -0.744 OA
ENDBRANCH  43  46
ENDBRANCH  25  39
BRANCH  26  50
ATOM     50  C   UNL A   1      40.362  29.024  29.304  1.00  0.00     0.023 A 
ATOM     51  C   UNL A   1      39.430  29.492  28.358  1.00  0.00     0.012 A 
ATOM     52  C   UNL A   1      39.962  28.897  30.650  1.00  0.00     0.148 A 
ATOM     53  C   UNL A   1      38.137  29.850  28.746  1.00  0.00     0.002 A 
ATOM     54  C   UNL A   1      38.657  29.202  31.021  1.00  0.00     0.091 A 
ATOM     55  F   UNL A   1      40.866  28.474  31.545  1.00  0.00    -0.205 F 
ATOM     56  C   UNL A   1      37.747  29.695  30.074  1.00  0.00     0.022 A 
BRANCH  54  57
ATOM     57  S   UNL A   1      38.039  28.912  32.683  1.00  0.00     0.127 S 
ATOM     58  O   UNL A   1      36.674  29.423  32.588  1.00  0.00    -0.237 OA
ATOM     59  O   UNL A   1      38.144  27.457  32.798  1.00  0.00    -0.237 OA
ATOM     60  O   UNL A   1      38.933  29.648  33.566  1.00  0.00    -0.744 OA
ENDBRANCH  54  57
ENDBRANCH  26  50
BRANCH  38  61
ATOM     61  C   UNL A   1      46.375  32.523  28.680  1.00  0.00     0.023 A 
ATOM     62  C   UNL A   1      46.667  32.900  30.005  1.00  0.00     0.012 A 
ATOM     63  C   UNL A   1      46.522  33.461  27.640  1.00  0.00     0.148 A 
ATOM     64  C   UNL A   1      47.073  34.201  30.294  1.00  0.00     0.002 A 
ATOM     65  C   UNL A   1      46.977  34.740  27.929  1.00  0.00     0.091 A 
ATOM     66  F   UNL A   1      46.214  33.085  26.390  1.00  0.00    -0.205 F 
ATOM     67  C   UNL A   1      47.241  35.115  29.257  1.00  0.00     0.022 A 
BRANCH  65  68
ATOM     68  S   UNL A   1      47.324  35.941  26.641  1.00  0.00     0.127 S 
ATOM     69  O   UNL A   1      48.190  35.177  25.745  1.00  0.00    -0.237 OA
ATOM     70  O   UNL A   1      45.991  36.223  26.110  1.00  0.00    -0.237 OA
ATOM     71  O   UNL A   1      47.954  37.071  27.312  1.00  0.00    -0.744 OA
ENDBRANCH  65  68
ENDBRANCH  38  61
ENDBRANCH  12  13
ENDBRANCH   5   7
ENDBRANCH   4   5
ENDBRANCH   3   4
ENDBRANCH   2   3
ENDBRANCH   1   2
BRANCH   1  72
ATOM     72  C   UNL A   1      37.585  20.382  24.434  1.00  0.00     0.202 C 
BRANCH  72  73
ATOM     73  C   UNL A   1      36.216  20.007  25.001  1.00  0.00     0.261 C 
BRANCH  73  74
ATOM     74  O   UNL A   1      35.794  21.090  25.844  1.00  0.00    -0.460 OA
BRANCH  74  75
ATOM     75  C   UNL A   1      34.456  21.282  25.924  1.00  0.00     0.339 C 
ATOM     76  O   UNL A   1      33.715  21.009  26.853  1.00  0.00    -0.246 OA
BRANCH  75  77
ATOM     77  C   UNL A   1      34.063  22.162  24.809  1.00  0.00     0.078 A 
ATOM     78  C   UNL A   1      33.035  21.693  23.979  1.00  0.00     0.019 A 
ATOM     79  C   UNL A   1      34.586  23.436  24.601  1.00  0.00     0.057 A 
ATOM     80  C   UNL A   1      32.478  22.518  22.997  1.00  0.00     0.027 A 
ATOM     81  C   UNL A   1      34.023  24.258  23.615  1.00  0.00     0.047 A 
ATOM     82  Cl  UNL A   1      35.933  24.063  25.482  1.00  0.00    -0.083 Cl
ATOM     83  C   UNL A   1      32.939  23.824  22.838  1.00  0.00     0.043 A 
BRANCH  83  84
ATOM     84  N   UNL A   1      32.414  24.756  21.924  1.00  0.00    -0.322 N 
ATOM     85  C   UNL A   1      31.820  25.986  22.072  1.00  0.00     0.257 C 
ATOM     86  H   UNL A   1      32.488  24.467  20.986  1.00  0.00     0.170 HD
ATOM     87  O   UNL A   1      31.278  26.524  21.107  1.00  0.00    -0.269 OA
BRANCH  85  88
ATOM     88  C   UNL A   1      31.822  26.719  23.347  1.00  0.00     0.059 A 
ATOM     89  C   UNL A   1      30.866  26.334  24.301  1.00  0.00     0.022 A 
ATOM     90  C   UNL A   1      32.672  27.806  23.600  1.00  0.00     0.060 A 
ATOM     91  C   UNL A   1      30.802  26.988  25.532  1.00  0.00     0.086 A 
ATOM     92  C   UNL A   1      32.615  28.460  24.834  1.00  0.00     0.107 A 
ATOM     93  Cl  UNL A   1      33.795  28.403  22.431  1.00  0.00    -0.083 Cl
ATOM     94  C   UNL A   1      31.685  28.041  25.797  1.00  0.00     0.270 A 
BRANCH  94  95
ATOM     95  N   UNL A   1      31.636  28.720  27.097  1.00  0.00     0.062 N 
ATOM     96  O   UNL A   1      32.168  29.835  27.181  1.00  0.00    -0.258 OA
ATOM     97  O   UNL A   1      31.064  28.134  28.025  1.00  0.00    -0.258 OA
ENDBRANCH  94  95
ENDBRANCH  85  88
ENDBRANCH  83  84
ENDBRANCH  75  77
ENDBRANCH  74  75
ENDBRANCH  73  74
ENDBRANCH  72  73
ENDBRANCH   1  72
TORSDOF 20
ENDMDL
