MODEL 1
REMARK VINA RESULT:      -9.8      0.000      0.000
REMARK SMILES O=C(OCCOCCOC(=O)c1cc(=O)[nH]c2c(Br)cccc12)c1ccc(-c2c3nc(c(-c4cccc(S(=O)(=O)[O-])c4F)c4ccc([nH]4)c(-c4cccc(S(=O)(=O)[O-])c4F)c4nc(c(-c5cccc(S(=O)(=O)[O-])c5F)c5ccc2[nH]5)C=C4)C=C3)cc1
REMARK SMILES IDX 4 1 3 2 2 3 1 4 24 5 25 6 86 7 26 8 85 9 27 10 28 11 29 12
REMARK SMILES IDX 79 13 30 14 84 15 78 16 80 17 31 18 83 19 77 20 76 21 32 23
REMARK SMILES IDX 64 24 44 25 63 26 45 27 48 28 62 29 81 30 46 31 47 32 61 34
REMARK SMILES IDX 82 35 49 36 33 37 34 38 42 39 35 40 37 41 43 42 36 43 38 44
REMARK SMILES IDX 39 45 40 46 41 47 65 48 66 49 74 50 67 51 69 52 75 53 68 54
REMARK SMILES IDX 70 55 71 56 72 57 73 58 50 59 51 60 59 61 52 62 54 63 60 64
REMARK SMILES IDX 53 65 55 66 56 67 57 68 58 69 5 70 6 71 7 72 8 73 9 74 10 75
REMARK SMILES IDX 11 76 12 77 13 78 23 79 14 80 17 81 22 82 15 83 16 84 18 85
REMARK SMILES IDX 21 86 19 88 20 89
REMARK H PARENT 80 22 48 33 16 87
REMARK Flexibility Score: inf
ROOT
ATOM      1  C   UNL A   1      34.403  33.183  27.962  1.00  0.00     0.261 C 
ENDROOT
BRANCH   1   2
ATOM      2  O   UNL A   1      33.993  31.818  28.109  1.00  0.00    -0.460 OA
BRANCH   2   3
ATOM      3  C   UNL A   1      34.609  30.700  27.661  1.00  0.00     0.338 C 
ATOM      4  O   UNL A   1      34.002  30.029  26.822  1.00  0.00    -0.246 OA
BRANCH   3   5
ATOM      5  C   UNL A   1      35.954  30.192  28.108  1.00  0.00     0.060 A 
ATOM      6  C   UNL A   1      36.018  29.687  29.423  1.00  0.00     0.016 A 
ATOM      7  C   UNL A   1      37.152  30.241  27.388  1.00  0.00     0.016 A 
ATOM      8  C   UNL A   1      37.232  29.294  30.000  1.00  0.00     0.010 A 
ATOM      9  C   UNL A   1      38.367  29.877  27.960  1.00  0.00     0.010 A 
ATOM     10  C   UNL A   1      38.414  29.407  29.268  1.00  0.00    -0.014 A 
BRANCH  10  11
ATOM     11  C   UNL A   1      39.705  28.903  29.761  1.00  0.00     0.031 A 
ATOM     12  C   UNL A   1      40.465  29.639  30.820  1.00  0.00     0.074 A 
ATOM     13  C   UNL A   1      40.239  27.868  29.090  1.00  0.00     0.049 A 
ATOM     14  N   UNL A   1      41.637  29.359  31.325  1.00  0.00    -0.248 NA
ATOM     15  C   UNL A   1      39.846  30.855  31.378  1.00  0.00     0.031 C 
ATOM     16  C   UNL A   1      39.596  27.178  27.965  1.00  0.00     0.029 A 
ATOM     17  N   UNL A   1      41.451  27.250  29.212  1.00  0.00    -0.354 N 
ATOM     18  C   UNL A   1      41.898  30.353  32.259  1.00  0.00     0.074 A 
ATOM     19  C   UNL A   1      40.773  31.261  32.239  1.00  0.00     0.031 C 
ATOM     20  C   UNL A   1      40.431  26.245  27.487  1.00  0.00     0.029 A 
ATOM     21  C   UNL A   1      41.657  26.264  28.276  1.00  0.00     0.049 A 
ATOM     22  H   UNL A   1      42.113  27.486  29.902  1.00  0.00     0.167 HD
ATOM     23  C   UNL A   1      42.976  30.467  33.071  1.00  0.00     0.034 A 
ATOM     24  C   UNL A   1      42.712  25.453  28.092  1.00  0.00     0.034 A 
ATOM     25  C   UNL A   1      44.075  29.538  33.058  1.00  0.00     0.049 A 
ATOM     26  C   UNL A   1      43.859  25.561  29.051  1.00  0.00     0.074 A 
ATOM     27  C   UNL A   1      45.186  29.507  33.882  1.00  0.00     0.029 A 
ATOM     28  N   UNL A   1      44.201  28.478  32.173  1.00  0.00    -0.354 N 
ATOM     29  N   UNL A   1      44.027  26.418  30.029  1.00  0.00    -0.248 NA
ATOM     30  C   UNL A   1      44.928  24.565  28.923  1.00  0.00     0.031 C 
ATOM     31  C   UNL A   1      45.984  28.427  33.493  1.00  0.00     0.029 A 
ATOM     32  C   UNL A   1      45.362  27.776  32.440  1.00  0.00     0.049 A 
ATOM     33  H   UNL A   1      43.559  28.257  31.459  1.00  0.00     0.167 HD
ATOM     34  C   UNL A   1      45.198  26.036  30.668  1.00  0.00     0.074 A 
ATOM     35  C   UNL A   1      45.698  24.873  29.960  1.00  0.00     0.031 C 
ATOM     36  C   UNL A   1      45.802  26.596  31.742  1.00  0.00     0.034 A 
BRANCH  23  37
ATOM     37  C   UNL A   1      42.997  31.556  34.109  1.00  0.00     0.023 A 
ATOM     38  C   UNL A   1      43.575  32.796  33.771  1.00  0.00     0.012 A 
ATOM     39  C   UNL A   1      42.308  31.426  35.332  1.00  0.00     0.148 A 
ATOM     40  C   UNL A   1      43.465  33.891  34.627  1.00  0.00     0.002 A 
ATOM     41  C   UNL A   1      42.179  32.530  36.169  1.00  0.00     0.091 A 
ATOM     42  F   UNL A   1      41.765  30.238  35.634  1.00  0.00    -0.205 F 
ATOM     43  C   UNL A   1      42.757  33.762  35.819  1.00  0.00     0.022 A 
BRANCH  41  44
ATOM     44  S   UNL A   1      41.238  32.496  37.700  1.00  0.00     0.127 S 
ATOM     45  O   UNL A   1      39.960  31.942  37.251  1.00  0.00    -0.237 OA
ATOM     46  O   UNL A   1      42.035  31.593  38.529  1.00  0.00    -0.237 OA
ATOM     47  O   UNL A   1      41.174  33.873  38.168  1.00  0.00    -0.744 OA
ENDBRANCH  41  44
ENDBRANCH  23  37
BRANCH  24  48
ATOM     48  C   UNL A   1      42.627  24.381  27.069  1.00  0.00     0.023 A 
ATOM     49  C   UNL A   1      43.297  24.568  25.843  1.00  0.00     0.012 A 
ATOM     50  C   UNL A   1      42.004  23.148  27.337  1.00  0.00     0.148 A 
ATOM     51  C   UNL A   1      43.340  23.547  24.896  1.00  0.00     0.002 A 
ATOM     52  C   UNL A   1      42.080  22.121  26.402  1.00  0.00     0.091 A 
ATOM     53  F   UNL A   1      41.382  22.993  28.514  1.00  0.00    -0.205 F 
ATOM     54  C   UNL A   1      42.741  22.322  25.178  1.00  0.00     0.022 A 
BRANCH  52  55
ATOM     55  S   UNL A   1      41.437  20.474  26.718  1.00  0.00     0.127 S 
ATOM     56  O   UNL A   1      41.809  19.768  25.496  1.00  0.00    -0.237 OA
ATOM     57  O   UNL A   1      42.187  20.078  27.911  1.00  0.00    -0.237 OA
ATOM     58  O   UNL A   1      40.007  20.645  26.939  1.00  0.00    -0.744 OA
ENDBRANCH  52  55
ENDBRANCH  24  48
BRANCH  36  59
ATOM     59  C   UNL A   1      47.052  25.937  32.248  1.00  0.00     0.023 A 
ATOM     60  C   UNL A   1      48.301  26.314  31.721  1.00  0.00     0.012 A 
ATOM     61  C   UNL A   1      46.985  25.016  33.310  1.00  0.00     0.148 A 
ATOM     62  C   UNL A   1      49.473  25.765  32.236  1.00  0.00     0.002 A 
ATOM     63  C   UNL A   1      48.159  24.502  33.843  1.00  0.00     0.091 A 
ATOM     64  F   UNL A   1      45.778  24.667  33.781  1.00  0.00    -0.205 F 
ATOM     65  C   UNL A   1      49.403  24.870  33.304  1.00  0.00     0.022 A 
BRANCH  63  66
ATOM     66  S   UNL A   1      48.171  23.403  35.262  1.00  0.00     0.127 S 
ATOM     67  O   UNL A   1      47.507  24.221  36.276  1.00  0.00    -0.237 OA
ATOM     68  O   UNL A   1      47.384  22.268  34.781  1.00  0.00    -0.237 OA
ATOM     69  O   UNL A   1      49.572  23.100  35.527  1.00  0.00    -0.744 OA
ENDBRANCH  63  66
ENDBRANCH  36  59
ENDBRANCH  10  11
ENDBRANCH   3   5
ENDBRANCH   2   3
ENDBRANCH   1   2
BRANCH   1  70
ATOM     70  C   UNL A   1      33.415  34.130  28.642  1.00  0.00     0.202 C 
BRANCH  70  71
ATOM     71  O   UNL A   1      33.554  34.164  30.059  1.00  0.00    -0.374 OA
BRANCH  71  72
ATOM     72  C   UNL A   1      33.549  35.459  30.655  1.00  0.00     0.202 C 
BRANCH  72  73
ATOM     73  C   UNL A   1      33.512  35.318  32.177  1.00  0.00     0.261 C 
BRANCH  73  74
ATOM     74  O   UNL A   1      34.858  35.333  32.682  1.00  0.00    -0.460 OA
BRANCH  74  75
ATOM     75  C   UNL A   1      35.389  34.126  33.027  1.00  0.00     0.339 C 
ATOM     76  O   UNL A   1      34.775  33.100  33.257  1.00  0.00    -0.246 OA
BRANCH  75  77
ATOM     77  C   UNL A   1      36.872  34.215  32.943  1.00  0.00     0.074 A 
ATOM     78  C   UNL A   1      37.517  34.489  34.090  1.00  0.00     0.088 A 
ATOM     79  C   UNL A   1      37.632  34.088  31.679  1.00  0.00     0.014 A 
ATOM     80  C   UNL A   1      38.972  34.708  34.123  1.00  0.00     0.249 A 
ATOM     81  C   UNL A   1      39.011  34.359  31.702  1.00  0.00     0.063 A 
ATOM     82  C   UNL A   1      37.044  33.764  30.448  1.00  0.00     0.011 A 
ATOM     83  O   UNL A   1      39.545  34.961  35.176  1.00  0.00    -0.270 OA
ATOM     84  N   UNL A   1      39.628  34.647  32.930  1.00  0.00    -0.321 N 
ATOM     85  C   UNL A   1      39.763  34.348  30.516  1.00  0.00     0.042 A 
ATOM     86  C   UNL A   1      37.787  33.787  29.263  1.00  0.00     0.002 A 
ATOM     87  H   UNL A   1      40.598  34.817  32.930  1.00  0.00     0.170 HD
ATOM     88  Br  UNL A   1      41.629  34.704  30.522  1.00  0.00    -0.049 Br
ATOM     89  C   UNL A   1      39.146  34.085  29.295  1.00  0.00     0.018 A 
ENDBRANCH  75  77
ENDBRANCH  74  75
ENDBRANCH  73  74
ENDBRANCH  72  73
ENDBRANCH  71  72
ENDBRANCH  70  71
ENDBRANCH   1  70
TORSDOF 17
ENDMDL
MODEL 2
REMARK VINA RESULT:      -9.8      4.392     11.024
REMARK SMILES O=C(OCCOCCOC(=O)c1cc(=O)[nH]c2c(Br)cccc12)c1ccc(-c2c3nc(c(-c4cccc(S(=O)(=O)[O-])c4F)c4ccc([nH]4)c(-c4cccc(S(=O)(=O)[O-])c4F)c4nc(c(-c5cccc(S(=O)(=O)[O-])c5F)c5ccc2[nH]5)C=C4)C=C3)cc1
REMARK SMILES IDX 4 1 3 2 2 3 1 4 24 5 25 6 86 7 26 8 85 9 27 10 28 11 29 12
REMARK SMILES IDX 79 13 30 14 84 15 78 16 80 17 31 18 83 19 77 20 76 21 32 23
REMARK SMILES IDX 64 24 44 25 63 26 45 27 48 28 62 29 81 30 46 31 47 32 61 34
REMARK SMILES IDX 82 35 49 36 33 37 34 38 42 39 35 40 37 41 43 42 36 43 38 44
REMARK SMILES IDX 39 45 40 46 41 47 65 48 66 49 74 50 67 51 69 52 75 53 68 54
REMARK SMILES IDX 70 55 71 56 72 57 73 58 50 59 51 60 59 61 52 62 54 63 60 64
REMARK SMILES IDX 53 65 55 66 56 67 57 68 58 69 5 70 6 71 7 72 8 73 9 74 10 75
REMARK SMILES IDX 11 76 12 77 13 78 23 79 14 80 17 81 22 82 15 83 16 84 18 85
REMARK SMILES IDX 21 86 19 88 20 89
REMARK H PARENT 80 22 48 33 16 87
REMARK Flexibility Score: inf
ROOT
ATOM      1  C   UNL A   1      40.365  20.305  26.258  1.00  0.00     0.261 C 
ENDROOT
BRANCH   1   2
ATOM      2  O   UNL A   1      40.303  21.665  25.814  1.00  0.00    -0.460 OA
BRANCH   2   3
ATOM      3  C   UNL A   1      39.486  22.656  26.241  1.00  0.00     0.338 C 
ATOM      4  O   UNL A   1      38.272  22.440  26.184  1.00  0.00    -0.246 OA
BRANCH   3   5
ATOM      5  C   UNL A   1      39.924  24.000  26.760  1.00  0.00     0.060 A 
ATOM      6  C   UNL A   1      39.625  24.267  28.112  1.00  0.00     0.016 A 
ATOM      7  C   UNL A   1      40.520  25.029  26.027  1.00  0.00     0.016 A 
ATOM      8  C   UNL A   1      39.873  25.520  28.685  1.00  0.00     0.010 A 
ATOM      9  C   UNL A   1      40.748  26.287  26.578  1.00  0.00     0.010 A 
ATOM     10  C   UNL A   1      40.421  26.540  27.906  1.00  0.00    -0.014 A 
BRANCH  10  11
ATOM     11  C   UNL A   1      40.820  27.840  28.466  1.00  0.00     0.031 A 
ATOM     12  C   UNL A   1      39.794  28.850  28.876  1.00  0.00     0.074 A 
ATOM     13  C   UNL A   1      42.131  28.136  28.417  1.00  0.00     0.049 A 
ATOM     14  N   UNL A   1      39.979  30.058  29.335  1.00  0.00    -0.248 NA
ATOM     15  C   UNL A   1      38.377  28.469  28.740  1.00  0.00     0.031 C 
ATOM     16  C   UNL A   1      43.175  27.234  27.916  1.00  0.00     0.029 A 
ATOM     17  N   UNL A   1      42.805  29.281  28.737  1.00  0.00    -0.354 N 
ATOM     18  C   UNL A   1      38.711  30.584  29.549  1.00  0.00     0.074 A 
ATOM     19  C   UNL A   1      37.758  29.573  29.148  1.00  0.00     0.031 C 
ATOM     20  C   UNL A   1      44.354  27.869  27.943  1.00  0.00     0.029 A 
ATOM     21  C   UNL A   1      44.151  29.213  28.472  1.00  0.00     0.049 A 
ATOM     22  H   UNL A   1      42.369  30.077  29.119  1.00  0.00     0.167 HD
ATOM     23  C   UNL A   1      38.390  31.796  30.059  1.00  0.00     0.034 A 
ATOM     24  C   UNL A   1      45.117  30.129  28.657  1.00  0.00     0.034 A 
ATOM     25  C   UNL A   1      39.372  32.775  30.447  1.00  0.00     0.049 A 
ATOM     26  C   UNL A   1      44.737  31.434  29.287  1.00  0.00     0.074 A 
ATOM     27  C   UNL A   1      39.172  34.007  31.043  1.00  0.00     0.029 A 
ATOM     28  N   UNL A   1      40.740  32.630  30.273  1.00  0.00    -0.354 N 
ATOM     29  N   UNL A   1      43.543  31.863  29.621  1.00  0.00    -0.248 NA
ATOM     30  C   UNL A   1      45.829  32.355  29.618  1.00  0.00     0.031 C 
ATOM     31  C   UNL A   1      40.420  34.607  31.229  1.00  0.00     0.029 A 
ATOM     32  C   UNL A   1      41.399  33.742  30.765  1.00  0.00     0.049 A 
ATOM     33  H   UNL A   1      41.179  31.851  29.860  1.00  0.00     0.167 HD
ATOM     34  C   UNL A   1      43.742  33.085  30.248  1.00  0.00     0.074 A 
ATOM     35  C   UNL A   1      45.172  33.327  30.240  1.00  0.00     0.031 C 
ATOM     36  C   UNL A   1      42.826  33.927  30.781  1.00  0.00     0.034 A 
BRANCH  23  37
ATOM     37  C   UNL A   1      36.945  32.115  30.332  1.00  0.00     0.023 A 
ATOM     38  C   UNL A   1      36.433  31.864  31.621  1.00  0.00     0.012 A 
ATOM     39  C   UNL A   1      36.151  32.809  29.396  1.00  0.00     0.148 A 
ATOM     40  C   UNL A   1      35.158  32.302  31.979  1.00  0.00     0.002 A 
ATOM     41  C   UNL A   1      34.890  33.265  29.769  1.00  0.00     0.091 A 
ATOM     42  F   UNL A   1      36.657  33.037  28.176  1.00  0.00    -0.205 F 
ATOM     43  C   UNL A   1      34.393  33.013  31.059  1.00  0.00     0.022 A 
BRANCH  41  44
ATOM     44  S   UNL A   1      33.841  34.243  28.686  1.00  0.00     0.127 S 
ATOM     45  O   UNL A   1      32.791  34.682  29.607  1.00  0.00    -0.237 OA
ATOM     46  O   UNL A   1      34.751  35.301  28.252  1.00  0.00    -0.237 OA
ATOM     47  O   UNL A   1      33.391  33.342  27.635  1.00  0.00    -0.744 OA
ENDBRANCH  41  44
ENDBRANCH  23  37
BRANCH  24  48
ATOM     48  C   UNL A   1      46.528  29.751  28.394  1.00  0.00     0.023 A 
ATOM     49  C   UNL A   1      47.105  30.127  27.165  1.00  0.00     0.012 A 
ATOM     50  C   UNL A   1      47.329  29.145  29.380  1.00  0.00     0.148 A 
ATOM     51  C   UNL A   1      48.457  29.894  26.916  1.00  0.00     0.002 A 
ATOM     52  C   UNL A   1      48.685  28.947  29.138  1.00  0.00     0.091 A 
ATOM     53  F   UNL A   1      46.757  28.807  30.543  1.00  0.00    -0.205 F 
ATOM     54  C   UNL A   1      49.248  29.314  27.905  1.00  0.00     0.022 A 
BRANCH  52  55
ATOM     55  S   UNL A   1      49.807  28.310  30.388  1.00  0.00     0.127 S 
ATOM     56  O   UNL A   1      50.987  27.985  29.591  1.00  0.00    -0.237 OA
ATOM     57  O   UNL A   1      49.961  29.463  31.275  1.00  0.00    -0.237 OA
ATOM     58  O   UNL A   1      49.121  27.175  30.992  1.00  0.00    -0.744 OA
ENDBRANCH  52  55
ENDBRANCH  24  48
BRANCH  36  59
ATOM     59  C   UNL A   1      43.340  35.173  31.439  1.00  0.00     0.023 A 
ATOM     60  C   UNL A   1      43.684  35.149  32.803  1.00  0.00     0.012 A 
ATOM     61  C   UNL A   1      43.569  36.334  30.677  1.00  0.00     0.148 A 
ATOM     62  C   UNL A   1      44.235  36.277  33.407  1.00  0.00     0.002 A 
ATOM     63  C   UNL A   1      44.153  37.441  31.276  1.00  0.00     0.091 A 
ATOM     64  F   UNL A   1      43.218  36.329  29.382  1.00  0.00    -0.205 F 
ATOM     65  C   UNL A   1      44.480  37.417  32.642  1.00  0.00     0.022 A 
BRANCH  63  66
ATOM     66  S   UNL A   1      44.573  38.923  30.356  1.00  0.00     0.127 S 
ATOM     67  O   UNL A   1      45.142  39.771  31.404  1.00  0.00    -0.237 OA
ATOM     68  O   UNL A   1      45.543  38.420  29.384  1.00  0.00    -0.237 OA
ATOM     69  O   UNL A   1      43.326  39.405  29.775  1.00  0.00    -0.744 OA
ENDBRANCH  63  66
ENDBRANCH  36  59
ENDBRANCH  10  11
ENDBRANCH   3   5
ENDBRANCH   2   3
ENDBRANCH   1   2
BRANCH   1  70
ATOM     70  C   UNL A   1      41.813  19.855  26.449  1.00  0.00     0.202 C 
BRANCH  70  71
ATOM     71  O   UNL A   1      42.376  19.263  25.283  1.00  0.00    -0.374 OA
BRANCH  71  72
ATOM     72  C   UNL A   1      43.746  18.879  25.378  1.00  0.00     0.202 C 
BRANCH  72  73
ATOM     73  C   UNL A   1      44.593  19.794  24.494  1.00  0.00     0.261 C 
BRANCH  73  74
ATOM     74  O   UNL A   1      45.096  20.881  25.290  1.00  0.00    -0.460 OA
BRANCH  74  75
ATOM     75  C   UNL A   1      44.550  22.106  25.057  1.00  0.00     0.339 C 
ATOM     76  O   UNL A   1      43.647  22.366  24.281  1.00  0.00    -0.246 OA
BRANCH  75  77
ATOM     77  C   UNL A   1      45.139  23.083  26.013  1.00  0.00     0.074 A 
ATOM     78  C   UNL A   1      46.294  23.659  25.638  1.00  0.00     0.088 A 
ATOM     79  C   UNL A   1      44.561  23.380  27.343  1.00  0.00     0.014 A 
ATOM     80  C   UNL A   1      47.033  24.560  26.537  1.00  0.00     0.249 A 
ATOM     81  C   UNL A   1      45.299  24.191  28.223  1.00  0.00     0.063 A 
ATOM     82  C   UNL A   1      43.342  22.855  27.796  1.00  0.00     0.011 A 
ATOM     83  O   UNL A   1      48.086  25.075  26.182  1.00  0.00    -0.270 OA
ATOM     84  N   UNL A   1      46.503  24.758  27.777  1.00  0.00    -0.321 N 
ATOM     85  C   UNL A   1      44.845  24.426  29.530  1.00  0.00     0.042 A 
ATOM     86  C   UNL A   1      42.908  23.062  29.109  1.00  0.00     0.002 A 
ATOM     87  H   UNL A   1      46.998  25.338  28.400  1.00  0.00     0.170 HD
ATOM     88  Br  UNL A   1      45.822  25.523  30.736  1.00  0.00    -0.049 Br
ATOM     89  C   UNL A   1      43.663  23.844  29.980  1.00  0.00     0.018 A 
ENDBRANCH  75  77
ENDBRANCH  74  75
ENDBRANCH  73  74
ENDBRANCH  72  73
ENDBRANCH  71  72
ENDBRANCH  70  71
ENDBRANCH   1  70
TORSDOF 17
ENDMDL
MODEL 3
REMARK VINA RESULT:      -9.8      1.152      7.810
REMARK SMILES O=C(OCCOCCOC(=O)c1cc(=O)[nH]c2c(Br)cccc12)c1ccc(-c2c3nc(c(-c4cccc(S(=O)(=O)[O-])c4F)c4ccc([nH]4)c(-c4cccc(S(=O)(=O)[O-])c4F)c4nc(c(-c5cccc(S(=O)(=O)[O-])c5F)c5ccc2[nH]5)C=C4)C=C3)cc1
REMARK SMILES IDX 4 1 3 2 2 3 1 4 24 5 25 6 86 7 26 8 85 9 27 10 28 11 29 12
REMARK SMILES IDX 79 13 30 14 84 15 78 16 80 17 31 18 83 19 77 20 76 21 32 23
REMARK SMILES IDX 64 24 44 25 63 26 45 27 48 28 62 29 81 30 46 31 47 32 61 34
REMARK SMILES IDX 82 35 49 36 33 37 34 38 42 39 35 40 37 41 43 42 36 43 38 44
REMARK SMILES IDX 39 45 40 46 41 47 65 48 66 49 74 50 67 51 69 52 75 53 68 54
REMARK SMILES IDX 70 55 71 56 72 57 73 58 50 59 51 60 59 61 52 62 54 63 60 64
REMARK SMILES IDX 53 65 55 66 56 67 57 68 58 69 5 70 6 71 7 72 8 73 9 74 10 75
REMARK SMILES IDX 11 76 12 77 13 78 23 79 14 80 17 81 22 82 15 83 16 84 18 85
REMARK SMILES IDX 21 86 19 88 20 89
REMARK H PARENT 80 22 48 33 16 87
REMARK Flexibility Score: inf
ROOT
ATOM      1  C   UNL A   1      34.473  33.290  28.203  1.00  0.00     0.261 C 
ENDROOT
BRANCH   1   2
ATOM      2  O   UNL A   1      33.893  31.984  28.106  1.00  0.00    -0.460 OA
BRANCH   2   3
ATOM      3  C   UNL A   1      34.461  30.840  27.660  1.00  0.00     0.338 C 
ATOM      4  O   UNL A   1      33.809  30.172  26.855  1.00  0.00    -0.246 OA
BRANCH   3   5
ATOM      5  C   UNL A   1      35.806  30.303  28.072  1.00  0.00     0.060 A 
ATOM      6  C   UNL A   1      35.870  29.712  29.351  1.00  0.00     0.016 A 
ATOM      7  C   UNL A   1      37.004  30.397  27.357  1.00  0.00     0.016 A 
ATOM      8  C   UNL A   1      37.083  29.280  29.901  1.00  0.00     0.010 A 
ATOM      9  C   UNL A   1      38.219  29.995  27.904  1.00  0.00     0.010 A 
ATOM     10  C   UNL A   1      38.265  29.439  29.178  1.00  0.00    -0.014 A 
BRANCH  10  11
ATOM     11  C   UNL A   1      39.555  28.903  29.636  1.00  0.00     0.031 A 
ATOM     12  C   UNL A   1      40.154  27.687  28.999  1.00  0.00     0.074 A 
ATOM     13  C   UNL A   1      40.065  29.444  30.757  1.00  0.00     0.049 A 
ATOM     14  N   UNL A   1      41.253  27.059  29.318  1.00  0.00    -0.248 NA
ATOM     15  C   UNL A   1      39.424  27.085  27.870  1.00  0.00     0.031 C 
ATOM     16  C   UNL A   1      39.464  30.560  31.495  1.00  0.00     0.029 A 
ATOM     17  N   UNL A   1      41.162  29.105  31.497  1.00  0.00    -0.354 N 
ATOM     18  C   UNL A   1      41.354  25.992  28.433  1.00  0.00     0.074 A 
ATOM     19  C   UNL A   1      40.192  26.041  27.575  1.00  0.00     0.031 C 
ATOM     20  C   UNL A   1      40.189  30.799  32.597  1.00  0.00     0.029 A 
ATOM     21  C   UNL A   1      41.308  29.865  32.633  1.00  0.00     0.049 A 
ATOM     22  H   UNL A   1      41.787  28.388  31.243  1.00  0.00     0.167 HD
ATOM     23  C   UNL A   1      42.350  25.079  28.345  1.00  0.00     0.034 A 
ATOM     24  C   UNL A   1      42.254  29.822  33.587  1.00  0.00     0.034 A 
ATOM     25  C   UNL A   1      43.491  25.067  29.220  1.00  0.00     0.049 A 
ATOM     26  C   UNL A   1      43.377  28.845  33.420  1.00  0.00     0.074 A 
ATOM     27  C   UNL A   1      44.598  24.238  29.182  1.00  0.00     0.029 A 
ATOM     28  N   UNL A   1      43.669  25.925  30.296  1.00  0.00    -0.354 N 
ATOM     29  N   UNL A   1      43.536  27.933  32.491  1.00  0.00    -0.248 NA
ATOM     30  C   UNL A   1      44.475  28.922  34.391  1.00  0.00     0.031 C 
ATOM     31  C   UNL A   1      45.445  24.596  30.236  1.00  0.00     0.029 A 
ATOM     32  C   UNL A   1      44.874  25.659  30.918  1.00  0.00     0.049 A 
ATOM     33  H   UNL A   1      43.031  26.623  30.574  1.00  0.00     0.167 HD
ATOM     34  C   UNL A   1      44.775  27.359  32.733  1.00  0.00     0.074 A 
ATOM     35  C   UNL A   1      45.320  28.023  33.901  1.00  0.00     0.031 C 
ATOM     36  C   UNL A   1      45.403  26.372  32.051  1.00  0.00     0.034 A 
BRANCH  23  37
ATOM     37  C   UNL A   1      42.325  24.079  27.220  1.00  0.00     0.023 A 
ATOM     38  C   UNL A   1      42.984  24.405  26.016  1.00  0.00     0.012 A 
ATOM     39  C   UNL A   1      41.818  22.776  27.399  1.00  0.00     0.148 A 
ATOM     40  C   UNL A   1      43.144  23.452  25.011  1.00  0.00     0.002 A 
ATOM     41  C   UNL A   1      42.005  21.823  26.402  1.00  0.00     0.091 A 
ATOM     42  F   UNL A   1      41.196  22.488  28.550  1.00  0.00    -0.205 F 
ATOM     43  C   UNL A   1      42.667  22.159  25.208  1.00  0.00     0.022 A 
BRANCH  41  44
ATOM     44  S   UNL A   1      41.486  20.111  26.572  1.00  0.00     0.127 S 
ATOM     45  O   UNL A   1      42.155  19.719  27.813  1.00  0.00    -0.237 OA
ATOM     46  O   UNL A   1      40.034  20.241  26.678  1.00  0.00    -0.237 OA
ATOM     47  O   UNL A   1      41.961  19.422  25.380  1.00  0.00    -0.744 OA
ENDBRANCH  41  44
ENDBRANCH  23  37
BRANCH  24  48
ATOM     48  C   UNL A   1      42.242  30.849  34.659  1.00  0.00     0.023 A 
ATOM     49  C   UNL A   1      41.619  30.533  35.883  1.00  0.00     0.012 A 
ATOM     50  C   UNL A   1      42.936  32.066  34.528  1.00  0.00     0.148 A 
ATOM     51  C   UNL A   1      41.678  31.419  36.958  1.00  0.00     0.002 A 
ATOM     52  C   UNL A   1      43.021  32.930  35.615  1.00  0.00     0.091 A 
ATOM     53  F   UNL A   1      43.527  32.337  33.357  1.00  0.00    -0.205 F 
ATOM     54  C   UNL A   1      42.386  32.611  36.828  1.00  0.00     0.022 A 
BRANCH  52  55
ATOM     55  S   UNL A   1      44.000  34.435  35.581  1.00  0.00     0.127 S 
ATOM     56  O   UNL A   1      43.373  35.175  34.490  1.00  0.00    -0.237 OA
ATOM     57  O   UNL A   1      43.759  34.985  36.916  1.00  0.00    -0.237 OA
ATOM     58  O   UNL A   1      45.373  34.007  35.348  1.00  0.00    -0.744 OA
ENDBRANCH  52  55
ENDBRANCH  24  48
BRANCH  36  59
ATOM     59  C   UNL A   1      46.772  25.977  32.521  1.00  0.00     0.023 A 
ATOM     60  C   UNL A   1      47.899  26.674  32.050  1.00  0.00     0.012 A 
ATOM     61  C   UNL A   1      46.922  24.978  33.502  1.00  0.00     0.148 A 
ATOM     62  C   UNL A   1      49.167  26.367  32.538  1.00  0.00     0.002 A 
ATOM     63  C   UNL A   1      48.183  24.704  34.010  1.00  0.00     0.091 A 
ATOM     64  F   UNL A   1      45.828  24.322  33.920  1.00  0.00    -0.205 F 
ATOM     65  C   UNL A   1      49.308  25.392  33.525  1.00  0.00     0.022 A 
BRANCH  63  66
ATOM     66  S   UNL A   1      48.451  23.519  35.332  1.00  0.00     0.127 S 
ATOM     67  O   UNL A   1      47.603  24.063  36.393  1.00  0.00    -0.237 OA
ATOM     68  O   UNL A   1      47.963  22.276  34.737  1.00  0.00    -0.237 OA
ATOM     69  O   UNL A   1      49.882  23.539  35.608  1.00  0.00    -0.744 OA
ENDBRANCH  63  66
ENDBRANCH  36  59
ENDBRANCH  10  11
ENDBRANCH   3   5
ENDBRANCH   2   3
ENDBRANCH   1   2
BRANCH   1  70
ATOM     70  C   UNL A   1      33.407  34.377  28.064  1.00  0.00     0.202 C 
BRANCH  70  71
ATOM     71  O   UNL A   1      32.653  34.580  29.255  1.00  0.00    -0.374 OA
BRANCH  71  72
ATOM     72  C   UNL A   1      32.889  35.809  29.940  1.00  0.00     0.202 C 
BRANCH  72  73
ATOM     73  C   UNL A   1      33.046  35.535  31.435  1.00  0.00     0.261 C 
BRANCH  73  74
ATOM     74  O   UNL A   1      34.442  35.363  31.736  1.00  0.00    -0.460 OA
BRANCH  74  75
ATOM     75  C   UNL A   1      34.838  34.104  32.072  1.00  0.00     0.339 C 
ATOM     76  O   UNL A   1      34.167  33.089  32.013  1.00  0.00    -0.246 OA
BRANCH  75  77
ATOM     77  C   UNL A   1      36.290  34.130  32.397  1.00  0.00     0.074 A 
ATOM     78  C   UNL A   1      36.609  34.417  33.671  1.00  0.00     0.088 A 
ATOM     79  C   UNL A   1      37.360  33.930  31.394  1.00  0.00     0.014 A 
ATOM     80  C   UNL A   1      38.008  34.579  34.098  1.00  0.00     0.249 A 
ATOM     81  C   UNL A   1      38.692  34.147  31.789  1.00  0.00     0.063 A 
ATOM     82  C   UNL A   1      37.116  33.589  30.056  1.00  0.00     0.011 A 
ATOM     83  O   UNL A   1      38.283  34.844  35.262  1.00  0.00    -0.270 OA
ATOM     84  N   UNL A   1      38.962  34.452  33.132  1.00  0.00    -0.321 N 
ATOM     85  C   UNL A   1      39.737  34.065  30.856  1.00  0.00     0.042 A 
ATOM     86  C   UNL A   1      38.155  33.541  29.120  1.00  0.00     0.002 A 
ATOM     87  H   UNL A   1      39.901  34.583  33.395  1.00  0.00     0.170 HD
ATOM     88  Br  UNL A   1      41.545  34.347  31.367  1.00  0.00    -0.049 Br
ATOM     89  C   UNL A   1      39.466  33.786  29.518  1.00  0.00     0.018 A 
ENDBRANCH  75  77
ENDBRANCH  74  75
ENDBRANCH  73  74
ENDBRANCH  72  73
ENDBRANCH  71  72
ENDBRANCH  70  71
ENDBRANCH   1  70
TORSDOF 17
ENDMDL
