MODEL 1
REMARK VINA RESULT:     -11.7      0.000      0.000
REMARK SMILES CC(=O)Nc1ccc2sc(C(=O)OCCOCCOC(=O)c3ccc(-c4c5nc(c(-c6cccc(S(=O)(=O)[O-])c6F)c6ccc([nH]6)c(-c6cccc(S(=O)(=O)[O-])c6F)c6nc(c(-c7cccc(S(=O)(=O)[O-])c7F)c7ccc4[nH]7)C=C6)C=C5)cc3)cc2c1
REMARK SMILES IDX 17 1 16 2 15 3 14 4 13 5 11 6 12 7 10 8 5 9 6 10 87 11 7 12
REMARK SMILES IDX 86 13 8 14 85 15 9 16 4 17 1 18 2 19 3 20 18 22 19 23 20 24
REMARK SMILES IDX 21 25 22 26 23 27 84 28 24 29 83 30 25 31 26 32 27 33 77 34
REMARK SMILES IDX 28 35 82 36 76 37 78 38 29 39 81 40 75 41 74 42 30 44 62 45
REMARK SMILES IDX 42 46 61 47 43 48 46 49 60 50 79 51 44 52 45 53 59 55 80 56
REMARK SMILES IDX 47 57 31 58 32 59 40 60 33 61 35 62 41 63 34 64 36 65 37 66
REMARK SMILES IDX 38 67 39 68 63 69 64 70 72 71 65 72 67 73 73 74 66 75 68 76
REMARK SMILES IDX 69 77 70 78 71 79 48 80 49 81 57 82 50 83 52 84 58 85 51 86
REMARK SMILES IDX 53 87 54 88 55 89 56 90
REMARK H PARENT 4 21 78 43 46 54
REMARK Flexibility Score: inf
ROOT
ATOM      1  C   UNL A   1      36.081  20.342  25.007  1.00  0.00     0.202 C 
ENDROOT
BRANCH   1   2
ATOM      2  O   UNL A   1      35.742  21.470  25.820  1.00  0.00    -0.374 OA
BRANCH   2   3
ATOM      3  C   UNL A   1      35.273  22.629  25.124  1.00  0.00     0.202 C 
BRANCH   3   4
ATOM      4  C   UNL A   1      35.314  22.515  23.598  1.00  0.00     0.261 C 
BRANCH   4   5
ATOM      5  O   UNL A   1      34.785  23.704  22.995  1.00  0.00    -0.459 OA
BRANCH   5   6
ATOM      6  C   UNL A   1      33.455  23.664  22.706  1.00  0.00     0.348 C 
ATOM      7  O   UNL A   1      32.858  22.678  22.288  1.00  0.00    -0.245 OA
BRANCH   6   8
ATOM      8  C   UNL A   1      32.793  24.895  23.086  1.00  0.00     0.113 A 
ATOM      9  C   UNL A   1      30.606  29.097  22.956  1.00  0.00     0.041 A 
ATOM     10  C   UNL A   1      31.100  29.235  24.249  1.00  0.00     0.027 A 
ATOM     11  C   UNL A   1      30.725  27.876  22.291  1.00  0.00     0.035 A 
ATOM     12  C   UNL A   1      31.788  28.185  24.871  1.00  0.00     0.022 A 
ATOM     13  C   UNL A   1      31.510  26.844  22.849  1.00  0.00    -0.005 A 
ATOM     14  C   UNL A   1      32.029  27.010  24.134  1.00  0.00     0.035 A 
ATOM     15  C   UNL A   1      31.944  25.614  22.271  1.00  0.00     0.036 A 
ATOM     16  S   UNL A   1      32.954  25.635  24.613  1.00  0.00    -0.128 S 
BRANCH   9  17
ATOM     17  N   UNL A   1      29.998  30.145  22.254  1.00  0.00    -0.326 N 
ATOM     18  C   UNL A   1      27.652  29.580  22.843  1.00  0.00     0.114 C 
ATOM     19  C   UNL A   1      28.665  30.395  22.079  1.00  0.00     0.221 C 
ATOM     20  O   UNL A   1      28.314  31.337  21.366  1.00  0.00    -0.275 OA
ATOM     21  H   UNL A   1      30.612  30.787  21.829  1.00  0.00     0.169 HD
ENDBRANCH   9  17
ENDBRANCH   6   8
ENDBRANCH   5   6
ENDBRANCH   4   5
ENDBRANCH   3   4
ENDBRANCH   2   3
ENDBRANCH   1   2
BRANCH   1  22
ATOM     22  C   UNL A   1      37.579  20.039  24.900  1.00  0.00     0.261 C 
BRANCH  22  23
ATOM     23  O   UNL A   1      38.361  21.208  25.204  1.00  0.00    -0.460 OA
BRANCH  23  24
ATOM     24  C   UNL A   1      39.419  20.994  26.023  1.00  0.00     0.338 C 
ATOM     25  O   UNL A   1      40.040  19.953  26.160  1.00  0.00    -0.246 OA
BRANCH  24  26
ATOM     26  C   UNL A   1      39.858  22.273  26.617  1.00  0.00     0.060 A 
ATOM     27  C   UNL A   1      39.225  23.439  26.166  1.00  0.00     0.016 A 
ATOM     28  C   UNL A   1      40.886  22.346  27.561  1.00  0.00     0.016 A 
ATOM     29  C   UNL A   1      39.656  24.687  26.614  1.00  0.00     0.010 A 
ATOM     30  C   UNL A   1      41.321  23.601  28.005  1.00  0.00     0.010 A 
ATOM     31  C   UNL A   1      40.732  24.777  27.506  1.00  0.00    -0.014 A 
BRANCH  31  32
ATOM     32  C   UNL A   1      41.330  26.102  27.799  1.00  0.00     0.031 A 
ATOM     33  C   UNL A   1      42.740  26.378  27.351  1.00  0.00     0.074 A 
ATOM     34  C   UNL A   1      40.622  27.052  28.435  1.00  0.00     0.049 A 
ATOM     35  N   UNL A   1      43.459  27.459  27.503  1.00  0.00    -0.248 NA
ATOM     36  C   UNL A   1      43.431  25.293  26.634  1.00  0.00     0.031 C 
ATOM     37  C   UNL A   1      39.246  26.907  28.907  1.00  0.00     0.029 A 
ATOM     38  N   UNL A   1      40.974  28.325  28.808  1.00  0.00    -0.354 N 
ATOM     39  C   UNL A   1      44.688  27.184  26.914  1.00  0.00     0.074 A 
ATOM     40  C   UNL A   1      44.626  25.825  26.420  1.00  0.00     0.031 C 
ATOM     41  C   UNL A   1      38.876  28.042  29.527  1.00  0.00     0.029 A 
ATOM     42  C   UNL A   1      39.994  28.984  29.511  1.00  0.00     0.049 A 
ATOM     43  H   UNL A   1      41.846  28.729  28.591  1.00  0.00     0.167 HD
ATOM     44  C   UNL A   1      45.763  27.995  26.773  1.00  0.00     0.034 A 
ATOM     45  C   UNL A   1      40.005  30.204  30.086  1.00  0.00     0.034 A 
ATOM     46  C   UNL A   1      45.820  29.349  27.251  1.00  0.00     0.049 A 
ATOM     47  C   UNL A   1      41.231  31.070  29.951  1.00  0.00     0.074 A 
ATOM     48  C   UNL A   1      46.861  30.255  27.146  1.00  0.00     0.029 A 
ATOM     49  N   UNL A   1      44.796  29.993  27.927  1.00  0.00    -0.354 N 
ATOM     50  N   UNL A   1      42.343  30.833  29.297  1.00  0.00    -0.248 NA
ATOM     51  C   UNL A   1      41.192  32.387  30.605  1.00  0.00     0.031 C 
ATOM     52  C   UNL A   1      46.469  31.446  27.767  1.00  0.00     0.029 A 
ATOM     53  C   UNL A   1      45.179  31.284  28.246  1.00  0.00     0.049 A 
ATOM     54  H   UNL A   1      43.925  29.592  28.147  1.00  0.00     0.167 HD
ATOM     55  C   UNL A   1      43.115  31.983  29.427  1.00  0.00     0.074 A 
ATOM     56  C   UNL A   1      42.337  32.924  30.206  1.00  0.00     0.031 C 
ATOM     57  C   UNL A   1      44.364  32.232  28.961  1.00  0.00     0.034 A 
BRANCH  44  58
ATOM     58  C   UNL A   1      46.951  27.455  26.026  1.00  0.00     0.023 A 
ATOM     59  C   UNL A   1      47.829  26.569  26.683  1.00  0.00     0.012 A 
ATOM     60  C   UNL A   1      47.166  27.766  24.670  1.00  0.00     0.148 A 
ATOM     61  C   UNL A   1      48.917  26.017  26.009  1.00  0.00     0.002 A 
ATOM     62  C   UNL A   1      48.233  27.183  23.994  1.00  0.00     0.091 A 
ATOM     63  F   UNL A   1      46.334  28.628  24.072  1.00  0.00    -0.205 F 
ATOM     64  C   UNL A   1      49.111  26.315  24.662  1.00  0.00     0.022 A 
BRANCH  62  65
ATOM     65  S   UNL A   1      48.532  27.451  22.243  1.00  0.00     0.127 S 
ATOM     66  O   UNL A   1      47.345  28.209  21.854  1.00  0.00    -0.237 OA
ATOM     67  O   UNL A   1      49.773  28.227  22.257  1.00  0.00    -0.237 OA
ATOM     68  O   UNL A   1      48.651  26.126  21.648  1.00  0.00    -0.744 OA
ENDBRANCH  62  65
ENDBRANCH  44  58
BRANCH  45  69
ATOM     69  C   UNL A   1      38.802  30.706  30.808  1.00  0.00     0.023 A 
ATOM     70  C   UNL A   1      38.723  30.557  32.208  1.00  0.00     0.012 A 
ATOM     71  C   UNL A   1      37.736  31.321  30.124  1.00  0.00     0.148 A 
ATOM     72  C   UNL A   1      37.590  30.980  32.906  1.00  0.00     0.002 A 
ATOM     73  C   UNL A   1      36.634  31.788  30.832  1.00  0.00     0.091 A 
ATOM     74  F   UNL A   1      37.815  31.432  28.790  1.00  0.00    -0.205 F 
ATOM     75  C   UNL A   1      36.551  31.603  32.221  1.00  0.00     0.022 A 
BRANCH  73  76
ATOM     76  S   UNL A   1      35.315  32.712  30.036  1.00  0.00     0.127 S 
ATOM     77  O   UNL A   1      36.032  33.872  29.516  1.00  0.00    -0.237 OA
ATOM     78  O   UNL A   1      34.848  31.769  29.018  1.00  0.00    -0.237 OA
ATOM     79  O   UNL A   1      34.345  32.978  31.090  1.00  0.00    -0.744 OA
ENDBRANCH  73  76
ENDBRANCH  45  69
BRANCH  57  80
ATOM     80  C   UNL A   1      44.958  33.588  29.240  1.00  0.00     0.023 A 
ATOM     81  C   UNL A   1      45.686  33.799  30.428  1.00  0.00     0.012 A 
ATOM     82  C   UNL A   1      44.864  34.627  28.292  1.00  0.00     0.148 A 
ATOM     83  C   UNL A   1      46.286  35.031  30.681  1.00  0.00     0.002 A 
ATOM     84  C   UNL A   1      45.502  35.838  28.532  1.00  0.00     0.091 A 
ATOM     85  F   UNL A   1      44.150  34.412  27.177  1.00  0.00    -0.205 F 
ATOM     86  C   UNL A   1      46.205  36.045  29.729  1.00  0.00     0.022 A 
BRANCH  84  87
ATOM     87  S   UNL A   1      45.524  37.166  27.321  1.00  0.00     0.127 S 
ATOM     88  O   UNL A   1      46.269  36.555  26.222  1.00  0.00    -0.237 OA
ATOM     89  O   UNL A   1      44.100  37.370  27.054  1.00  0.00    -0.237 OA
ATOM     90  O   UNL A   1      46.179  38.290  27.977  1.00  0.00    -0.744 OA
ENDBRANCH  84  87
ENDBRANCH  57  80
ENDBRANCH  31  32
ENDBRANCH  24  26
ENDBRANCH  23  24
ENDBRANCH  22  23
ENDBRANCH   1  22
TORSDOF 18
ENDMDL
MODEL 2
REMARK VINA RESULT:     -11.6      5.179      7.934
REMARK SMILES CC(=O)Nc1ccc2sc(C(=O)OCCOCCOC(=O)c3ccc(-c4c5nc(c(-c6cccc(S(=O)(=O)[O-])c6F)c6ccc([nH]6)c(-c6cccc(S(=O)(=O)[O-])c6F)c6nc(c(-c7cccc(S(=O)(=O)[O-])c7F)c7ccc4[nH]7)C=C6)C=C5)cc3)cc2c1
REMARK SMILES IDX 17 1 16 2 15 3 14 4 13 5 11 6 12 7 10 8 5 9 6 10 87 11 7 12
REMARK SMILES IDX 86 13 8 14 85 15 9 16 4 17 1 18 2 19 3 20 18 22 19 23 20 24
REMARK SMILES IDX 21 25 22 26 23 27 84 28 24 29 83 30 25 31 26 32 27 33 77 34
REMARK SMILES IDX 28 35 82 36 76 37 78 38 29 39 81 40 75 41 74 42 30 44 62 45
REMARK SMILES IDX 42 46 61 47 43 48 46 49 60 50 79 51 44 52 45 53 59 55 80 56
REMARK SMILES IDX 47 57 31 58 32 59 40 60 33 61 35 62 41 63 34 64 36 65 37 66
REMARK SMILES IDX 38 67 39 68 63 69 64 70 72 71 65 72 67 73 73 74 66 75 68 76
REMARK SMILES IDX 69 77 70 78 71 79 48 80 49 81 57 82 50 83 52 84 58 85 51 86
REMARK SMILES IDX 53 87 54 88 55 89 56 90
REMARK H PARENT 4 21 78 43 46 54
REMARK Flexibility Score: inf
ROOT
ATOM      1  C   UNL A   1      31.635  30.078  26.296  1.00  0.00     0.202 C 
ENDROOT
BRANCH   1   2
ATOM      2  O   UNL A   1      31.950  29.237  27.411  1.00  0.00    -0.374 OA
BRANCH   2   3
ATOM      3  C   UNL A   1      32.746  28.084  27.122  1.00  0.00     0.202 C 
BRANCH   3   4
ATOM      4  C   UNL A   1      33.300  28.032  25.696  1.00  0.00     0.261 C 
BRANCH   4   5
ATOM      5  O   UNL A   1      33.267  26.688  25.196  1.00  0.00    -0.459 OA
BRANCH   5   6
ATOM      6  C   UNL A   1      33.071  26.575  23.854  1.00  0.00     0.348 C 
ATOM      7  O   UNL A   1      33.805  25.959  23.088  1.00  0.00    -0.245 OA
BRANCH   6   8
ATOM      8  C   UNL A   1      31.805  27.154  23.451  1.00  0.00     0.113 A 
ATOM      9  C   UNL A   1      28.478  30.143  21.887  1.00  0.00     0.041 A 
ATOM     10  C   UNL A   1      27.613  29.342  22.626  1.00  0.00     0.027 A 
ATOM     11  C   UNL A   1      29.806  29.755  21.709  1.00  0.00     0.035 A 
ATOM     12  C   UNL A   1      28.075  28.184  23.262  1.00  0.00     0.022 A 
ATOM     13  C   UNL A   1      30.321  28.657  22.432  1.00  0.00    -0.005 A 
ATOM     14  C   UNL A   1      29.447  27.882  23.197  1.00  0.00     0.035 A 
ATOM     15  C   UNL A   1      31.668  28.210  22.576  1.00  0.00     0.036 A 
ATOM     16  S   UNL A   1      30.286  26.602  23.993  1.00  0.00    -0.128 S 
BRANCH   9  17
ATOM     17  N   UNL A   1      28.091  31.361  21.313  1.00  0.00    -0.326 N 
ATOM     18  C   UNL A   1      28.699  32.807  23.240  1.00  0.00     0.114 C 
ATOM     19  C   UNL A   1      28.078  32.606  21.880  1.00  0.00     0.221 C 
ATOM     20  O   UNL A   1      27.638  33.559  21.236  1.00  0.00    -0.275 OA
ATOM     21  H   UNL A   1      27.787  31.315  20.378  1.00  0.00     0.169 HD
ENDBRANCH   9  17
ENDBRANCH   6   8
ENDBRANCH   5   6
ENDBRANCH   4   5
ENDBRANCH   3   4
ENDBRANCH   2   3
ENDBRANCH   1   2
BRANCH   1  22
ATOM     22  C   UNL A   1      31.514  31.571  26.616  1.00  0.00     0.261 C 
BRANCH  22  23
ATOM     23  O   UNL A   1      32.768  32.244  26.402  1.00  0.00    -0.460 OA
BRANCH  23  24
ATOM     24  C   UNL A   1      33.202  32.994  27.443  1.00  0.00     0.338 C 
ATOM     25  O   UNL A   1      32.591  33.887  28.007  1.00  0.00    -0.246 OA
BRANCH  24  26
ATOM     26  C   UNL A   1      34.483  32.457  27.948  1.00  0.00     0.060 A 
ATOM     27  C   UNL A   1      34.494  31.122  28.374  1.00  0.00     0.016 A 
ATOM     28  C   UNL A   1      35.637  33.239  28.042  1.00  0.00     0.016 A 
ATOM     29  C   UNL A   1      35.643  30.582  28.948  1.00  0.00     0.010 A 
ATOM     30  C   UNL A   1      36.787  32.696  28.626  1.00  0.00     0.010 A 
ATOM     31  C   UNL A   1      36.783  31.377  29.114  1.00  0.00    -0.014 A 
BRANCH  31  32
ATOM     32  C   UNL A   1      37.915  30.870  29.926  1.00  0.00     0.031 A 
ATOM     33  C   UNL A   1      38.861  29.872  29.313  1.00  0.00     0.074 A 
ATOM     34  C   UNL A   1      38.111  31.306  31.184  1.00  0.00     0.049 A 
ATOM     35  N   UNL A   1      39.911  29.296  29.839  1.00  0.00    -0.248 NA
ATOM     36  C   UNL A   1      38.590  29.473  27.922  1.00  0.00     0.031 C 
ATOM     37  C   UNL A   1      37.271  32.278  31.882  1.00  0.00     0.029 A 
ATOM     38  N   UNL A   1      39.075  30.972  32.102  1.00  0.00    -0.354 N 
ATOM     39  C   UNL A   1      40.419  28.459  28.852  1.00  0.00     0.074 A 
ATOM     40  C   UNL A   1      39.550  28.586  27.701  1.00  0.00     0.031 C 
ATOM     41  C   UNL A   1      37.744  32.446  33.130  1.00  0.00     0.029 A 
ATOM     42  C   UNL A   1      38.907  31.582  33.323  1.00  0.00     0.049 A 
ATOM     43  H   UNL A   1      39.816  30.354  31.905  1.00  0.00     0.167 HD
ATOM     44  C   UNL A   1      41.522  27.676  28.889  1.00  0.00     0.034 A 
ATOM     45  C   UNL A   1      39.608  31.447  34.467  1.00  0.00     0.034 A 
ATOM     46  C   UNL A   1      42.393  27.561  30.026  1.00  0.00     0.049 A 
ATOM     47  C   UNL A   1      40.807  30.534  34.492  1.00  0.00     0.074 A 
ATOM     48  C   UNL A   1      43.543  26.801  30.156  1.00  0.00     0.029 A 
ATOM     49  N   UNL A   1      42.211  28.220  31.231  1.00  0.00    -0.354 N 
ATOM     50  N   UNL A   1      41.335  29.835  33.517  1.00  0.00    -0.248 NA
ATOM     51  C   UNL A   1      41.529  30.418  35.769  1.00  0.00     0.031 C 
ATOM     52  C   UNL A   1      44.052  26.996  31.444  1.00  0.00     0.029 A 
ATOM     53  C   UNL A   1      43.226  27.886  32.111  1.00  0.00     0.049 A 
ATOM     54  H   UNL A   1      41.470  28.836  31.431  1.00  0.00     0.167 HD
ATOM     55  C   UNL A   1      42.468  29.230  34.050  1.00  0.00     0.074 A 
ATOM     56  C   UNL A   1      42.563  29.661  35.430  1.00  0.00     0.031 C 
ATOM     57  C   UNL A   1      43.343  28.380  33.458  1.00  0.00     0.034 A 
BRANCH  44  58
ATOM     58  C   UNL A   1      41.880  26.917  27.641  1.00  0.00     0.023 A 
ATOM     59  C   UNL A   1      42.443  27.614  26.552  1.00  0.00     0.012 A 
ATOM     60  C   UNL A   1      41.723  25.520  27.563  1.00  0.00     0.148 A 
ATOM     61  C   UNL A   1      42.825  26.936  25.395  1.00  0.00     0.002 A 
ATOM     62  C   UNL A   1      42.140  24.846  26.420  1.00  0.00     0.091 A 
ATOM     63  F   UNL A   1      41.165  24.881  28.599  1.00  0.00    -0.205 F 
ATOM     64  C   UNL A   1      42.684  25.552  25.334  1.00  0.00     0.022 A 
BRANCH  62  65
ATOM     65  S   UNL A   1      42.061  23.058  26.268  1.00  0.00     0.127 S 
ATOM     66  O   UNL A   1      42.680  22.846  24.960  1.00  0.00    -0.237 OA
ATOM     67  O   UNL A   1      42.871  22.615  27.404  1.00  0.00    -0.237 OA
ATOM     68  O   UNL A   1      40.650  22.709  26.355  1.00  0.00    -0.744 OA
ENDBRANCH  62  65
ENDBRANCH  44  58
BRANCH  45  69
ATOM     69  C   UNL A   1      39.226  32.226  35.680  1.00  0.00     0.023 A 
ATOM     70  C   UNL A   1      38.310  31.673  36.596  1.00  0.00     0.012 A 
ATOM     71  C   UNL A   1      39.753  33.506  35.927  1.00  0.00     0.148 A 
ATOM     72  C   UNL A   1      37.901  32.395  37.718  1.00  0.00     0.002 A 
ATOM     73  C   UNL A   1      39.384  34.200  37.075  1.00  0.00     0.091 A 
ATOM     74  F   UNL A   1      40.604  34.030  35.032  1.00  0.00    -0.205 F 
ATOM     75  C   UNL A   1      38.444  33.654  37.963  1.00  0.00     0.022 A 
BRANCH  73  76
ATOM     76  S   UNL A   1      40.135  35.770  37.521  1.00  0.00     0.127 S 
ATOM     77  O   UNL A   1      41.529  35.388  37.725  1.00  0.00    -0.237 OA
ATOM     78  O   UNL A   1      39.886  36.581  36.328  1.00  0.00    -0.237 OA
ATOM     79  O   UNL A   1      39.412  36.216  38.704  1.00  0.00    -0.744 OA
ENDBRANCH  73  76
ENDBRANCH  45  69
BRANCH  57  80
ATOM     80  C   UNL A   1      44.506  27.886  34.280  1.00  0.00     0.023 A 
ATOM     81  C   UNL A   1      45.710  28.617  34.292  1.00  0.00     0.012 A 
ATOM     82  C   UNL A   1      44.379  26.746  35.099  1.00  0.00     0.148 A 
ATOM     83  C   UNL A   1      46.780  28.205  35.085  1.00  0.00     0.002 A 
ATOM     84  C   UNL A   1      45.434  26.367  35.919  1.00  0.00     0.091 A 
ATOM     85  F   UNL A   1      43.232  26.053  35.057  1.00  0.00    -0.205 F 
ATOM     86  C   UNL A   1      46.638  27.089  35.907  1.00  0.00     0.022 A 
BRANCH  84  87
ATOM     87  S   UNL A   1      45.306  24.996  37.075  1.00  0.00     0.127 S 
ATOM     88  O   UNL A   1      46.594  25.064  37.761  1.00  0.00    -0.237 OA
ATOM     89  O   UNL A   1      44.157  25.384  37.894  1.00  0.00    -0.237 OA
ATOM     90  O   UNL A   1      45.089  23.808  36.260  1.00  0.00    -0.744 OA
ENDBRANCH  84  87
ENDBRANCH  57  80
ENDBRANCH  31  32
ENDBRANCH  24  26
ENDBRANCH  23  24
ENDBRANCH  22  23
ENDBRANCH   1  22
TORSDOF 18
ENDMDL
MODEL 3
REMARK VINA RESULT:     -11.5      5.538     10.814
REMARK SMILES CC(=O)Nc1ccc2sc(C(=O)OCCOCCOC(=O)c3ccc(-c4c5nc(c(-c6cccc(S(=O)(=O)[O-])c6F)c6ccc([nH]6)c(-c6cccc(S(=O)(=O)[O-])c6F)c6nc(c(-c7cccc(S(=O)(=O)[O-])c7F)c7ccc4[nH]7)C=C6)C=C5)cc3)cc2c1
REMARK SMILES IDX 17 1 16 2 15 3 14 4 13 5 11 6 12 7 10 8 5 9 6 10 87 11 7 12
REMARK SMILES IDX 86 13 8 14 85 15 9 16 4 17 1 18 2 19 3 20 18 22 19 23 20 24
REMARK SMILES IDX 21 25 22 26 23 27 84 28 24 29 83 30 25 31 26 32 27 33 77 34
REMARK SMILES IDX 28 35 82 36 76 37 78 38 29 39 81 40 75 41 74 42 30 44 62 45
REMARK SMILES IDX 42 46 61 47 43 48 46 49 60 50 79 51 44 52 45 53 59 55 80 56
REMARK SMILES IDX 47 57 31 58 32 59 40 60 33 61 35 62 41 63 34 64 36 65 37 66
REMARK SMILES IDX 38 67 39 68 63 69 64 70 72 71 65 72 67 73 73 74 66 75 68 76
REMARK SMILES IDX 69 77 70 78 71 79 48 80 49 81 57 82 50 83 52 84 58 85 51 86
REMARK SMILES IDX 53 87 54 88 55 89 56 90
REMARK H PARENT 4 21 78 43 46 54
REMARK Flexibility Score: inf
ROOT
ATOM      1  C   UNL A   1      31.405  28.893  25.443  1.00  0.00     0.202 C 
ENDROOT
BRANCH   1   2
ATOM      2  O   UNL A   1      31.735  27.686  26.138  1.00  0.00    -0.374 OA
BRANCH   2   3
ATOM      3  C   UNL A   1      32.795  26.907  25.576  1.00  0.00     0.202 C 
BRANCH   3   4
ATOM      4  C   UNL A   1      32.355  25.566  24.985  1.00  0.00     0.261 C 
BRANCH   4   5
ATOM      5  O   UNL A   1      32.500  24.520  25.956  1.00  0.00    -0.459 OA
BRANCH   5   6
ATOM      6  C   UNL A   1      33.564  23.693  25.763  1.00  0.00     0.348 C 
ATOM      7  O   UNL A   1      34.711  23.932  26.125  1.00  0.00    -0.245 OA
BRANCH   6   8
ATOM      8  C   UNL A   1      33.154  22.424  25.197  1.00  0.00     0.113 A 
ATOM      9  C   UNL A   1      32.459  17.793  24.472  1.00  0.00     0.041 A 
ATOM     10  C   UNL A   1      32.334  18.166  23.138  1.00  0.00     0.027 A 
ATOM     11  C   UNL A   1      32.538  18.771  25.465  1.00  0.00     0.035 A 
ATOM     12  C   UNL A   1      32.363  19.514  22.763  1.00  0.00     0.022 A 
ATOM     13  C   UNL A   1      32.682  20.129  25.104  1.00  0.00    -0.005 A 
ATOM     14  C   UNL A   1      32.590  20.484  23.758  1.00  0.00     0.035 A 
ATOM     15  C   UNL A   1      32.988  21.260  25.917  1.00  0.00     0.036 A 
ATOM     16  S   UNL A   1      32.798  22.183  23.547  1.00  0.00    -0.128 S 
BRANCH   9  17
ATOM     17  N   UNL A   1      32.535  16.459  24.891  1.00  0.00    -0.326 N 
ATOM     18  C   UNL A   1      35.014  16.312  24.974  1.00  0.00     0.114 C 
ATOM     19  C   UNL A   1      33.647  15.681  25.065  1.00  0.00     0.221 C 
ATOM     20  O   UNL A   1      33.514  14.496  25.377  1.00  0.00    -0.275 OA
ATOM     21  H   UNL A   1      31.675  16.022  25.084  1.00  0.00     0.169 HD
ENDBRANCH   9  17
ENDBRANCH   6   8
ENDBRANCH   5   6
ENDBRANCH   4   5
ENDBRANCH   3   4
ENDBRANCH   2   3
ENDBRANCH   1   2
BRANCH   1  22
ATOM     22  C   UNL A   1      32.386  30.053  25.642  1.00  0.00     0.261 C 
BRANCH  22  23
ATOM     23  O   UNL A   1      32.460  30.427  27.029  1.00  0.00    -0.460 OA
BRANCH  23  24
ATOM     24  C   UNL A   1      33.198  31.535  27.286  1.00  0.00     0.338 C 
ATOM     25  O   UNL A   1      32.805  32.689  27.305  1.00  0.00    -0.246 OA
BRANCH  24  26
ATOM     26  C   UNL A   1      34.550  31.142  27.735  1.00  0.00     0.060 A 
ATOM     27  C   UNL A   1      34.787  29.774  27.932  1.00  0.00     0.016 A 
ATOM     28  C   UNL A   1      35.554  32.078  27.996  1.00  0.00     0.016 A 
ATOM     29  C   UNL A   1      36.009  29.344  28.445  1.00  0.00     0.010 A 
ATOM     30  C   UNL A   1      36.778  31.643  28.518  1.00  0.00     0.010 A 
ATOM     31  C   UNL A   1      36.997  30.278  28.778  1.00  0.00    -0.014 A 
BRANCH  31  32
ATOM     32  C   UNL A   1      38.196  29.838  29.531  1.00  0.00     0.031 A 
ATOM     33  C   UNL A   1      38.434  30.394  30.910  1.00  0.00     0.074 A 
ATOM     34  C   UNL A   1      39.050  28.941  29.005  1.00  0.00     0.049 A 
ATOM     35  N   UNL A   1      39.413  30.152  31.741  1.00  0.00    -0.248 NA
ATOM     36  C   UNL A   1      37.433  31.346  31.420  1.00  0.00     0.031 C 
ATOM     37  C   UNL A   1      38.921  28.325  27.686  1.00  0.00     0.029 A 
ATOM     38  N   UNL A   1      40.206  28.408  29.515  1.00  0.00    -0.354 N 
ATOM     39  C   UNL A   1      39.156  30.928  32.866  1.00  0.00     0.074 A 
ATOM     40  C   UNL A   1      37.939  31.665  32.603  1.00  0.00     0.031 C 
ATOM     41  C   UNL A   1      39.971  27.510  27.481  1.00  0.00     0.029 A 
ATOM     42  C   UNL A   1      40.854  27.563  28.645  1.00  0.00     0.049 A 
ATOM     43  H   UNL A   1      40.541  28.610  30.420  1.00  0.00     0.167 HD
ATOM     44  C   UNL A   1      39.854  31.002  34.024  1.00  0.00     0.034 A 
ATOM     45  C   UNL A   1      42.031  26.916  28.772  1.00  0.00     0.034 A 
ATOM     46  C   UNL A   1      41.055  30.260  34.292  1.00  0.00     0.049 A 
ATOM     47  C   UNL A   1      42.809  27.051  30.057  1.00  0.00     0.074 A 
ATOM     48  C   UNL A   1      41.828  30.258  35.440  1.00  0.00     0.029 A 
ATOM     49  N   UNL A   1      41.661  29.388  33.401  1.00  0.00    -0.354 N 
ATOM     50  N   UNL A   1      42.495  27.703  31.150  1.00  0.00    -0.248 NA
ATOM     51  C   UNL A   1      44.090  26.331  30.137  1.00  0.00     0.031 C 
ATOM     52  C   UNL A   1      42.907  29.391  35.239  1.00  0.00     0.029 A 
ATOM     53  C   UNL A   1      42.798  28.842  33.971  1.00  0.00     0.049 A 
ATOM     54  H   UNL A   1      41.330  29.185  32.495  1.00  0.00     0.167 HD
ATOM     55  C   UNL A   1      43.515  27.441  32.058  1.00  0.00     0.074 A 
ATOM     56  C   UNL A   1      44.448  26.554  31.394  1.00  0.00     0.031 C 
ATOM     57  C   UNL A   1      43.677  27.906  33.321  1.00  0.00     0.034 A 
BRANCH  44  58
ATOM     58  C   UNL A   1      39.306  31.882  35.113  1.00  0.00     0.023 A 
ATOM     59  C   UNL A   1      38.319  31.369  35.979  1.00  0.00     0.012 A 
ATOM     60  C   UNL A   1      39.804  33.182  35.323  1.00  0.00     0.148 A 
ATOM     61  C   UNL A   1      37.819  32.143  37.025  1.00  0.00     0.002 A 
ATOM     62  C   UNL A   1      39.327  33.935  36.391  1.00  0.00     0.091 A 
ATOM     63  F   UNL A   1      40.725  33.659  34.474  1.00  0.00    -0.205 F 
ATOM     64  C   UNL A   1      38.331  33.421  37.237  1.00  0.00     0.022 A 
BRANCH  62  65
ATOM     65  S   UNL A   1      39.967  35.566  36.788  1.00  0.00     0.127 S 
ATOM     66  O   UNL A   1      39.243  35.875  38.020  1.00  0.00    -0.237 OA
ATOM     67  O   UNL A   1      41.395  35.301  36.970  1.00  0.00    -0.237 OA
ATOM     68  O   UNL A   1      39.647  36.413  35.647  1.00  0.00    -0.744 OA
ENDBRANCH  62  65
ENDBRANCH  44  58
BRANCH  45  69
ATOM     69  C   UNL A   1      42.533  26.044  27.673  1.00  0.00     0.023 A 
ATOM     70  C   UNL A   1      43.455  26.566  26.743  1.00  0.00     0.012 A 
ATOM     71  C   UNL A   1      42.102  24.712  27.535  1.00  0.00     0.148 A 
ATOM     72  C   UNL A   1      43.910  25.787  25.678  1.00  0.00     0.002 A 
ATOM     73  C   UNL A   1      42.600  23.923  26.504  1.00  0.00     0.091 A 
ATOM     74  F   UNL A   1      41.204  24.238  28.413  1.00  0.00    -0.205 F 
ATOM     75  C   UNL A   1      43.491  24.464  25.564  1.00  0.00     0.022 A 
BRANCH  73  76
ATOM     76  S   UNL A   1      42.203  22.177  26.365  1.00  0.00     0.127 S 
ATOM     77  O   UNL A   1      40.761  22.213  26.143  1.00  0.00    -0.237 OA
ATOM     78  O   UNL A   1      42.996  21.771  25.204  1.00  0.00    -0.237 OA
ATOM     79  O   UNL A   1      42.644  21.585  27.622  1.00  0.00    -0.744 OA
ENDBRANCH  73  76
ENDBRANCH  45  69
BRANCH  57  80
ATOM     80  C   UNL A   1      44.884  27.437  34.092  1.00  0.00     0.023 A 
ATOM     81  C   UNL A   1      46.073  28.192  34.050  1.00  0.00     0.012 A 
ATOM     82  C   UNL A   1      44.815  26.297  34.917  1.00  0.00     0.148 A 
ATOM     83  C   UNL A   1      47.185  27.802  34.796  1.00  0.00     0.002 A 
ATOM     84  C   UNL A   1      45.913  25.940  35.690  1.00  0.00     0.091 A 
ATOM     85  F   UNL A   1      43.681  25.582  34.927  1.00  0.00    -0.205 F 
ATOM     86  C   UNL A   1      47.101  26.685  35.624  1.00  0.00     0.022 A 
BRANCH  84  87
ATOM     87  S   UNL A   1      45.863  24.570  36.852  1.00  0.00     0.127 S 
ATOM     88  O   UNL A   1      47.072  24.802  37.640  1.00  0.00    -0.237 OA
ATOM     89  O   UNL A   1      44.611  24.815  37.570  1.00  0.00    -0.237 OA
ATOM     90  O   UNL A   1      45.863  23.360  36.041  1.00  0.00    -0.744 OA
ENDBRANCH  84  87
ENDBRANCH  57  80
ENDBRANCH  31  32
ENDBRANCH  24  26
ENDBRANCH  23  24
ENDBRANCH  22  23
ENDBRANCH   1  22
TORSDOF 18
ENDMDL
