MODEL 1
REMARK VINA RESULT:     -11.3      0.000      0.000
REMARK SMILES COc1ccccc1[C@@H]1CN(C(=O)Cc2csc(C)n2)C[C@H]1C(=O)OCCOCCOC(=O)c1ccc(-c2c3nc(c(-c4cccc(S(=O)(=O)[O-])c4F)c4ccc([nH]4)c(-c4cccc(S(=O)(=O)[O-])c4F)c4nc(c(-c5cccc(S(=O)(=O)[O-])c5F)c5ccc2[nH]5)C=C4)C=C3)cc1
REMARK SMILES IDX 28 1 27 2 26 3 25 4 23 5 24 6 22 7 9 8 10 9 11 10 21 11 8 12
REMARK SMILES IDX 3 13 4 14 5 15 7 16 6 17 2 18 1 19 12 20 13 21 14 22 15 23
REMARK SMILES IDX 16 24 20 25 17 26 18 27 19 28 29 29 30 30 31 31 32 32 33 33
REMARK SMILES IDX 34 34 35 35 96 36 36 37 95 38 37 39 38 40 39 41 89 42 40 43
REMARK SMILES IDX 94 44 88 45 90 46 41 47 93 48 87 49 86 50 42 52 74 53 54 54
REMARK SMILES IDX 73 55 55 56 58 57 72 58 91 59 56 60 57 61 71 63 92 64 59 65
REMARK SMILES IDX 43 66 44 67 52 68 45 69 47 70 53 71 46 72 48 73 49 74 50 75
REMARK SMILES IDX 51 76 75 77 76 78 84 79 77 80 79 81 85 82 78 83 80 84 81 85
REMARK SMILES IDX 82 86 83 87 60 88 61 89 69 90 62 91 64 92 70 93 63 94 65 95
REMARK SMILES IDX 66 96 67 97 68 98
REMARK H PARENT 90 51 58 62
REMARK Flexibility Score: inf
ROOT
ATOM      1  O   UNL A   1      31.493  30.769  26.144  1.00  0.00    -0.374 OA
ENDROOT
BRANCH   1   2
ATOM      2  C   UNL A   1      32.164  29.832  26.984  1.00  0.00     0.202 C 
BRANCH   2   3
ATOM      3  C   UNL A   1      31.632  28.395  26.980  1.00  0.00     0.261 C 
BRANCH   3   4
ATOM      4  O   UNL A   1      32.624  27.400  27.286  1.00  0.00    -0.463 OA
BRANCH   4   5
ATOM      5  C   UNL A   1      33.046  26.667  26.225  1.00  0.00     0.311 C 
ATOM      6  O   UNL A   1      34.176  26.715  25.746  1.00  0.00    -0.252 OA
BRANCH   5   7
ATOM      7  C   UNL A   1      31.986  25.777  25.624  1.00  0.00     0.128 C 
ATOM      8  C   UNL A   1      31.714  25.826  24.106  1.00  0.00     0.058 C 
ATOM      9  C   UNL A   1      31.314  24.388  23.764  1.00  0.00     0.129 C 
ATOM     10  N   UNL A   1      31.866  23.549  24.801  1.00  0.00    -0.341 N 
ATOM     11  C   UNL A   1      32.365  24.331  25.914  1.00  0.00     0.135 C 
BRANCH   8  12
ATOM     12  C   UNL A   1      30.623  26.771  23.610  1.00  0.00    -0.000 A 
ATOM     13  C   UNL A   1      30.869  27.870  22.763  1.00  0.00     0.122 A 
ATOM     14  C   UNL A   1      29.833  28.720  22.361  1.00  0.00     0.047 A 
ATOM     15  C   UNL A   1      28.537  28.506  22.827  1.00  0.00     0.004 A 
ATOM     16  C   UNL A   1      29.315  26.603  24.098  1.00  0.00     0.008 A 
ATOM     17  C   UNL A   1      28.283  27.463  23.712  1.00  0.00     0.001 A 
BRANCH  13  18
ATOM     18  O   UNL A   1      32.169  28.206  22.489  1.00  0.00    -0.496 OA
ATOM     19  C   UNL A   1      32.752  29.087  23.445  1.00  0.00     0.278 C 
ENDBRANCH  13  18
ENDBRANCH   8  12
BRANCH  10  20
ATOM     20  C   UNL A   1      31.824  22.169  24.860  1.00  0.00     0.228 C 
ATOM     21  O   UNL A   1      31.153  21.595  25.721  1.00  0.00    -0.274 OA
BRANCH  20  22
ATOM     22  C   UNL A   1      32.670  21.387  23.867  1.00  0.00     0.157 C 
BRANCH  22  23
ATOM     23  C   UNL A   1      34.113  21.782  23.876  1.00  0.00     0.061 A 
ATOM     24  C   UNL A   1      34.687  22.861  23.228  1.00  0.00     0.091 A 
ATOM     25  N   UNL A   1      34.996  21.073  24.678  1.00  0.00    -0.246 NA
ATOM     26  S   UNL A   1      36.365  22.939  23.556  1.00  0.00    -0.127 S 
ATOM     27  C   UNL A   1      36.202  21.590  24.604  1.00  0.00     0.090 A 
ATOM     28  C   UNL A   1      37.378  21.088  25.363  1.00  0.00     0.079 C 
ENDBRANCH  22  23
ENDBRANCH  20  22
ENDBRANCH  10  20
ENDBRANCH   5   7
ENDBRANCH   4   5
ENDBRANCH   3   4
ENDBRANCH   2   3
ENDBRANCH   1   2
BRANCH   1  29
ATOM     29  C   UNL A   1      31.435  32.128  26.591  1.00  0.00     0.202 C 
BRANCH  29  30
ATOM     30  C   UNL A   1      32.696  32.655  27.283  1.00  0.00     0.261 C 
BRANCH  30  31
ATOM     31  O   UNL A   1      32.546  34.051  27.615  1.00  0.00    -0.460 OA
BRANCH  31  32
ATOM     32  C   UNL A   1      33.194  34.414  28.745  1.00  0.00     0.338 C 
ATOM     33  O   UNL A   1      32.797  35.197  29.598  1.00  0.00    -0.246 OA
BRANCH  32  34
ATOM     34  C   UNL A   1      34.399  33.589  28.924  1.00  0.00     0.060 A 
ATOM     35  C   UNL A   1      34.240  32.312  29.477  1.00  0.00     0.016 A 
ATOM     36  C   UNL A   1      35.672  34.114  28.699  1.00  0.00     0.016 A 
ATOM     37  C   UNL A   1      35.360  31.577  29.862  1.00  0.00     0.010 A 
ATOM     38  C   UNL A   1      36.795  33.372  29.088  1.00  0.00     0.010 A 
ATOM     39  C   UNL A   1      36.643  32.121  29.713  1.00  0.00    -0.014 A 
BRANCH  39  40
ATOM     40  C   UNL A   1      37.801  31.440  30.348  1.00  0.00     0.031 A 
ATOM     41  C   UNL A   1      38.117  31.717  31.795  1.00  0.00     0.074 A 
ATOM     42  C   UNL A   1      38.550  30.564  29.656  1.00  0.00     0.049 A 
ATOM     43  N   UNL A   1      39.065  31.220  32.545  1.00  0.00    -0.248 NA
ATOM     44  C   UNL A   1      37.245  32.680  32.490  1.00  0.00     0.031 C 
ATOM     45  C   UNL A   1      38.352  30.211  28.251  1.00  0.00     0.029 A 
ATOM     46  N   UNL A   1      39.642  29.825  30.039  1.00  0.00    -0.354 N 
ATOM     47  C   UNL A   1      38.918  31.817  33.793  1.00  0.00     0.074 A 
ATOM     48  C   UNL A   1      37.799  32.729  33.693  1.00  0.00     0.031 C 
ATOM     49  C   UNL A   1      39.310  29.345  27.881  1.00  0.00     0.029 A 
ATOM     50  C   UNL A   1      40.196  29.093  29.017  1.00  0.00     0.049 A 
ATOM     51  H   UNL A   1      39.994  29.822  30.958  1.00  0.00     0.167 HD
ATOM     52  C   UNL A   1      39.631  31.609  34.925  1.00  0.00     0.034 A 
ATOM     53  C   UNL A   1      41.302  28.320  28.995  1.00  0.00     0.034 A 
ATOM     54  C   UNL A   1      40.732  30.690  35.033  1.00  0.00     0.049 A 
ATOM     55  C   UNL A   1      42.090  28.119  30.262  1.00  0.00     0.074 A 
ATOM     56  C   UNL A   1      41.494  30.388  36.148  1.00  0.00     0.029 A 
ATOM     57  N   UNL A   1      41.235  29.930  33.989  1.00  0.00    -0.354 N 
ATOM     58  N   UNL A   1      41.862  28.597  31.462  1.00  0.00    -0.248 NA
ATOM     59  C   UNL A   1      43.269  27.242  30.182  1.00  0.00     0.031 C 
ATOM     60  C   UNL A   1      42.469  29.455  35.773  1.00  0.00     0.029 A 
ATOM     61  C   UNL A   1      42.300  29.164  34.429  1.00  0.00     0.049 A 
ATOM     62  H   UNL A   1      40.885  29.934  33.068  1.00  0.00     0.167 HD
ATOM     63  C   UNL A   1      42.846  28.056  32.282  1.00  0.00     0.074 A 
ATOM     64  C   UNL A   1      43.659  27.196  31.449  1.00  0.00     0.031 C 
ATOM     65  C   UNL A   1      43.068  28.267  33.604  1.00  0.00     0.034 A 
BRANCH  52  66
ATOM     66  C   UNL A   1      39.211  32.361  36.160  1.00  0.00     0.023 A 
ATOM     67  C   UNL A   1      39.694  33.668  36.370  1.00  0.00     0.012 A 
ATOM     68  C   UNL A   1      38.299  31.804  37.078  1.00  0.00     0.148 A 
ATOM     69  C   UNL A   1      39.296  34.402  37.487  1.00  0.00     0.002 A 
ATOM     70  C   UNL A   1      37.879  32.555  38.170  1.00  0.00     0.091 A 
ATOM     71  F   UNL A   1      37.870  30.550  36.873  1.00  0.00    -0.205 F 
ATOM     72  C   UNL A   1      38.383  33.849  38.380  1.00  0.00     0.022 A 
BRANCH  70  73
ATOM     73  S   UNL A   1      36.653  31.958  39.340  1.00  0.00     0.127 S 
ATOM     74  O   UNL A   1      36.515  30.561  38.935  1.00  0.00    -0.237 OA
ATOM     75  O   UNL A   1      37.328  32.157  40.624  1.00  0.00    -0.237 OA
ATOM     76  O   UNL A   1      35.473  32.788  39.141  1.00  0.00    -0.744 OA
ENDBRANCH  70  73
ENDBRANCH  52  66
BRANCH  53  77
ATOM     77  C   UNL A   1      41.711  27.652  27.728  1.00  0.00     0.023 A 
ATOM     78  C   UNL A   1      42.167  28.425  26.643  1.00  0.00     0.012 A 
ATOM     79  C   UNL A   1      41.671  26.250  27.603  1.00  0.00     0.148 A 
ATOM     80  C   UNL A   1      42.550  27.816  25.448  1.00  0.00     0.002 A 
ATOM     81  C   UNL A   1      42.107  25.646  26.429  1.00  0.00     0.091 A 
ATOM     82  F   UNL A   1      41.211  25.532  28.638  1.00  0.00    -0.205 F 
ATOM     83  C   UNL A   1      42.532  26.428  25.345  1.00  0.00     0.022 A 
BRANCH  81  84
ATOM     84  S   UNL A   1      42.239  23.862  26.267  1.00  0.00     0.127 S 
ATOM     85  O   UNL A   1      40.839  23.452  26.340  1.00  0.00    -0.237 OA
ATOM     86  O   UNL A   1      42.855  23.722  24.948  1.00  0.00    -0.237 OA
ATOM     87  O   UNL A   1      43.087  23.436  27.372  1.00  0.00    -0.744 OA
ENDBRANCH  81  84
ENDBRANCH  53  77
BRANCH  65  88
ATOM     88  C   UNL A   1      44.218  27.540  34.248  1.00  0.00     0.023 A 
ATOM     89  C   UNL A   1      45.523  28.058  34.131  1.00  0.00     0.012 A 
ATOM     90  C   UNL A   1      43.999  26.391  35.034  1.00  0.00     0.148 A 
ATOM     91  C   UNL A   1      46.597  27.428  34.762  1.00  0.00     0.002 A 
ATOM     92  C   UNL A   1      45.067  25.794  35.696  1.00  0.00     0.091 A 
ATOM     93  F   UNL A   1      42.754  25.902  35.119  1.00  0.00    -0.205 F 
ATOM     94  C   UNL A   1      46.367  26.305  35.553  1.00  0.00     0.022 A 
BRANCH  92  95
ATOM     95  S   UNL A   1      44.848  24.399  36.807  1.00  0.00     0.127 S 
ATOM     96  O   UNL A   1      44.366  23.363  35.896  1.00  0.00    -0.237 OA
ATOM     97  O   UNL A   1      46.205  24.185  37.311  1.00  0.00    -0.237 OA
ATOM     98  O   UNL A   1      43.895  24.840  37.817  1.00  0.00    -0.744 OA
ENDBRANCH  92  95
ENDBRANCH  65  88
ENDBRANCH  39  40
ENDBRANCH  32  34
ENDBRANCH  31  32
ENDBRANCH  30  31
ENDBRANCH  29  30
ENDBRANCH   1  29
TORSDOF 22
ENDMDL
MODEL 2
REMARK VINA RESULT:     -10.6      1.414      7.427
REMARK SMILES COc1ccccc1[C@@H]1CN(C(=O)Cc2csc(C)n2)C[C@H]1C(=O)OCCOCCOC(=O)c1ccc(-c2c3nc(c(-c4cccc(S(=O)(=O)[O-])c4F)c4ccc([nH]4)c(-c4cccc(S(=O)(=O)[O-])c4F)c4nc(c(-c5cccc(S(=O)(=O)[O-])c5F)c5ccc2[nH]5)C=C4)C=C3)cc1
REMARK SMILES IDX 28 1 27 2 26 3 25 4 23 5 24 6 22 7 9 8 10 9 11 10 21 11 8 12
REMARK SMILES IDX 3 13 4 14 5 15 7 16 6 17 2 18 1 19 12 20 13 21 14 22 15 23
REMARK SMILES IDX 16 24 20 25 17 26 18 27 19 28 29 29 30 30 31 31 32 32 33 33
REMARK SMILES IDX 34 34 35 35 96 36 36 37 95 38 37 39 38 40 39 41 89 42 40 43
REMARK SMILES IDX 94 44 88 45 90 46 41 47 93 48 87 49 86 50 42 52 74 53 54 54
REMARK SMILES IDX 73 55 55 56 58 57 72 58 91 59 56 60 57 61 71 63 92 64 59 65
REMARK SMILES IDX 43 66 44 67 52 68 45 69 47 70 53 71 46 72 48 73 49 74 50 75
REMARK SMILES IDX 51 76 75 77 76 78 84 79 77 80 79 81 85 82 78 83 80 84 81 85
REMARK SMILES IDX 82 86 83 87 60 88 61 89 69 90 62 91 64 92 70 93 63 94 65 95
REMARK SMILES IDX 66 96 67 97 68 98
REMARK H PARENT 90 51 58 62
REMARK Flexibility Score: inf
ROOT
ATOM      1  O   UNL A   1      33.118  30.799  27.618  1.00  0.00    -0.374 OA
ENDROOT
BRANCH   1   2
ATOM      2  C   UNL A   1      33.960  30.035  26.758  1.00  0.00     0.202 C 
BRANCH   2   3
ATOM      3  C   UNL A   1      33.433  28.666  26.313  1.00  0.00     0.261 C 
BRANCH   3   4
ATOM      4  O   UNL A   1      32.013  28.628  26.085  1.00  0.00    -0.463 OA
BRANCH   4   5
ATOM      5  C   UNL A   1      31.429  27.425  26.315  1.00  0.00     0.311 C 
ATOM      6  O   UNL A   1      31.300  26.910  27.423  1.00  0.00    -0.252 OA
BRANCH   5   7
ATOM      7  C   UNL A   1      30.960  26.715  25.070  1.00  0.00     0.128 C 
ATOM      8  C   UNL A   1      31.200  27.353  23.685  1.00  0.00     0.058 C 
ATOM      9  C   UNL A   1      31.406  26.149  22.763  1.00  0.00     0.129 C 
ATOM     10  N   UNL A   1      31.820  25.051  23.604  1.00  0.00    -0.341 N 
ATOM     11  C   UNL A   1      31.654  25.360  25.010  1.00  0.00     0.135 C 
BRANCH   8  12
ATOM     12  C   UNL A   1      30.096  28.233  23.107  1.00  0.00    -0.000 A 
ATOM     13  C   UNL A   1      28.731  27.886  23.130  1.00  0.00     0.122 A 
ATOM     14  C   UNL A   1      27.763  28.721  22.560  1.00  0.00     0.047 A 
ATOM     15  C   UNL A   1      28.148  29.901  21.926  1.00  0.00     0.004 A 
ATOM     16  C   UNL A   1      30.461  29.407  22.426  1.00  0.00     0.008 A 
ATOM     17  C   UNL A   1      29.496  30.232  21.840  1.00  0.00     0.001 A 
BRANCH  13  18
ATOM     18  O   UNL A   1      28.381  26.630  23.552  1.00  0.00    -0.496 OA
ATOM     19  C   UNL A   1      27.176  26.591  24.311  1.00  0.00     0.278 C 
ENDBRANCH  13  18
ENDBRANCH   8  12
BRANCH  10  20
ATOM     20  C   UNL A   1      32.195  23.786  23.192  1.00  0.00     0.228 C 
ATOM     21  O   UNL A   1      31.361  22.884  23.089  1.00  0.00    -0.274 OA
BRANCH  20  22
ATOM     22  C   UNL A   1      33.670  23.532  22.920  1.00  0.00     0.157 C 
BRANCH  22  23
ATOM     23  C   UNL A   1      34.354  22.779  24.017  1.00  0.00     0.061 A 
ATOM     24  C   UNL A   1      35.648  22.289  24.012  1.00  0.00     0.091 A 
ATOM     25  N   UNL A   1      33.692  22.605  25.225  1.00  0.00    -0.246 NA
ATOM     26  S   UNL A   1      36.010  21.527  25.501  1.00  0.00    -0.127 S 
ATOM     27  C   UNL A   1      34.459  21.974  26.084  1.00  0.00     0.090 A 
ATOM     28  C   UNL A   1      34.067  21.654  27.482  1.00  0.00     0.079 C 
ENDBRANCH  22  23
ENDBRANCH  20  22
ENDBRANCH  10  20
ENDBRANCH   5   7
ENDBRANCH   4   5
ENDBRANCH   3   4
ENDBRANCH   2   3
ENDBRANCH   1   2
BRANCH   1  29
ATOM     29  C   UNL A   1      32.284  31.790  27.008  1.00  0.00     0.202 C 
BRANCH  29  30
ATOM     30  C   UNL A   1      32.593  33.242  27.384  1.00  0.00     0.261 C 
BRANCH  30  31
ATOM     31  O   UNL A   1      33.576  33.295  28.439  1.00  0.00    -0.460 OA
BRANCH  31  32
ATOM     32  C   UNL A   1      34.707  33.951  28.096  1.00  0.00     0.338 C 
ATOM     33  O   UNL A   1      34.791  35.101  27.685  1.00  0.00    -0.246 OA
BRANCH  32  34
ATOM     34  C   UNL A   1      35.886  33.150  28.457  1.00  0.00     0.060 A 
ATOM     35  C   UNL A   1      35.673  31.846  28.921  1.00  0.00     0.016 A 
ATOM     36  C   UNL A   1      37.162  33.716  28.486  1.00  0.00     0.016 A 
ATOM     37  C   UNL A   1      36.730  31.122  29.472  1.00  0.00     0.010 A 
ATOM     38  C   UNL A   1      38.220  32.986  29.042  1.00  0.00     0.010 A 
ATOM     39  C   UNL A   1      38.000  31.704  29.579  1.00  0.00    -0.014 A 
BRANCH  39  40
ATOM     40  C   UNL A   1      39.047  31.025  30.385  1.00  0.00     0.031 A 
ATOM     41  C   UNL A   1      39.843  29.905  29.769  1.00  0.00     0.074 A 
ATOM     42  C   UNL A   1      39.307  31.417  31.646  1.00  0.00     0.049 A 
ATOM     43  N   UNL A   1      40.809  29.193  30.287  1.00  0.00    -0.248 NA
ATOM     44  C   UNL A   1      39.507  29.541  28.382  1.00  0.00     0.031 C 
ATOM     45  C   UNL A   1      38.607  32.483  32.359  1.00  0.00     0.029 A 
ATOM     46  N   UNL A   1      40.222  30.945  32.555  1.00  0.00    -0.354 N 
ATOM     47  C   UNL A   1      41.189  28.289  29.301  1.00  0.00     0.074 A 
ATOM     48  C   UNL A   1      40.334  28.529  28.158  1.00  0.00     0.031 C 
ATOM     49  C   UNL A   1      39.098  32.566  33.608  1.00  0.00     0.029 A 
ATOM     50  C   UNL A   1      40.135  31.551  33.786  1.00  0.00     0.049 A 
ATOM     51  H   UNL A   1      40.875  30.240  32.345  1.00  0.00     0.167 HD
ATOM     52  C   UNL A   1      42.173  27.360  29.332  1.00  0.00     0.034 A 
ATOM     53  C   UNL A   1      40.805  31.304  34.930  1.00  0.00     0.034 A 
ATOM     54  C   UNL A   1      43.037  27.131  30.458  1.00  0.00     0.049 A 
ATOM     55  C   UNL A   1      41.883  30.252  34.946  1.00  0.00     0.074 A 
ATOM     56  C   UNL A   1      44.085  26.233  30.570  1.00  0.00     0.029 A 
ATOM     57  N   UNL A   1      42.951  27.797  31.671  1.00  0.00    -0.354 N 
ATOM     58  N   UNL A   1      42.309  29.492  33.966  1.00  0.00    -0.248 NA
ATOM     59  C   UNL A   1      42.599  30.049  36.215  1.00  0.00     0.031 C 
ATOM     60  C   UNL A   1      44.623  26.346  31.858  1.00  0.00     0.029 A 
ATOM     61  C   UNL A   1      43.921  27.328  32.540  1.00  0.00     0.049 A 
ATOM     62  H   UNL A   1      42.296  28.500  31.883  1.00  0.00     0.167 HD
ATOM     63  C   UNL A   1      43.359  28.745  34.491  1.00  0.00     0.074 A 
ATOM     64  C   UNL A   1      43.521  29.161  35.868  1.00  0.00     0.031 C 
ATOM     65  C   UNL A   1      44.110  27.788  33.891  1.00  0.00     0.034 A 
BRANCH  52  66
ATOM     66  C   UNL A   1      42.401  26.545  28.086  1.00  0.00     0.023 A 
ATOM     67  C   UNL A   1      43.239  27.053  27.073  1.00  0.00     0.012 A 
ATOM     68  C   UNL A   1      41.841  25.261  27.942  1.00  0.00     0.148 A 
ATOM     69  C   UNL A   1      43.496  26.307  25.923  1.00  0.00     0.002 A 
ATOM     70  C   UNL A   1      42.131  24.509  26.809  1.00  0.00     0.091 A 
ATOM     71  F   UNL A   1      41.028  24.805  28.906  1.00  0.00    -0.205 F 
ATOM     72  C   UNL A   1      42.950  25.034  25.796  1.00  0.00     0.022 A 
BRANCH  70  73
ATOM     73  S   UNL A   1      41.531  22.830  26.584  1.00  0.00     0.127 S 
ATOM     74  O   UNL A   1      42.021  22.177  27.796  1.00  0.00    -0.237 OA
ATOM     75  O   UNL A   1      40.081  23.023  26.538  1.00  0.00    -0.237 OA
ATOM     76  O   UNL A   1      42.119  22.360  25.337  1.00  0.00    -0.744 OA
ENDBRANCH  70  73
ENDBRANCH  52  66
BRANCH  53  77
ATOM     77  C   UNL A   1      40.493  32.095  36.154  1.00  0.00     0.023 A 
ATOM     78  C   UNL A   1      41.367  33.119  36.568  1.00  0.00     0.012 A 
ATOM     79  C   UNL A   1      39.323  31.849  36.896  1.00  0.00     0.148 A 
ATOM     80  C   UNL A   1      41.092  33.866  37.713  1.00  0.00     0.002 A 
ATOM     81  C   UNL A   1      39.027  32.633  38.005  1.00  0.00     0.091 A 
ATOM     82  F   UNL A   1      38.516  30.853  36.500  1.00  0.00    -0.205 F 
ATOM     83  C   UNL A   1      39.918  33.632  38.424  1.00  0.00     0.022 A 
BRANCH  81  84
ATOM     84  S   UNL A   1      37.474  32.483  38.893  1.00  0.00     0.127 S 
ATOM     85  O   UNL A   1      37.625  33.497  39.932  1.00  0.00    -0.237 OA
ATOM     86  O   UNL A   1      36.497  32.805  37.853  1.00  0.00    -0.237 OA
ATOM     87  O   UNL A   1      37.424  31.102  39.352  1.00  0.00    -0.744 OA
ENDBRANCH  81  84
ENDBRANCH  53  77
BRANCH  65  88
ATOM     88  C   UNL A   1      45.197  27.135  34.704  1.00  0.00     0.023 A 
ATOM     89  C   UNL A   1      46.490  27.695  34.717  1.00  0.00     0.012 A 
ATOM     90  C   UNL A   1      44.919  26.017  35.516  1.00  0.00     0.148 A 
ATOM     91  C   UNL A   1      47.497  27.136  35.504  1.00  0.00     0.002 A 
ATOM     92  C   UNL A   1      45.917  25.493  36.332  1.00  0.00     0.091 A 
ATOM     93  F   UNL A   1      43.689  25.487  35.477  1.00  0.00    -0.205 F 
ATOM     94  C   UNL A   1      47.208  26.044  36.319  1.00  0.00     0.022 A 
BRANCH  92  95
ATOM     95  S   UNL A   1      45.609  24.145  37.479  1.00  0.00     0.127 S 
ATOM     96  O   UNL A   1      44.466  24.653  38.237  1.00  0.00    -0.237 OA
ATOM     97  O   UNL A   1      45.298  23.033  36.580  1.00  0.00    -0.237 OA
ATOM     98  O   UNL A   1      46.841  23.978  38.239  1.00  0.00    -0.744 OA
ENDBRANCH  92  95
ENDBRANCH  65  88
ENDBRANCH  39  40
ENDBRANCH  32  34
ENDBRANCH  31  32
ENDBRANCH  30  31
ENDBRANCH  29  30
ENDBRANCH   1  29
TORSDOF 22
ENDMDL
MODEL 3
REMARK VINA RESULT:     -10.4      2.854      4.655
REMARK SMILES COc1ccccc1[C@@H]1CN(C(=O)Cc2csc(C)n2)C[C@H]1C(=O)OCCOCCOC(=O)c1ccc(-c2c3nc(c(-c4cccc(S(=O)(=O)[O-])c4F)c4ccc([nH]4)c(-c4cccc(S(=O)(=O)[O-])c4F)c4nc(c(-c5cccc(S(=O)(=O)[O-])c5F)c5ccc2[nH]5)C=C4)C=C3)cc1
REMARK SMILES IDX 28 1 27 2 26 3 25 4 23 5 24 6 22 7 9 8 10 9 11 10 21 11 8 12
REMARK SMILES IDX 3 13 4 14 5 15 7 16 6 17 2 18 1 19 12 20 13 21 14 22 15 23
REMARK SMILES IDX 16 24 20 25 17 26 18 27 19 28 29 29 30 30 31 31 32 32 33 33
REMARK SMILES IDX 34 34 35 35 96 36 36 37 95 38 37 39 38 40 39 41 89 42 40 43
REMARK SMILES IDX 94 44 88 45 90 46 41 47 93 48 87 49 86 50 42 52 74 53 54 54
REMARK SMILES IDX 73 55 55 56 58 57 72 58 91 59 56 60 57 61 71 63 92 64 59 65
REMARK SMILES IDX 43 66 44 67 52 68 45 69 47 70 53 71 46 72 48 73 49 74 50 75
REMARK SMILES IDX 51 76 75 77 76 78 84 79 77 80 79 81 85 82 78 83 80 84 81 85
REMARK SMILES IDX 82 86 83 87 60 88 61 89 69 90 62 91 64 92 70 93 63 94 65 95
REMARK SMILES IDX 66 96 67 97 68 98
REMARK H PARENT 90 51 58 62
REMARK Flexibility Score: inf
ROOT
ATOM      1  O   UNL A   1      33.220  30.335  26.728  1.00  0.00    -0.374 OA
ENDROOT
BRANCH   1   2
ATOM      2  C   UNL A   1      33.718  29.680  25.563  1.00  0.00     0.202 C 
BRANCH   2   3
ATOM      3  C   UNL A   1      33.869  28.157  25.638  1.00  0.00     0.261 C 
BRANCH   3   4
ATOM      4  O   UNL A   1      33.234  27.558  26.782  1.00  0.00    -0.463 OA
BRANCH   4   5
ATOM      5  C   UNL A   1      31.913  27.288  26.626  1.00  0.00     0.311 C 
ATOM      6  O   UNL A   1      31.092  27.258  27.539  1.00  0.00    -0.252 OA
BRANCH   5   7
ATOM      7  C   UNL A   1      31.506  26.979  25.206  1.00  0.00     0.128 C 
ATOM      8  C   UNL A   1      30.737  25.678  24.894  1.00  0.00     0.058 C 
ATOM      9  C   UNL A   1      29.826  26.068  23.726  1.00  0.00     0.129 C 
ATOM     10  N   UNL A   1      29.673  27.503  23.784  1.00  0.00    -0.341 N 
ATOM     11  C   UNL A   1      30.601  28.104  24.721  1.00  0.00     0.135 C 
BRANCH   8  12
ATOM     12  C   UNL A   1      31.550  24.451  24.496  1.00  0.00    -0.000 A 
ATOM     13  C   UNL A   1      32.058  23.518  25.421  1.00  0.00     0.122 A 
ATOM     14  C   UNL A   1      32.821  22.423  25.000  1.00  0.00     0.047 A 
ATOM     15  C   UNL A   1      33.119  22.261  23.648  1.00  0.00     0.004 A 
ATOM     16  C   UNL A   1      31.899  24.286  23.144  1.00  0.00     0.008 A 
ATOM     17  C   UNL A   1      32.678  23.203  22.724  1.00  0.00     0.001 A 
BRANCH  13  18
ATOM     18  O   UNL A   1      31.953  23.799  26.758  1.00  0.00    -0.496 OA
ATOM     19  C   UNL A   1      32.539  22.813  27.603  1.00  0.00     0.278 C 
ENDBRANCH  13  18
ENDBRANCH   8  12
BRANCH  10  20
ATOM     20  C   UNL A   1      28.872  28.284  22.973  1.00  0.00     0.228 C 
ATOM     21  O   UNL A   1      27.651  28.320  23.139  1.00  0.00    -0.274 OA
BRANCH  20  22
ATOM     22  C   UNL A   1      29.538  29.053  21.842  1.00  0.00     0.157 C 
BRANCH  22  23
ATOM     23  C   UNL A   1      29.035  30.455  21.702  1.00  0.00     0.061 A 
ATOM     24  C   UNL A   1      28.142  30.931  20.757  1.00  0.00     0.091 A 
ATOM     25  N   UNL A   1      29.404  31.398  22.651  1.00  0.00    -0.246 NA
ATOM     26  S   UNL A   1      27.830  32.595  21.007  1.00  0.00    -0.127 S 
ATOM     27  C   UNL A   1      28.829  32.553  22.401  1.00  0.00     0.090 A 
ATOM     28  C   UNL A   1      28.988  33.768  23.242  1.00  0.00     0.079 C 
ENDBRANCH  22  23
ENDBRANCH  20  22
ENDBRANCH  10  20
ENDBRANCH   5   7
ENDBRANCH   4   5
ENDBRANCH   3   4
ENDBRANCH   2   3
ENDBRANCH   1   2
BRANCH   1  29
ATOM     29  C   UNL A   1      32.044  31.137  26.577  1.00  0.00     0.202 C 
BRANCH  29  30
ATOM     30  C   UNL A   1      32.176  32.599  27.011  1.00  0.00     0.261 C 
BRANCH  30  31
ATOM     31  O   UNL A   1      32.933  32.699  28.236  1.00  0.00    -0.460 OA
BRANCH  31  32
ATOM     32  C   UNL A   1      33.938  33.602  28.181  1.00  0.00     0.338 C 
ATOM     33  O   UNL A   1      33.943  34.656  27.558  1.00  0.00    -0.246 OA
BRANCH  32  34
ATOM     34  C   UNL A   1      34.996  33.241  29.138  1.00  0.00     0.060 A 
ATOM     35  C   UNL A   1      36.291  33.710  28.887  1.00  0.00     0.016 A 
ATOM     36  C   UNL A   1      34.754  32.335  30.172  1.00  0.00     0.016 A 
ATOM     37  C   UNL A   1      37.363  33.228  29.638  1.00  0.00     0.010 A 
ATOM     38  C   UNL A   1      35.834  31.852  30.923  1.00  0.00     0.010 A 
ATOM     39  C   UNL A   1      37.148  32.261  30.629  1.00  0.00    -0.014 A 
BRANCH  39  40
ATOM     40  C   UNL A   1      38.314  31.578  31.245  1.00  0.00     0.031 A 
ATOM     41  C   UNL A   1      38.835  32.061  32.574  1.00  0.00     0.074 A 
ATOM     42  C   UNL A   1      38.891  30.522  30.645  1.00  0.00     0.049 A 
ATOM     43  N   UNL A   1      39.825  31.600  33.293  1.00  0.00    -0.248 NA
ATOM     44  C   UNL A   1      38.145  33.216  33.174  1.00  0.00     0.031 C 
ATOM     45  C   UNL A   1      38.486  29.959  29.358  1.00  0.00     0.029 A 
ATOM     46  N   UNL A   1      39.956  29.746  31.033  1.00  0.00    -0.354 N 
ATOM     47  C   UNL A   1      39.890  32.412  34.420  1.00  0.00     0.074 A 
ATOM     48  C   UNL A   1      38.850  33.409  34.281  1.00  0.00     0.031 C 
ATOM     49  C   UNL A   1      39.312  28.945  29.048  1.00  0.00     0.029 A 
ATOM     50  C   UNL A   1      40.311  28.797  30.106  1.00  0.00     0.049 A 
ATOM     51  H   UNL A   1      40.420  29.861  31.893  1.00  0.00     0.167 HD
ATOM     52  C   UNL A   1      40.721  32.324  35.485  1.00  0.00     0.034 A 
ATOM     53  C   UNL A   1      41.333  27.918  30.102  1.00  0.00     0.034 A 
ATOM     54  C   UNL A   1      41.743  31.324  35.636  1.00  0.00     0.049 A 
ATOM     55  C   UNL A   1      42.257  27.852  31.290  1.00  0.00     0.074 A 
ATOM     56  C   UNL A   1      42.613  31.136  36.696  1.00  0.00     0.029 A 
ATOM     57  N   UNL A   1      42.042  30.349  34.698  1.00  0.00    -0.354 N 
ATOM     58  N   UNL A   1      42.225  28.547  32.401  1.00  0.00    -0.248 NA
ATOM     59  C   UNL A   1      43.336  26.852  31.241  1.00  0.00     0.031 C 
ATOM     60  C   UNL A   1      43.448  30.055  36.392  1.00  0.00     0.029 A 
ATOM     61  C   UNL A   1      43.085  29.559  35.150  1.00  0.00     0.049 A 
ATOM     62  H   UNL A   1      41.579  30.235  33.836  1.00  0.00     0.167 HD
ATOM     63  C   UNL A   1      43.256  28.052  33.192  1.00  0.00     0.074 A 
ATOM     64  C   UNL A   1      43.879  26.980  32.445  1.00  0.00     0.031 C 
ATOM     65  C   UNL A   1      43.661  28.459  34.422  1.00  0.00     0.034 A 
BRANCH  52  66
ATOM     66  C   UNL A   1      40.528  33.315  36.602  1.00  0.00     0.023 A 
ATOM     67  C   UNL A   1      39.472  33.129  37.516  1.00  0.00     0.012 A 
ATOM     68  C   UNL A   1      41.420  34.391  36.784  1.00  0.00     0.148 A 
ATOM     69  C   UNL A   1      39.289  34.011  38.580  1.00  0.00     0.002 A 
ATOM     70  C   UNL A   1      41.252  35.245  37.869  1.00  0.00     0.091 A 
ATOM     71  F   UNL A   1      42.404  34.565  35.891  1.00  0.00    -0.205 F 
ATOM     72  C   UNL A   1      40.183  35.062  38.761  1.00  0.00     0.022 A 
BRANCH  70  73
ATOM     73  S   UNL A   1      42.391  36.588  38.227  1.00  0.00     0.127 S 
ATOM     74  O   UNL A   1      41.635  37.362  39.209  1.00  0.00    -0.237 OA
ATOM     75  O   UNL A   1      43.549  35.876  38.770  1.00  0.00    -0.237 OA
ATOM     76  O   UNL A   1      42.634  37.255  36.955  1.00  0.00    -0.744 OA
ENDBRANCH  70  73
ENDBRANCH  52  66
BRANCH  53  77
ATOM     77  C   UNL A   1      41.519  27.004  28.940  1.00  0.00     0.023 A 
ATOM     78  C   UNL A   1      40.795  25.798  28.875  1.00  0.00     0.012 A 
ATOM     79  C   UNL A   1      42.394  27.337  27.889  1.00  0.00     0.148 A 
ATOM     80  C   UNL A   1      40.959  24.929  27.796  1.00  0.00     0.002 A 
ATOM     81  C   UNL A   1      42.512  26.493  26.791  1.00  0.00     0.091 A 
ATOM     82  F   UNL A   1      43.094  28.478  27.982  1.00  0.00    -0.205 F 
ATOM     83  C   UNL A   1      41.807  25.281  26.749  1.00  0.00     0.022 A 
BRANCH  81  84
ATOM     84  S   UNL A   1      43.480  26.938  25.346  1.00  0.00     0.127 S 
ATOM     85  O   UNL A   1      44.708  27.444  25.953  1.00  0.00    -0.237 OA
ATOM     86  O   UNL A   1      43.614  25.652  24.661  1.00  0.00    -0.237 OA
ATOM     87  O   UNL A   1      42.674  27.916  24.628  1.00  0.00    -0.744 OA
ENDBRANCH  81  84
ENDBRANCH  53  77
BRANCH  65  88
ATOM     88  C   UNL A   1      44.818  27.733  35.056  1.00  0.00     0.023 A 
ATOM     89  C   UNL A   1      46.107  28.299  35.008  1.00  0.00     0.012 A 
ATOM     90  C   UNL A   1      44.617  26.532  35.765  1.00  0.00     0.148 A 
ATOM     91  C   UNL A   1      47.183  27.668  35.633  1.00  0.00     0.002 A 
ATOM     92  C   UNL A   1      45.685  25.932  36.423  1.00  0.00     0.091 A 
ATOM     93  F   UNL A   1      43.387  25.998  35.783  1.00  0.00    -0.205 F 
ATOM     94  C   UNL A   1      46.971  26.493  36.349  1.00  0.00     0.022 A 
BRANCH  92  95
ATOM     95  S   UNL A   1      45.484  24.466  37.443  1.00  0.00     0.127 S 
ATOM     96  O   UNL A   1      46.871  24.122  37.750  1.00  0.00    -0.237 OA
ATOM     97  O   UNL A   1      44.716  24.978  38.579  1.00  0.00    -0.237 OA
ATOM     98  O   UNL A   1      44.767  23.502  36.618  1.00  0.00    -0.744 OA
ENDBRANCH  92  95
ENDBRANCH  65  88
ENDBRANCH  39  40
ENDBRANCH  32  34
ENDBRANCH  31  32
ENDBRANCH  30  31
ENDBRANCH  29  30
ENDBRANCH   1  29
TORSDOF 22
ENDMDL
