MODEL 1
REMARK VINA RESULT:     -11.9      0.000      0.000
REMARK SMILES Cc1ccnc(C(=O)c2[nH]c3cc(F)ccc3c2CC(=O)OCCOCCOC(=O)c2ccc(-c3c4nc(c(-c5cccc(S(=O)(=O)[O-])c5F)c5ccc([nH]5)c(-c5cccc(S(=O)(=O)[O-])c5F)c5nc(c(-c6cccc(S(=O)(=O)[O-])c6F)c6ccc3[nH]6)C=C5)C=C4)cc2)c1
REMARK SMILES IDX 25 1 24 2 23 3 22 4 20 5 21 6 19 7 18 8 9 9 10 10 11 11
REMARK SMILES IDX 17 13 12 14 16 15 13 16 15 17 14 18 7 19 8 20 6 21 1 22 2 23
REMARK SMILES IDX 3 24 94 25 4 26 5 27 26 28 27 29 28 30 29 31 30 32 31 33
REMARK SMILES IDX 32 34 93 35 33 36 92 37 34 38 35 39 36 40 86 41 37 42 91 43
REMARK SMILES IDX 85 44 87 45 38 46 90 47 84 48 83 49 39 51 71 52 51 53 70 54
REMARK SMILES IDX 52 55 55 56 69 57 88 58 53 59 54 60 68 62 89 63 56 64 40 65
REMARK SMILES IDX 41 66 49 67 42 68 44 69 50 70 43 71 45 72 46 73 47 74 48 75
REMARK SMILES IDX 72 76 73 77 81 78 74 79 76 80 82 81 75 82 77 83 78 84 79 85
REMARK SMILES IDX 80 86 57 87 58 88 66 89 59 90 61 91 67 92 60 93 62 94 63 95
REMARK SMILES IDX 64 96 65 97
REMARK H PARENT 10 12 87 50 55 61
REMARK Flexibility Score: inf
ROOT
ATOM      1  O   UNL A   1      32.596  30.322  26.365  1.00  0.00    -0.374 OA
ENDROOT
BRANCH   1   2
ATOM      2  C   UNL A   1      32.578  29.182  27.225  1.00  0.00     0.202 C 
BRANCH   2   3
ATOM      3  C   UNL A   1      31.447  28.158  27.061  1.00  0.00     0.261 C 
BRANCH   3   4
ATOM      4  O   UNL A   1      31.728  27.135  26.081  1.00  0.00    -0.463 OA
BRANCH   4   5
ATOM      5  C   UNL A   1      30.663  26.366  25.723  1.00  0.00     0.310 C 
ATOM      6  O   UNL A   1      29.926  25.796  26.528  1.00  0.00    -0.252 OA
BRANCH   5   7
ATOM      7  C   UNL A   1      30.478  26.166  24.236  1.00  0.00     0.161 C 
BRANCH   7   8
ATOM      8  C   UNL A   1      30.658  27.337  23.304  1.00  0.00     0.000 A 
ATOM      9  C   UNL A   1      31.861  27.861  22.817  1.00  0.00     0.093 A 
ATOM     10  N   UNL A   1      31.523  28.919  21.996  1.00  0.00    -0.351 N 
ATOM     11  C   UNL A   1      30.204  29.265  22.171  1.00  0.00     0.049 A 
ATOM     12  H   UNL A   1      32.142  29.364  21.374  1.00  0.00     0.167 HD
ATOM     13  C   UNL A   1      29.624  28.267  22.952  1.00  0.00     0.004 A 
ATOM     14  C   UNL A   1      29.488  30.377  21.712  1.00  0.00     0.066 A 
ATOM     15  C   UNL A   1      28.254  28.379  23.283  1.00  0.00     0.013 A 
ATOM     16  C   UNL A   1      28.150  30.479  22.098  1.00  0.00     0.125 A 
ATOM     17  C   UNL A   1      27.532  29.501  22.863  1.00  0.00     0.040 A 
ATOM     18  F   UNL A   1      27.452  31.563  21.733  1.00  0.00    -0.207 F 
BRANCH   9  19
ATOM     19  C   UNL A   1      33.212  27.386  23.096  1.00  0.00     0.227 C 
ATOM     20  O   UNL A   1      34.136  28.160  23.341  1.00  0.00    -0.285 OA
BRANCH  19  21
ATOM     21  C   UNL A   1      33.556  25.932  23.034  1.00  0.00     0.113 A 
ATOM     22  C   UNL A   1      34.558  23.080  25.312  1.00  0.00     0.044 C 
ATOM     23  C   UNL A   1      34.134  23.867  24.109  1.00  0.00    -0.047 A 
ATOM     24  C   UNL A   1      33.721  23.204  22.950  1.00  0.00     0.023 A 
ATOM     25  C   UNL A   1      34.043  25.263  24.153  1.00  0.00     0.036 A 
ATOM     26  C   UNL A   1      33.275  23.953  21.875  1.00  0.00     0.112 A 
ATOM     27  N   UNL A   1      33.194  25.298  21.887  1.00  0.00    -0.253 NA
ENDBRANCH  19  21
ENDBRANCH   9  19
ENDBRANCH   7   8
ENDBRANCH   5   7
ENDBRANCH   4   5
ENDBRANCH   3   4
ENDBRANCH   2   3
ENDBRANCH   1   2
BRANCH   1  28
ATOM     28  C   UNL A   1      31.545  31.270  26.532  1.00  0.00     0.202 C 
BRANCH  28  29
ATOM     29  C   UNL A   1      31.940  32.708  26.900  1.00  0.00     0.261 C 
BRANCH  29  30
ATOM     30  O   UNL A   1      32.852  32.793  28.003  1.00  0.00    -0.460 OA
BRANCH  30  31
ATOM     31  C   UNL A   1      33.979  33.500  27.747  1.00  0.00     0.338 C 
ATOM     32  O   UNL A   1      34.063  34.631  27.289  1.00  0.00    -0.246 OA
BRANCH  31  33
ATOM     33  C   UNL A   1      35.144  32.765  28.265  1.00  0.00     0.060 A 
ATOM     34  C   UNL A   1      34.919  31.495  28.811  1.00  0.00     0.016 A 
ATOM     35  C   UNL A   1      36.424  33.320  28.241  1.00  0.00     0.016 A 
ATOM     36  C   UNL A   1      35.981  30.775  29.350  1.00  0.00     0.010 A 
ATOM     37  C   UNL A   1      37.485  32.601  28.795  1.00  0.00     0.010 A 
ATOM     38  C   UNL A   1      37.264  31.335  29.368  1.00  0.00    -0.014 A 
BRANCH  38  39
ATOM     39  C   UNL A   1      38.365  30.628  30.059  1.00  0.00     0.031 A 
ATOM     40  C   UNL A   1      38.686  30.984  31.481  1.00  0.00     0.074 A 
ATOM     41  C   UNL A   1      39.072  29.688  29.405  1.00  0.00     0.049 A 
ATOM     42  N   UNL A   1      39.628  30.516  32.256  1.00  0.00    -0.248 NA
ATOM     43  C   UNL A   1      37.835  32.005  32.115  1.00  0.00     0.031 C 
ATOM     44  C   UNL A   1      38.838  29.267  28.024  1.00  0.00     0.029 A 
ATOM     45  N   UNL A   1      40.148  28.939  29.808  1.00  0.00    -0.354 N 
ATOM     46  C   UNL A   1      39.507  31.206  33.456  1.00  0.00     0.074 A 
ATOM     47  C   UNL A   1      38.400  32.125  33.309  1.00  0.00     0.031 C 
ATOM     48  C   UNL A   1      39.763  28.353  27.684  1.00  0.00     0.029 A 
ATOM     49  C   UNL A   1      40.671  28.150  28.810  1.00  0.00     0.049 A 
ATOM     50  H   UNL A   1      40.511  28.964  30.722  1.00  0.00     0.167 HD
ATOM     51  C   UNL A   1      40.251  31.077  34.579  1.00  0.00     0.034 A 
ATOM     52  C   UNL A   1      41.775  27.378  28.801  1.00  0.00     0.034 A 
ATOM     53  C   UNL A   1      41.339  30.148  34.716  1.00  0.00     0.049 A 
ATOM     54  C   UNL A   1      42.602  27.283  30.057  1.00  0.00     0.074 A 
ATOM     55  C   UNL A   1      42.114  29.889  35.832  1.00  0.00     0.029 A 
ATOM     56  N   UNL A   1      41.824  29.342  33.697  1.00  0.00    -0.354 N 
ATOM     57  N   UNL A   1      42.392  27.834  31.229  1.00  0.00    -0.248 NA
ATOM     58  C   UNL A   1      43.804  26.439  29.998  1.00  0.00     0.031 C 
ATOM     59  C   UNL A   1      43.096  28.960  35.475  1.00  0.00     0.029 A 
ATOM     60  C   UNL A   1      42.908  28.610  34.148  1.00  0.00     0.049 A 
ATOM     61  H   UNL A   1      41.452  29.298  32.786  1.00  0.00     0.167 HD
ATOM     62  C   UNL A   1      43.418  27.383  32.053  1.00  0.00     0.074 A 
ATOM     63  C   UNL A   1      44.231  26.489  31.253  1.00  0.00     0.031 C 
ATOM     64  C   UNL A   1      43.678  27.693  33.347  1.00  0.00     0.034 A 
BRANCH  51  65
ATOM     65  C   UNL A   1      39.917  31.955  35.756  1.00  0.00     0.023 A 
ATOM     66  C   UNL A   1      40.586  33.183  35.930  1.00  0.00     0.012 A 
ATOM     67  C   UNL A   1      38.883  31.598  36.644  1.00  0.00     0.148 A 
ATOM     68  C   UNL A   1      40.245  34.033  36.982  1.00  0.00     0.002 A 
ATOM     69  C   UNL A   1      38.520  32.469  37.663  1.00  0.00     0.091 A 
ATOM     70  F   UNL A   1      38.276  30.415  36.473  1.00  0.00    -0.205 F 
ATOM     71  C   UNL A   1      39.206  33.682  37.840  1.00  0.00     0.022 A 
BRANCH  69  72
ATOM     72  S   UNL A   1      37.145  32.145  38.774  1.00  0.00     0.127 S 
ATOM     73  O   UNL A   1      37.026  30.690  38.678  1.00  0.00    -0.237 OA
ATOM     74  O   UNL A   1      37.665  32.630  40.052  1.00  0.00    -0.237 OA
ATOM     75  O   UNL A   1      36.015  32.896  38.248  1.00  0.00    -0.744 OA
ENDBRANCH  69  72
ENDBRANCH  51  65
BRANCH  52  76
ATOM     76  C   UNL A   1      42.161  26.626  27.572  1.00  0.00     0.023 A 
ATOM     77  C   UNL A   1      42.750  27.312  26.492  1.00  0.00     0.012 A 
ATOM     78  C   UNL A   1      41.946  25.239  27.467  1.00  0.00     0.148 A 
ATOM     79  C   UNL A   1      43.082  26.638  25.316  1.00  0.00     0.002 A 
ATOM     80  C   UNL A   1      42.333  24.561  26.315  1.00  0.00     0.091 A 
ATOM     81  F   UNL A   1      41.368  24.604  28.497  1.00  0.00    -0.205 F 
ATOM     82  C   UNL A   1      42.882  25.262  25.232  1.00  0.00     0.022 A 
BRANCH  80  83
ATOM     83  S   UNL A   1      42.230  22.774  26.170  1.00  0.00     0.127 S 
ATOM     84  O   UNL A   1      40.787  22.552  26.222  1.00  0.00    -0.237 OA
ATOM     85  O   UNL A   1      42.843  22.541  24.862  1.00  0.00    -0.237 OA
ATOM     86  O   UNL A   1      42.993  22.244  27.292  1.00  0.00    -0.744 OA
ENDBRANCH  80  83
ENDBRANCH  52  76
BRANCH  64  87
ATOM     87  C   UNL A   1      44.876  27.046  33.991  1.00  0.00     0.023 A 
ATOM     88  C   UNL A   1      46.112  27.723  34.005  1.00  0.00     0.012 A 
ATOM     89  C   UNL A   1      44.758  25.806  34.647  1.00  0.00     0.148 A 
ATOM     90  C   UNL A   1      47.221  27.158  34.632  1.00  0.00     0.002 A 
ATOM     91  C   UNL A   1      45.853  25.275  35.317  1.00  0.00     0.091 A 
ATOM     92  F   UNL A   1      43.576  25.174  34.611  1.00  0.00    -0.205 F 
ATOM     93  C   UNL A   1      47.089  25.942  35.298  1.00  0.00     0.022 A 
BRANCH  91  94
ATOM     94  S   UNL A   1      45.754  23.765  36.285  1.00  0.00     0.127 S 
ATOM     95  O   UNL A   1      45.267  22.806  35.293  1.00  0.00    -0.237 OA
ATOM     96  O   UNL A   1      47.146  23.568  36.690  1.00  0.00    -0.237 OA
ATOM     97  O   UNL A   1      44.837  24.045  37.380  1.00  0.00    -0.744 OA
ENDBRANCH  91  94
ENDBRANCH  64  87
ENDBRANCH  38  39
ENDBRANCH  31  33
ENDBRANCH  30  31
ENDBRANCH  29  30
ENDBRANCH  28  29
ENDBRANCH   1  28
TORSDOF 20
ENDMDL
MODEL 2
REMARK VINA RESULT:     -11.9      1.896      8.133
REMARK SMILES Cc1ccnc(C(=O)c2[nH]c3cc(F)ccc3c2CC(=O)OCCOCCOC(=O)c2ccc(-c3c4nc(c(-c5cccc(S(=O)(=O)[O-])c5F)c5ccc([nH]5)c(-c5cccc(S(=O)(=O)[O-])c5F)c5nc(c(-c6cccc(S(=O)(=O)[O-])c6F)c6ccc3[nH]6)C=C5)C=C4)cc2)c1
REMARK SMILES IDX 25 1 24 2 23 3 22 4 20 5 21 6 19 7 18 8 9 9 10 10 11 11
REMARK SMILES IDX 17 13 12 14 16 15 13 16 15 17 14 18 7 19 8 20 6 21 1 22 2 23
REMARK SMILES IDX 3 24 94 25 4 26 5 27 26 28 27 29 28 30 29 31 30 32 31 33
REMARK SMILES IDX 32 34 93 35 33 36 92 37 34 38 35 39 36 40 86 41 37 42 91 43
REMARK SMILES IDX 85 44 87 45 38 46 90 47 84 48 83 49 39 51 71 52 51 53 70 54
REMARK SMILES IDX 52 55 55 56 69 57 88 58 53 59 54 60 68 62 89 63 56 64 40 65
REMARK SMILES IDX 41 66 49 67 42 68 44 69 50 70 43 71 45 72 46 73 47 74 48 75
REMARK SMILES IDX 72 76 73 77 81 78 74 79 76 80 82 81 75 82 77 83 78 84 79 85
REMARK SMILES IDX 80 86 57 87 58 88 66 89 59 90 61 91 67 92 60 93 62 94 63 95
REMARK SMILES IDX 64 96 65 97
REMARK H PARENT 10 12 87 50 55 61
REMARK Flexibility Score: inf
ROOT
ATOM      1  O   UNL A   1      33.249  30.204  26.645  1.00  0.00    -0.374 OA
ENDROOT
BRANCH   1   2
ATOM      2  C   UNL A   1      33.515  28.855  27.029  1.00  0.00     0.202 C 
BRANCH   2   3
ATOM      3  C   UNL A   1      33.091  27.727  26.080  1.00  0.00     0.261 C 
BRANCH   3   4
ATOM      4  O   UNL A   1      34.118  26.735  25.862  1.00  0.00    -0.463 OA
BRANCH   4   5
ATOM      5  C   UNL A   1      33.672  25.453  25.753  1.00  0.00     0.310 C 
ATOM      6  O   UNL A   1      32.733  24.994  26.402  1.00  0.00    -0.252 OA
BRANCH   5   7
ATOM      7  C   UNL A   1      34.475  24.565  24.829  1.00  0.00     0.161 C 
BRANCH   7   8
ATOM      8  C   UNL A   1      33.756  23.639  23.882  1.00  0.00     0.000 A 
ATOM      9  C   UNL A   1      33.005  23.991  22.754  1.00  0.00     0.093 A 
ATOM     10  N   UNL A   1      32.549  22.809  22.204  1.00  0.00    -0.351 N 
ATOM     11  C   UNL A   1      32.728  21.766  23.081  1.00  0.00     0.049 A 
ATOM     12  H   UNL A   1      32.149  22.726  21.308  1.00  0.00     0.167 HD
ATOM     13  C   UNL A   1      33.519  22.245  24.124  1.00  0.00     0.004 A 
ATOM     14  C   UNL A   1      32.249  20.451  23.040  1.00  0.00     0.066 A 
ATOM     15  C   UNL A   1      33.859  21.363  25.174  1.00  0.00     0.013 A 
ATOM     16  C   UNL A   1      32.565  19.621  24.117  1.00  0.00     0.125 A 
ATOM     17  C   UNL A   1      33.360  20.056  25.167  1.00  0.00     0.040 A 
ATOM     18  F   UNL A   1      32.068  18.378  24.144  1.00  0.00    -0.207 F 
BRANCH   9  19
ATOM     19  C   UNL A   1      32.757  25.333  22.237  1.00  0.00     0.227 C 
ATOM     20  O   UNL A   1      33.477  25.843  21.380  1.00  0.00    -0.285 OA
BRANCH  19  21
ATOM     21  C   UNL A   1      31.651  26.184  22.775  1.00  0.00     0.113 A 
ATOM     22  C   UNL A   1      30.030  29.555  22.192  1.00  0.00     0.044 C 
ATOM     23  C   UNL A   1      30.313  28.173  22.702  1.00  0.00    -0.047 A 
ATOM     24  C   UNL A   1      29.354  27.498  23.461  1.00  0.00     0.023 A 
ATOM     25  C   UNL A   1      31.486  27.498  22.346  1.00  0.00     0.036 A 
ATOM     26  C   UNL A   1      29.615  26.201  23.866  1.00  0.00     0.112 A 
ATOM     27  N   UNL A   1      30.743  25.535  23.551  1.00  0.00    -0.253 NA
ENDBRANCH  19  21
ENDBRANCH   9  19
ENDBRANCH   7   8
ENDBRANCH   5   7
ENDBRANCH   4   5
ENDBRANCH   3   4
ENDBRANCH   2   3
ENDBRANCH   1   2
BRANCH   1  28
ATOM     28  C   UNL A   1      31.925  30.685  26.860  1.00  0.00     0.202 C 
BRANCH  28  29
ATOM     29  C   UNL A   1      31.720  32.207  26.888  1.00  0.00     0.261 C 
BRANCH  29  30
ATOM     30  O   UNL A   1      32.936  32.957  26.767  1.00  0.00    -0.460 OA
BRANCH  30  31
ATOM     31  C   UNL A   1      33.304  33.618  27.891  1.00  0.00     0.338 C 
ATOM     32  O   UNL A   1      32.684  34.493  28.479  1.00  0.00    -0.246 OA
BRANCH  31  33
ATOM     33  C   UNL A   1      34.529  33.010  28.435  1.00  0.00     0.060 A 
ATOM     34  C   UNL A   1      34.383  31.907  29.286  1.00  0.00     0.016 A 
ATOM     35  C   UNL A   1      35.791  33.528  28.139  1.00  0.00     0.016 A 
ATOM     36  C   UNL A   1      35.508  31.321  29.858  1.00  0.00     0.010 A 
ATOM     37  C   UNL A   1      36.916  32.946  28.725  1.00  0.00     0.010 A 
ATOM     38  C   UNL A   1      36.778  31.853  29.601  1.00  0.00    -0.014 A 
BRANCH  38  39
ATOM     39  C   UNL A   1      37.958  31.314  30.312  1.00  0.00     0.031 A 
ATOM     40  C   UNL A   1      38.824  30.297  29.627  1.00  0.00     0.074 A 
ATOM     41  C   UNL A   1      38.234  31.728  31.562  1.00  0.00     0.049 A 
ATOM     42  N   UNL A   1      39.879  29.673  30.080  1.00  0.00    -0.248 NA
ATOM     43  C   UNL A   1      38.454  29.932  28.249  1.00  0.00     0.031 C 
ATOM     44  C   UNL A   1      37.456  32.713  32.314  1.00  0.00     0.029 A 
ATOM     45  N   UNL A   1      39.226  31.349  32.429  1.00  0.00    -0.354 N 
ATOM     46  C   UNL A   1      40.279  28.818  29.061  1.00  0.00     0.074 A 
ATOM     47  C   UNL A   1      39.355  29.003  27.964  1.00  0.00     0.031 C 
ATOM     48  C   UNL A   1      37.986  32.841  33.542  1.00  0.00     0.029 A 
ATOM     49  C   UNL A   1      39.116  31.926  33.673  1.00  0.00     0.049 A 
ATOM     50  H   UNL A   1      39.948  30.726  32.186  1.00  0.00     0.167 HD
ATOM     51  C   UNL A   1      41.327  27.962  29.043  1.00  0.00     0.034 A 
ATOM     52  C   UNL A   1      39.829  31.711  34.796  1.00  0.00     0.034 A 
ATOM     53  C   UNL A   1      42.247  27.801  30.137  1.00  0.00     0.049 A 
ATOM     54  C   UNL A   1      40.968  30.725  34.754  1.00  0.00     0.074 A 
ATOM     55  C   UNL A   1      43.380  27.011  30.197  1.00  0.00     0.029 A 
ATOM     56  N   UNL A   1      42.124  28.420  31.371  1.00  0.00    -0.354 N 
ATOM     57  N   UNL A   1      41.421  30.029  33.739  1.00  0.00    -0.248 NA
ATOM     58  C   UNL A   1      41.710  30.515  36.005  1.00  0.00     0.031 C 
ATOM     59  C   UNL A   1      43.918  27.118  31.483  1.00  0.00     0.029 A 
ATOM     60  C   UNL A   1      43.143  28.006  32.211  1.00  0.00     0.049 A 
ATOM     61  H   UNL A   1      41.416  29.061  31.614  1.00  0.00     0.167 HD
ATOM     62  C   UNL A   1      42.516  29.319  34.221  1.00  0.00     0.074 A 
ATOM     63  C   UNL A   1      42.676  29.695  35.611  1.00  0.00     0.031 C 
ATOM     64  C   UNL A   1      43.308  28.425  33.579  1.00  0.00     0.034 A 
BRANCH  51  65
ATOM     65  C   UNL A   1      41.547  27.134  27.805  1.00  0.00     0.023 A 
ATOM     66  C   UNL A   1      42.098  27.726  26.652  1.00  0.00     0.012 A 
ATOM     67  C   UNL A   1      41.280  25.751  27.814  1.00  0.00     0.148 A 
ATOM     68  C   UNL A   1      42.362  26.958  25.517  1.00  0.00     0.002 A 
ATOM     69  C   UNL A   1      41.586  24.984  26.696  1.00  0.00     0.091 A 
ATOM     70  F   UNL A   1      40.735  25.213  28.914  1.00  0.00    -0.205 F 
ATOM     71  C   UNL A   1      42.118  25.587  25.544  1.00  0.00     0.022 A 
BRANCH  69  72
ATOM     72  S   UNL A   1      41.380  23.200  26.657  1.00  0.00     0.127 S 
ATOM     73  O   UNL A   1      42.083  22.849  25.422  1.00  0.00    -0.237 OA
ATOM     74  O   UNL A   1      42.061  22.786  27.883  1.00  0.00    -0.237 OA
ATOM     75  O   UNL A   1      39.945  22.958  26.642  1.00  0.00    -0.744 OA
ENDBRANCH  69  72
ENDBRANCH  51  65
BRANCH  52  76
ATOM     76  C   UNL A   1      39.499  32.446  36.052  1.00  0.00     0.023 A 
ATOM     77  C   UNL A   1      40.140  33.669  36.331  1.00  0.00     0.012 A 
ATOM     78  C   UNL A   1      38.560  31.939  36.970  1.00  0.00     0.148 A 
ATOM     79  C   UNL A   1      39.879  34.354  37.519  1.00  0.00     0.002 A 
ATOM     80  C   UNL A   1      38.261  32.655  38.124  1.00  0.00     0.091 A 
ATOM     81  F   UNL A   1      37.973  30.765  36.697  1.00  0.00    -0.205 F 
ATOM     82  C   UNL A   1      38.934  33.853  38.410  1.00  0.00     0.022 A 
BRANCH  80  83
ATOM     83  S   UNL A   1      36.967  32.149  39.262  1.00  0.00     0.127 S 
ATOM     84  O   UNL A   1      37.170  30.703  39.322  1.00  0.00    -0.237 OA
ATOM     85  O   UNL A   1      37.334  32.874  40.479  1.00  0.00    -0.237 OA
ATOM     86  O   UNL A   1      35.717  32.588  38.657  1.00  0.00    -0.744 OA
ENDBRANCH  80  83
ENDBRANCH  52  76
BRANCH  64  87
ATOM     87  C   UNL A   1      44.434  27.803  34.365  1.00  0.00     0.023 A 
ATOM     88  C   UNL A   1      45.694  28.431  34.397  1.00  0.00     0.012 A 
ATOM     89  C   UNL A   1      44.220  26.640  35.130  1.00  0.00     0.148 A 
ATOM     90  C   UNL A   1      46.735  27.893  35.151  1.00  0.00     0.002 A 
ATOM     91  C   UNL A   1      45.244  26.140  35.923  1.00  0.00     0.091 A 
ATOM     92  F   UNL A   1      43.016  26.051  35.076  1.00  0.00    -0.205 F 
ATOM     93  C   UNL A   1      46.507  26.756  35.923  1.00  0.00     0.022 A 
BRANCH  91  94
ATOM     94  S   UNL A   1      45.018  24.741  37.026  1.00  0.00     0.127 S 
ATOM     95  O   UNL A   1      43.891  25.185  37.844  1.00  0.00    -0.237 OA
ATOM     96  O   UNL A   1      44.703  23.660  36.091  1.00  0.00    -0.237 OA
ATOM     97  O   UNL A   1      46.278  24.579  37.738  1.00  0.00    -0.744 OA
ENDBRANCH  91  94
ENDBRANCH  64  87
ENDBRANCH  38  39
ENDBRANCH  31  33
ENDBRANCH  30  31
ENDBRANCH  29  30
ENDBRANCH  28  29
ENDBRANCH   1  28
TORSDOF 20
ENDMDL
MODEL 3
REMARK VINA RESULT:     -11.9      4.969      7.758
REMARK SMILES Cc1ccnc(C(=O)c2[nH]c3cc(F)ccc3c2CC(=O)OCCOCCOC(=O)c2ccc(-c3c4nc(c(-c5cccc(S(=O)(=O)[O-])c5F)c5ccc([nH]5)c(-c5cccc(S(=O)(=O)[O-])c5F)c5nc(c(-c6cccc(S(=O)(=O)[O-])c6F)c6ccc3[nH]6)C=C5)C=C4)cc2)c1
REMARK SMILES IDX 25 1 24 2 23 3 22 4 20 5 21 6 19 7 18 8 9 9 10 10 11 11
REMARK SMILES IDX 17 13 12 14 16 15 13 16 15 17 14 18 7 19 8 20 6 21 1 22 2 23
REMARK SMILES IDX 3 24 94 25 4 26 5 27 26 28 27 29 28 30 29 31 30 32 31 33
REMARK SMILES IDX 32 34 93 35 33 36 92 37 34 38 35 39 36 40 86 41 37 42 91 43
REMARK SMILES IDX 85 44 87 45 38 46 90 47 84 48 83 49 39 51 71 52 51 53 70 54
REMARK SMILES IDX 52 55 55 56 69 57 88 58 53 59 54 60 68 62 89 63 56 64 40 65
REMARK SMILES IDX 41 66 49 67 42 68 44 69 50 70 43 71 45 72 46 73 47 74 48 75
REMARK SMILES IDX 72 76 73 77 81 78 74 79 76 80 82 81 75 82 77 83 78 84 79 85
REMARK SMILES IDX 80 86 57 87 58 88 66 89 59 90 61 91 67 92 60 93 62 94 63 95
REMARK SMILES IDX 64 96 65 97
REMARK H PARENT 10 12 87 50 55 61
REMARK Flexibility Score: inf
ROOT
ATOM      1  O   UNL A   1      35.567  22.370  25.603  1.00  0.00    -0.374 OA
ENDROOT
BRANCH   1   2
ATOM      2  C   UNL A   1      35.328  23.520  24.792  1.00  0.00     0.202 C 
BRANCH   2   3
ATOM      3  C   UNL A   1      34.686  24.753  25.441  1.00  0.00     0.261 C 
BRANCH   3   4
ATOM      4  O   UNL A   1      34.349  25.795  24.499  1.00  0.00    -0.463 OA
BRANCH   4   5
ATOM      5  C   UNL A   1      33.780  26.906  25.043  1.00  0.00     0.310 C 
ATOM      6  O   UNL A   1      34.177  28.053  24.836  1.00  0.00    -0.252 OA
BRANCH   5   7
ATOM      7  C   UNL A   1      32.655  26.646  26.018  1.00  0.00     0.161 C 
BRANCH   7   8
ATOM      8  C   UNL A   1      31.257  26.429  25.496  1.00  0.00     0.000 A 
ATOM      9  C   UNL A   1      30.524  25.236  25.496  1.00  0.00     0.093 A 
ATOM     10  N   UNL A   1      29.302  25.529  24.924  1.00  0.00    -0.351 N 
ATOM     11  C   UNL A   1      29.338  26.758  24.308  1.00  0.00     0.049 A 
ATOM     12  H   UNL A   1      28.515  24.939  24.953  1.00  0.00     0.167 HD
ATOM     13  C   UNL A   1      30.535  27.365  24.684  1.00  0.00     0.004 A 
ATOM     14  C   UNL A   1      28.418  27.371  23.449  1.00  0.00     0.066 A 
ATOM     15  C   UNL A   1      30.823  28.655  24.185  1.00  0.00     0.013 A 
ATOM     16  C   UNL A   1      28.758  28.624  22.937  1.00  0.00     0.125 A 
ATOM     17  C   UNL A   1      29.933  29.267  23.297  1.00  0.00     0.040 A 
ATOM     18  F   UNL A   1      27.933  29.211  22.059  1.00  0.00    -0.207 F 
BRANCH   9  19
ATOM     19  C   UNL A   1      30.945  23.937  26.009  1.00  0.00     0.227 C 
ATOM     20  O   UNL A   1      30.835  23.641  27.198  1.00  0.00    -0.285 OA
BRANCH  19  21
ATOM     21  C   UNL A   1      31.595  22.922  25.124  1.00  0.00     0.113 A 
ATOM     22  C   UNL A   1      32.571  19.265  25.122  1.00  0.00     0.044 C 
ATOM     23  C   UNL A   1      32.308  20.674  24.685  1.00  0.00    -0.047 A 
ATOM     24  C   UNL A   1      32.352  21.005  23.328  1.00  0.00     0.023 A 
ATOM     25  C   UNL A   1      31.915  21.654  25.603  1.00  0.00     0.036 A 
ATOM     26  C   UNL A   1      32.043  22.298  22.945  1.00  0.00     0.112 A 
ATOM     27  N   UNL A   1      31.678  23.264  23.811  1.00  0.00    -0.253 NA
ENDBRANCH  19  21
ENDBRANCH   9  19
ENDBRANCH   7   8
ENDBRANCH   5   7
ENDBRANCH   4   5
ENDBRANCH   3   4
ENDBRANCH   2   3
ENDBRANCH   1   2
BRANCH   1  28
ATOM     28  C   UNL A   1      35.849  21.149  24.923  1.00  0.00     0.202 C 
BRANCH  28  29
ATOM     29  C   UNL A   1      37.277  20.593  25.029  1.00  0.00     0.261 C 
BRANCH  29  30
ATOM     30  O   UNL A   1      38.281  21.603  25.193  1.00  0.00    -0.460 OA
BRANCH  30  31
ATOM     31  C   UNL A   1      39.240  21.300  26.101  1.00  0.00     0.338 C 
ATOM     32  O   UNL A   1      39.707  20.198  26.354  1.00  0.00    -0.246 OA
BRANCH  31  33
ATOM     33  C   UNL A   1      39.794  22.544  26.658  1.00  0.00     0.060 A 
ATOM     34  C   UNL A   1      39.283  23.756  26.174  1.00  0.00     0.016 A 
ATOM     35  C   UNL A   1      40.810  22.524  27.614  1.00  0.00     0.016 A 
ATOM     36  C   UNL A   1      39.801  24.960  26.640  1.00  0.00     0.010 A 
ATOM     37  C   UNL A   1      41.337  23.734  28.069  1.00  0.00     0.010 A 
ATOM     38  C   UNL A   1      40.847  24.956  27.570  1.00  0.00    -0.014 A 
BRANCH  38  39
ATOM     39  C   UNL A   1      41.486  26.231  27.965  1.00  0.00     0.031 A 
ATOM     40  C   UNL A   1      40.671  27.266  28.685  1.00  0.00     0.074 A 
ATOM     41  C   UNL A   1      42.778  26.454  27.664  1.00  0.00     0.049 A 
ATOM     42  N   UNL A   1      41.022  28.458  29.087  1.00  0.00    -0.248 NA
ATOM     43  C   UNL A   1      39.275  26.913  28.993  1.00  0.00     0.031 C 
ATOM     44  C   UNL A   1      43.656  25.513  26.969  1.00  0.00     0.029 A 
ATOM     45  N   UNL A   1      43.567  27.555  27.878  1.00  0.00    -0.354 N 
ATOM     46  C   UNL A   1      39.886  29.012  29.664  1.00  0.00     0.074 A 
ATOM     47  C   UNL A   1      38.833  28.026  29.561  1.00  0.00     0.031 C 
ATOM     48  C   UNL A   1      44.857  26.088  26.790  1.00  0.00     0.029 A 
ATOM     49  C   UNL A   1      44.822  27.445  27.327  1.00  0.00     0.049 A 
ATOM     50  H   UNL A   1      43.265  28.347  28.380  1.00  0.00     0.167 HD
ATOM     51  C   UNL A   1      39.740  30.232  30.232  1.00  0.00     0.034 A 
ATOM     52  C   UNL A   1      45.815  28.352  27.239  1.00  0.00     0.034 A 
ATOM     53  C   UNL A   1      40.801  31.196  30.340  1.00  0.00     0.049 A 
ATOM     54  C   UNL A   1      45.609  29.714  27.851  1.00  0.00     0.074 A 
ATOM     55  C   UNL A   1      40.777  32.434  30.956  1.00  0.00     0.029 A 
ATOM     56  N   UNL A   1      42.068  31.043  29.797  1.00  0.00    -0.354 N 
ATOM     57  N   UNL A   1      44.576  30.173  28.517  1.00  0.00    -0.248 NA
ATOM     58  C   UNL A   1      46.713  30.674  27.721  1.00  0.00     0.031 C 
ATOM     59  C   UNL A   1      42.016  33.048  30.747  1.00  0.00     0.029 A 
ATOM     60  C   UNL A   1      42.825  32.176  30.035  1.00  0.00     0.049 A 
ATOM     61  H   UNL A   1      42.382  30.245  29.313  1.00  0.00     0.167 HD
ATOM     62  C   UNL A   1      44.917  31.463  28.909  1.00  0.00     0.074 A 
ATOM     63  C   UNL A   1      46.264  31.700  28.431  1.00  0.00     0.031 C 
ATOM     64  C   UNL A   1      44.178  32.376  29.587  1.00  0.00     0.034 A 
BRANCH  51  65
ATOM     65  C   UNL A   1      38.390  30.599  30.787  1.00  0.00     0.023 A 
ATOM     66  C   UNL A   1      38.051  30.243  32.108  1.00  0.00     0.012 A 
ATOM     67  C   UNL A   1      37.488  31.368  30.025  1.00  0.00     0.148 A 
ATOM     68  C   UNL A   1      36.828  30.628  32.656  1.00  0.00     0.002 A 
ATOM     69  C   UNL A   1      36.290  31.785  30.592  1.00  0.00     0.091 A 
ATOM     70  F   UNL A   1      37.820  31.677  28.764  1.00  0.00    -0.205 F 
ATOM     71  C   UNL A   1      35.954  31.408  31.902  1.00  0.00     0.022 A 
BRANCH  69  72
ATOM     72  S   UNL A   1      35.130  32.855  29.733  1.00  0.00     0.127 S 
ATOM     73  O   UNL A   1      34.664  31.981  28.656  1.00  0.00    -0.237 OA
ATOM     74  O   UNL A   1      34.137  33.125  30.772  1.00  0.00    -0.237 OA
ATOM     75  O   UNL A   1      35.895  34.016  29.301  1.00  0.00    -0.744 OA
ENDBRANCH  69  72
ENDBRANCH  51  65
BRANCH  52  76
ATOM     76  C   UNL A   1      47.096  28.006  26.558  1.00  0.00     0.023 A 
ATOM     77  C   UNL A   1      48.228  27.679  27.328  1.00  0.00     0.012 A 
ATOM     78  C   UNL A   1      47.199  28.002  25.153  1.00  0.00     0.148 A 
ATOM     79  C   UNL A   1      49.449  27.393  26.715  1.00  0.00     0.002 A 
ATOM     80  C   UNL A   1      48.402  27.659  24.546  1.00  0.00     0.091 A 
ATOM     81  F   UNL A   1      46.116  28.333  24.435  1.00  0.00    -0.205 F 
ATOM     82  C   UNL A   1      49.533  27.373  25.325  1.00  0.00     0.022 A 
BRANCH  80  83
ATOM     83  S   UNL A   1      48.565  27.484  22.766  1.00  0.00     0.127 S 
ATOM     84  O   UNL A   1      49.906  28.017  22.535  1.00  0.00    -0.237 OA
ATOM     85  O   UNL A   1      48.438  26.037  22.591  1.00  0.00    -0.237 OA
ATOM     86  O   UNL A   1      47.470  28.255  22.193  1.00  0.00    -0.744 OA
ENDBRANCH  80  83
ENDBRANCH  52  76
BRANCH  64  87
ATOM     87  C   UNL A   1      44.815  33.712  29.873  1.00  0.00     0.023 A 
ATOM     88  C   UNL A   1      45.442  33.935  31.114  1.00  0.00     0.012 A 
ATOM     89  C   UNL A   1      44.857  34.714  28.885  1.00  0.00     0.148 A 
ATOM     90  C   UNL A   1      46.072  35.150  31.381  1.00  0.00     0.002 A 
ATOM     91  C   UNL A   1      45.534  35.900  29.137  1.00  0.00     0.091 A 
ATOM     92  F   UNL A   1      44.244  34.485  27.715  1.00  0.00    -0.205 F 
ATOM     93  C   UNL A   1      46.129  36.126  30.389  1.00  0.00     0.022 A 
BRANCH  91  94
ATOM     94  S   UNL A   1      45.746  37.176  27.890  1.00  0.00     0.127 S 
ATOM     95  O   UNL A   1      47.091  37.665  28.190  1.00  0.00    -0.237 OA
ATOM     96  O   UNL A   1      45.640  36.412  26.646  1.00  0.00    -0.237 OA
ATOM     97  O   UNL A   1      44.673  38.136  28.106  1.00  0.00    -0.744 OA
ENDBRANCH  91  94
ENDBRANCH  64  87
ENDBRANCH  38  39
ENDBRANCH  31  33
ENDBRANCH  30  31
ENDBRANCH  29  30
ENDBRANCH  28  29
ENDBRANCH   1  28
TORSDOF 20
ENDMDL
