MODEL 1
REMARK VINA RESULT:     -10.5      0.000      0.000
REMARK SMILES Cc1cccc(C[NH+]2CCC(OCC(=O)OCCOCCOC(=O)c3ccc(-c4c5nc(c(-c6cccc(S(=O)(=O)[O-])c6F)c6ccc([nH]6)c(-c6cccc(S(=O)(=O)[O-])c6F)c6nc(c(-c7cccc(S(=O)(=O)[O-])c7F)c7ccc4[nH]7)C=C6)C=C5)cc3)CC2)n1
REMARK SMILES IDX 18 1 17 2 16 3 14 4 15 5 13 6 12 7 11 8 8 9 9 10 89 11 10 13
REMARK SMILES IDX 88 14 7 15 6 16 1 17 2 18 3 19 90 20 4 21 5 22 19 23 20 24
REMARK SMILES IDX 21 25 22 26 23 27 24 28 25 29 26 30 87 31 27 32 86 33 28 34
REMARK SMILES IDX 29 35 30 36 80 37 31 38 85 39 79 40 81 41 32 42 84 43 78 44
REMARK SMILES IDX 77 45 33 47 65 48 45 49 64 50 46 51 49 52 63 53 82 54 47 55
REMARK SMILES IDX 48 56 62 58 83 59 50 60 34 61 35 62 43 63 36 64 38 65 44 66
REMARK SMILES IDX 37 67 39 68 40 69 41 70 42 71 66 72 67 73 75 74 68 75 70 76
REMARK SMILES IDX 76 77 69 78 71 79 72 80 73 81 74 82 51 83 52 84 60 85 53 86
REMARK SMILES IDX 55 87 61 88 54 89 56 90 57 91 58 92 59 93
REMARK H PARENT 8 12 81 46 49 57
REMARK Flexibility Score: inf
ROOT
ATOM      1  C   UNL A   1      36.273  22.259  25.048  1.00  0.00     0.202 C 
ENDROOT
BRANCH   1   2
ATOM      2  C   UNL A   1      35.491  21.542  26.159  1.00  0.00     0.261 C 
BRANCH   2   3
ATOM      3  O   UNL A   1      34.056  21.741  26.128  1.00  0.00    -0.462 OA
BRANCH   3   4
ATOM      4  C   UNL A   1      33.334  20.792  25.466  1.00  0.00     0.332 C 
ATOM      5  O   UNL A   1      33.776  19.700  25.116  1.00  0.00    -0.250 OA
BRANCH   4   6
ATOM      6  C   UNL A   1      31.915  21.273  25.053  1.00  0.00     0.283 C 
BRANCH   6   7
ATOM      7  O   UNL A   1      30.977  22.027  25.794  1.00  0.00    -0.366 OA
BRANCH   7   8
ATOM      8  C   UNL A   1      30.853  23.432  25.549  1.00  0.00     0.130 C 
ATOM      9  N   UNL A   1      32.078  25.889  24.622  1.00  0.00    -0.330 N 
ATOM     10  C   UNL A   1      31.643  25.816  26.015  1.00  0.00     0.265 C 
ATOM     11  C   UNL A   1      31.134  25.179  23.752  1.00  0.00     0.265 C 
ATOM     12  H   UNL A   1      32.974  25.404  24.578  1.00  0.00     0.348 HD
ATOM     13  C   UNL A   1      31.667  24.347  26.476  1.00  0.00     0.093 C 
ATOM     14  C   UNL A   1      31.130  23.706  24.089  1.00  0.00     0.093 C 
BRANCH   9  15
ATOM     15  C   UNL A   1      32.428  27.244  24.138  1.00  0.00     0.319 C 
BRANCH  15  16
ATOM     16  C   UNL A   1      32.788  28.313  25.160  1.00  0.00     0.095 A 
ATOM     17  C   UNL A   1      31.154  31.420  26.262  1.00  0.00     0.067 C 
ATOM     18  C   UNL A   1      32.193  30.346  26.155  1.00  0.00     0.038 A 
ATOM     19  C   UNL A   1      33.329  30.334  26.948  1.00  0.00     0.023 A 
ATOM     20  N   UNL A   1      31.949  29.377  25.250  1.00  0.00    -0.252 NA
ATOM     21  C   UNL A   1      34.220  29.270  26.817  1.00  0.00     0.004 A 
ATOM     22  C   UNL A   1      33.945  28.239  25.920  1.00  0.00     0.030 A 
ENDBRANCH  15  16
ENDBRANCH   9  15
ENDBRANCH   7   8
ENDBRANCH   6   7
ENDBRANCH   4   6
ENDBRANCH   3   4
ENDBRANCH   2   3
ENDBRANCH   1   2
BRANCH   1  23
ATOM     23  O   UNL A   1      37.153  21.422  24.289  1.00  0.00    -0.374 OA
BRANCH  23  24
ATOM     24  C   UNL A   1      37.244  20.067  24.730  1.00  0.00     0.202 C 
BRANCH  24  25
ATOM     25  C   UNL A   1      38.651  19.649  25.162  1.00  0.00     0.261 C 
BRANCH  25  26
ATOM     26  O   UNL A   1      38.973  20.257  26.421  1.00  0.00    -0.460 OA
BRANCH  26  27
ATOM     27  C   UNL A   1      40.301  20.390  26.627  1.00  0.00     0.338 C 
ATOM     28  O   UNL A   1      41.185  19.631  26.270  1.00  0.00    -0.246 OA
BRANCH  27  29
ATOM     29  C   UNL A   1      40.554  21.744  27.136  1.00  0.00     0.060 A 
ATOM     30  C   UNL A   1      39.924  22.800  26.468  1.00  0.00     0.016 A 
ATOM     31  C   UNL A   1      41.460  21.985  28.172  1.00  0.00     0.016 A 
ATOM     32  C   UNL A   1      40.268  24.111  26.775  1.00  0.00     0.010 A 
ATOM     33  C   UNL A   1      41.800  23.305  28.483  1.00  0.00     0.010 A 
ATOM     34  C   UNL A   1      41.249  24.367  27.743  1.00  0.00    -0.014 A 
BRANCH  34  35
ATOM     35  C   UNL A   1      41.823  25.732  27.816  1.00  0.00     0.031 A 
ATOM     36  C   UNL A   1      41.043  26.800  28.538  1.00  0.00     0.074 A 
ATOM     37  C   UNL A   1      43.047  25.986  27.320  1.00  0.00     0.049 A 
ATOM     38  N   UNL A   1      41.389  28.028  28.824  1.00  0.00    -0.248 NA
ATOM     39  C   UNL A   1      39.696  26.432  29.008  1.00  0.00     0.031 C 
ATOM     40  C   UNL A   1      43.877  25.024  26.595  1.00  0.00     0.029 A 
ATOM     41  N   UNL A   1      43.804  27.129  27.351  1.00  0.00    -0.354 N 
ATOM     42  C   UNL A   1      40.306  28.577  29.503  1.00  0.00     0.074 A 
ATOM     43  C   UNL A   1      39.279  27.563  29.559  1.00  0.00     0.031 C 
ATOM     44  C   UNL A   1      45.026  25.623  26.237  1.00  0.00     0.029 A 
ATOM     45  C   UNL A   1      45.012  27.007  26.706  1.00  0.00     0.049 A 
ATOM     46  H   UNL A   1      43.511  27.958  27.792  1.00  0.00     0.167 HD
ATOM     47  C   UNL A   1      40.191  29.807  30.058  1.00  0.00     0.034 A 
ATOM     48  C   UNL A   1      45.995  27.912  26.522  1.00  0.00     0.034 A 
ATOM     49  C   UNL A   1      41.225  30.801  30.005  1.00  0.00     0.049 A 
ATOM     50  C   UNL A   1      45.849  29.270  27.161  1.00  0.00     0.074 A 
ATOM     51  C   UNL A   1      41.221  32.082  30.526  1.00  0.00     0.029 A 
ATOM     52  N   UNL A   1      42.457  30.621  29.391  1.00  0.00    -0.354 N 
ATOM     53  N   UNL A   1      44.861  29.736  27.888  1.00  0.00    -0.248 NA
ATOM     54  C   UNL A   1      46.966  30.210  26.994  1.00  0.00     0.031 C 
ATOM     55  C   UNL A   1      42.451  32.677  30.224  1.00  0.00     0.029 A 
ATOM     56  C   UNL A   1      43.224  31.763  29.524  1.00  0.00     0.049 A 
ATOM     57  H   UNL A   1      42.741  29.801  28.928  1.00  0.00     0.167 HD
ATOM     58  C   UNL A   1      45.245  31.012  28.285  1.00  0.00     0.074 A 
ATOM     59  C   UNL A   1      46.571  31.233  27.741  1.00  0.00     0.031 C 
ATOM     60  C   UNL A   1      44.560  31.929  29.013  1.00  0.00     0.034 A 
BRANCH  47  61
ATOM     61  C   UNL A   1      38.924  30.115  30.812  1.00  0.00     0.023 A 
ATOM     62  C   UNL A   1      38.737  29.560  32.095  1.00  0.00     0.012 A 
ATOM     63  C   UNL A   1      37.941  30.974  30.282  1.00  0.00     0.148 A 
ATOM     64  C   UNL A   1      37.581  29.831  32.828  1.00  0.00     0.002 A 
ATOM     65  C   UNL A   1      36.806  31.266  31.033  1.00  0.00     0.091 A 
ATOM     66  F   UNL A   1      38.127  31.475  29.053  1.00  0.00    -0.205 F 
ATOM     67  C   UNL A   1      36.621  30.690  32.299  1.00  0.00     0.022 A 
BRANCH  65  68
ATOM     68  S   UNL A   1      35.532  32.401  30.469  1.00  0.00     0.127 S 
ATOM     69  O   UNL A   1      34.571  32.335  31.568  1.00  0.00    -0.237 OA
ATOM     70  O   UNL A   1      36.265  33.664  30.376  1.00  0.00    -0.237 OA
ATOM     71  O   UNL A   1      35.059  31.876  29.196  1.00  0.00    -0.744 OA
ENDBRANCH  65  68
ENDBRANCH  47  61
BRANCH  48  72
ATOM     72  C   UNL A   1      47.219  27.536  25.758  1.00  0.00     0.023 A 
ATOM     73  C   UNL A   1      48.259  26.832  26.395  1.00  0.00     0.012 A 
ATOM     74  C   UNL A   1      47.338  27.831  24.385  1.00  0.00     0.148 A 
ATOM     75  C   UNL A   1      49.401  26.451  25.688  1.00  0.00     0.002 A 
ATOM     76  C   UNL A   1      48.452  27.397  23.673  1.00  0.00     0.091 A 
ATOM     77  F   UNL A   1      46.355  28.525  23.794  1.00  0.00    -0.205 F 
ATOM     78  C   UNL A   1      49.492  26.719  24.325  1.00  0.00     0.022 A 
BRANCH  76  79
ATOM     79  S   UNL A   1      48.551  27.581  21.888  1.00  0.00     0.127 S 
ATOM     80  O   UNL A   1      47.280  28.230  21.579  1.00  0.00    -0.237 OA
ATOM     81  O   UNL A   1      49.731  28.432  21.724  1.00  0.00    -0.237 OA
ATOM     82  O   UNL A   1      48.725  26.226  21.381  1.00  0.00    -0.744 OA
ENDBRANCH  76  79
ENDBRANCH  48  72
BRANCH  60  83
ATOM     83  C   UNL A   1      45.234  33.248  29.271  1.00  0.00     0.023 A 
ATOM     84  C   UNL A   1      45.961  33.432  30.463  1.00  0.00     0.012 A 
ATOM     85  C   UNL A   1      45.219  34.269  28.302  1.00  0.00     0.148 A 
ATOM     86  C   UNL A   1      46.643  34.623  30.699  1.00  0.00     0.002 A 
ATOM     87  C   UNL A   1      45.935  35.439  28.525  1.00  0.00     0.091 A 
ATOM     88  F   UNL A   1      44.504  34.080  27.183  1.00  0.00    -0.205 F 
ATOM     89  C   UNL A   1      46.640  35.621  29.726  1.00  0.00     0.022 A 
BRANCH  87  90
ATOM     90  S   UNL A   1      46.055  36.736  27.289  1.00  0.00     0.127 S 
ATOM     91  O   UNL A   1      44.790  37.443  27.476  1.00  0.00    -0.237 OA
ATOM     92  O   UNL A   1      47.239  37.477  27.726  1.00  0.00    -0.237 OA
ATOM     93  O   UNL A   1      46.213  36.052  26.012  1.00  0.00    -0.744 OA
ENDBRANCH  87  90
ENDBRANCH  60  83
ENDBRANCH  34  35
ENDBRANCH  27  29
ENDBRANCH  26  27
ENDBRANCH  25  26
ENDBRANCH  24  25
ENDBRANCH  23  24
ENDBRANCH   1  23
TORSDOF 21
ENDMDL
MODEL 2
REMARK VINA RESULT:     -10.4      4.726      8.924
REMARK SMILES Cc1cccc(C[NH+]2CCC(OCC(=O)OCCOCCOC(=O)c3ccc(-c4c5nc(c(-c6cccc(S(=O)(=O)[O-])c6F)c6ccc([nH]6)c(-c6cccc(S(=O)(=O)[O-])c6F)c6nc(c(-c7cccc(S(=O)(=O)[O-])c7F)c7ccc4[nH]7)C=C6)C=C5)cc3)CC2)n1
REMARK SMILES IDX 18 1 17 2 16 3 14 4 15 5 13 6 12 7 11 8 8 9 9 10 89 11 10 13
REMARK SMILES IDX 88 14 7 15 6 16 1 17 2 18 3 19 90 20 4 21 5 22 19 23 20 24
REMARK SMILES IDX 21 25 22 26 23 27 24 28 25 29 26 30 87 31 27 32 86 33 28 34
REMARK SMILES IDX 29 35 30 36 80 37 31 38 85 39 79 40 81 41 32 42 84 43 78 44
REMARK SMILES IDX 77 45 33 47 65 48 45 49 64 50 46 51 49 52 63 53 82 54 47 55
REMARK SMILES IDX 48 56 62 58 83 59 50 60 34 61 35 62 43 63 36 64 38 65 44 66
REMARK SMILES IDX 37 67 39 68 40 69 41 70 42 71 66 72 67 73 75 74 68 75 70 76
REMARK SMILES IDX 76 77 69 78 71 79 72 80 73 81 74 82 51 83 52 84 60 85 53 86
REMARK SMILES IDX 55 87 61 88 54 89 56 90 57 91 58 92 59 93
REMARK H PARENT 8 12 81 46 49 57
REMARK Flexibility Score: inf
ROOT
ATOM      1  C   UNL A   1      42.186  20.863  26.251  1.00  0.00     0.202 C 
ENDROOT
BRANCH   1   2
ATOM      2  C   UNL A   1      40.786  21.414  25.939  1.00  0.00     0.261 C 
BRANCH   2   3
ATOM      3  O   UNL A   1      40.160  22.146  27.021  1.00  0.00    -0.462 OA
BRANCH   3   4
ATOM      4  C   UNL A   1      39.129  22.968  26.670  1.00  0.00     0.332 C 
ATOM      5  O   UNL A   1      39.018  24.138  27.029  1.00  0.00    -0.250 OA
BRANCH   4   6
ATOM      6  C   UNL A   1      38.005  22.243  25.880  1.00  0.00     0.283 C 
BRANCH   6   7
ATOM      7  O   UNL A   1      37.582  22.439  24.545  1.00  0.00    -0.366 OA
BRANCH   7   8
ATOM      8  C   UNL A   1      36.471  23.302  24.280  1.00  0.00     0.130 C 
ATOM      9  N   UNL A   1      33.636  23.829  24.564  1.00  0.00    -0.330 N 
ATOM     10  C   UNL A   1      34.175  23.657  23.218  1.00  0.00     0.265 C 
ATOM     11  C   UNL A   1      34.593  24.548  25.412  1.00  0.00     0.265 C 
ATOM     12  H   UNL A   1      33.518  22.891  24.945  1.00  0.00     0.348 HD
ATOM     13  C   UNL A   1      35.430  22.767  23.285  1.00  0.00     0.093 C 
ATOM     14  C   UNL A   1      35.846  23.722  25.590  1.00  0.00     0.093 C 
BRANCH   9  15
ATOM     15  C   UNL A   1      32.260  24.371  24.630  1.00  0.00     0.319 C 
BRANCH  15  16
ATOM     16  C   UNL A   1      32.058  25.796  25.125  1.00  0.00     0.095 A 
ATOM     17  C   UNL A   1      32.178  29.089  23.488  1.00  0.00     0.067 C 
ATOM     18  C   UNL A   1      32.057  28.073  24.582  1.00  0.00     0.038 A 
ATOM     19  C   UNL A   1      31.752  28.423  25.886  1.00  0.00     0.023 A 
ATOM     20  N   UNL A   1      32.248  26.789  24.217  1.00  0.00    -0.252 NA
ATOM     21  C   UNL A   1      31.610  27.408  26.832  1.00  0.00     0.004 A 
ATOM     22  C   UNL A   1      31.755  26.075  26.449  1.00  0.00     0.030 A 
ENDBRANCH  15  16
ENDBRANCH   9  15
ENDBRANCH   7   8
ENDBRANCH   6   7
ENDBRANCH   4   6
ENDBRANCH   3   4
ENDBRANCH   2   3
ENDBRANCH   1   2
BRANCH   1  23
ATOM     23  O   UNL A   1      43.076  20.797  25.130  1.00  0.00    -0.374 OA
BRANCH  23  24
ATOM     24  C   UNL A   1      44.432  21.150  25.403  1.00  0.00     0.202 C 
BRANCH  24  25
ATOM     25  C   UNL A   1      44.944  22.333  24.578  1.00  0.00     0.261 C 
BRANCH  25  26
ATOM     26  O   UNL A   1      44.019  23.426  24.672  1.00  0.00    -0.460 OA
BRANCH  26  27
ATOM     27  C   UNL A   1      44.603  24.593  25.017  1.00  0.00     0.338 C 
ATOM     28  O   UNL A   1      45.644  25.056  24.584  1.00  0.00    -0.246 OA
BRANCH  27  29
ATOM     29  C   UNL A   1      43.649  25.363  25.825  1.00  0.00     0.060 A 
ATOM     30  C   UNL A   1      43.965  26.704  26.071  1.00  0.00     0.016 A 
ATOM     31  C   UNL A   1      42.529  24.767  26.412  1.00  0.00     0.016 A 
ATOM     32  C   UNL A   1      43.209  27.433  26.981  1.00  0.00     0.010 A 
ATOM     33  C   UNL A   1      41.766  25.506  27.322  1.00  0.00     0.010 A 
ATOM     34  C   UNL A   1      42.142  26.820  27.653  1.00  0.00    -0.014 A 
BRANCH  34  35
ATOM     35  C   UNL A   1      41.571  27.507  28.836  1.00  0.00     0.031 A 
ATOM     36  C   UNL A   1      42.365  27.510  30.116  1.00  0.00     0.074 A 
ATOM     37  C   UNL A   1      40.411  28.182  28.741  1.00  0.00     0.049 A 
ATOM     38  N   UNL A   1      42.124  28.133  31.239  1.00  0.00    -0.248 NA
ATOM     39  C   UNL A   1      43.601  26.707  30.129  1.00  0.00     0.031 C 
ATOM     40  C   UNL A   1      39.563  28.232  27.550  1.00  0.00     0.029 A 
ATOM     41  N   UNL A   1      39.748  28.952  29.661  1.00  0.00    -0.354 N 
ATOM     42  C   UNL A   1      43.173  27.798  32.090  1.00  0.00     0.074 A 
ATOM     43  C   UNL A   1      44.036  26.892  31.367  1.00  0.00     0.031 C 
ATOM     44  C   UNL A   1      38.481  28.984  27.818  1.00  0.00     0.029 A 
ATOM     45  C   UNL A   1      38.561  29.466  29.195  1.00  0.00     0.049 A 
ATOM     46  H   UNL A   1      40.088  29.120  30.569  1.00  0.00     0.167 HD
ATOM     47  C   UNL A   1      43.412  28.233  33.350  1.00  0.00     0.034 A 
ATOM     48  C   UNL A   1      37.648  30.243  29.813  1.00  0.00     0.034 A 
ATOM     49  C   UNL A   1      42.552  29.144  34.052  1.00  0.00     0.049 A 
ATOM     50  C   UNL A   1      37.943  30.724  31.211  1.00  0.00     0.074 A 
ATOM     51  C   UNL A   1      42.689  29.650  35.331  1.00  0.00     0.029 A 
ATOM     52  N   UNL A   1      41.388  29.687  33.526  1.00  0.00    -0.354 N 
ATOM     53  N   UNL A   1      38.992  30.481  31.961  1.00  0.00    -0.248 NA
ATOM     54  C   UNL A   1      36.957  31.620  31.830  1.00  0.00     0.031 C 
ATOM     55  C   UNL A   1      41.604  30.500  35.579  1.00  0.00     0.029 A 
ATOM     56  C   UNL A   1      40.798  30.528  34.450  1.00  0.00     0.049 A 
ATOM     57  H   UNL A   1      41.034  29.499  32.627  1.00  0.00     0.167 HD
ATOM     58  C   UNL A   1      38.804  31.210  33.130  1.00  0.00     0.074 A 
ATOM     59  C   UNL A   1      37.554  31.928  32.974  1.00  0.00     0.031 C 
ATOM     60  C   UNL A   1      39.580  31.267  34.242  1.00  0.00     0.034 A 
BRANCH  47  61
ATOM     61  C   UNL A   1      44.679  27.768  34.019  1.00  0.00     0.023 A 
ATOM     62  C   UNL A   1      45.832  28.576  33.940  1.00  0.00     0.012 A 
ATOM     63  C   UNL A   1      44.727  26.565  34.751  1.00  0.00     0.148 A 
ATOM     64  C   UNL A   1      47.021  28.183  34.556  1.00  0.00     0.002 A 
ATOM     65  C   UNL A   1      45.907  26.197  35.390  1.00  0.00     0.091 A 
ATOM     66  F   UNL A   1      43.627  25.802  34.797  1.00  0.00    -0.205 F 
ATOM     67  C   UNL A   1      47.055  26.999  35.286  1.00  0.00     0.022 A 
BRANCH  65  68
ATOM     68  S   UNL A   1      46.045  24.717  36.401  1.00  0.00     0.127 S 
ATOM     69  O   UNL A   1      47.447  24.770  36.811  1.00  0.00    -0.237 OA
ATOM     70  O   UNL A   1      45.086  24.987  37.473  1.00  0.00    -0.237 OA
ATOM     71  O   UNL A   1      45.691  23.603  35.534  1.00  0.00    -0.744 OA
ENDBRANCH  65  68
ENDBRANCH  47  61
BRANCH  48  72
ATOM     72  C   UNL A   1      36.412  30.659  29.088  1.00  0.00     0.023 A 
ATOM     73  C   UNL A   1      35.531  29.684  28.581  1.00  0.00     0.012 A 
ATOM     74  C   UNL A   1      36.080  32.020  28.939  1.00  0.00     0.148 A 
ATOM     75  C   UNL A   1      34.358  30.056  27.922  1.00  0.00     0.002 A 
ATOM     76  C   UNL A   1      34.881  32.383  28.333  1.00  0.00     0.091 A 
ATOM     77  F   UNL A   1      36.939  32.940  29.400  1.00  0.00    -0.205 F 
ATOM     78  C   UNL A   1      34.025  31.403  27.811  1.00  0.00     0.022 A 
BRANCH  76  79
ATOM     79  S   UNL A   1      34.331  34.093  28.298  1.00  0.00     0.127 S 
ATOM     80  O   UNL A   1      34.750  34.573  29.612  1.00  0.00    -0.237 OA
ATOM     81  O   UNL A   1      35.088  34.644  27.173  1.00  0.00    -0.237 OA
ATOM     82  O   UNL A   1      32.894  34.019  28.065  1.00  0.00    -0.744 OA
ENDBRANCH  76  79
ENDBRANCH  48  72
BRANCH  60  83
ATOM     83  C   UNL A   1      39.104  32.139  35.370  1.00  0.00     0.023 A 
ATOM     84  C   UNL A   1      38.199  31.616  36.314  1.00  0.00     0.012 A 
ATOM     85  C   UNL A   1      39.617  33.438  35.545  1.00  0.00     0.148 A 
ATOM     86  C   UNL A   1      37.789  32.384  37.401  1.00  0.00     0.002 A 
ATOM     87  C   UNL A   1      39.235  34.184  36.654  1.00  0.00     0.091 A 
ATOM     88  F   UNL A   1      40.463  33.923  34.624  1.00  0.00    -0.205 F 
ATOM     89  C   UNL A   1      38.316  33.662  37.579  1.00  0.00     0.022 A 
BRANCH  87  90
ATOM     90  S   UNL A   1      39.932  35.802  37.002  1.00  0.00     0.127 S 
ATOM     91  O   UNL A   1      41.349  35.485  37.175  1.00  0.00    -0.237 OA
ATOM     92  O   UNL A   1      39.619  36.548  35.782  1.00  0.00    -0.237 OA
ATOM     93  O   UNL A   1      39.243  36.283  38.193  1.00  0.00    -0.744 OA
ENDBRANCH  87  90
ENDBRANCH  60  83
ENDBRANCH  34  35
ENDBRANCH  27  29
ENDBRANCH  26  27
ENDBRANCH  25  26
ENDBRANCH  24  25
ENDBRANCH  23  24
ENDBRANCH   1  23
TORSDOF 21
ENDMDL
MODEL 3
REMARK VINA RESULT:     -10.2      1.942      7.876
REMARK SMILES Cc1cccc(C[NH+]2CCC(OCC(=O)OCCOCCOC(=O)c3ccc(-c4c5nc(c(-c6cccc(S(=O)(=O)[O-])c6F)c6ccc([nH]6)c(-c6cccc(S(=O)(=O)[O-])c6F)c6nc(c(-c7cccc(S(=O)(=O)[O-])c7F)c7ccc4[nH]7)C=C6)C=C5)cc3)CC2)n1
REMARK SMILES IDX 18 1 17 2 16 3 14 4 15 5 13 6 12 7 11 8 8 9 9 10 89 11 10 13
REMARK SMILES IDX 88 14 7 15 6 16 1 17 2 18 3 19 90 20 4 21 5 22 19 23 20 24
REMARK SMILES IDX 21 25 22 26 23 27 24 28 25 29 26 30 87 31 27 32 86 33 28 34
REMARK SMILES IDX 29 35 30 36 80 37 31 38 85 39 79 40 81 41 32 42 84 43 78 44
REMARK SMILES IDX 77 45 33 47 65 48 45 49 64 50 46 51 49 52 63 53 82 54 47 55
REMARK SMILES IDX 48 56 62 58 83 59 50 60 34 61 35 62 43 63 36 64 38 65 44 66
REMARK SMILES IDX 37 67 39 68 40 69 41 70 42 71 66 72 67 73 75 74 68 75 70 76
REMARK SMILES IDX 76 77 69 78 71 79 72 80 73 81 74 82 51 83 52 84 60 85 53 86
REMARK SMILES IDX 55 87 61 88 54 89 56 90 57 91 58 92 59 93
REMARK H PARENT 8 12 81 46 49 57
REMARK Flexibility Score: inf
ROOT
ATOM      1  C   UNL A   1      34.933  21.898  25.453  1.00  0.00     0.202 C 
ENDROOT
BRANCH   1   2
ATOM      2  C   UNL A   1      33.956  21.573  26.593  1.00  0.00     0.261 C 
BRANCH   2   3
ATOM      3  O   UNL A   1      32.577  21.942  26.344  1.00  0.00    -0.462 OA
BRANCH   3   4
ATOM      4  C   UNL A   1      32.019  21.440  25.204  1.00  0.00     0.332 C 
ATOM      5  O   UNL A   1      31.816  20.247  24.996  1.00  0.00    -0.250 OA
BRANCH   4   6
ATOM      6  C   UNL A   1      31.793  22.514  24.104  1.00  0.00     0.283 C 
BRANCH   6   7
ATOM      7  O   UNL A   1      30.624  23.248  23.799  1.00  0.00    -0.366 OA
BRANCH   7   8
ATOM      8  C   UNL A   1      30.742  24.597  23.334  1.00  0.00     0.130 C 
ATOM      9  N   UNL A   1      31.812  27.258  23.741  1.00  0.00    -0.330 N 
ATOM     10  C   UNL A   1      30.361  27.092  23.728  1.00  0.00     0.265 C 
ATOM     11  C   UNL A   1      32.440  26.370  22.757  1.00  0.00     0.265 C 
ATOM     12  H   UNL A   1      32.122  26.972  24.670  1.00  0.00     0.348 HD
ATOM     13  C   UNL A   1      30.012  25.658  24.171  1.00  0.00     0.093 C 
ATOM     14  C   UNL A   1      32.203  24.928  23.141  1.00  0.00     0.093 C 
BRANCH   9  15
ATOM     15  C   UNL A   1      32.289  28.658  23.668  1.00  0.00     0.319 C 
BRANCH  15  16
ATOM     16  C   UNL A   1      32.500  29.427  24.964  1.00  0.00     0.095 A 
ATOM     17  C   UNL A   1      35.217  29.522  27.443  1.00  0.00     0.067 C 
ATOM     18  C   UNL A   1      33.894  29.814  26.804  1.00  0.00     0.038 A 
ATOM     19  C   UNL A   1      32.999  30.725  27.339  1.00  0.00     0.023 A 
ATOM     20  N   UNL A   1      33.631  29.148  25.662  1.00  0.00    -0.252 NA
ATOM     21  C   UNL A   1      31.811  30.972  26.653  1.00  0.00     0.004 A 
ATOM     22  C   UNL A   1      31.558  30.325  25.444  1.00  0.00     0.030 A 
ENDBRANCH  15  16
ENDBRANCH   9  15
ENDBRANCH   7   8
ENDBRANCH   6   7
ENDBRANCH   4   6
ENDBRANCH   3   4
ENDBRANCH   2   3
ENDBRANCH   1   2
BRANCH   1  23
ATOM     23  O   UNL A   1      35.292  20.786  24.625  1.00  0.00    -0.374 OA
BRANCH  23  24
ATOM     24  C   UNL A   1      36.498  20.114  24.991  1.00  0.00     0.202 C 
BRANCH  24  25
ATOM     25  C   UNL A   1      37.761  20.955  24.793  1.00  0.00     0.261 C 
BRANCH  25  26
ATOM     26  O   UNL A   1      38.157  21.537  26.043  1.00  0.00    -0.460 OA
BRANCH  26  27
ATOM     27  C   UNL A   1      39.488  21.485  26.260  1.00  0.00     0.338 C 
ATOM     28  O   UNL A   1      40.293  20.728  25.746  1.00  0.00    -0.246 OA
BRANCH  27  29
ATOM     29  C   UNL A   1      39.875  22.671  27.037  1.00  0.00     0.060 A 
ATOM     30  C   UNL A   1      39.073  23.808  26.895  1.00  0.00     0.016 A 
ATOM     31  C   UNL A   1      41.043  22.702  27.802  1.00  0.00     0.016 A 
ATOM     32  C   UNL A   1      39.487  25.014  27.448  1.00  0.00     0.010 A 
ATOM     33  C   UNL A   1      41.454  23.916  28.362  1.00  0.00     0.010 A 
ATOM     34  C   UNL A   1      40.708  25.086  28.135  1.00  0.00    -0.014 A 
BRANCH  34  35
ATOM     35  C   UNL A   1      41.273  26.426  28.423  1.00  0.00     0.031 A 
ATOM     36  C   UNL A   1      42.605  26.787  27.819  1.00  0.00     0.074 A 
ATOM     37  C   UNL A   1      40.571  27.324  29.137  1.00  0.00     0.049 A 
ATOM     38  N   UNL A   1      43.242  27.928  27.839  1.00  0.00    -0.248 NA
ATOM     39  C   UNL A   1      43.312  25.719  27.089  1.00  0.00     0.031 C 
ATOM     40  C   UNL A   1      39.278  27.069  29.772  1.00  0.00     0.029 A 
ATOM     41  N   UNL A   1      40.848  28.630  29.449  1.00  0.00    -0.354 N 
ATOM     42  C   UNL A   1      44.419  27.717  27.129  1.00  0.00     0.074 A 
ATOM     43  C   UNL A   1      44.427  26.332  26.718  1.00  0.00     0.031 C 
ATOM     44  C   UNL A   1      38.880  28.182  30.411  1.00  0.00     0.029 A 
ATOM     45  C   UNL A   1      39.887  29.225  30.231  1.00  0.00     0.049 A 
ATOM     46  H   UNL A   1      41.659  29.097  29.143  1.00  0.00     0.167 HD
ATOM     47  C   UNL A   1      45.391  28.607  26.820  1.00  0.00     0.034 A 
ATOM     48  C   UNL A   1      39.829  30.474  30.737  1.00  0.00     0.034 A 
ATOM     49  C   UNL A   1      45.365  29.984  27.225  1.00  0.00     0.049 A 
ATOM     50  C   UNL A   1      40.917  31.450  30.367  1.00  0.00     0.074 A 
ATOM     51  C   UNL A   1      46.294  30.977  26.974  1.00  0.00     0.029 A 
ATOM     52  N   UNL A   1      44.347  30.564  27.968  1.00  0.00    -0.354 N 
ATOM     53  N   UNL A   1      41.970  31.260  29.607  1.00  0.00    -0.248 NA
ATOM     54  C   UNL A   1      40.789  32.819  30.884  1.00  0.00     0.031 C 
ATOM     55  C   UNL A   1      45.837  32.158  27.570  1.00  0.00     0.029 A 
ATOM     56  C   UNL A   1      44.619  31.902  28.182  1.00  0.00     0.049 A 
ATOM     57  H   UNL A   1      43.548  30.091  28.295  1.00  0.00     0.167 HD
ATOM     58  C   UNL A   1      42.617  32.489  29.535  1.00  0.00     0.074 A 
ATOM     59  C   UNL A   1      41.819  33.423  30.306  1.00  0.00     0.031 C 
ATOM     60  C   UNL A   1      43.776  32.814  28.910  1.00  0.00     0.034 A 
BRANCH  47  61
ATOM     61  C   UNL A   1      46.531  28.123  25.960  1.00  0.00     0.023 A 
ATOM     62  C   UNL A   1      46.377  28.116  24.558  1.00  0.00     0.012 A 
ATOM     63  C   UNL A   1      47.756  27.715  26.523  1.00  0.00     0.148 A 
ATOM     64  C   UNL A   1      47.414  27.685  23.730  1.00  0.00     0.002 A 
ATOM     65  C   UNL A   1      48.797  27.319  25.689  1.00  0.00     0.091 A 
ATOM     66  F   UNL A   1      47.876  27.710  27.858  1.00  0.00    -0.205 F 
ATOM     67  C   UNL A   1      48.625  27.294  24.295  1.00  0.00     0.022 A 
BRANCH  65  68
ATOM     68  S   UNL A   1      50.416  26.846  26.309  1.00  0.00     0.127 S 
ATOM     69  O   UNL A   1      50.986  26.156  25.154  1.00  0.00    -0.237 OA
ATOM     70  O   UNL A   1      51.023  28.145  26.604  1.00  0.00    -0.237 OA
ATOM     71  O   UNL A   1      50.172  26.009  27.476  1.00  0.00    -0.744 OA
ENDBRANCH  65  68
ENDBRANCH  47  61
BRANCH  48  72
ATOM     72  C   UNL A   1      38.671  30.879  31.586  1.00  0.00     0.023 A 
ATOM     73  C   UNL A   1      38.741  30.738  32.985  1.00  0.00     0.012 A 
ATOM     74  C   UNL A   1      37.516  31.450  31.016  1.00  0.00     0.148 A 
ATOM     75  C   UNL A   1      37.676  31.136  33.796  1.00  0.00     0.002 A 
ATOM     76  C   UNL A   1      36.483  31.898  31.833  1.00  0.00     0.091 A 
ATOM     77  F   UNL A   1      37.448  31.555  29.680  1.00  0.00    -0.205 F 
ATOM     78  C   UNL A   1      36.554  31.729  33.223  1.00  0.00     0.022 A 
BRANCH  76  79
ATOM     79  S   UNL A   1      35.085  32.805  31.162  1.00  0.00     0.127 S 
ATOM     80  O   UNL A   1      34.785  32.046  29.951  1.00  0.00    -0.237 OA
ATOM     81  O   UNL A   1      34.089  32.683  32.227  1.00  0.00    -0.237 OA
ATOM     82  O   UNL A   1      35.578  34.163  30.968  1.00  0.00    -0.744 OA
ENDBRANCH  76  79
ENDBRANCH  48  72
BRANCH  60  83
ATOM     83  C   UNL A   1      44.245  34.239  29.025  1.00  0.00     0.023 A 
ATOM     84  C   UNL A   1      43.841  35.180  28.059  1.00  0.00     0.012 A 
ATOM     85  C   UNL A   1      45.010  34.661  30.129  1.00  0.00     0.148 A 
ATOM     86  C   UNL A   1      44.213  36.517  28.175  1.00  0.00     0.002 A 
ATOM     87  C   UNL A   1      45.344  36.004  30.260  1.00  0.00     0.091 A 
ATOM     88  F   UNL A   1      45.401  33.744  31.027  1.00  0.00    -0.205 F 
ATOM     89  C   UNL A   1      44.954  36.931  29.280  1.00  0.00     0.022 A 
BRANCH  87  90
ATOM     90  S   UNL A   1      46.219  36.634  31.695  1.00  0.00     0.127 S 
ATOM     91  O   UNL A   1      47.614  36.468  31.290  1.00  0.00    -0.237 OA
ATOM     92  O   UNL A   1      45.763  38.023  31.756  1.00  0.00    -0.237 OA
ATOM     93  O   UNL A   1      45.786  35.811  32.817  1.00  0.00    -0.744 OA
ENDBRANCH  87  90
ENDBRANCH  60  83
ENDBRANCH  34  35
ENDBRANCH  27  29
ENDBRANCH  26  27
ENDBRANCH  25  26
ENDBRANCH  24  25
ENDBRANCH  23  24
ENDBRANCH   1  23
TORSDOF 21
ENDMDL
