MODEL 1
REMARK VINA RESULT:     -11.1      0.000      0.000
REMARK SMILES O=C(OCCOCCOC(=O)c1cccc(NC(=S)N/N=C\c2c[nH]c3ccccc23)c1)c1ccc(-c2c3nc(c(-c4cccc(S(=O)(=O)[O-])c4F)c4ccc([nH]4)c(-c4cccc(S(=O)(=O)[O-])c4F)c4nc(c(-c5cccc(S(=O)(=O)[O-])c5F)c5ccc2[nH]5)C=C4)C=C3)cc1
REMARK SMILES IDX 7 1 6 2 5 3 4 4 3 5 2 6 1 7 33 8 34 9 95 10 35 11 94 12
REMARK SMILES IDX 36 13 37 14 38 15 88 16 39 17 93 18 87 19 89 20 40 21 92 22
REMARK SMILES IDX 86 23 85 24 41 26 73 27 53 28 72 29 54 30 57 31 71 32 90 33
REMARK SMILES IDX 55 34 56 35 70 37 91 38 58 39 42 40 43 41 51 42 44 43 46 44
REMARK SMILES IDX 52 45 45 46 47 47 48 48 49 49 50 50 74 51 75 52 83 53 76 54
REMARK SMILES IDX 78 55 84 56 77 57 79 58 80 59 81 60 82 61 59 62 60 63 68 64
REMARK SMILES IDX 61 65 63 66 69 67 62 68 64 69 65 70 66 71 67 72 8 73 9 74
REMARK SMILES IDX 10 75 11 76 12 77 13 78 32 79 14 80 16 81 15 82 17 83 18 85
REMARK SMILES IDX 19 86 20 87 21 89 22 90 23 91 24 92 31 93 25 94 26 95 30 96
REMARK SMILES IDX 27 98 29 99 28 100
REMARK H PARENT 89 25 57 36 17 84 20 88 25 97
REMARK Flexibility Score: inf
ROOT
ATOM      1  C   UNL A   1      33.518  28.915  22.787  1.00  0.00     0.202 C 
ENDROOT
BRANCH   1   2
ATOM      2  O   UNL A   1      32.178  28.761  23.278  1.00  0.00    -0.374 OA
BRANCH   2   3
ATOM      3  C   UNL A   1      32.035  28.629  24.693  1.00  0.00     0.202 C 
BRANCH   3   4
ATOM      4  C   UNL A   1      33.113  29.312  25.535  1.00  0.00     0.261 C 
BRANCH   4   5
ATOM      5  O   UNL A   1      32.654  30.600  25.971  1.00  0.00    -0.460 OA
BRANCH   5   6
ATOM      6  C   UNL A   1      33.173  31.373  26.954  1.00  0.00     0.338 C 
ATOM      7  O   UNL A   1      32.634  32.450  27.198  1.00  0.00    -0.246 OA
BRANCH   6   8
ATOM      8  C   UNL A   1      34.377  30.984  27.748  1.00  0.00     0.060 A 
ATOM      9  C   UNL A   1      34.574  29.726  28.322  1.00  0.00     0.016 A 
ATOM     10  C   UNL A   1      35.419  31.920  27.839  1.00  0.00     0.016 A 
ATOM     11  C   UNL A   1      35.725  29.419  29.028  1.00  0.00     0.010 A 
ATOM     12  C   UNL A   1      36.608  31.601  28.501  1.00  0.00     0.010 A 
ATOM     13  C   UNL A   1      36.753  30.349  29.109  1.00  0.00    -0.014 A 
BRANCH  13  14
ATOM     14  C   UNL A   1      37.946  29.985  29.890  1.00  0.00     0.031 A 
ATOM     15  C   UNL A   1      38.970  29.098  29.258  1.00  0.00     0.074 A 
ATOM     16  C   UNL A   1      38.130  30.542  31.101  1.00  0.00     0.049 A 
ATOM     17  N   UNL A   1      40.078  28.635  29.764  1.00  0.00    -0.248 NA
ATOM     18  C   UNL A   1      38.721  28.688  27.865  1.00  0.00     0.031 C 
ATOM     19  C   UNL A   1      37.213  31.491  31.740  1.00  0.00     0.029 A 
ATOM     20  N   UNL A   1      39.149  30.407  32.004  1.00  0.00    -0.354 N 
ATOM     21  C   UNL A   1      40.634  27.836  28.773  1.00  0.00     0.074 A 
ATOM     22  C   UNL A   1      39.754  27.894  27.627  1.00  0.00     0.031 C 
ATOM     23  C   UNL A   1      37.713  31.852  32.931  1.00  0.00     0.029 A 
ATOM     24  C   UNL A   1      38.948  31.115  33.165  1.00  0.00     0.049 A 
ATOM     25  H   UNL A   1      39.948  29.855  31.837  1.00  0.00     0.167 HD
ATOM     26  C   UNL A   1      41.775  27.114  28.830  1.00  0.00     0.034 A 
ATOM     27  C   UNL A   1      39.671  31.130  34.300  1.00  0.00     0.034 A 
ATOM     28  C   UNL A   1      42.630  27.088  29.982  1.00  0.00     0.049 A 
ATOM     29  C   UNL A   1      40.915  30.283  34.346  1.00  0.00     0.074 A 
ATOM     30  C   UNL A   1      43.794  26.370  30.180  1.00  0.00     0.029 A 
ATOM     31  N   UNL A   1      42.403  27.818  31.143  1.00  0.00    -0.354 N 
ATOM     32  N   UNL A   1      41.445  29.547  33.398  1.00  0.00    -0.248 NA
ATOM     33  C   UNL A   1      41.666  30.274  35.607  1.00  0.00     0.031 C 
ATOM     34  C   UNL A   1      44.257  26.648  31.470  1.00  0.00     0.029 A 
ATOM     35  C   UNL A   1      43.400  27.562  32.065  1.00  0.00     0.049 A 
ATOM     36  H   UNL A   1      41.643  28.427  31.287  1.00  0.00     0.167 HD
ATOM     37  C   UNL A   1      42.604  29.006  33.936  1.00  0.00     0.074 A 
ATOM     38  C   UNL A   1      42.711  29.523  35.288  1.00  0.00     0.031 C 
ATOM     39  C   UNL A   1      43.491  28.145  33.381  1.00  0.00     0.034 A 
BRANCH  26  40
ATOM     40  C   UNL A   1      42.126  26.280  27.630  1.00  0.00     0.023 A 
ATOM     41  C   UNL A   1      42.727  26.876  26.505  1.00  0.00     0.012 A 
ATOM     42  C   UNL A   1      41.852  24.899  27.620  1.00  0.00     0.148 A 
ATOM     43  C   UNL A   1      43.022  26.115  25.373  1.00  0.00     0.002 A 
ATOM     44  C   UNL A   1      42.182  24.139  26.504  1.00  0.00     0.091 A 
ATOM     45  F   UNL A   1      41.252  24.359  28.690  1.00  0.00    -0.205 F 
ATOM     46  C   UNL A   1      42.757  24.748  25.375  1.00  0.00     0.022 A 
BRANCH  44  47
ATOM     47  S   UNL A   1      41.928  22.364  26.428  1.00  0.00     0.127 S 
ATOM     48  O   UNL A   1      40.472  22.280  26.317  1.00  0.00    -0.237 OA
ATOM     49  O   UNL A   1      42.654  22.004  25.210  1.00  0.00    -0.237 OA
ATOM     50  O   UNL A   1      42.488  21.822  27.657  1.00  0.00    -0.744 OA
ENDBRANCH  44  47
ENDBRANCH  26  40
BRANCH  27  51
ATOM     51  C   UNL A   1      39.238  31.953  35.467  1.00  0.00     0.023 A 
ATOM     52  C   UNL A   1      38.374  31.402  36.433  1.00  0.00     0.012 A 
ATOM     53  C   UNL A   1      39.687  33.279  35.632  1.00  0.00     0.148 A 
ATOM     54  C   UNL A   1      37.942  32.165  37.521  1.00  0.00     0.002 A 
ATOM     55  C   UNL A   1      39.300  34.014  36.747  1.00  0.00     0.091 A 
ATOM     56  F   UNL A   1      40.489  33.802  34.692  1.00  0.00    -0.205 F 
ATOM     57  C   UNL A   1      38.413  33.465  37.685  1.00  0.00     0.022 A 
BRANCH  55  58
ATOM     58  S   UNL A   1      39.968  35.646  37.094  1.00  0.00     0.127 S 
ATOM     59  O   UNL A   1      39.266  36.001  38.324  1.00  0.00    -0.237 OA
ATOM     60  O   UNL A   1      41.395  35.366  37.258  1.00  0.00    -0.237 OA
ATOM     61  O   UNL A   1      39.651  36.451  35.923  1.00  0.00    -0.744 OA
ENDBRANCH  55  58
ENDBRANCH  27  51
BRANCH  39  62
ATOM     62  C   UNL A   1      44.670  27.738  34.220  1.00  0.00     0.023 A 
ATOM     63  C   UNL A   1      45.881  28.446  34.111  1.00  0.00     0.012 A 
ATOM     64  C   UNL A   1      44.539  26.717  35.180  1.00  0.00     0.148 A 
ATOM     65  C   UNL A   1      46.959  28.126  34.934  1.00  0.00     0.002 A 
ATOM     66  C   UNL A   1      45.600  26.439  36.031  1.00  0.00     0.091 A 
ATOM     67  F   UNL A   1      43.381  26.045  35.247  1.00  0.00    -0.205 F 
ATOM     68  C   UNL A   1      46.814  27.133  35.902  1.00  0.00     0.022 A 
BRANCH  66  69
ATOM     69  S   UNL A   1      45.460  25.257  37.375  1.00  0.00     0.127 S 
ATOM     70  O   UNL A   1      45.398  23.989  36.649  1.00  0.00    -0.237 OA
ATOM     71  O   UNL A   1      46.704  25.478  38.113  1.00  0.00    -0.237 OA
ATOM     72  O   UNL A   1      44.254  25.621  38.105  1.00  0.00    -0.744 OA
ENDBRANCH  66  69
ENDBRANCH  39  62
ENDBRANCH  13  14
ENDBRANCH   6   8
ENDBRANCH   5   6
ENDBRANCH   4   5
ENDBRANCH   3   4
ENDBRANCH   2   3
ENDBRANCH   1   2
BRANCH   1  73
ATOM     73  C   UNL A   1      33.911  27.668  21.984  1.00  0.00     0.261 C 
BRANCH  73  74
ATOM     74  O   UNL A   1      32.711  26.926  21.712  1.00  0.00    -0.460 OA
BRANCH  74  75
ATOM     75  C   UNL A   1      32.881  25.578  21.835  1.00  0.00     0.338 C 
ATOM     76  O   UNL A   1      33.274  24.821  20.985  1.00  0.00    -0.246 OA
BRANCH  75  77
ATOM     77  C   UNL A   1      32.710  25.219  23.269  1.00  0.00     0.062 A 
ATOM     78  C   UNL A   1      31.405  25.108  23.765  1.00  0.00     0.016 A 
ATOM     79  C   UNL A   1      33.798  24.873  24.075  1.00  0.00     0.041 A 
ATOM     80  C   UNL A   1      31.186  24.632  25.057  1.00  0.00     0.003 A 
ATOM     81  C   UNL A   1      33.573  24.491  25.395  1.00  0.00     0.041 A 
ATOM     82  C   UNL A   1      32.271  24.330  25.871  1.00  0.00     0.026 A 
BRANCH  81  83
ATOM     83  N   UNL A   1      34.671  24.257  26.228  1.00  0.00    -0.331 N 
ATOM     84  H   UNL A   1      34.790  24.887  26.975  1.00  0.00     0.169 HD
BRANCH  83  85
ATOM     85  C   UNL A   1      35.593  23.262  26.127  1.00  0.00     0.191 C 
ATOM     86  S   UNL A   1      37.178  23.680  25.760  1.00  0.00    -0.039 S 
BRANCH  85  87
ATOM     87  N   UNL A   1      35.303  21.963  26.457  1.00  0.00    -0.254 N 
ATOM     88  H   UNL A   1      35.956  21.288  26.163  1.00  0.00     0.193 HD
BRANCH  87  89
ATOM     89  N   UNL A   1      34.207  21.478  27.152  1.00  0.00    -0.181 NA
ATOM     90  C   UNL A   1      33.276  20.807  26.520  1.00  0.00     0.143 C 
BRANCH  90  91
ATOM     91  C   UNL A   1      33.365  20.482  25.113  1.00  0.00     0.020 A 
ATOM     92  C   UNL A   1      32.697  21.166  24.118  1.00  0.00     0.093 A 
ATOM     93  C   UNL A   1      33.845  19.310  24.475  1.00  0.00     0.008 A 
ATOM     94  N   UNL A   1      32.152  20.174  23.345  1.00  0.00    -0.361 N 
ATOM     95  C   UNL A   1      32.814  18.998  23.590  1.00  0.00     0.046 A 
ATOM     96  C   UNL A   1      34.895  18.390  24.627  1.00  0.00     0.011 A 
ATOM     97  H   UNL A   1      31.404  20.289  22.714  1.00  0.00     0.166 HD
ATOM     98  C   UNL A   1      32.594  17.714  23.105  1.00  0.00     0.027 A 
ATOM     99  C   UNL A   1      34.815  17.175  23.931  1.00  0.00     0.001 A 
ATOM    100  C   UNL A   1      33.642  16.809  23.268  1.00  0.00     0.002 A 
ENDBRANCH  90  91
ENDBRANCH  87  89
ENDBRANCH  85  87
ENDBRANCH  83  85
ENDBRANCH  81  83
ENDBRANCH  75  77
ENDBRANCH  74  75
ENDBRANCH  73  74
ENDBRANCH   1  73
TORSDOF 22
ENDMDL
MODEL 2
REMARK VINA RESULT:     -10.6      2.494      8.166
REMARK SMILES O=C(OCCOCCOC(=O)c1cccc(NC(=S)N/N=C\c2c[nH]c3ccccc23)c1)c1ccc(-c2c3nc(c(-c4cccc(S(=O)(=O)[O-])c4F)c4ccc([nH]4)c(-c4cccc(S(=O)(=O)[O-])c4F)c4nc(c(-c5cccc(S(=O)(=O)[O-])c5F)c5ccc2[nH]5)C=C4)C=C3)cc1
REMARK SMILES IDX 7 1 6 2 5 3 4 4 3 5 2 6 1 7 33 8 34 9 95 10 35 11 94 12
REMARK SMILES IDX 36 13 37 14 38 15 88 16 39 17 93 18 87 19 89 20 40 21 92 22
REMARK SMILES IDX 86 23 85 24 41 26 73 27 53 28 72 29 54 30 57 31 71 32 90 33
REMARK SMILES IDX 55 34 56 35 70 37 91 38 58 39 42 40 43 41 51 42 44 43 46 44
REMARK SMILES IDX 52 45 45 46 47 47 48 48 49 49 50 50 74 51 75 52 83 53 76 54
REMARK SMILES IDX 78 55 84 56 77 57 79 58 80 59 81 60 82 61 59 62 60 63 68 64
REMARK SMILES IDX 61 65 63 66 69 67 62 68 64 69 65 70 66 71 67 72 8 73 9 74
REMARK SMILES IDX 10 75 11 76 12 77 13 78 32 79 14 80 16 81 15 82 17 83 18 85
REMARK SMILES IDX 19 86 20 87 21 89 22 90 23 91 24 92 31 93 25 94 26 95 30 96
REMARK SMILES IDX 27 98 29 99 28 100
REMARK H PARENT 89 25 57 36 17 84 20 88 25 97
REMARK Flexibility Score: inf
ROOT
ATOM      1  C   UNL A   1      31.924  28.666  24.430  1.00  0.00     0.202 C 
ENDROOT
BRANCH   1   2
ATOM      2  O   UNL A   1      31.614  28.145  25.730  1.00  0.00    -0.374 OA
BRANCH   2   3
ATOM      3  C   UNL A   1      32.725  27.728  26.526  1.00  0.00     0.202 C 
BRANCH   3   4
ATOM      4  C   UNL A   1      34.006  28.544  26.355  1.00  0.00     0.261 C 
BRANCH   4   5
ATOM      5  O   UNL A   1      33.819  29.868  26.877  1.00  0.00    -0.460 OA
BRANCH   5   6
ATOM      6  C   UNL A   1      34.581  30.511  27.793  1.00  0.00     0.338 C 
ATOM      7  O   UNL A   1      34.129  31.522  28.326  1.00  0.00    -0.246 OA
BRANCH   6   8
ATOM      8  C   UNL A   1      35.951  30.055  28.178  1.00  0.00     0.060 A 
ATOM      9  C   UNL A   1      37.102  30.274  27.418  1.00  0.00     0.016 A 
ATOM     10  C   UNL A   1      36.098  29.449  29.435  1.00  0.00     0.016 A 
ATOM     11  C   UNL A   1      38.349  29.847  27.842  1.00  0.00     0.010 A 
ATOM     12  C   UNL A   1      37.360  29.063  29.898  1.00  0.00     0.010 A 
ATOM     13  C   UNL A   1      38.486  29.252  29.090  1.00  0.00    -0.014 A 
BRANCH  13  14
ATOM     14  C   UNL A   1      39.827  28.793  29.485  1.00  0.00     0.031 A 
ATOM     15  C   UNL A   1      40.520  29.495  30.609  1.00  0.00     0.074 A 
ATOM     16  C   UNL A   1      40.342  27.697  28.900  1.00  0.00     0.049 A 
ATOM     17  N   UNL A   1      41.704  29.277  31.106  1.00  0.00    -0.248 NA
ATOM     18  C   UNL A   1      39.774  30.579  31.271  1.00  0.00     0.031 C 
ATOM     19  C   UNL A   1      39.678  26.907  27.858  1.00  0.00     0.029 A 
ATOM     20  N   UNL A   1      41.530  27.048  29.101  1.00  0.00    -0.354 N 
ATOM     21  C   UNL A   1      41.870  30.228  32.103  1.00  0.00     0.074 A 
ATOM     22  C   UNL A   1      40.657  31.013  32.158  1.00  0.00     0.031 C 
ATOM     23  C   UNL A   1      40.468  25.878  27.514  1.00  0.00     0.029 A 
ATOM     24  C   UNL A   1      41.715  25.974  28.262  1.00  0.00     0.049 A 
ATOM     25  H   UNL A   1      42.187  27.324  29.780  1.00  0.00     0.167 HD
ATOM     26  C   UNL A   1      42.949  30.426  32.892  1.00  0.00     0.034 A 
ATOM     27  C   UNL A   1      42.793  25.185  28.098  1.00  0.00     0.034 A 
ATOM     28  C   UNL A   1      44.134  29.620  32.817  1.00  0.00     0.049 A 
ATOM     29  C   UNL A   1      43.994  25.458  28.963  1.00  0.00     0.074 A 
ATOM     30  C   UNL A   1      45.309  29.741  33.534  1.00  0.00     0.029 A 
ATOM     31  N   UNL A   1      44.293  28.538  31.960  1.00  0.00    -0.354 N 
ATOM     32  N   UNL A   1      44.136  26.346  29.920  1.00  0.00    -0.248 NA
ATOM     33  C   UNL A   1      45.178  24.619  28.741  1.00  0.00     0.031 C 
ATOM     34  C   UNL A   1      46.187  28.745  33.092  1.00  0.00     0.029 A 
ATOM     35  C   UNL A   1      45.548  27.985  32.123  1.00  0.00     0.049 A 
ATOM     36  H   UNL A   1      43.610  28.213  31.329  1.00  0.00     0.167 HD
ATOM     37  C   UNL A   1      45.412  26.159  30.430  1.00  0.00     0.074 A 
ATOM     38  C   UNL A   1      45.993  25.052  29.692  1.00  0.00     0.031 C 
ATOM     39  C   UNL A   1      46.061  26.847  31.401  1.00  0.00     0.034 A 
BRANCH  26  40
ATOM     40  C   UNL A   1      42.896  31.573  33.862  1.00  0.00     0.023 A 
ATOM     41  C   UNL A   1      43.463  32.816  33.521  1.00  0.00     0.012 A 
ATOM     42  C   UNL A   1      42.283  31.412  35.120  1.00  0.00     0.148 A 
ATOM     43  C   UNL A   1      43.449  33.874  34.430  1.00  0.00     0.002 A 
ATOM     44  C   UNL A   1      42.240  32.481  36.007  1.00  0.00     0.091 A 
ATOM     45  F   UNL A   1      41.777  30.212  35.435  1.00  0.00    -0.205 F 
ATOM     46  C   UNL A   1      42.832  33.710  35.668  1.00  0.00     0.022 A 
BRANCH  44  47
ATOM     47  S   UNL A   1      41.426  32.386  37.603  1.00  0.00     0.127 S 
ATOM     48  O   UNL A   1      42.302  31.465  38.326  1.00  0.00    -0.237 OA
ATOM     49  O   UNL A   1      41.488  33.773  38.062  1.00  0.00    -0.237 OA
ATOM     50  O   UNL A   1      40.083  31.888  37.344  1.00  0.00    -0.744 OA
ENDBRANCH  44  47
ENDBRANCH  26  40
BRANCH  27  51
ATOM     51  C   UNL A   1      42.787  24.090  27.085  1.00  0.00     0.023 A 
ATOM     52  C   UNL A   1      43.416  24.281  25.840  1.00  0.00     0.012 A 
ATOM     53  C   UNL A   1      42.169  22.851  27.353  1.00  0.00     0.148 A 
ATOM     54  C   UNL A   1      43.404  23.274  24.873  1.00  0.00     0.002 A 
ATOM     55  C   UNL A   1      42.210  21.832  26.408  1.00  0.00     0.091 A 
ATOM     56  F   UNL A   1      41.551  22.688  28.532  1.00  0.00    -0.205 F 
ATOM     57  C   UNL A   1      42.811  22.046  25.160  1.00  0.00     0.022 A 
BRANCH  55  58
ATOM     58  S   UNL A   1      41.586  20.183  26.756  1.00  0.00     0.127 S 
ATOM     59  O   UNL A   1      42.497  19.733  27.805  1.00  0.00    -0.237 OA
ATOM     60  O   UNL A   1      40.220  20.458  27.204  1.00  0.00    -0.237 OA
ATOM     61  O   UNL A   1      41.663  19.465  25.491  1.00  0.00    -0.744 OA
ENDBRANCH  55  58
ENDBRANCH  27  51
BRANCH  39  62
ATOM     62  C   UNL A   1      47.454  26.400  31.745  1.00  0.00     0.023 A 
ATOM     63  C   UNL A   1      48.551  26.927  31.038  1.00  0.00     0.012 A 
ATOM     64  C   UNL A   1      47.672  25.532  32.831  1.00  0.00     0.148 A 
ATOM     65  C   UNL A   1      49.852  26.575  31.395  1.00  0.00     0.002 A 
ATOM     66  C   UNL A   1      48.972  25.228  33.213  1.00  0.00     0.091 A 
ATOM     67  F   UNL A   1      46.609  25.028  33.473  1.00  0.00    -0.205 F 
ATOM     68  C   UNL A   1      50.062  25.739  32.489  1.00  0.00     0.022 A 
BRANCH  66  69
ATOM     69  S   UNL A   1      49.333  24.251  34.675  1.00  0.00     0.127 S 
ATOM     70  O   UNL A   1      48.621  23.008  34.384  1.00  0.00    -0.237 OA
ATOM     71  O   UNL A   1      50.792  24.145  34.626  1.00  0.00    -0.237 OA
ATOM     72  O   UNL A   1      48.823  25.016  35.804  1.00  0.00    -0.744 OA
ENDBRANCH  66  69
ENDBRANCH  39  62
ENDBRANCH  13  14
ENDBRANCH   6   8
ENDBRANCH   5   6
ENDBRANCH   4   5
ENDBRANCH   3   4
ENDBRANCH   2   3
ENDBRANCH   1   2
BRANCH   1  73
ATOM     73  C   UNL A   1      31.806  27.541  23.392  1.00  0.00     0.261 C 
BRANCH  73  74
ATOM     74  O   UNL A   1      30.767  26.650  23.829  1.00  0.00    -0.460 OA
BRANCH  74  75
ATOM     75  C   UNL A   1      30.960  25.366  23.411  1.00  0.00     0.338 C 
ATOM     76  O   UNL A   1      31.295  25.009  22.310  1.00  0.00    -0.246 OA
BRANCH  75  77
ATOM     77  C   UNL A   1      30.901  24.477  24.603  1.00  0.00     0.062 A 
ATOM     78  C   UNL A   1      30.244  24.954  25.745  1.00  0.00     0.016 A 
ATOM     79  C   UNL A   1      31.365  23.160  24.562  1.00  0.00     0.041 A 
ATOM     80  C   UNL A   1      30.032  24.111  26.833  1.00  0.00     0.003 A 
ATOM     81  C   UNL A   1      31.234  22.355  25.691  1.00  0.00     0.041 A 
ATOM     82  C   UNL A   1      30.533  22.814  26.806  1.00  0.00     0.026 A 
BRANCH  81  83
ATOM     83  N   UNL A   1      31.802  21.078  25.681  1.00  0.00    -0.331 N 
ATOM     84  H   UNL A   1      31.442  20.439  26.338  1.00  0.00     0.169 HD
BRANCH  83  85
ATOM     85  C   UNL A   1      32.791  20.614  24.871  1.00  0.00     0.191 C 
ATOM     86  S   UNL A   1      32.369  20.020  23.358  1.00  0.00    -0.039 S 
BRANCH  85  87
ATOM     87  N   UNL A   1      34.119  20.753  25.189  1.00  0.00    -0.254 N 
ATOM     88  H   UNL A   1      34.372  21.606  25.611  1.00  0.00     0.193 HD
BRANCH  87  89
ATOM     89  N   UNL A   1      35.148  19.848  24.992  1.00  0.00    -0.181 NA
ATOM     90  C   UNL A   1      36.375  20.278  24.828  1.00  0.00     0.143 C 
BRANCH  90  91
ATOM     91  C   UNL A   1      36.731  21.678  24.907  1.00  0.00     0.020 A 
ATOM     92  C   UNL A   1      37.664  22.190  25.786  1.00  0.00     0.093 A 
ATOM     93  C   UNL A   1      36.065  22.820  24.394  1.00  0.00     0.008 A 
ATOM     94  N   UNL A   1      37.043  23.289  26.321  1.00  0.00    -0.361 N 
ATOM     95  C   UNL A   1      36.011  23.667  25.500  1.00  0.00     0.046 A 
ATOM     96  C   UNL A   1      35.365  23.191  23.234  1.00  0.00     0.011 A 
ATOM     97  H   UNL A   1      37.299  23.736  27.160  1.00  0.00     0.166 HD
ATOM     98  C   UNL A   1      35.061  24.672  25.638  1.00  0.00     0.027 A 
ATOM     99  C   UNL A   1      34.593  24.361  23.275  1.00  0.00     0.001 A 
ATOM    100  C   UNL A   1      34.369  25.026  24.481  1.00  0.00     0.002 A 
ENDBRANCH  90  91
ENDBRANCH  87  89
ENDBRANCH  85  87
ENDBRANCH  83  85
ENDBRANCH  81  83
ENDBRANCH  75  77
ENDBRANCH  74  75
ENDBRANCH  73  74
ENDBRANCH   1  73
TORSDOF 22
ENDMDL
MODEL 3
REMARK VINA RESULT:     -10.1      5.561      8.990
REMARK SMILES O=C(OCCOCCOC(=O)c1cccc(NC(=S)N/N=C\c2c[nH]c3ccccc23)c1)c1ccc(-c2c3nc(c(-c4cccc(S(=O)(=O)[O-])c4F)c4ccc([nH]4)c(-c4cccc(S(=O)(=O)[O-])c4F)c4nc(c(-c5cccc(S(=O)(=O)[O-])c5F)c5ccc2[nH]5)C=C4)C=C3)cc1
REMARK SMILES IDX 7 1 6 2 5 3 4 4 3 5 2 6 1 7 33 8 34 9 95 10 35 11 94 12
REMARK SMILES IDX 36 13 37 14 38 15 88 16 39 17 93 18 87 19 89 20 40 21 92 22
REMARK SMILES IDX 86 23 85 24 41 26 73 27 53 28 72 29 54 30 57 31 71 32 90 33
REMARK SMILES IDX 55 34 56 35 70 37 91 38 58 39 42 40 43 41 51 42 44 43 46 44
REMARK SMILES IDX 52 45 45 46 47 47 48 48 49 49 50 50 74 51 75 52 83 53 76 54
REMARK SMILES IDX 78 55 84 56 77 57 79 58 80 59 81 60 82 61 59 62 60 63 68 64
REMARK SMILES IDX 61 65 63 66 69 67 62 68 64 69 65 70 66 71 67 72 8 73 9 74
REMARK SMILES IDX 10 75 11 76 12 77 13 78 32 79 14 80 16 81 15 82 17 83 18 85
REMARK SMILES IDX 19 86 20 87 21 89 22 90 23 91 24 92 31 93 25 94 26 95 30 96
REMARK SMILES IDX 27 98 29 99 28 100
REMARK H PARENT 89 25 57 36 17 84 20 88 25 97
REMARK Flexibility Score: inf
ROOT
ATOM      1  C   UNL A   1      35.782  19.675  25.005  1.00  0.00     0.202 C 
ENDROOT
BRANCH   1   2
ATOM      2  O   UNL A   1      37.059  20.221  24.645  1.00  0.00    -0.374 OA
BRANCH   2   3
ATOM      3  C   UNL A   1      38.192  19.380  24.869  1.00  0.00     0.202 C 
BRANCH   3   4
ATOM      4  C   UNL A   1      39.257  19.940  25.813  1.00  0.00     0.261 C 
BRANCH   4   5
ATOM      5  O   UNL A   1      40.467  19.178  25.697  1.00  0.00    -0.460 OA
BRANCH   5   6
ATOM      6  C   UNL A   1      41.692  19.492  26.180  1.00  0.00     0.338 C 
ATOM      7  O   UNL A   1      42.491  18.582  26.389  1.00  0.00    -0.246 OA
BRANCH   6   8
ATOM      8  C   UNL A   1      42.114  20.893  26.482  1.00  0.00     0.060 A 
ATOM      9  C   UNL A   1      42.407  21.374  27.760  1.00  0.00     0.016 A 
ATOM     10  C   UNL A   1      42.318  21.754  25.393  1.00  0.00     0.016 A 
ATOM     11  C   UNL A   1      42.816  22.680  27.973  1.00  0.00     0.010 A 
ATOM     12  C   UNL A   1      42.785  23.056  25.590  1.00  0.00     0.010 A 
ATOM     13  C   UNL A   1      43.021  23.523  26.887  1.00  0.00    -0.014 A 
BRANCH  13  14
ATOM     14  C   UNL A   1      43.433  24.908  27.166  1.00  0.00     0.031 A 
ATOM     15  C   UNL A   1      44.841  25.309  26.864  1.00  0.00     0.074 A 
ATOM     16  C   UNL A   1      42.510  25.794  27.580  1.00  0.00     0.049 A 
ATOM     17  N   UNL A   1      45.424  26.459  27.048  1.00  0.00    -0.248 NA
ATOM     18  C   UNL A   1      45.707  24.280  26.260  1.00  0.00     0.031 C 
ATOM     19  C   UNL A   1      41.093  25.491  27.807  1.00  0.00     0.029 A 
ATOM     20  N   UNL A   1      42.614  27.127  27.872  1.00  0.00    -0.354 N 
ATOM     21  C   UNL A   1      46.738  26.282  26.634  1.00  0.00     0.074 A 
ATOM     22  C   UNL A   1      46.863  24.919  26.167  1.00  0.00     0.031 C 
ATOM     23  C   UNL A   1      40.461  26.608  28.201  1.00  0.00     0.029 A 
ATOM     24  C   UNL A   1      41.438  27.684  28.315  1.00  0.00     0.049 A 
ATOM     25  H   UNL A   1      43.451  27.637  27.774  1.00  0.00     0.167 HD
ATOM     26  C   UNL A   1      47.745  27.182  26.655  1.00  0.00     0.034 A 
ATOM     27  C   UNL A   1      41.196  28.918  28.793  1.00  0.00     0.034 A 
ATOM     28  C   UNL A   1      47.581  28.532  27.117  1.00  0.00     0.049 A 
ATOM     29  C   UNL A   1      42.348  29.885  28.842  1.00  0.00     0.074 A 
ATOM     30  C   UNL A   1      48.530  29.530  27.223  1.00  0.00     0.029 A 
ATOM     31  N   UNL A   1      46.378  29.069  27.557  1.00  0.00    -0.354 N 
ATOM     32  N   UNL A   1      43.583  29.716  28.429  1.00  0.00    -0.248 NA
ATOM     33  C   UNL A   1      42.079  31.212  29.409  1.00  0.00     0.031 C 
ATOM     34  C   UNL A   1      47.904  30.664  27.751  1.00  0.00     0.029 A 
ATOM     35  C   UNL A   1      46.559  30.382  27.944  1.00  0.00     0.049 A 
ATOM     36  H   UNL A   1      45.521  28.584  27.588  1.00  0.00     0.167 HD
ATOM     37  C   UNL A   1      44.232  30.920  28.662  1.00  0.00     0.074 A 
ATOM     38  C   UNL A   1      43.244  31.819  29.229  1.00  0.00     0.031 C 
ATOM     39  C   UNL A   1      45.529  31.254  28.452  1.00  0.00     0.034 A 
BRANCH  26  40
ATOM     40  C   UNL A   1      49.100  26.715  26.202  1.00  0.00     0.023 A 
ATOM     41  C   UNL A   1      49.856  25.847  27.013  1.00  0.00     0.012 A 
ATOM     42  C   UNL A   1      49.624  27.145  24.968  1.00  0.00     0.148 A 
ATOM     43  C   UNL A   1      51.130  25.438  26.616  1.00  0.00     0.002 A 
ATOM     44  C   UNL A   1      50.878  26.704  24.561  1.00  0.00     0.091 A 
ATOM     45  F   UNL A   1      48.898  27.995  24.227  1.00  0.00    -0.205 F 
ATOM     46  C   UNL A   1      51.637  25.860  25.389  1.00  0.00     0.022 A 
BRANCH  44  47
ATOM     47  S   UNL A   1      51.597  27.150  22.978  1.00  0.00     0.127 S 
ATOM     48  O   UNL A   1      50.498  26.851  22.061  1.00  0.00    -0.237 OA
ATOM     49  O   UNL A   1      51.871  28.575  23.158  1.00  0.00    -0.237 OA
ATOM     50  O   UNL A   1      52.779  26.316  22.822  1.00  0.00    -0.744 OA
ENDBRANCH  44  47
ENDBRANCH  26  40
BRANCH  27  51
ATOM     51  C   UNL A   1      39.831  29.298  29.263  1.00  0.00     0.023 A 
ATOM     52  C   UNL A   1      38.822  29.589  28.325  1.00  0.00     0.012 A 
ATOM     53  C   UNL A   1      39.523  29.361  30.637  1.00  0.00     0.148 A 
ATOM     54  C   UNL A   1      37.544  29.965  28.746  1.00  0.00     0.002 A 
ATOM     55  C   UNL A   1      38.234  29.680  31.049  1.00  0.00     0.091 A 
ATOM     56  F   UNL A   1      40.498  29.106  31.522  1.00  0.00    -0.205 F 
ATOM     57  C   UNL A   1      37.246  29.999  30.106  1.00  0.00     0.022 A 
BRANCH  55  58
ATOM     58  S   UNL A   1      37.741  29.616  32.776  1.00  0.00     0.127 S 
ATOM     59  O   UNL A   1      37.409  28.203  32.941  1.00  0.00    -0.237 OA
ATOM     60  O   UNL A   1      38.962  30.045  33.462  1.00  0.00    -0.237 OA
ATOM     61  O   UNL A   1      36.632  30.551  32.897  1.00  0.00    -0.744 OA
ENDBRANCH  55  58
ENDBRANCH  27  51
BRANCH  39  62
ATOM     62  C   UNL A   1      45.942  32.656  28.802  1.00  0.00     0.023 A 
ATOM     63  C   UNL A   1      46.558  32.913  30.041  1.00  0.00     0.012 A 
ATOM     64  C   UNL A   1      45.804  33.692  27.860  1.00  0.00     0.148 A 
ATOM     65  C   UNL A   1      47.011  34.195  30.348  1.00  0.00     0.002 A 
ATOM     66  C   UNL A   1      46.304  34.954  28.153  1.00  0.00     0.091 A 
ATOM     67  F   UNL A   1      45.195  33.424  26.696  1.00  0.00    -0.205 F 
ATOM     68  C   UNL A   1      46.897  35.210  29.400  1.00  0.00     0.022 A 
BRANCH  66  69
ATOM     69  S   UNL A   1      46.299  36.285  26.948  1.00  0.00     0.127 S 
ATOM     70  O   UNL A   1      44.887  36.340  26.573  1.00  0.00    -0.237 OA
ATOM     71  O   UNL A   1      46.765  37.423  27.741  1.00  0.00    -0.237 OA
ATOM     72  O   UNL A   1      47.212  35.873  25.892  1.00  0.00    -0.744 OA
ENDBRANCH  66  69
ENDBRANCH  39  62
ENDBRANCH  13  14
ENDBRANCH   6   8
ENDBRANCH   5   6
ENDBRANCH   4   5
ENDBRANCH   3   4
ENDBRANCH   2   3
ENDBRANCH   1   2
BRANCH   1  73
ATOM     73  C   UNL A   1      34.695  20.735  24.781  1.00  0.00     0.261 C 
BRANCH  73  74
ATOM     74  O   UNL A   1      35.307  22.027  24.932  1.00  0.00    -0.460 OA
BRANCH  74  75
ATOM     75  C   UNL A   1      34.780  22.745  25.966  1.00  0.00     0.338 C 
ATOM     76  O   UNL A   1      35.377  23.189  26.913  1.00  0.00    -0.246 OA
BRANCH  75  77
ATOM     77  C   UNL A   1      33.372  23.083  25.624  1.00  0.00     0.062 A 
ATOM     78  C   UNL A   1      32.409  22.984  26.638  1.00  0.00     0.016 A 
ATOM     79  C   UNL A   1      33.022  23.606  24.377  1.00  0.00     0.041 A 
ATOM     80  C   UNL A   1      31.108  23.428  26.413  1.00  0.00     0.003 A 
ATOM     81  C   UNL A   1      31.697  23.957  24.132  1.00  0.00     0.041 A 
ATOM     82  C   UNL A   1      30.753  23.909  25.158  1.00  0.00     0.026 A 
BRANCH  81  83
ATOM     83  N   UNL A   1      31.334  24.372  22.847  1.00  0.00    -0.331 N 
ATOM     84  H   UNL A   1      30.957  23.680  22.258  1.00  0.00     0.169 HD
BRANCH  83  85
ATOM     85  C   UNL A   1      31.441  25.621  22.317  1.00  0.00     0.191 C 
ATOM     86  S   UNL A   1      32.389  25.824  20.945  1.00  0.00    -0.039 S 
BRANCH  85  87
ATOM     87  N   UNL A   1      30.689  26.674  22.774  1.00  0.00    -0.254 N 
ATOM     88  H   UNL A   1      30.354  26.594  23.696  1.00  0.00     0.193 HD
BRANCH  87  89
ATOM     89  N   UNL A   1      30.341  27.834  22.103  1.00  0.00    -0.181 NA
ATOM     90  C   UNL A   1      30.978  28.952  22.356  1.00  0.00     0.143 C 
BRANCH  90  91
ATOM     91  C   UNL A   1      32.094  29.026  23.273  1.00  0.00     0.020 A 
ATOM     92  C   UNL A   1      33.398  29.256  22.886  1.00  0.00     0.093 A 
ATOM     93  C   UNL A   1      32.194  28.610  24.625  1.00  0.00     0.008 A 
ATOM     94  N   UNL A   1      34.117  28.311  23.573  1.00  0.00    -0.361 N 
ATOM     95  C   UNL A   1      33.367  27.856  24.628  1.00  0.00     0.046 A 
ATOM     96  C   UNL A   1      31.402  28.614  25.784  1.00  0.00     0.011 A 
ATOM     97  H   UNL A   1      35.026  28.009  23.345  1.00  0.00     0.166 HD
ATOM     98  C   UNL A   1      33.628  26.865  25.567  1.00  0.00     0.027 A 
ATOM     99  C   UNL A   1      31.797  27.804  26.858  1.00  0.00     0.001 A 
ATOM    100  C   UNL A   1      32.830  26.877  26.709  1.00  0.00     0.002 A 
ENDBRANCH  90  91
ENDBRANCH  87  89
ENDBRANCH  85  87
ENDBRANCH  83  85
ENDBRANCH  81  83
ENDBRANCH  75  77
ENDBRANCH  74  75
ENDBRANCH  73  74
ENDBRANCH   1  73
TORSDOF 22
ENDMDL
