MODEL 1
REMARK VINA RESULT:     -11.6      0.000      0.000
REMARK SMILES CC1=C(CC(=O)OCCOCCOC(=O)c2ccc(-c3c4nc(c(-c5cccc(S(=O)(=O)[O-])c5F)c5ccc([nH]5)c(-c5cccc(S(=O)(=O)[O-])c5F)c5nc(c(-c6cccc(S(=O)(=O)[O-])c6F)c6ccc3[nH]6)C=C5)C=C4)cc2)c2cc(F)ccc2/C1=C\c1cccc(OCc2ccccc2)c1
REMARK SMILES IDX 9 1 8 2 7 3 5 4 6 5 4 6 3 7 1 8 2 9 86 10 79 11 85 12 87 13
REMARK SMILES IDX 80 14 84 15 81 16 83 17 82 18 88 19 89 20 101 21 90 22 92 23
REMARK SMILES IDX 91 24 93 25 94 26 95 27 96 28 100 29 97 30 99 31 98 32 10 33
REMARK SMILES IDX 11 34 12 35 13 36 14 37 15 38 16 39 17 40 78 41 18 42 77 43
REMARK SMILES IDX 19 44 20 45 21 46 71 47 22 48 76 49 70 50 72 51 23 52 75 53
REMARK SMILES IDX 69 54 68 55 24 57 56 58 36 59 55 60 37 61 40 62 54 63 73 64
REMARK SMILES IDX 38 65 39 66 53 68 74 69 41 70 25 71 26 72 34 73 27 74 29 75
REMARK SMILES IDX 35 76 28 77 30 78 31 79 32 80 33 81 57 82 58 83 66 84 59 85
REMARK SMILES IDX 61 86 67 87 60 88 62 89 63 90 64 91 65 92 42 93 43 94 51 95
REMARK SMILES IDX 44 96 46 97 52 98 45 99 47 100 48 101 49 102 50 103
REMARK H PARENT 72 56 40 67
REMARK Flexibility Score: inf
ROOT
ATOM      1  C   UNL A   1      36.177  20.332  24.988  1.00  0.00     0.202 C 
ENDROOT
BRANCH   1   2
ATOM      2  C   UNL A   1      35.814  18.896  24.582  1.00  0.00     0.261 C 
BRANCH   2   3
ATOM      3  O   UNL A   1      34.537  18.436  25.066  1.00  0.00    -0.463 OA
BRANCH   3   4
ATOM      4  C   UNL A   1      33.585  18.236  24.113  1.00  0.00     0.310 C 
ATOM      5  O   UNL A   1      33.669  17.403  23.212  1.00  0.00    -0.252 OA
BRANCH   4   6
ATOM      6  C   UNL A   1      32.357  19.136  24.223  1.00  0.00     0.159 C 
BRANCH   6   7
ATOM      7  C   UNL A   1      32.501  20.599  23.962  1.00  0.00    -0.025 C 
ATOM      8  C   UNL A   1      31.806  20.633  21.531  1.00  0.00     0.045 C 
ATOM      9  C   UNL A   1      32.281  21.260  22.800  1.00  0.00    -0.039 C 
ATOM     10  C   UNL A   1      32.503  22.698  23.006  1.00  0.00    -0.014 C 
ATOM     11  C   UNL A   1      32.772  21.606  25.006  1.00  0.00    -0.011 A 
ATOM     12  C   UNL A   1      32.855  22.883  24.424  1.00  0.00    -0.010 A 
ATOM     13  C   UNL A   1      32.341  23.654  22.076  1.00  0.00     0.017 C 
ATOM     14  C   UNL A   1      32.927  21.458  26.377  1.00  0.00     0.048 A 
ATOM     15  C   UNL A   1      33.212  23.994  25.183  1.00  0.00     0.012 A 
ATOM     16  C   UNL A   1      33.255  22.584  27.135  1.00  0.00     0.123 A 
ATOM     17  C   UNL A   1      33.423  23.838  26.550  1.00  0.00     0.040 A 
ATOM     18  F   UNL A   1      33.474  22.446  28.449  1.00  0.00    -0.207 F 
BRANCH  13  19
ATOM     19  C   UNL A   1      32.405  25.091  22.338  1.00  0.00    -0.021 A 
ATOM     20  C   UNL A   1      33.613  25.788  22.293  1.00  0.00     0.008 A 
ATOM     21  C   UNL A   1      31.219  25.767  22.653  1.00  0.00     0.054 A 
ATOM     22  C   UNL A   1      33.632  27.151  22.584  1.00  0.00     0.004 A 
ATOM     23  C   UNL A   1      31.217  27.150  22.815  1.00  0.00     0.120 A 
ATOM     24  C   UNL A   1      32.436  27.830  22.838  1.00  0.00     0.046 A 
BRANCH  23  25
ATOM     25  O   UNL A   1      30.102  27.933  22.908  1.00  0.00    -0.489 OA
BRANCH  25  26
ATOM     26  C   UNL A   1      30.204  29.189  23.594  1.00  0.00     0.265 C 
BRANCH  26  27
ATOM     27  C   UNL A   1      29.414  30.336  22.983  1.00  0.00    -0.011 A 
ATOM     28  C   UNL A   1      29.072  31.487  23.712  1.00  0.00     0.007 A 
ATOM     29  C   UNL A   1      29.056  30.299  21.627  1.00  0.00     0.007 A 
ATOM     30  C   UNL A   1      28.389  32.552  23.124  1.00  0.00     0.000 A 
ATOM     31  C   UNL A   1      28.379  31.370  21.033  1.00  0.00     0.000 A 
ATOM     32  C   UNL A   1      28.043  32.495  21.782  1.00  0.00     0.000 A 
ENDBRANCH  26  27
ENDBRANCH  25  26
ENDBRANCH  23  25
ENDBRANCH  13  19
ENDBRANCH   6   7
ENDBRANCH   4   6
ENDBRANCH   3   4
ENDBRANCH   2   3
ENDBRANCH   1   2
BRANCH   1  33
ATOM     33  O   UNL A   1      37.395  20.890  24.502  1.00  0.00    -0.374 OA
BRANCH  33  34
ATOM     34  C   UNL A   1      38.497  20.962  25.399  1.00  0.00     0.202 C 
BRANCH  34  35
ATOM     35  C   UNL A   1      39.283  19.679  25.696  1.00  0.00     0.261 C 
BRANCH  35  36
ATOM     36  O   UNL A   1      40.310  19.840  26.674  1.00  0.00    -0.460 OA
BRANCH  36  37
ATOM     37  C   UNL A   1      41.561  19.875  26.159  1.00  0.00     0.338 C 
ATOM     38  O   UNL A   1      42.102  19.037  25.452  1.00  0.00    -0.246 OA
BRANCH  37  39
ATOM     39  C   UNL A   1      42.146  21.189  26.442  1.00  0.00     0.060 A 
ATOM     40  C   UNL A   1      42.330  22.124  25.422  1.00  0.00     0.016 A 
ATOM     41  C   UNL A   1      42.473  21.487  27.770  1.00  0.00     0.016 A 
ATOM     42  C   UNL A   1      42.818  23.388  25.747  1.00  0.00     0.010 A 
ATOM     43  C   UNL A   1      42.954  22.751  28.090  1.00  0.00     0.010 A 
ATOM     44  C   UNL A   1      43.105  23.715  27.085  1.00  0.00    -0.014 A 
BRANCH  44  45
ATOM     45  C   UNL A   1      43.405  25.116  27.456  1.00  0.00     0.031 A 
ATOM     46  C   UNL A   1      44.789  25.674  27.339  1.00  0.00     0.074 A 
ATOM     47  C   UNL A   1      42.400  25.860  27.956  1.00  0.00     0.049 A 
ATOM     48  N   UNL A   1      45.196  26.889  27.589  1.00  0.00    -0.248 NA
ATOM     49  C   UNL A   1      45.853  24.761  26.894  1.00  0.00     0.031 C 
ATOM     50  C   UNL A   1      41.034  25.378  28.181  1.00  0.00     0.029 A 
ATOM     51  N   UNL A   1      42.367  27.163  28.373  1.00  0.00    -0.354 N 
ATOM     52  C   UNL A   1      46.562  26.890  27.345  1.00  0.00     0.074 A 
ATOM     53  C   UNL A   1      46.922  25.548  26.941  1.00  0.00     0.031 C 
ATOM     54  C   UNL A   1      40.290  26.381  28.672  1.00  0.00     0.029 A 
ATOM     55  C   UNL A   1      41.131  27.563  28.823  1.00  0.00     0.049 A 
ATOM     56  H   UNL A   1      43.151  27.758  28.351  1.00  0.00     0.167 HD
ATOM     57  C   UNL A   1      47.427  27.927  27.432  1.00  0.00     0.034 A 
ATOM     58  C   UNL A   1      40.718  28.750  29.306  1.00  0.00     0.034 A 
ATOM     59  C   UNL A   1      47.049  29.258  27.821  1.00  0.00     0.049 A 
ATOM     60  C   UNL A   1      41.695  29.886  29.373  1.00  0.00     0.074 A 
ATOM     61  C   UNL A   1      47.843  30.390  27.873  1.00  0.00     0.029 A 
ATOM     62  N   UNL A   1      45.782  29.636  28.234  1.00  0.00    -0.354 N 
ATOM     63  N   UNL A   1      42.955  29.901  29.012  1.00  0.00    -0.248 NA
ATOM     64  C   UNL A   1      41.198  31.170  29.886  1.00  0.00     0.031 C 
ATOM     65  C   UNL A   1      47.061  31.448  28.340  1.00  0.00     0.029 A 
ATOM     66  C   UNL A   1      45.773  30.981  28.552  1.00  0.00     0.049 A 
ATOM     67  H   UNL A   1      45.004  29.035  28.294  1.00  0.00     0.167 HD
ATOM     68  C   UNL A   1      43.396  31.198  29.229  1.00  0.00     0.074 A 
ATOM     69  C   UNL A   1      42.266  31.945  29.747  1.00  0.00     0.031 C 
ATOM     70  C   UNL A   1      44.629  31.718  29.023  1.00  0.00     0.034 A 
BRANCH  57  71
ATOM     71  C   UNL A   1      48.860  27.699  27.045  1.00  0.00     0.023 A 
ATOM     72  C   UNL A   1      49.754  27.185  28.005  1.00  0.00     0.012 A 
ATOM     73  C   UNL A   1      49.285  27.857  25.712  1.00  0.00     0.148 A 
ATOM     74  C   UNL A   1      51.054  26.831  27.645  1.00  0.00     0.002 A 
ATOM     75  C   UNL A   1      50.573  27.477  25.354  1.00  0.00     0.091 A 
ATOM     76  F   UNL A   1      48.417  28.355  24.821  1.00  0.00    -0.205 F 
ATOM     77  C   UNL A   1      51.458  26.965  26.319  1.00  0.00     0.022 A 
BRANCH  75  78
ATOM     78  S   UNL A   1      51.182  27.562  23.667  1.00  0.00     0.127 S 
ATOM     79  O   UNL A   1      50.215  26.720  22.963  1.00  0.00    -0.237 OA
ATOM     80  O   UNL A   1      51.074  28.991  23.374  1.00  0.00    -0.237 OA
ATOM     81  O   UNL A   1      52.542  27.041  23.700  1.00  0.00    -0.744 OA
ENDBRANCH  75  78
ENDBRANCH  57  71
BRANCH  58  82
ATOM     82  C   UNL A   1      39.291  28.920  29.686  1.00  0.00     0.023 A 
ATOM     83  C   UNL A   1      38.884  28.595  30.993  1.00  0.00     0.012 A 
ATOM     84  C   UNL A   1      38.363  29.486  28.791  1.00  0.00     0.148 A 
ATOM     85  C   UNL A   1      37.571  28.826  31.403  1.00  0.00     0.002 A 
ATOM     86  C   UNL A   1      37.066  29.746  29.216  1.00  0.00     0.091 A 
ATOM     87  F   UNL A   1      38.782  29.792  27.554  1.00  0.00    -0.205 F 
ATOM     88  C   UNL A   1      36.666  29.410  30.519  1.00  0.00     0.022 A 
BRANCH  86  89
ATOM     89  S   UNL A   1      35.857  30.581  28.185  1.00  0.00     0.127 S 
ATOM     90  O   UNL A   1      34.827  30.931  29.160  1.00  0.00    -0.237 OA
ATOM     91  O   UNL A   1      36.631  31.711  27.673  1.00  0.00    -0.237 OA
ATOM     92  O   UNL A   1      35.457  29.611  27.175  1.00  0.00    -0.744 OA
ENDBRANCH  86  89
ENDBRANCH  58  82
BRANCH  70  93
ATOM     93  C   UNL A   1      44.847  33.173  29.326  1.00  0.00     0.023 A 
ATOM     94  C   UNL A   1      45.413  33.546  30.561  1.00  0.00     0.012 A 
ATOM     95  C   UNL A   1      44.648  34.143  28.325  1.00  0.00     0.148 A 
ATOM     96  C   UNL A   1      45.782  34.869  30.792  1.00  0.00     0.002 A 
ATOM     97  C   UNL A   1      45.050  35.453  28.550  1.00  0.00     0.091 A 
ATOM     98  F   UNL A   1      44.105  33.756  27.162  1.00  0.00    -0.205 F 
ATOM     99  C   UNL A   1      45.615  35.818  29.783  1.00  0.00     0.022 A 
BRANCH  97 100
ATOM    100  S   UNL A   1      44.949  36.727  27.290  1.00  0.00     0.127 S 
ATOM    101  O   UNL A   1      45.241  37.933  28.063  1.00  0.00    -0.237 OA
ATOM    102  O   UNL A   1      46.005  36.326  26.361  1.00  0.00    -0.237 OA
ATOM    103  O   UNL A   1      43.598  36.656  26.747  1.00  0.00    -0.744 OA
ENDBRANCH  97 100
ENDBRANCH  70  93
ENDBRANCH  44  45
ENDBRANCH  37  39
ENDBRANCH  36  37
ENDBRANCH  35  36
ENDBRANCH  34  35
ENDBRANCH  33  34
ENDBRANCH   1  33
TORSDOF 22
ENDMDL
MODEL 2
REMARK VINA RESULT:     -11.1      2.326      7.701
REMARK SMILES CC1=C(CC(=O)OCCOCCOC(=O)c2ccc(-c3c4nc(c(-c5cccc(S(=O)(=O)[O-])c5F)c5ccc([nH]5)c(-c5cccc(S(=O)(=O)[O-])c5F)c5nc(c(-c6cccc(S(=O)(=O)[O-])c6F)c6ccc3[nH]6)C=C5)C=C4)cc2)c2cc(F)ccc2/C1=C\c1cccc(OCc2ccccc2)c1
REMARK SMILES IDX 9 1 8 2 7 3 5 4 6 5 4 6 3 7 1 8 2 9 86 10 79 11 85 12 87 13
REMARK SMILES IDX 80 14 84 15 81 16 83 17 82 18 88 19 89 20 101 21 90 22 92 23
REMARK SMILES IDX 91 24 93 25 94 26 95 27 96 28 100 29 97 30 99 31 98 32 10 33
REMARK SMILES IDX 11 34 12 35 13 36 14 37 15 38 16 39 17 40 78 41 18 42 77 43
REMARK SMILES IDX 19 44 20 45 21 46 71 47 22 48 76 49 70 50 72 51 23 52 75 53
REMARK SMILES IDX 69 54 68 55 24 57 56 58 36 59 55 60 37 61 40 62 54 63 73 64
REMARK SMILES IDX 38 65 39 66 53 68 74 69 41 70 25 71 26 72 34 73 27 74 29 75
REMARK SMILES IDX 35 76 28 77 30 78 31 79 32 80 33 81 57 82 58 83 66 84 59 85
REMARK SMILES IDX 61 86 67 87 60 88 62 89 63 90 64 91 65 92 42 93 43 94 51 95
REMARK SMILES IDX 44 96 46 97 52 98 45 99 47 100 48 101 49 102 50 103
REMARK H PARENT 72 56 40 67
REMARK Flexibility Score: inf
ROOT
ATOM      1  C   UNL A   1      37.132  21.525  25.740  1.00  0.00     0.202 C 
ENDROOT
BRANCH   1   2
ATOM      2  C   UNL A   1      35.964  21.840  24.793  1.00  0.00     0.261 C 
BRANCH   2   3
ATOM      3  O   UNL A   1      34.658  21.551  25.329  1.00  0.00    -0.463 OA
BRANCH   3   4
ATOM      4  C   UNL A   1      33.958  20.581  24.678  1.00  0.00     0.310 C 
ATOM      5  O   UNL A   1      34.276  19.394  24.650  1.00  0.00    -0.252 OA
BRANCH   4   6
ATOM      6  C   UNL A   1      32.704  21.063  23.952  1.00  0.00     0.159 C 
BRANCH   6   7
ATOM      7  C   UNL A   1      32.342  22.511  24.006  1.00  0.00    -0.025 C 
ATOM      8  C   UNL A   1      33.503  23.283  21.897  1.00  0.00     0.045 C 
ATOM      9  C   UNL A   1      32.692  23.487  23.134  1.00  0.00    -0.039 C 
ATOM     10  C   UNL A   1      32.081  24.757  23.549  1.00  0.00    -0.014 C 
ATOM     11  C   UNL A   1      31.392  23.095  24.972  1.00  0.00    -0.011 A 
ATOM     12  C   UNL A   1      31.284  24.479  24.756  1.00  0.00    -0.010 A 
ATOM     13  C   UNL A   1      32.189  25.926  22.896  1.00  0.00     0.017 C 
ATOM     14  C   UNL A   1      30.645  22.489  25.973  1.00  0.00     0.048 A 
ATOM     15  C   UNL A   1      30.531  25.281  25.609  1.00  0.00     0.012 A 
ATOM     16  C   UNL A   1      29.868  23.298  26.805  1.00  0.00     0.123 A 
ATOM     17  C   UNL A   1      29.825  24.683  26.649  1.00  0.00     0.040 A 
ATOM     18  F   UNL A   1      29.194  22.738  27.818  1.00  0.00    -0.207 F 
BRANCH  13  19
ATOM     19  C   UNL A   1      31.444  27.139  23.229  1.00  0.00    -0.021 A 
ATOM     20  C   UNL A   1      30.176  27.385  22.702  1.00  0.00     0.008 A 
ATOM     21  C   UNL A   1      32.038  28.073  24.088  1.00  0.00     0.054 A 
ATOM     22  C   UNL A   1      29.518  28.572  23.020  1.00  0.00     0.004 A 
ATOM     23  C   UNL A   1      31.329  29.196  24.508  1.00  0.00     0.120 A 
ATOM     24  C   UNL A   1      30.091  29.471  23.924  1.00  0.00     0.046 A 
BRANCH  23  25
ATOM     25  O   UNL A   1      31.718  30.050  25.501  1.00  0.00    -0.489 OA
BRANCH  25  26
ATOM     26  C   UNL A   1      32.961  29.797  26.171  1.00  0.00     0.265 C 
BRANCH  26  27
ATOM     27  C   UNL A   1      33.452  30.911  27.083  1.00  0.00    -0.011 A 
ATOM     28  C   UNL A   1      34.640  30.807  27.825  1.00  0.00     0.007 A 
ATOM     29  C   UNL A   1      32.747  32.122  27.156  1.00  0.00     0.007 A 
ATOM     30  C   UNL A   1      35.103  31.856  28.620  1.00  0.00     0.000 A 
ATOM     31  C   UNL A   1      33.214  33.179  27.946  1.00  0.00     0.000 A 
ATOM     32  C   UNL A   1      34.390  33.045  28.679  1.00  0.00     0.000 A 
ENDBRANCH  26  27
ENDBRANCH  25  26
ENDBRANCH  23  25
ENDBRANCH  13  19
ENDBRANCH   6   7
ENDBRANCH   4   6
ENDBRANCH   3   4
ENDBRANCH   2   3
ENDBRANCH   1   2
BRANCH   1  33
ATOM     33  O   UNL A   1      38.458  21.559  25.219  1.00  0.00    -0.374 OA
BRANCH  33  34
ATOM     34  C   UNL A   1      39.530  21.281  26.113  1.00  0.00     0.202 C 
BRANCH  34  35
ATOM     35  C   UNL A   1      40.140  19.874  26.109  1.00  0.00     0.261 C 
BRANCH  35  36
ATOM     36  O   UNL A   1      41.415  19.791  26.745  1.00  0.00    -0.460 OA
BRANCH  36  37
ATOM     37  C   UNL A   1      42.462  19.965  25.906  1.00  0.00     0.338 C 
ATOM     38  O   UNL A   1      42.810  19.241  24.984  1.00  0.00    -0.246 OA
BRANCH  37  39
ATOM     39  C   UNL A   1      43.048  21.284  26.161  1.00  0.00     0.060 A 
ATOM     40  C   UNL A   1      43.390  22.130  25.105  1.00  0.00     0.016 A 
ATOM     41  C   UNL A   1      43.215  21.680  27.493  1.00  0.00     0.016 A 
ATOM     42  C   UNL A   1      43.874  23.405  25.392  1.00  0.00     0.010 A 
ATOM     43  C   UNL A   1      43.692  22.954  27.776  1.00  0.00     0.010 A 
ATOM     44  C   UNL A   1      43.999  23.832  26.728  1.00  0.00    -0.014 A 
BRANCH  44  45
ATOM     45  C   UNL A   1      44.296  25.250  27.026  1.00  0.00     0.031 A 
ATOM     46  C   UNL A   1      43.239  26.178  27.537  1.00  0.00     0.074 A 
ATOM     47  C   UNL A   1      45.541  25.696  26.769  1.00  0.00     0.049 A 
ATOM     48  N   UNL A   1      43.357  27.433  27.877  1.00  0.00    -0.248 NA
ATOM     49  C   UNL A   1      41.877  25.640  27.679  1.00  0.00     0.031 C 
ATOM     50  C   UNL A   1      46.619  24.885  26.196  1.00  0.00     0.029 A 
ATOM     51  N   UNL A   1      46.109  26.930  26.943  1.00  0.00    -0.354 N 
ATOM     52  C   UNL A   1      42.090  27.843  28.264  1.00  0.00     0.074 A 
ATOM     53  C   UNL A   1      41.208  26.707  28.101  1.00  0.00     0.031 C 
ATOM     54  C   UNL A   1      47.725  25.637  26.088  1.00  0.00     0.029 A 
ATOM     55  C   UNL A   1      47.427  26.985  26.556  1.00  0.00     0.049 A 
ATOM     56  H   UNL A   1      45.621  27.702  27.311  1.00  0.00     0.167 HD
ATOM     57  C   UNL A   1      41.709  29.054  28.732  1.00  0.00     0.034 A 
ATOM     58  C   UNL A   1      48.301  28.009  26.576  1.00  0.00     0.034 A 
ATOM     59  C   UNL A   1      42.601  30.168  28.900  1.00  0.00     0.049 A 
ATOM     60  C   UNL A   1      47.855  29.335  27.117  1.00  0.00     0.074 A 
ATOM     61  C   UNL A   1      42.321  31.415  29.431  1.00  0.00     0.029 A 
ATOM     62  N   UNL A   1      43.937  30.178  28.534  1.00  0.00    -0.354 N 
ATOM     63  N   UNL A   1      46.683  29.666  27.602  1.00  0.00    -0.248 NA
ATOM     64  C   UNL A   1      48.846  30.419  27.140  1.00  0.00     0.031 C 
ATOM     65  C   UNL A   1      43.482  32.187  29.364  1.00  0.00     0.029 A 
ATOM     66  C   UNL A   1      44.494  31.411  28.818  1.00  0.00     0.049 A 
ATOM     67  H   UNL A   1      44.419  29.419  28.131  1.00  0.00     0.167 HD
ATOM     68  C   UNL A   1      46.801  30.986  28.011  1.00  0.00     0.074 A 
ATOM     69  C   UNL A   1      48.162  31.394  27.724  1.00  0.00     0.031 C 
ATOM     70  C   UNL A   1      45.861  31.786  28.568  1.00  0.00     0.034 A 
BRANCH  57  71
ATOM     71  C   UNL A   1      40.280  29.241  29.158  1.00  0.00     0.023 A 
ATOM     72  C   UNL A   1      39.288  29.407  28.171  1.00  0.00     0.012 A 
ATOM     73  C   UNL A   1      39.904  29.114  30.509  1.00  0.00     0.148 A 
ATOM     74  C   UNL A   1      37.940  29.443  28.522  1.00  0.00     0.002 A 
ATOM     75  C   UNL A   1      38.557  29.124  30.849  1.00  0.00     0.091 A 
ATOM     76  F   UNL A   1      40.869  28.964  31.428  1.00  0.00    -0.205 F 
ATOM     77  C   UNL A   1      37.574  29.290  29.857  1.00  0.00     0.022 A 
BRANCH  75  78
ATOM     78  S   UNL A   1      37.973  28.886  32.530  1.00  0.00     0.127 S 
ATOM     79  O   UNL A   1      38.881  29.752  33.282  1.00  0.00    -0.237 OA
ATOM     80  O   UNL A   1      36.595  29.371  32.447  1.00  0.00    -0.237 OA
ATOM     81  O   UNL A   1      38.109  27.463  32.809  1.00  0.00    -0.744 OA
ENDBRANCH  75  78
ENDBRANCH  57  71
BRANCH  58  82
ATOM     82  C   UNL A   1      49.700  27.775  26.133  1.00  0.00     0.023 A 
ATOM     83  C   UNL A   1      50.005  27.835  24.760  1.00  0.00     0.012 A 
ATOM     84  C   UNL A   1      50.737  27.586  27.066  1.00  0.00     0.148 A 
ATOM     85  C   UNL A   1      51.323  27.704  24.322  1.00  0.00     0.002 A 
ATOM     86  C   UNL A   1      52.052  27.493  26.626  1.00  0.00     0.091 A 
ATOM     87  F   UNL A   1      50.416  27.540  28.367  1.00  0.00    -0.205 F 
ATOM     88  C   UNL A   1      52.347  27.544  25.255  1.00  0.00     0.022 A 
BRANCH  86  89
ATOM     89  S   UNL A   1      53.445  27.380  27.753  1.00  0.00     0.127 S 
ATOM     90  O   UNL A   1      53.359  28.656  28.459  1.00  0.00    -0.237 OA
ATOM     91  O   UNL A   1      53.088  26.208  28.552  1.00  0.00    -0.237 OA
ATOM     92  O   UNL A   1      54.623  27.208  26.914  1.00  0.00    -0.744 OA
ENDBRANCH  86  89
ENDBRANCH  58  82
BRANCH  70  93
ATOM     93  C   UNL A   1      46.250  33.189  28.939  1.00  0.00     0.023 A 
ATOM     94  C   UNL A   1      46.953  33.419  30.137  1.00  0.00     0.012 A 
ATOM     95  C   UNL A   1      46.066  34.241  28.021  1.00  0.00     0.148 A 
ATOM     96  C   UNL A   1      47.471  34.682  30.414  1.00  0.00     0.002 A 
ATOM     97  C   UNL A   1      46.616  35.487  28.288  1.00  0.00     0.091 A 
ATOM     98  F   UNL A   1      45.390  33.989  26.891  1.00  0.00    -0.205 F 
ATOM     99  C   UNL A   1      47.317  35.710  29.485  1.00  0.00     0.022 A 
BRANCH  97 100
ATOM    100  S   UNL A   1      46.537  36.851  27.123  1.00  0.00     0.127 S 
ATOM    101  O   UNL A   1      47.409  37.836  27.760  1.00  0.00    -0.237 OA
ATOM    102  O   UNL A   1      47.081  36.248  25.907  1.00  0.00    -0.237 OA
ATOM    103  O   UNL A   1      45.134  37.234  27.040  1.00  0.00    -0.744 OA
ENDBRANCH  97 100
ENDBRANCH  70  93
ENDBRANCH  44  45
ENDBRANCH  37  39
ENDBRANCH  36  37
ENDBRANCH  35  36
ENDBRANCH  34  35
ENDBRANCH  33  34
ENDBRANCH   1  33
TORSDOF 22
ENDMDL
MODEL 3
REMARK VINA RESULT:     -10.9      2.245      7.581
REMARK SMILES CC1=C(CC(=O)OCCOCCOC(=O)c2ccc(-c3c4nc(c(-c5cccc(S(=O)(=O)[O-])c5F)c5ccc([nH]5)c(-c5cccc(S(=O)(=O)[O-])c5F)c5nc(c(-c6cccc(S(=O)(=O)[O-])c6F)c6ccc3[nH]6)C=C5)C=C4)cc2)c2cc(F)ccc2/C1=C\c1cccc(OCc2ccccc2)c1
REMARK SMILES IDX 9 1 8 2 7 3 5 4 6 5 4 6 3 7 1 8 2 9 86 10 79 11 85 12 87 13
REMARK SMILES IDX 80 14 84 15 81 16 83 17 82 18 88 19 89 20 101 21 90 22 92 23
REMARK SMILES IDX 91 24 93 25 94 26 95 27 96 28 100 29 97 30 99 31 98 32 10 33
REMARK SMILES IDX 11 34 12 35 13 36 14 37 15 38 16 39 17 40 78 41 18 42 77 43
REMARK SMILES IDX 19 44 20 45 21 46 71 47 22 48 76 49 70 50 72 51 23 52 75 53
REMARK SMILES IDX 69 54 68 55 24 57 56 58 36 59 55 60 37 61 40 62 54 63 73 64
REMARK SMILES IDX 38 65 39 66 53 68 74 69 41 70 25 71 26 72 34 73 27 74 29 75
REMARK SMILES IDX 35 76 28 77 30 78 31 79 32 80 33 81 57 82 58 83 66 84 59 85
REMARK SMILES IDX 61 86 67 87 60 88 62 89 63 90 64 91 65 92 42 93 43 94 51 95
REMARK SMILES IDX 44 96 46 97 52 98 45 99 47 100 48 101 49 102 50 103
REMARK H PARENT 72 56 40 67
REMARK Flexibility Score: inf
ROOT
ATOM      1  C   UNL A   1      36.294  21.035  25.118  1.00  0.00     0.202 C 
ENDROOT
BRANCH   1   2
ATOM      2  C   UNL A   1      34.951  21.702  25.454  1.00  0.00     0.261 C 
BRANCH   2   3
ATOM      3  O   UNL A   1      33.890  20.785  25.791  1.00  0.00    -0.463 OA
BRANCH   3   4
ATOM      4  C   UNL A   1      33.055  20.453  24.767  1.00  0.00     0.310 C 
ATOM      5  O   UNL A   1      33.275  19.556  23.956  1.00  0.00    -0.252 OA
BRANCH   4   6
ATOM      6  C   UNL A   1      31.779  21.285  24.674  1.00  0.00     0.159 C 
BRANCH   6   7
ATOM      7  C   UNL A   1      31.862  22.767  24.842  1.00  0.00    -0.025 C 
ATOM      8  C   UNL A   1      31.473  22.899  27.337  1.00  0.00     0.045 C 
ATOM      9  C   UNL A   1      31.717  23.481  25.984  1.00  0.00    -0.039 C 
ATOM     10  C   UNL A   1      31.919  24.908  25.697  1.00  0.00    -0.014 C 
ATOM     11  C   UNL A   1      32.274  23.702  23.778  1.00  0.00    -0.011 A 
ATOM     12  C   UNL A   1      32.237  25.021  24.264  1.00  0.00    -0.010 A 
ATOM     13  C   UNL A   1      31.883  25.900  26.603  1.00  0.00     0.017 C 
ATOM     14  C   UNL A   1      32.675  23.455  22.472  1.00  0.00     0.048 A 
ATOM     15  C   UNL A   1      32.477  26.101  23.420  1.00  0.00     0.012 A 
ATOM     16  C   UNL A   1      32.945  24.545  21.642  1.00  0.00     0.123 A 
ATOM     17  C   UNL A   1      32.825  25.858  22.095  1.00  0.00     0.040 A 
ATOM     18  F   UNL A   1      33.266  24.327  20.361  1.00  0.00    -0.207 F 
BRANCH  13  19
ATOM     19  C   UNL A   1      32.247  27.290  26.333  1.00  0.00    -0.021 A 
ATOM     20  C   UNL A   1      33.375  27.873  26.909  1.00  0.00     0.008 A 
ATOM     21  C   UNL A   1      31.424  28.044  25.486  1.00  0.00     0.054 A 
ATOM     22  C   UNL A   1      33.665  29.212  26.651  1.00  0.00     0.004 A 
ATOM     23  C   UNL A   1      31.783  29.340  25.125  1.00  0.00     0.120 A 
ATOM     24  C   UNL A   1      32.873  29.941  25.757  1.00  0.00     0.046 A 
BRANCH  23  25
ATOM     25  O   UNL A   1      31.182  30.083  24.149  1.00  0.00    -0.489 OA
BRANCH  25  26
ATOM     26  C   UNL A   1      29.875  29.696  23.703  1.00  0.00     0.265 C 
BRANCH  26  27
ATOM     27  C   UNL A   1      29.176  30.686  22.784  1.00  0.00    -0.011 A 
ATOM     28  C   UNL A   1      28.653  30.313  21.535  1.00  0.00     0.007 A 
ATOM     29  C   UNL A   1      28.976  32.011  23.200  1.00  0.00     0.007 A 
ATOM     30  C   UNL A   1      27.972  31.221  20.723  1.00  0.00     0.000 A 
ATOM     31  C   UNL A   1      28.285  32.921  22.392  1.00  0.00     0.000 A 
ATOM     32  C   UNL A   1      27.786  32.527  21.153  1.00  0.00     0.000 A 
ENDBRANCH  26  27
ENDBRANCH  25  26
ENDBRANCH  23  25
ENDBRANCH  13  19
ENDBRANCH   6   7
ENDBRANCH   4   6
ENDBRANCH   3   4
ENDBRANCH   2   3
ENDBRANCH   1   2
BRANCH   1  33
ATOM     33  O   UNL A   1      37.445  21.862  24.973  1.00  0.00    -0.374 OA
BRANCH  33  34
ATOM     34  C   UNL A   1      38.592  21.547  25.755  1.00  0.00     0.202 C 
BRANCH  34  35
ATOM     35  C   UNL A   1      39.163  20.126  25.676  1.00  0.00     0.261 C 
BRANCH  35  36
ATOM     36  O   UNL A   1      40.148  19.840  26.669  1.00  0.00    -0.460 OA
BRANCH  36  37
ATOM     37  C   UNL A   1      41.407  19.738  26.184  1.00  0.00     0.338 C 
ATOM     38  O   UNL A   1      41.898  18.801  25.571  1.00  0.00    -0.246 OA
BRANCH  37  39
ATOM     39  C   UNL A   1      42.079  21.028  26.359  1.00  0.00     0.060 A 
ATOM     40  C   UNL A   1      42.369  21.837  25.259  1.00  0.00     0.016 A 
ATOM     41  C   UNL A   1      42.382  21.437  27.662  1.00  0.00     0.016 A 
ATOM     42  C   UNL A   1      42.941  23.089  25.476  1.00  0.00     0.010 A 
ATOM     43  C   UNL A   1      42.947  22.689  27.875  1.00  0.00     0.010 A 
ATOM     44  C   UNL A   1      43.205  23.532  26.786  1.00  0.00    -0.014 A 
BRANCH  44  45
ATOM     45  C   UNL A   1      43.598  24.937  27.026  1.00  0.00     0.031 A 
ATOM     46  C   UNL A   1      42.613  25.951  27.518  1.00  0.00     0.074 A 
ATOM     47  C   UNL A   1      44.865  25.291  26.735  1.00  0.00     0.049 A 
ATOM     48  N   UNL A   1      42.818  27.207  27.809  1.00  0.00    -0.248 NA
ATOM     49  C   UNL A   1      41.221  25.509  27.700  1.00  0.00     0.031 C 
ATOM     50  C   UNL A   1      45.878  24.391  26.177  1.00  0.00     0.029 A 
ATOM     51  N   UNL A   1      45.515  26.490  26.855  1.00  0.00    -0.354 N 
ATOM     52  C   UNL A   1      41.586  27.713  28.199  1.00  0.00     0.074 A 
ATOM     53  C   UNL A   1      40.630  26.632  28.091  1.00  0.00     0.031 C 
ATOM     54  C   UNL A   1      47.029  25.064  26.025  1.00  0.00     0.029 A 
ATOM     55  C   UNL A   1      46.827  26.445  26.447  1.00  0.00     0.049 A 
ATOM     56  H   UNL A   1      45.085  27.306  27.200  1.00  0.00     0.167 HD
ATOM     57  C   UNL A   1      41.293  28.963  28.626  1.00  0.00     0.034 A 
ATOM     58  C   UNL A   1      47.766  27.409  26.417  1.00  0.00     0.034 A 
ATOM     59  C   UNL A   1      42.259  30.020  28.741  1.00  0.00     0.049 A 
ATOM     60  C   UNL A   1      47.416  28.780  26.914  1.00  0.00     0.074 A 
ATOM     61  C   UNL A   1      42.069  31.302  29.228  1.00  0.00     0.029 A 
ATOM     62  N   UNL A   1      43.586  29.930  28.355  1.00  0.00    -0.354 N 
ATOM     63  N   UNL A   1      46.277  29.205  27.403  1.00  0.00    -0.248 NA
ATOM     64  C   UNL A   1      48.476  29.797  26.882  1.00  0.00     0.031 C 
ATOM     65  C   UNL A   1      43.277  31.993  29.116  1.00  0.00     0.029 A 
ATOM     66  C   UNL A   1      44.227  31.133  28.584  1.00  0.00     0.049 A 
ATOM     67  H   UNL A   1      44.011  29.127  27.973  1.00  0.00     0.167 HD
ATOM     68  C   UNL A   1      46.487  30.528  27.761  1.00  0.00     0.074 A 
ATOM     69  C   UNL A   1      47.867  30.836  27.440  1.00  0.00     0.031 C 
ATOM     70  C   UNL A   1      45.611  31.408  28.301  1.00  0.00     0.034 A 
BRANCH  57  71
ATOM     71  C   UNL A   1      39.887  29.258  29.065  1.00  0.00     0.023 A 
ATOM     72  C   UNL A   1      38.877  29.378  28.091  1.00  0.00     0.012 A 
ATOM     73  C   UNL A   1      39.543  29.277  30.431  1.00  0.00     0.148 A 
ATOM     74  C   UNL A   1      37.542  29.514  28.468  1.00  0.00     0.002 A 
ATOM     75  C   UNL A   1      38.208  29.385  30.800  1.00  0.00     0.091 A 
ATOM     76  F   UNL A   1      40.525  29.168  31.337  1.00  0.00    -0.205 F 
ATOM     77  C   UNL A   1      37.207  29.504  29.820  1.00  0.00     0.022 A 
BRANCH  75  78
ATOM     78  S   UNL A   1      37.661  29.335  32.509  1.00  0.00     0.127 S 
ATOM     79  O   UNL A   1      38.610  30.246  33.149  1.00  0.00    -0.237 OA
ATOM     80  O   UNL A   1      36.295  29.850  32.409  1.00  0.00    -0.237 OA
ATOM     81  O   UNL A   1      37.764  27.944  32.928  1.00  0.00    -0.744 OA
ENDBRANCH  75  78
ENDBRANCH  57  71
BRANCH  58  82
ATOM     82  C   UNL A   1      49.139  27.068  25.962  1.00  0.00     0.023 A 
ATOM     83  C   UNL A   1      49.997  26.368  26.830  1.00  0.00     0.012 A 
ATOM     84  C   UNL A   1      49.562  27.350  24.648  1.00  0.00     0.148 A 
ATOM     85  C   UNL A   1      51.260  25.959  26.399  1.00  0.00     0.002 A 
ATOM     86  C   UNL A   1      50.805  26.909  24.214  1.00  0.00     0.091 A 
ATOM     87  F   UNL A   1      48.719  28.012  23.842  1.00  0.00    -0.205 F 
ATOM     88  C   UNL A   1      51.659  26.220  25.090  1.00  0.00     0.022 A 
BRANCH  86  89
ATOM     89  S   UNL A   1      51.370  27.112  22.522  1.00  0.00     0.127 S 
ATOM     90  O   UNL A   1      50.287  26.482  21.771  1.00  0.00    -0.237 OA
ATOM     91  O   UNL A   1      51.436  28.569  22.403  1.00  0.00    -0.237 OA
ATOM     92  O   UNL A   1      52.658  26.437  22.448  1.00  0.00    -0.744 OA
ENDBRANCH  86  89
ENDBRANCH  58  82
BRANCH  70  93
ATOM     93  C   UNL A   1      46.097  32.795  28.613  1.00  0.00     0.023 A 
ATOM     94  C   UNL A   1      45.972  33.808  27.644  1.00  0.00     0.012 A 
ATOM     95  C   UNL A   1      46.517  33.120  29.918  1.00  0.00     0.148 A 
ATOM     96  C   UNL A   1      46.255  35.132  27.972  1.00  0.00     0.002 A 
ATOM     97  C   UNL A   1      46.764  34.446  30.247  1.00  0.00     0.091 A 
ATOM     98  F   UNL A   1      46.629  32.132  30.816  1.00  0.00    -0.205 F 
ATOM     99  C   UNL A   1      46.636  35.453  29.275  1.00  0.00     0.022 A 
BRANCH  97 100
ATOM    100  S   UNL A   1      47.184  34.969  31.912  1.00  0.00     0.127 S 
ATOM    101  O   UNL A   1      48.554  34.476  32.041  1.00  0.00    -0.237 OA
ATOM    102  O   UNL A   1      47.063  36.423  31.818  1.00  0.00    -0.237 OA
ATOM    103  O   UNL A   1      46.215  34.331  32.795  1.00  0.00    -0.744 OA
ENDBRANCH  97 100
ENDBRANCH  70  93
ENDBRANCH  44  45
ENDBRANCH  37  39
ENDBRANCH  36  37
ENDBRANCH  35  36
ENDBRANCH  34  35
ENDBRANCH  33  34
ENDBRANCH   1  33
TORSDOF 22
ENDMDL
