MODEL 1
REMARK VINA RESULT:     -11.1      0.000      0.000
REMARK SMILES O=C(OCCOCCOC(=O)[C@@H](c1ccsc1)[NH+]1CCC(Oc2cccnc2)CC1)c1ccc(-c2c3nc(c(-c4cccc(S(=O)(=O)[O-])c4F)c4ccc([nH]4)c(-c4cccc(S(=O)(=O)[O-])c4F)c4nc(c(-c5cccc(S(=O)(=O)[O-])c5F)c5ccc2[nH]5)C=C4)C=C3)cc1
REMARK SMILES IDX 6 1 5 2 4 3 3 4 2 5 1 6 31 7 32 8 93 9 33 10 92 11 34 12
REMARK SMILES IDX 35 13 36 14 86 15 37 16 91 17 85 18 87 19 38 20 90 21 84 22
REMARK SMILES IDX 83 23 39 25 71 26 51 27 70 28 52 29 55 30 69 31 88 32 53 33
REMARK SMILES IDX 54 34 68 36 89 37 56 38 40 39 41 40 49 41 42 42 44 43 50 44
REMARK SMILES IDX 43 45 45 46 46 47 47 48 48 49 72 50 73 51 81 52 74 53 76 54
REMARK SMILES IDX 82 55 75 56 77 57 78 58 79 59 80 60 57 61 58 62 66 63 59 64
REMARK SMILES IDX 61 65 67 66 60 67 62 68 63 69 64 70 65 71 7 72 8 73 9 74
REMARK SMILES IDX 10 75 11 76 12 77 13 78 14 79 17 80 15 81 16 82 18 83 19 84
REMARK SMILES IDX 30 85 20 87 29 88 21 89 22 90 23 91 24 92 28 93 25 94 27 95
REMARK SMILES IDX 26 96
REMARK H PARENT 87 24 55 35 18 86
REMARK Flexibility Score: inf
ROOT
ATOM      1  O   UNL A   1      32.281  30.646  27.036  1.00  0.00    -0.374 OA
ENDROOT
BRANCH   1   2
ATOM      2  C   UNL A   1      33.040  31.804  27.369  1.00  0.00     0.202 C 
BRANCH   2   3
ATOM      3  C   UNL A   1      32.362  33.129  27.023  1.00  0.00     0.261 C 
BRANCH   3   4
ATOM      4  O   UNL A   1      32.322  33.970  28.189  1.00  0.00    -0.460 OA
BRANCH   4   5
ATOM      5  C   UNL A   1      33.319  34.762  28.652  1.00  0.00     0.338 C 
ATOM      6  O   UNL A   1      33.250  35.975  28.471  1.00  0.00    -0.246 OA
BRANCH   5   7
ATOM      7  C   UNL A   1      34.464  34.223  29.439  1.00  0.00     0.060 A 
ATOM      8  C   UNL A   1      35.802  34.508  29.170  1.00  0.00     0.016 A 
ATOM      9  C   UNL A   1      34.171  33.420  30.548  1.00  0.00     0.016 A 
ATOM     10  C   UNL A   1      36.827  33.971  29.904  1.00  0.00     0.010 A 
ATOM     11  C   UNL A   1      35.203  32.888  31.328  1.00  0.00     0.010 A 
ATOM     12  C   UNL A   1      36.533  33.156  30.982  1.00  0.00    -0.014 A 
BRANCH  12  13
ATOM     13  C   UNL A   1      37.689  32.484  31.577  1.00  0.00     0.031 A 
ATOM     14  C   UNL A   1      38.028  32.826  32.989  1.00  0.00     0.074 A 
ATOM     15  C   UNL A   1      38.225  31.436  30.929  1.00  0.00     0.049 A 
ATOM     16  N   UNL A   1      38.983  32.363  33.740  1.00  0.00    -0.248 NA
ATOM     17  C   UNL A   1      37.152  33.807  33.661  1.00  0.00     0.031 C 
ATOM     18  C   UNL A   1      37.784  30.938  29.620  1.00  0.00     0.029 A 
ATOM     19  N   UNL A   1      39.212  30.569  31.299  1.00  0.00    -0.354 N 
ATOM     20  C   UNL A   1      38.880  33.054  34.937  1.00  0.00     0.074 A 
ATOM     21  C   UNL A   1      37.740  33.935  34.839  1.00  0.00     0.031 C 
ATOM     22  C   UNL A   1      38.488  29.839  29.308  1.00  0.00     0.029 A 
ATOM     23  C   UNL A   1      39.482  29.615  30.346  1.00  0.00     0.049 A 
ATOM     24  H   UNL A   1      39.684  30.622  32.162  1.00  0.00     0.167 HD
ATOM     25  C   UNL A   1      39.695  32.967  36.011  1.00  0.00     0.034 A 
ATOM     26  C   UNL A   1      40.466  28.700  30.315  1.00  0.00     0.034 A 
ATOM     27  C   UNL A   1      40.804  32.058  36.059  1.00  0.00     0.049 A 
ATOM     28  C   UNL A   1      41.407  28.678  31.488  1.00  0.00     0.074 A 
ATOM     29  C   UNL A   1      41.758  31.904  37.043  1.00  0.00     0.029 A 
ATOM     30  N   UNL A   1      41.103  31.143  35.055  1.00  0.00    -0.354 N 
ATOM     31  N   UNL A   1      41.346  29.370  32.604  1.00  0.00    -0.248 NA
ATOM     32  C   UNL A   1      42.545  27.760  31.406  1.00  0.00     0.031 C 
ATOM     33  C   UNL A   1      42.654  30.917  36.618  1.00  0.00     0.029 A 
ATOM     34  C   UNL A   1      42.235  30.427  35.386  1.00  0.00     0.049 A 
ATOM     35  H   UNL A   1      40.583  31.025  34.227  1.00  0.00     0.167 HD
ATOM     36  C   UNL A   1      42.425  28.955  33.370  1.00  0.00     0.074 A 
ATOM     37  C   UNL A   1      43.106  27.932  32.596  1.00  0.00     0.031 C 
ATOM     38  C   UNL A   1      42.835  29.385  34.589  1.00  0.00     0.034 A 
BRANCH  25  39
ATOM     39  C   UNL A   1      39.451  33.936  37.133  1.00  0.00     0.023 A 
ATOM     40  C   UNL A   1      39.881  35.275  37.038  1.00  0.00     0.012 A 
ATOM     41  C   UNL A   1      38.843  33.489  38.323  1.00  0.00     0.148 A 
ATOM     42  C   UNL A   1      39.750  36.140  38.125  1.00  0.00     0.002 A 
ATOM     43  C   UNL A   1      38.677  34.368  39.386  1.00  0.00     0.091 A 
ATOM     44  F   UNL A   1      38.478  32.202  38.408  1.00  0.00    -0.205 F 
ATOM     45  C   UNL A   1      39.144  35.689  39.295  1.00  0.00     0.022 A 
BRANCH  43  46
ATOM     46  S   UNL A   1      37.861  33.892  40.912  1.00  0.00     0.127 S 
ATOM     47  O   UNL A   1      36.701  33.156  40.409  1.00  0.00    -0.237 OA
ATOM     48  O   UNL A   1      38.879  33.059  41.555  1.00  0.00    -0.237 OA
ATOM     49  O   UNL A   1      37.559  35.130  41.613  1.00  0.00    -0.744 OA
ENDBRANCH  43  46
ENDBRANCH  25  39
BRANCH  26  50
ATOM     50  C   UNL A   1      40.621  27.784  29.149  1.00  0.00     0.023 A 
ATOM     51  C   UNL A   1      39.844  26.613  29.071  1.00  0.00     0.012 A 
ATOM     52  C   UNL A   1      41.522  28.075  28.104  1.00  0.00     0.148 A 
ATOM     53  C   UNL A   1      39.980  25.738  27.990  1.00  0.00     0.002 A 
ATOM     54  C   UNL A   1      41.612  27.230  27.003  1.00  0.00     0.091 A 
ATOM     55  F   UNL A   1      42.273  29.182  28.200  1.00  0.00    -0.205 F 
ATOM     56  C   UNL A   1      40.855  26.051  26.953  1.00  0.00     0.022 A 
BRANCH  54  57
ATOM     57  S   UNL A   1      42.621  27.622  25.569  1.00  0.00     0.127 S 
ATOM     58  O   UNL A   1      42.399  26.454  24.721  1.00  0.00    -0.237 OA
ATOM     59  O   UNL A   1      42.000  28.857  25.089  1.00  0.00    -0.237 OA
ATOM     60  O   UNL A   1      43.976  27.791  26.074  1.00  0.00    -0.744 OA
ENDBRANCH  54  57
ENDBRANCH  26  50
BRANCH  38  61
ATOM     61  C   UNL A   1      44.044  28.711  35.169  1.00  0.00     0.023 A 
ATOM     62  C   UNL A   1      45.331  29.206  34.882  1.00  0.00     0.012 A 
ATOM     63  C   UNL A   1      43.889  27.639  36.066  1.00  0.00     0.148 A 
ATOM     64  C   UNL A   1      46.452  28.619  35.461  1.00  0.00     0.002 A 
ATOM     65  C   UNL A   1      45.005  27.098  36.684  1.00  0.00     0.091 A 
ATOM     66  F   UNL A   1      42.653  27.174  36.301  1.00  0.00    -0.205 F 
ATOM     67  C   UNL A   1      46.290  27.576  36.372  1.00  0.00     0.022 A 
BRANCH  65  68
ATOM     68  S   UNL A   1      44.872  25.838  37.953  1.00  0.00     0.127 S 
ATOM     69  O   UNL A   1      44.007  26.493  38.933  1.00  0.00    -0.237 OA
ATOM     70  O   UNL A   1      44.248  24.731  37.228  1.00  0.00    -0.237 OA
ATOM     71  O   UNL A   1      46.233  25.573  38.398  1.00  0.00    -0.744 OA
ENDBRANCH  65  68
ENDBRANCH  38  61
ENDBRANCH  12  13
ENDBRANCH   5   7
ENDBRANCH   4   5
ENDBRANCH   3   4
ENDBRANCH   2   3
ENDBRANCH   1   2
BRANCH   1  72
ATOM     72  C   UNL A   1      32.959  29.591  26.355  1.00  0.00     0.202 C 
BRANCH  72  73
ATOM     73  C   UNL A   1      32.939  28.351  27.241  1.00  0.00     0.261 C 
BRANCH  73  74
ATOM     74  O   UNL A   1      32.263  27.305  26.530  1.00  0.00    -0.459 OA
BRANCH  74  75
ATOM     75  C   UNL A   1      33.048  26.543  25.706  1.00  0.00     0.370 C 
ATOM     76  O   UNL A   1      34.276  26.517  25.717  1.00  0.00    -0.245 OA
BRANCH  75  77
ATOM     77  C   UNL A   1      32.204  25.792  24.653  1.00  0.00     0.327 C 
BRANCH  77  78
ATOM     78  C   UNL A   1      31.850  24.388  25.141  1.00  0.00     0.032 A 
ATOM     79  C   UNL A   1      31.027  24.059  26.282  1.00  0.00     0.022 A 
ATOM     80  C   UNL A   1      32.319  23.224  24.550  1.00  0.00     0.075 A 
ATOM     81  C   UNL A   1      30.979  22.706  26.541  1.00  0.00     0.065 A 
ATOM     82  S   UNL A   1      31.836  21.803  25.373  1.00  0.00    -0.152 S 
ENDBRANCH  77  78
BRANCH  77  83
ATOM     83  N   UNL A   1      30.996  26.591  24.366  1.00  0.00    -0.319 N 
ATOM     84  C   UNL A   1      31.328  27.766  23.538  1.00  0.00     0.267 C 
ATOM     85  C   UNL A   1      29.906  25.843  23.739  1.00  0.00     0.267 C 
ATOM     86  H   UNL A   1      30.653  26.886  25.281  1.00  0.00     0.349 HD
ATOM     87  C   UNL A   1      30.178  28.743  23.652  1.00  0.00     0.107 C 
ATOM     88  C   UNL A   1      28.644  26.707  23.793  1.00  0.00     0.107 C 
ATOM     89  C   UNL A   1      28.871  28.102  23.187  1.00  0.00     0.184 C 
BRANCH  89  90
ATOM     90  O   UNL A   1      27.745  28.998  23.300  1.00  0.00    -0.488 OA
BRANCH  90  91
ATOM     91  C   UNL A   1      27.923  30.231  22.744  1.00  0.00     0.138 A 
ATOM     92  C   UNL A   1      28.139  31.368  23.514  1.00  0.00     0.050 A 
ATOM     93  C   UNL A   1      27.977  30.359  21.364  1.00  0.00     0.157 A 
ATOM     94  C   UNL A   1      28.296  32.599  22.883  1.00  0.00     0.024 A 
ATOM     95  N   UNL A   1      28.148  31.537  20.718  1.00  0.00    -0.261 NA
ATOM     96  C   UNL A   1      28.289  32.632  21.498  1.00  0.00     0.111 A 
ENDBRANCH  90  91
ENDBRANCH  89  90
ENDBRANCH  77  83
ENDBRANCH  75  77
ENDBRANCH  74  75
ENDBRANCH  73  74
ENDBRANCH  72  73
ENDBRANCH   1  72
TORSDOF 21
ENDMDL
MODEL 2
REMARK VINA RESULT:     -11.1      5.471     10.426
REMARK SMILES O=C(OCCOCCOC(=O)[C@@H](c1ccsc1)[NH+]1CCC(Oc2cccnc2)CC1)c1ccc(-c2c3nc(c(-c4cccc(S(=O)(=O)[O-])c4F)c4ccc([nH]4)c(-c4cccc(S(=O)(=O)[O-])c4F)c4nc(c(-c5cccc(S(=O)(=O)[O-])c5F)c5ccc2[nH]5)C=C4)C=C3)cc1
REMARK SMILES IDX 6 1 5 2 4 3 3 4 2 5 1 6 31 7 32 8 93 9 33 10 92 11 34 12
REMARK SMILES IDX 35 13 36 14 86 15 37 16 91 17 85 18 87 19 38 20 90 21 84 22
REMARK SMILES IDX 83 23 39 25 71 26 51 27 70 28 52 29 55 30 69 31 88 32 53 33
REMARK SMILES IDX 54 34 68 36 89 37 56 38 40 39 41 40 49 41 42 42 44 43 50 44
REMARK SMILES IDX 43 45 45 46 46 47 47 48 48 49 72 50 73 51 81 52 74 53 76 54
REMARK SMILES IDX 82 55 75 56 77 57 78 58 79 59 80 60 57 61 58 62 66 63 59 64
REMARK SMILES IDX 61 65 67 66 60 67 62 68 63 69 64 70 65 71 7 72 8 73 9 74
REMARK SMILES IDX 10 75 11 76 12 77 13 78 14 79 17 80 15 81 16 82 18 83 19 84
REMARK SMILES IDX 30 85 20 87 29 88 21 89 22 90 23 91 24 92 28 93 25 94 27 95
REMARK SMILES IDX 26 96
REMARK H PARENT 87 24 55 35 18 86
REMARK Flexibility Score: inf
ROOT
ATOM      1  O   UNL A   1      34.965  21.751  24.482  1.00  0.00    -0.374 OA
ENDROOT
BRANCH   1   2
ATOM      2  C   UNL A   1      35.707  20.618  24.923  1.00  0.00     0.202 C 
BRANCH   2   3
ATOM      3  C   UNL A   1      37.219  20.740  24.747  1.00  0.00     0.261 C 
BRANCH   3   4
ATOM      4  O   UNL A   1      37.823  21.117  25.996  1.00  0.00    -0.460 OA
BRANCH   4   5
ATOM      5  C   UNL A   1      39.144  21.307  26.234  1.00  0.00     0.338 C 
ATOM      6  O   UNL A   1      39.937  20.417  25.940  1.00  0.00    -0.246 OA
BRANCH   5   7
ATOM      7  C   UNL A   1      39.680  22.589  26.773  1.00  0.00     0.060 A 
ATOM      8  C   UNL A   1      39.163  23.845  26.463  1.00  0.00     0.016 A 
ATOM      9  C   UNL A   1      40.737  22.518  27.689  1.00  0.00     0.016 A 
ATOM     10  C   UNL A   1      39.702  25.003  26.963  1.00  0.00     0.010 A 
ATOM     11  C   UNL A   1      41.280  23.687  28.233  1.00  0.00     0.010 A 
ATOM     12  C   UNL A   1      40.764  24.929  27.845  1.00  0.00    -0.014 A 
BRANCH  12  13
ATOM     13  C   UNL A   1      41.384  26.214  28.167  1.00  0.00     0.031 A 
ATOM     14  C   UNL A   1      42.721  26.500  27.568  1.00  0.00     0.074 A 
ATOM     15  C   UNL A   1      40.635  27.156  28.766  1.00  0.00     0.049 A 
ATOM     16  N   UNL A   1      43.464  27.561  27.685  1.00  0.00    -0.248 NA
ATOM     17  C   UNL A   1      43.290  25.456  26.692  1.00  0.00     0.031 C 
ATOM     18  C   UNL A   1      39.241  26.980  29.191  1.00  0.00     0.029 A 
ATOM     19  N   UNL A   1      40.913  28.456  29.070  1.00  0.00    -0.354 N 
ATOM     20  C   UNL A   1      44.621  27.281  26.973  1.00  0.00     0.074 A 
ATOM     21  C   UNL A   1      44.468  25.973  26.383  1.00  0.00     0.031 C 
ATOM     22  C   UNL A   1      38.782  28.140  29.684  1.00  0.00     0.029 A 
ATOM     23  C   UNL A   1      39.871  29.104  29.691  1.00  0.00     0.049 A 
ATOM     24  H   UNL A   1      41.774  28.888  28.866  1.00  0.00     0.167 HD
ATOM     25  C   UNL A   1      45.721  28.056  26.855  1.00  0.00     0.034 A 
ATOM     26  C   UNL A   1      39.840  30.328  30.244  1.00  0.00     0.034 A 
ATOM     27  C   UNL A   1      45.809  29.359  27.449  1.00  0.00     0.049 A 
ATOM     28  C   UNL A   1      41.104  31.139  30.166  1.00  0.00     0.074 A 
ATOM     29  C   UNL A   1      46.878  30.230  27.476  1.00  0.00     0.029 A 
ATOM     30  N   UNL A   1      44.765  29.973  28.132  1.00  0.00    -0.354 N 
ATOM     31  N   UNL A   1      42.224  30.856  29.538  1.00  0.00    -0.248 NA
ATOM     32  C   UNL A   1      41.110  32.426  30.865  1.00  0.00     0.031 C 
ATOM     33  C   UNL A   1      46.488  31.359  28.206  1.00  0.00     0.029 A 
ATOM     34  C   UNL A   1      45.164  31.208  28.599  1.00  0.00     0.049 A 
ATOM     35  H   UNL A   1      43.871  29.582  28.265  1.00  0.00     0.167 HD
ATOM     36  C   UNL A   1      43.062  31.941  29.746  1.00  0.00     0.074 A 
ATOM     37  C   UNL A   1      42.307  32.896  30.538  1.00  0.00     0.031 C 
ATOM     38  C   UNL A   1      44.343  32.133  29.343  1.00  0.00     0.034 A 
BRANCH  25  39
ATOM     39  C   UNL A   1      46.903  27.457  26.145  1.00  0.00     0.023 A 
ATOM     40  C   UNL A   1      47.808  26.621  26.830  1.00  0.00     0.012 A 
ATOM     41  C   UNL A   1      47.150  27.785  24.798  1.00  0.00     0.148 A 
ATOM     42  C   UNL A   1      48.962  26.157  26.197  1.00  0.00     0.002 A 
ATOM     43  C   UNL A   1      48.278  27.285  24.161  1.00  0.00     0.091 A 
ATOM     44  F   UNL A   1      46.298  28.615  24.177  1.00  0.00    -0.205 F 
ATOM     45  C   UNL A   1      49.194  26.484  24.862  1.00  0.00     0.022 A 
BRANCH  43  46
ATOM     46  S   UNL A   1      48.633  27.609  22.431  1.00  0.00     0.127 S 
ATOM     47  O   UNL A   1      50.011  28.096  22.499  1.00  0.00    -0.237 OA
ATOM     48  O   UNL A   1      48.484  26.280  21.836  1.00  0.00    -0.237 OA
ATOM     49  O   UNL A   1      47.647  28.585  21.993  1.00  0.00    -0.744 OA
ENDBRANCH  43  46
ENDBRANCH  25  39
BRANCH  26  50
ATOM     50  C   UNL A   1      38.612  30.828  30.927  1.00  0.00     0.023 A 
ATOM     51  C   UNL A   1      38.501  30.731  32.327  1.00  0.00     0.012 A 
ATOM     52  C   UNL A   1      37.557  31.418  30.199  1.00  0.00     0.148 A 
ATOM     53  C   UNL A   1      37.356  31.187  32.984  1.00  0.00     0.002 A 
ATOM     54  C   UNL A   1      36.445  31.921  30.864  1.00  0.00     0.091 A 
ATOM     55  F   UNL A   1      37.665  31.485  28.863  1.00  0.00    -0.205 F 
ATOM     56  C   UNL A   1      36.334  31.790  32.256  1.00  0.00     0.022 A 
BRANCH  54  57
ATOM     57  S   UNL A   1      35.143  32.822  30.015  1.00  0.00     0.127 S 
ATOM     58  O   UNL A   1      34.279  33.215  31.127  1.00  0.00    -0.237 OA
ATOM     59  O   UNL A   1      35.887  33.921  29.397  1.00  0.00    -0.237 OA
ATOM     60  O   UNL A   1      34.566  31.882  29.066  1.00  0.00    -0.744 OA
ENDBRANCH  54  57
ENDBRANCH  26  50
BRANCH  38  61
ATOM     61  C   UNL A   1      44.976  33.442  29.713  1.00  0.00     0.023 A 
ATOM     62  C   UNL A   1      45.726  33.550  30.900  1.00  0.00     0.012 A 
ATOM     63  C   UNL A   1      44.894  34.537  28.834  1.00  0.00     0.148 A 
ATOM     64  C   UNL A   1      46.361  34.746  31.220  1.00  0.00     0.002 A 
ATOM     65  C   UNL A   1      45.577  35.705  29.131  1.00  0.00     0.091 A 
ATOM     66  F   UNL A   1      44.153  34.411  27.722  1.00  0.00    -0.205 F 
ATOM     67  C   UNL A   1      46.300  35.818  30.331  1.00  0.00     0.022 A 
BRANCH  65  68
ATOM     68  S   UNL A   1      45.646  37.083  27.985  1.00  0.00     0.127 S 
ATOM     69  O   UNL A   1      46.291  36.473  26.824  1.00  0.00    -0.237 OA
ATOM     70  O   UNL A   1      44.231  37.405  27.801  1.00  0.00    -0.237 OA
ATOM     71  O   UNL A   1      46.416  38.123  28.656  1.00  0.00    -0.744 OA
ENDBRANCH  65  68
ENDBRANCH  38  61
ENDBRANCH  12  13
ENDBRANCH   5   7
ENDBRANCH   4   5
ENDBRANCH   3   4
ENDBRANCH   2   3
ENDBRANCH   1   2
BRANCH   1  72
ATOM     72  C   UNL A   1      34.921  22.884  25.347  1.00  0.00     0.202 C 
BRANCH  72  73
ATOM     73  C   UNL A   1      35.584  24.061  24.640  1.00  0.00     0.261 C 
BRANCH  73  74
ATOM     74  O   UNL A   1      34.588  24.732  23.857  1.00  0.00    -0.459 OA
BRANCH  74  75
ATOM     75  C   UNL A   1      33.696  25.496  24.561  1.00  0.00     0.370 C 
ATOM     76  O   UNL A   1      33.975  26.221  25.512  1.00  0.00    -0.245 OA
BRANCH  75  77
ATOM     77  C   UNL A   1      32.244  25.250  24.093  1.00  0.00     0.327 C 
BRANCH  77  78
ATOM     78  C   UNL A   1      31.547  24.233  24.995  1.00  0.00     0.032 A 
ATOM     79  C   UNL A   1      31.412  22.816  24.745  1.00  0.00     0.022 A 
ATOM     80  C   UNL A   1      30.908  24.563  26.181  1.00  0.00     0.075 A 
ATOM     81  C   UNL A   1      30.634  22.174  25.683  1.00  0.00     0.065 A 
ATOM     82  S   UNL A   1      30.131  23.232  26.926  1.00  0.00    -0.152 S 
ENDBRANCH  77  78
BRANCH  77  83
ATOM     83  N   UNL A   1      31.533  26.544  24.077  1.00  0.00    -0.319 N 
ATOM     84  C   UNL A   1      32.333  27.575  23.388  1.00  0.00     0.267 C 
ATOM     85  C   UNL A   1      30.192  26.495  23.492  1.00  0.00     0.267 C 
ATOM     86  H   UNL A   1      31.409  26.787  25.060  1.00  0.00     0.349 HD
ATOM     87  C   UNL A   1      31.773  28.924  23.783  1.00  0.00     0.107 C 
ATOM     88  C   UNL A   1      29.479  27.806  23.826  1.00  0.00     0.107 C 
ATOM     89  C   UNL A   1      30.299  29.036  23.400  1.00  0.00     0.184 C 
BRANCH  89  90
ATOM     90  O   UNL A   1      29.723  30.303  23.780  1.00  0.00    -0.488 OA
BRANCH  90  91
ATOM     91  C   UNL A   1      29.104  30.987  22.774  1.00  0.00     0.138 A 
ATOM     92  C   UNL A   1      28.750  30.383  21.573  1.00  0.00     0.050 A 
ATOM     93  C   UNL A   1      28.733  32.309  22.972  1.00  0.00     0.157 A 
ATOM     94  C   UNL A   1      28.137  31.143  20.582  1.00  0.00     0.024 A 
ATOM     95  N   UNL A   1      28.117  33.072  22.037  1.00  0.00    -0.261 NA
ATOM     96  C   UNL A   1      27.848  32.470  20.857  1.00  0.00     0.111 A 
ENDBRANCH  90  91
ENDBRANCH  89  90
ENDBRANCH  77  83
ENDBRANCH  75  77
ENDBRANCH  74  75
ENDBRANCH  73  74
ENDBRANCH  72  73
ENDBRANCH   1  72
TORSDOF 21
ENDMDL
MODEL 3
REMARK VINA RESULT:     -10.5      5.438      8.376
REMARK SMILES O=C(OCCOCCOC(=O)[C@@H](c1ccsc1)[NH+]1CCC(Oc2cccnc2)CC1)c1ccc(-c2c3nc(c(-c4cccc(S(=O)(=O)[O-])c4F)c4ccc([nH]4)c(-c4cccc(S(=O)(=O)[O-])c4F)c4nc(c(-c5cccc(S(=O)(=O)[O-])c5F)c5ccc2[nH]5)C=C4)C=C3)cc1
REMARK SMILES IDX 6 1 5 2 4 3 3 4 2 5 1 6 31 7 32 8 93 9 33 10 92 11 34 12
REMARK SMILES IDX 35 13 36 14 86 15 37 16 91 17 85 18 87 19 38 20 90 21 84 22
REMARK SMILES IDX 83 23 39 25 71 26 51 27 70 28 52 29 55 30 69 31 88 32 53 33
REMARK SMILES IDX 54 34 68 36 89 37 56 38 40 39 41 40 49 41 42 42 44 43 50 44
REMARK SMILES IDX 43 45 45 46 46 47 47 48 48 49 72 50 73 51 81 52 74 53 76 54
REMARK SMILES IDX 82 55 75 56 77 57 78 58 79 59 80 60 57 61 58 62 66 63 59 64
REMARK SMILES IDX 61 65 67 66 60 67 62 68 63 69 64 70 65 71 7 72 8 73 9 74
REMARK SMILES IDX 10 75 11 76 12 77 13 78 14 79 17 80 15 81 16 82 18 83 19 84
REMARK SMILES IDX 30 85 20 87 29 88 21 89 22 90 23 91 24 92 28 93 25 94 27 95
REMARK SMILES IDX 26 96
REMARK H PARENT 87 24 55 35 18 86
REMARK Flexibility Score: inf
ROOT
ATOM      1  O   UNL A   1      34.627  22.313  24.090  1.00  0.00    -0.374 OA
ENDROOT
BRANCH   1   2
ATOM      2  C   UNL A   1      35.526  21.331  24.596  1.00  0.00     0.202 C 
BRANCH   2   3
ATOM      3  C   UNL A   1      37.000  21.728  24.541  1.00  0.00     0.261 C 
BRANCH   3   4
ATOM      4  O   UNL A   1      37.575  21.633  25.855  1.00  0.00    -0.460 OA
BRANCH   4   5
ATOM      5  C   UNL A   1      38.891  21.715  26.171  1.00  0.00     0.338 C 
ATOM      6  O   UNL A   1      39.602  20.724  26.027  1.00  0.00    -0.246 OA
BRANCH   5   7
ATOM      7  C   UNL A   1      39.525  22.987  26.621  1.00  0.00     0.060 A 
ATOM      8  C   UNL A   1      39.173  24.248  26.144  1.00  0.00     0.016 A 
ATOM      9  C   UNL A   1      40.501  22.909  27.623  1.00  0.00     0.016 A 
ATOM     10  C   UNL A   1      39.798  25.392  26.567  1.00  0.00     0.010 A 
ATOM     11  C   UNL A   1      41.128  24.069  28.089  1.00  0.00     0.010 A 
ATOM     12  C   UNL A   1      40.781  25.307  27.536  1.00  0.00    -0.014 A 
BRANCH  12  13
ATOM     13  C   UNL A   1      41.514  26.550  27.777  1.00  0.00     0.031 A 
ATOM     14  C   UNL A   1      40.900  27.538  28.713  1.00  0.00     0.074 A 
ATOM     15  C   UNL A   1      42.788  26.636  27.355  1.00  0.00     0.049 A 
ATOM     16  N   UNL A   1      41.353  28.693  29.100  1.00  0.00    -0.248 NA
ATOM     17  C   UNL A   1      39.609  27.159  29.320  1.00  0.00     0.031 C 
ATOM     18  C   UNL A   1      43.498  25.596  26.601  1.00  0.00     0.029 A 
ATOM     19  N   UNL A   1      43.725  27.609  27.541  1.00  0.00    -0.354 N 
ATOM     20  C   UNL A   1      40.369  29.218  29.923  1.00  0.00     0.074 A 
ATOM     21  C   UNL A   1      39.313  28.239  30.025  1.00  0.00     0.031 C 
ATOM     22  C   UNL A   1      44.768  25.982  26.409  1.00  0.00     0.029 A 
ATOM     23  C   UNL A   1      44.929  27.326  26.942  1.00  0.00     0.049 A 
ATOM     24  H   UNL A   1      43.556  28.433  28.054  1.00  0.00     0.167 HD
ATOM     25  C   UNL A   1      40.353  30.432  30.517  1.00  0.00     0.034 A 
ATOM     26  C   UNL A   1      46.016  28.105  26.808  1.00  0.00     0.034 A 
ATOM     27  C   UNL A   1      41.441  31.359  30.395  1.00  0.00     0.049 A 
ATOM     28  C   UNL A   1      45.941  29.481  27.411  1.00  0.00     0.074 A 
ATOM     29  C   UNL A   1      41.542  32.647  30.877  1.00  0.00     0.029 A 
ATOM     30  N   UNL A   1      42.628  31.079  29.727  1.00  0.00    -0.354 N 
ATOM     31  N   UNL A   1      44.987  30.004  28.148  1.00  0.00    -0.248 NA
ATOM     32  C   UNL A   1      47.078  30.372  27.170  1.00  0.00     0.031 C 
ATOM     33  C   UNL A   1      42.780  33.158  30.470  1.00  0.00     0.029 A 
ATOM     34  C   UNL A   1      43.467  32.174  29.770  1.00  0.00     0.049 A 
ATOM     35  H   UNL A   1      42.839  30.224  29.286  1.00  0.00     0.167 HD
ATOM     36  C   UNL A   1      45.417  31.280  28.479  1.00  0.00     0.074 A 
ATOM     37  C   UNL A   1      46.732  31.436  27.881  1.00  0.00     0.031 C 
ATOM     38  C   UNL A   1      44.787  32.247  29.193  1.00  0.00     0.034 A 
BRANCH  25  39
ATOM     39  C   UNL A   1      39.096  30.819  31.244  1.00  0.00     0.023 A 
ATOM     40  C   UNL A   1      38.842  30.348  32.548  1.00  0.00     0.012 A 
ATOM     41  C   UNL A   1      38.127  31.608  30.594  1.00  0.00     0.148 A 
ATOM     42  C   UNL A   1      37.625  30.621  33.175  1.00  0.00     0.002 A 
ATOM     43  C   UNL A   1      36.936  31.911  31.241  1.00  0.00     0.091 A 
ATOM     44  F   UNL A   1      38.371  32.012  29.338  1.00  0.00    -0.205 F 
ATOM     45  C   UNL A   1      36.676  31.406  32.525  1.00  0.00     0.022 A 
BRANCH  43  46
ATOM     46  S   UNL A   1      35.677  32.958  30.503  1.00  0.00     0.127 S 
ATOM     47  O   UNL A   1      34.449  32.327  30.986  1.00  0.00    -0.237 OA
ATOM     48  O   UNL A   1      35.972  34.259  31.106  1.00  0.00    -0.237 OA
ATOM     49  O   UNL A   1      35.888  32.893  29.066  1.00  0.00    -0.744 OA
ENDBRANCH  43  46
ENDBRANCH  25  39
BRANCH  26  50
ATOM     50  C   UNL A   1      47.215  27.623  26.064  1.00  0.00     0.023 A 
ATOM     51  C   UNL A   1      48.193  26.861  26.731  1.00  0.00     0.012 A 
ATOM     52  C   UNL A   1      47.385  27.899  24.691  1.00  0.00     0.148 A 
ATOM     53  C   UNL A   1      49.327  26.406  26.053  1.00  0.00     0.002 A 
ATOM     54  C   UNL A   1      48.487  27.396  24.009  1.00  0.00     0.091 A 
ATOM     55  F   UNL A   1      46.458  28.644  24.072  1.00  0.00    -0.205 F 
ATOM     56  C   UNL A   1      49.469  26.665  24.693  1.00  0.00     0.022 A 
BRANCH  54  57
ATOM     57  S   UNL A   1      48.683  27.576  22.232  1.00  0.00     0.127 S 
ATOM     58  O   UNL A   1      48.753  26.183  21.797  1.00  0.00    -0.237 OA
ATOM     59  O   UNL A   1      47.451  28.275  21.860  1.00  0.00    -0.237 OA
ATOM     60  O   UNL A   1      49.895  28.361  22.046  1.00  0.00    -0.744 OA
ENDBRANCH  54  57
ENDBRANCH  26  50
BRANCH  38  61
ATOM     61  C   UNL A   1      45.539  33.529  29.400  1.00  0.00     0.023 A 
ATOM     62  C   UNL A   1      46.442  33.649  30.473  1.00  0.00     0.012 A 
ATOM     63  C   UNL A   1      45.407  34.578  28.473  1.00  0.00     0.148 A 
ATOM     64  C   UNL A   1      47.183  34.816  30.637  1.00  0.00     0.002 A 
ATOM     65  C   UNL A   1      46.191  35.713  28.609  1.00  0.00     0.091 A 
ATOM     66  F   UNL A   1      44.522  34.443  27.474  1.00  0.00    -0.205 F 
ATOM     67  C   UNL A   1      47.069  35.841  29.699  1.00  0.00     0.022 A 
BRANCH  65  68
ATOM     68  S   UNL A   1      46.191  37.021  27.382  1.00  0.00     0.127 S 
ATOM     69  O   UNL A   1      44.772  37.364  27.312  1.00  0.00    -0.237 OA
ATOM     70  O   UNL A   1      47.036  38.036  28.011  1.00  0.00    -0.237 OA
ATOM     71  O   UNL A   1      46.755  36.436  26.173  1.00  0.00    -0.744 OA
ENDBRANCH  65  68
ENDBRANCH  38  61
ENDBRANCH  12  13
ENDBRANCH   5   7
ENDBRANCH   4   5
ENDBRANCH   3   4
ENDBRANCH   2   3
ENDBRANCH   1   2
BRANCH   1  72
ATOM     72  C   UNL A   1      34.745  23.637  24.606  1.00  0.00     0.202 C 
BRANCH  72  73
ATOM     73  C   UNL A   1      33.346  24.217  24.779  1.00  0.00     0.261 C 
BRANCH  73  74
ATOM     74  O   UNL A   1      33.433  25.341  25.665  1.00  0.00    -0.459 OA
BRANCH  74  75
ATOM     75  C   UNL A   1      33.292  26.571  25.079  1.00  0.00     0.370 C 
ATOM     76  O   UNL A   1      33.951  26.988  24.131  1.00  0.00    -0.245 OA
BRANCH  75  77
ATOM     77  C   UNL A   1      32.267  27.445  25.835  1.00  0.00     0.327 C 
BRANCH  77  78
ATOM     78  C   UNL A   1      32.931  28.702  26.395  1.00  0.00     0.032 A 
ATOM     79  C   UNL A   1      34.323  28.849  26.752  1.00  0.00     0.022 A 
ATOM     80  C   UNL A   1      32.249  29.878  26.671  1.00  0.00     0.075 A 
ATOM     81  C   UNL A   1      34.606  30.064  27.336  1.00  0.00     0.065 A 
ATOM     82  S   UNL A   1      33.236  31.082  27.383  1.00  0.00    -0.152 S 
ENDBRANCH  77  78
BRANCH  77  83
ATOM     83  N   UNL A   1      31.163  27.776  24.912  1.00  0.00    -0.319 N 
ATOM     84  C   UNL A   1      31.676  28.436  23.695  1.00  0.00     0.267 C 
ATOM     85  C   UNL A   1      30.324  26.639  24.533  1.00  0.00     0.267 C 
ATOM     86  H   UNL A   1      30.564  28.414  25.437  1.00  0.00     0.349 HD
ATOM     87  C   UNL A   1      30.507  29.124  23.024  1.00  0.00     0.107 C 
ATOM     88  C   UNL A   1      29.070  27.181  23.845  1.00  0.00     0.107 C 
ATOM     89  C   UNL A   1      29.411  28.120  22.675  1.00  0.00     0.184 C 
BRANCH  89  90
ATOM     90  O   UNL A   1      28.268  28.742  22.051  1.00  0.00    -0.488 OA
BRANCH  90  91
ATOM     91  C   UNL A   1      28.215  30.101  22.155  1.00  0.00     0.138 A 
ATOM     92  C   UNL A   1      28.424  30.938  21.065  1.00  0.00     0.050 A 
ATOM     93  C   UNL A   1      27.859  30.682  23.363  1.00  0.00     0.157 A 
ATOM     94  C   UNL A   1      28.373  32.317  21.245  1.00  0.00     0.024 A 
ATOM     95  N   UNL A   1      27.779  32.019  23.567  1.00  0.00    -0.261 NA
ATOM     96  C   UNL A   1      28.054  32.805  22.502  1.00  0.00     0.111 A 
ENDBRANCH  90  91
ENDBRANCH  89  90
ENDBRANCH  77  83
ENDBRANCH  75  77
ENDBRANCH  74  75
ENDBRANCH  73  74
ENDBRANCH  72  73
ENDBRANCH   1  72
TORSDOF 21
ENDMDL
