MODEL 1
REMARK VINA RESULT:      -9.3      0.000      0.000
REMARK SMILES COC(=O)CCN(C)C(=O)NCc1ccc(C(=O)OCCOCCOC(=O)c2ccc(-c3c4nc(c(-c5cccc(S(=O)(=O)[O-])c5F)c5ccc([nH]5)c(-c5cccc(S(=O)(=O)[O-])c5F)c5nc(c(-c6cccc(S(=O)(=O)[O-])c6F)c6ccc3[nH]6)C=C5)C=C4)cc2)o1
REMARK SMILES IDX 20 1 19 2 17 3 18 4 16 5 13 6 14 7 91 8 15 9 12 10 11 11
REMARK SMILES IDX 9 12 10 13 7 15 8 16 6 17 5 18 3 19 4 20 2 21 1 22 21 23
REMARK SMILES IDX 22 24 23 25 24 26 25 27 26 28 27 29 28 30 29 31 90 32 30 33
REMARK SMILES IDX 89 34 31 35 32 36 33 37 83 38 34 39 88 40 82 41 84 42 35 43
REMARK SMILES IDX 87 44 81 45 80 46 36 48 68 49 48 50 67 51 49 52 52 53 66 54
REMARK SMILES IDX 85 55 50 56 51 57 65 59 86 60 53 61 37 62 38 63 46 64 39 65
REMARK SMILES IDX 41 66 47 67 40 68 42 69 43 70 44 71 45 72 69 73 70 74 78 75
REMARK SMILES IDX 71 76 73 77 79 78 72 79 74 80 75 81 76 82 77 83 54 84 55 85
REMARK SMILES IDX 63 86 56 87 58 88 64 89 57 90 59 91 60 92 61 93 62 94
REMARK H PARENT 11 14 84 47 52 58
REMARK Flexibility Score: inf
ROOT
ATOM      1  C   UNL A   1      33.821  28.818  27.388  1.00  0.00     0.261 C 
ENDROOT
BRANCH   1   2
ATOM      2  O   UNL A   1      32.656  28.690  26.557  1.00  0.00    -0.457 OA
BRANCH   2   3
ATOM      3  C   UNL A   1      31.693  27.836  27.005  1.00  0.00     0.374 C 
ATOM      4  O   UNL A   1      31.046  27.986  28.036  1.00  0.00    -0.242 OA
BRANCH   3   5
ATOM      5  C   UNL A   1      31.472  26.804  26.020  1.00  0.00     0.211 A 
ATOM      6  C   UNL A   1      31.728  24.766  25.216  1.00  0.00     0.124 A 
ATOM      7  C   UNL A   1      30.773  25.372  24.430  1.00  0.00     0.048 A 
ATOM      8  O   UNL A   1      32.175  25.638  26.160  1.00  0.00    -0.452 OA
ATOM      9  C   UNL A   1      30.602  26.681  24.949  1.00  0.00     0.058 A 
BRANCH   6  10
ATOM     10  C   UNL A   1      32.285  23.395  25.292  1.00  0.00     0.193 C 
BRANCH  10  11
ATOM     11  N   UNL A   1      32.284  22.862  23.946  1.00  0.00    -0.331 N 
ATOM     12  C   UNL A   1      32.547  21.685  23.363  1.00  0.00     0.317 C 
ATOM     13  O   UNL A   1      32.209  21.594  22.178  1.00  0.00    -0.249 OA
ATOM     14  H   UNL A   1      32.023  23.544  23.286  1.00  0.00     0.165 HD
BRANCH  12  15
ATOM     15  N   UNL A   1      33.109  20.631  24.030  1.00  0.00    -0.327 N 
ATOM     16  C   UNL A   1      34.218  20.693  24.965  1.00  0.00     0.148 C 
BRANCH  15  17
ATOM     17  C   UNL A   1      32.547  19.296  23.779  1.00  0.00     0.132 C 
BRANCH  17  18
ATOM     18  C   UNL A   1      33.288  18.192  24.524  1.00  0.00     0.144 C 
BRANCH  18  19
ATOM     19  C   UNL A   1      33.463  16.979  23.649  1.00  0.00     0.307 C 
ATOM     20  O   UNL A   1      33.575  17.030  22.430  1.00  0.00    -0.252 OA
BRANCH  19  21
ATOM     21  O   UNL A   1      33.479  15.845  24.399  1.00  0.00    -0.469 OA
ATOM     22  C   UNL A   1      33.015  16.023  25.738  1.00  0.00     0.282 C 
ENDBRANCH  19  21
ENDBRANCH  18  19
ENDBRANCH  17  18
ENDBRANCH  15  17
ENDBRANCH  12  15
ENDBRANCH  10  11
ENDBRANCH   6  10
ENDBRANCH   3   5
ENDBRANCH   2   3
ENDBRANCH   1   2
BRANCH   1  23
ATOM     23  C   UNL A   1      34.229  30.291  27.481  1.00  0.00     0.202 C 
BRANCH  23  24
ATOM     24  O   UNL A   1      33.163  31.163  27.865  1.00  0.00    -0.374 OA
BRANCH  24  25
ATOM     25  C   UNL A   1      32.962  32.310  27.033  1.00  0.00     0.202 C 
BRANCH  25  26
ATOM     26  C   UNL A   1      32.416  33.542  27.763  1.00  0.00     0.261 C 
BRANCH  26  27
ATOM     27  O   UNL A   1      33.456  34.510  27.987  1.00  0.00    -0.460 OA
BRANCH  27  28
ATOM     28  C   UNL A   1      33.766  34.744  29.285  1.00  0.00     0.338 C 
ATOM     29  O   UNL A   1      33.165  35.459  30.068  1.00  0.00    -0.246 OA
BRANCH  28  30
ATOM     30  C   UNL A   1      34.866  33.845  29.695  1.00  0.00     0.060 A 
ATOM     31  C   UNL A   1      34.538  32.738  30.490  1.00  0.00     0.016 A 
ATOM     32  C   UNL A   1      36.193  34.091  29.336  1.00  0.00     0.016 A 
ATOM     33  C   UNL A   1      35.542  31.894  30.964  1.00  0.00     0.010 A 
ATOM     34  C   UNL A   1      37.198  33.248  29.819  1.00  0.00     0.010 A 
ATOM     35  C   UNL A   1      36.881  32.166  30.659  1.00  0.00    -0.014 A 
BRANCH  35  36
ATOM     36  C   UNL A   1      37.972  31.412  31.320  1.00  0.00     0.031 A 
ATOM     37  C   UNL A   1      38.447  31.866  32.672  1.00  0.00     0.074 A 
ATOM     38  C   UNL A   1      38.562  30.371  30.706  1.00  0.00     0.049 A 
ATOM     39  N   UNL A   1      39.456  31.436  33.383  1.00  0.00    -0.248 NA
ATOM     40  C   UNL A   1      37.685  32.956  33.305  1.00  0.00     0.031 C 
ATOM     41  C   UNL A   1      38.183  29.836  29.399  1.00  0.00     0.029 A 
ATOM     42  N   UNL A   1      39.635  29.605  31.087  1.00  0.00    -0.354 N 
ATOM     43  C   UNL A   1      39.476  32.225  34.526  1.00  0.00     0.074 A 
ATOM     44  C   UNL A   1      38.378  33.161  34.416  1.00  0.00     0.031 C 
ATOM     45  C   UNL A   1      39.037  28.853  29.068  1.00  0.00     0.029 A 
ATOM     46  C   UNL A   1      40.038  28.710  30.124  1.00  0.00     0.049 A 
ATOM     47  H   UNL A   1      40.073  29.687  31.965  1.00  0.00     0.167 HD
ATOM     48  C   UNL A   1      40.325  32.168  35.578  1.00  0.00     0.034 A 
ATOM     49  C   UNL A   1      41.110  27.893  30.087  1.00  0.00     0.034 A 
ATOM     50  C   UNL A   1      41.399  31.220  35.696  1.00  0.00     0.049 A 
ATOM     51  C   UNL A   1      42.051  27.859  31.264  1.00  0.00     0.074 A 
ATOM     52  C   UNL A   1      42.289  31.055  36.742  1.00  0.00     0.029 A 
ATOM     53  N   UNL A   1      41.732  30.282  34.733  1.00  0.00    -0.354 N 
ATOM     54  N   UNL A   1      41.994  28.536  32.387  1.00  0.00    -0.248 NA
ATOM     55  C   UNL A   1      43.189  26.930  31.185  1.00  0.00     0.031 C 
ATOM     56  C   UNL A   1      43.172  30.026  36.403  1.00  0.00     0.029 A 
ATOM     57  C   UNL A   1      42.818  29.537  35.156  1.00  0.00     0.049 A 
ATOM     58  H   UNL A   1      41.265  30.164  33.873  1.00  0.00     0.167 HD
ATOM     59  C   UNL A   1      43.055  28.082  33.162  1.00  0.00     0.074 A 
ATOM     60  C   UNL A   1      43.737  27.068  32.385  1.00  0.00     0.031 C 
ATOM     61  C   UNL A   1      43.438  28.479  34.401  1.00  0.00     0.034 A 
BRANCH  48  62
ATOM     62  C   UNL A   1      40.108  33.142  36.705  1.00  0.00     0.023 A 
ATOM     63  C   UNL A   1      39.078  32.908  37.637  1.00  0.00     0.012 A 
ATOM     64  C   UNL A   1      40.957  34.253  36.874  1.00  0.00     0.148 A 
ATOM     65  C   UNL A   1      38.878  33.780  38.706  1.00  0.00     0.002 A 
ATOM     66  C   UNL A   1      40.777  35.096  37.964  1.00  0.00     0.091 A 
ATOM     67  F   UNL A   1      41.915  34.472  35.960  1.00  0.00    -0.205 F 
ATOM     68  C   UNL A   1      39.734  34.866  38.876  1.00  0.00     0.022 A 
BRANCH  66  69
ATOM     69  S   UNL A   1      41.873  36.476  38.306  1.00  0.00     0.127 S 
ATOM     70  O   UNL A   1      41.040  37.306  39.175  1.00  0.00    -0.237 OA
ATOM     71  O   UNL A   1      42.995  35.823  38.981  1.00  0.00    -0.237 OA
ATOM     72  O   UNL A   1      42.202  37.056  37.011  1.00  0.00    -0.744 OA
ENDBRANCH  66  69
ENDBRANCH  48  62
BRANCH  49  73
ATOM     73  C   UNL A   1      41.333  27.013  28.906  1.00  0.00     0.023 A 
ATOM     74  C   UNL A   1      40.617  25.804  28.798  1.00  0.00     0.012 A 
ATOM     75  C   UNL A   1      42.225  27.375  27.879  1.00  0.00     0.148 A 
ATOM     76  C   UNL A   1      40.806  24.961  27.704  1.00  0.00     0.002 A 
ATOM     77  C   UNL A   1      42.369  26.556  26.764  1.00  0.00     0.091 A 
ATOM     78  F   UNL A   1      42.913  28.518  28.008  1.00  0.00    -0.205 F 
ATOM     79  C   UNL A   1      41.672  25.341  26.682  1.00  0.00     0.022 A 
BRANCH  77  80
ATOM     80  S   UNL A   1      43.362  27.032  25.344  1.00  0.00     0.127 S 
ATOM     81  O   UNL A   1      44.575  27.533  25.982  1.00  0.00    -0.237 OA
ATOM     82  O   UNL A   1      43.514  25.759  24.639  1.00  0.00    -0.237 OA
ATOM     83  O   UNL A   1      42.566  28.019  24.625  1.00  0.00    -0.744 OA
ENDBRANCH  77  80
ENDBRANCH  49  73
BRANCH  61  84
ATOM     84  C   UNL A   1      44.614  27.784  35.035  1.00  0.00     0.023 A 
ATOM     85  C   UNL A   1      45.883  28.395  35.016  1.00  0.00     0.012 A 
ATOM     86  C   UNL A   1      44.434  26.580  35.745  1.00  0.00     0.148 A 
ATOM     87  C   UNL A   1      46.959  27.808  35.681  1.00  0.00     0.002 A 
ATOM     88  C   UNL A   1      45.500  26.026  36.443  1.00  0.00     0.091 A 
ATOM     89  F   UNL A   1      43.222  26.007  35.735  1.00  0.00    -0.205 F 
ATOM     90  C   UNL A   1      46.765  26.633  36.405  1.00  0.00     0.022 A 
BRANCH  88  91
ATOM     91  S   UNL A   1      45.319  24.568  37.478  1.00  0.00     0.127 S 
ATOM     92  O   UNL A   1      46.659  24.438  38.047  1.00  0.00    -0.237 OA
ATOM     93  O   UNL A   1      44.290  24.989  38.430  1.00  0.00    -0.237 OA
ATOM     94  O   UNL A   1      44.911  23.491  36.586  1.00  0.00    -0.744 OA
ENDBRANCH  88  91
ENDBRANCH  61  84
ENDBRANCH  35  36
ENDBRANCH  28  30
ENDBRANCH  27  28
ENDBRANCH  26  27
ENDBRANCH  25  26
ENDBRANCH  24  25
ENDBRANCH  23  24
ENDBRANCH   1  23
TORSDOF 24
ENDMDL
MODEL 2
REMARK VINA RESULT:      -9.0      2.017      2.434
REMARK SMILES COC(=O)CCN(C)C(=O)NCc1ccc(C(=O)OCCOCCOC(=O)c2ccc(-c3c4nc(c(-c5cccc(S(=O)(=O)[O-])c5F)c5ccc([nH]5)c(-c5cccc(S(=O)(=O)[O-])c5F)c5nc(c(-c6cccc(S(=O)(=O)[O-])c6F)c6ccc3[nH]6)C=C5)C=C4)cc2)o1
REMARK SMILES IDX 20 1 19 2 17 3 18 4 16 5 13 6 14 7 91 8 15 9 12 10 11 11
REMARK SMILES IDX 9 12 10 13 7 15 8 16 6 17 5 18 3 19 4 20 2 21 1 22 21 23
REMARK SMILES IDX 22 24 23 25 24 26 25 27 26 28 27 29 28 30 29 31 90 32 30 33
REMARK SMILES IDX 89 34 31 35 32 36 33 37 83 38 34 39 88 40 82 41 84 42 35 43
REMARK SMILES IDX 87 44 81 45 80 46 36 48 68 49 48 50 67 51 49 52 52 53 66 54
REMARK SMILES IDX 85 55 50 56 51 57 65 59 86 60 53 61 37 62 38 63 46 64 39 65
REMARK SMILES IDX 41 66 47 67 40 68 42 69 43 70 44 71 45 72 69 73 70 74 78 75
REMARK SMILES IDX 71 76 73 77 79 78 72 79 74 80 75 81 76 82 77 83 54 84 55 85
REMARK SMILES IDX 63 86 56 87 58 88 64 89 57 90 59 91 60 92 61 93 62 94
REMARK H PARENT 11 14 84 47 52 58
REMARK Flexibility Score: inf
ROOT
ATOM      1  C   UNL A   1      32.848  28.924  25.247  1.00  0.00     0.261 C 
ENDROOT
BRANCH   1   2
ATOM      2  O   UNL A   1      33.012  27.532  25.566  1.00  0.00    -0.457 OA
BRANCH   2   3
ATOM      3  C   UNL A   1      32.607  26.647  24.612  1.00  0.00     0.374 C 
ATOM      4  O   UNL A   1      32.979  26.655  23.444  1.00  0.00    -0.242 OA
BRANCH   3   5
ATOM      5  C   UNL A   1      31.774  25.637  25.220  1.00  0.00     0.211 A 
ATOM      6  C   UNL A   1      31.253  23.548  25.704  1.00  0.00     0.124 A 
ATOM      7  C   UNL A   1      30.404  24.339  26.448  1.00  0.00     0.048 A 
ATOM      8  O   UNL A   1      32.063  24.329  24.938  1.00  0.00    -0.452 OA
ATOM      9  C   UNL A   1      30.743  25.682  26.143  1.00  0.00     0.058 A 
BRANCH   6  10
ATOM     10  C   UNL A   1      31.508  22.091  25.631  1.00  0.00     0.193 C 
BRANCH  10  11
ATOM     11  N   UNL A   1      31.773  21.775  24.243  1.00  0.00    -0.331 N 
ATOM     12  C   UNL A   1      32.380  20.793  23.565  1.00  0.00     0.317 C 
ATOM     13  O   UNL A   1      32.194  20.799  22.344  1.00  0.00    -0.249 OA
ATOM     14  H   UNL A   1      31.414  22.465  23.639  1.00  0.00     0.165 HD
BRANCH  12  15
ATOM     15  N   UNL A   1      33.123  19.816  24.171  1.00  0.00    -0.327 N 
ATOM     16  C   UNL A   1      34.388  19.996  24.860  1.00  0.00     0.148 C 
BRANCH  15  17
ATOM     17  C   UNL A   1      32.601  18.443  24.122  1.00  0.00     0.132 C 
BRANCH  17  18
ATOM     18  C   UNL A   1      33.603  17.449  23.545  1.00  0.00     0.144 C 
BRANCH  18  19
ATOM     19  C   UNL A   1      33.849  16.317  24.507  1.00  0.00     0.307 C 
ATOM     20  O   UNL A   1      34.793  15.543  24.419  1.00  0.00    -0.252 OA
BRANCH  19  21
ATOM     21  O   UNL A   1      32.886  16.287  25.468  1.00  0.00    -0.469 OA
ATOM     22  C   UNL A   1      32.313  14.996  25.681  1.00  0.00     0.282 C 
ENDBRANCH  19  21
ENDBRANCH  18  19
ENDBRANCH  17  18
ENDBRANCH  15  17
ENDBRANCH  12  15
ENDBRANCH  10  11
ENDBRANCH   6  10
ENDBRANCH   3   5
ENDBRANCH   2   3
ENDBRANCH   1   2
BRANCH   1  23
ATOM     23  C   UNL A   1      32.238  29.659  26.442  1.00  0.00     0.202 C 
BRANCH  23  24
ATOM     24  O   UNL A   1      32.127  31.073  26.256  1.00  0.00    -0.374 OA
BRANCH  24  25
ATOM     25  C   UNL A   1      32.665  31.886  27.303  1.00  0.00     0.202 C 
BRANCH  25  26
ATOM     26  C   UNL A   1      32.172  33.337  27.303  1.00  0.00     0.261 C 
BRANCH  26  27
ATOM     27  O   UNL A   1      32.527  34.001  28.530  1.00  0.00    -0.460 OA
BRANCH  27  28
ATOM     28  C   UNL A   1      33.675  34.719  28.493  1.00  0.00     0.338 C 
ATOM     29  O   UNL A   1      33.830  35.835  28.026  1.00  0.00    -0.246 OA
BRANCH  28  30
ATOM     30  C   UNL A   1      34.713  34.025  29.283  1.00  0.00     0.060 A 
ATOM     31  C   UNL A   1      36.051  34.371  29.046  1.00  0.00     0.016 A 
ATOM     32  C   UNL A   1      34.393  33.036  30.216  1.00  0.00     0.016 A 
ATOM     33  C   UNL A   1      37.077  33.700  29.711  1.00  0.00     0.010 A 
ATOM     34  C   UNL A   1      35.423  32.360  30.876  1.00  0.00     0.010 A 
ATOM     35  C   UNL A   1      36.768  32.667  30.604  1.00  0.00    -0.014 A 
BRANCH  35  36
ATOM     36  C   UNL A   1      37.839  31.806  31.158  1.00  0.00     0.031 A 
ATOM     37  C   UNL A   1      38.258  32.005  32.588  1.00  0.00     0.074 A 
ATOM     38  C   UNL A   1      38.461  30.896  30.387  1.00  0.00     0.049 A 
ATOM     39  N   UNL A   1      39.244  31.453  33.246  1.00  0.00    -0.248 NA
ATOM     40  C   UNL A   1      37.464  32.959  33.379  1.00  0.00     0.031 C 
ATOM     41  C   UNL A   1      38.136  30.610  28.990  1.00  0.00     0.029 A 
ATOM     42  N   UNL A   1      39.525  30.075  30.662  1.00  0.00    -0.354 N 
ATOM     43  C   UNL A   1      39.214  32.019  34.514  1.00  0.00     0.074 A 
ATOM     44  C   UNL A   1      38.113  32.958  34.535  1.00  0.00     0.031 C 
ATOM     45  C   UNL A   1      39.010  29.705  28.518  1.00  0.00     0.029 A 
ATOM     46  C   UNL A   1      39.972  29.373  29.567  1.00  0.00     0.049 A 
ATOM     47  H   UNL A   1      39.929  29.995  31.556  1.00  0.00     0.167 HD
ATOM     48  C   UNL A   1      40.023  31.771  35.570  1.00  0.00     0.034 A 
ATOM     49  C   UNL A   1      41.051  28.578  29.423  1.00  0.00     0.034 A 
ATOM     50  C   UNL A   1      41.100  30.820  35.554  1.00  0.00     0.049 A 
ATOM     51  C   UNL A   1      41.948  28.330  30.609  1.00  0.00     0.074 A 
ATOM     52  C   UNL A   1      41.952  30.467  36.585  1.00  0.00     0.029 A 
ATOM     53  N   UNL A   1      41.477  30.075  34.448  1.00  0.00    -0.354 N 
ATOM     54  N   UNL A   1      41.843  28.789  31.834  1.00  0.00    -0.248 NA
ATOM     55  C   UNL A   1      43.095  27.433  30.405  1.00  0.00     0.031 C 
ATOM     56  C   UNL A   1      42.855  29.519  36.098  1.00  0.00     0.029 A 
ATOM     57  C   UNL A   1      42.553  29.266  34.769  1.00  0.00     0.049 A 
ATOM     58  H   UNL A   1      41.044  30.116  33.564  1.00  0.00     0.167 HD
ATOM     59  C   UNL A   1      42.878  28.203  32.554  1.00  0.00     0.074 A 
ATOM     60  C   UNL A   1      43.597  27.349  31.630  1.00  0.00     0.031 C 
ATOM     61  C   UNL A   1      43.210  28.366  33.857  1.00  0.00     0.034 A 
BRANCH  48  62
ATOM     62  C   UNL A   1      39.755  32.522  36.847  1.00  0.00     0.023 A 
ATOM     63  C   UNL A   1      40.533  33.652  37.166  1.00  0.00     0.012 A 
ATOM     64  C   UNL A   1      38.700  32.144  37.699  1.00  0.00     0.148 A 
ATOM     65  C   UNL A   1      40.283  34.380  38.328  1.00  0.00     0.002 A 
ATOM     66  C   UNL A   1      38.431  32.898  38.835  1.00  0.00     0.091 A 
ATOM     67  F   UNL A   1      37.988  31.049  37.391  1.00  0.00    -0.205 F 
ATOM     68  C   UNL A   1      39.225  34.010  39.156  1.00  0.00     0.022 A 
BRANCH  66  69
ATOM     69  S   UNL A   1      37.045  32.542  39.922  1.00  0.00     0.127 S 
ATOM     70  O   UNL A   1      35.916  32.629  38.997  1.00  0.00    -0.237 OA
ATOM     71  O   UNL A   1      37.351  31.187  40.383  1.00  0.00    -0.237 OA
ATOM     72  O   UNL A   1      37.083  33.558  40.964  1.00  0.00    -0.744 OA
ENDBRANCH  66  69
ENDBRANCH  48  62
BRANCH  49  73
ATOM     73  C   UNL A   1      41.326  27.930  28.110  1.00  0.00     0.023 A 
ATOM     74  C   UNL A   1      41.751  28.720  27.023  1.00  0.00     0.012 A 
ATOM     75  C   UNL A   1      41.196  26.539  27.936  1.00  0.00     0.148 A 
ATOM     76  C   UNL A   1      42.015  28.140  25.783  1.00  0.00     0.002 A 
ATOM     77  C   UNL A   1      41.513  25.959  26.712  1.00  0.00     0.091 A 
ATOM     78  F   UNL A   1      40.771  25.806  28.975  1.00  0.00    -0.205 F 
ATOM     79  C   UNL A   1      41.907  26.760  25.630  1.00  0.00     0.022 A 
BRANCH  77  80
ATOM     80  S   UNL A   1      41.527  24.179  26.468  1.00  0.00     0.127 S 
ATOM     81  O   UNL A   1      40.108  23.890  26.288  1.00  0.00    -0.237 OA
ATOM     82  O   UNL A   1      42.344  24.045  25.260  1.00  0.00    -0.237 OA
ATOM     83  O   UNL A   1      42.143  23.626  27.667  1.00  0.00    -0.744 OA
ENDBRANCH  77  80
ENDBRANCH  49  73
BRANCH  61  84
ATOM     84  C   UNL A   1      44.368  27.568  34.399  1.00  0.00     0.023 A 
ATOM     85  C   UNL A   1      45.594  28.205  34.665  1.00  0.00     0.012 A 
ATOM     86  C   UNL A   1      44.199  26.213  34.747  1.00  0.00     0.148 A 
ATOM     87  C   UNL A   1      46.643  27.501  35.255  1.00  0.00     0.002 A 
ATOM     88  C   UNL A   1      45.234  25.529  35.375  1.00  0.00     0.091 A 
ATOM     89  F   UNL A   1      43.029  25.622  34.468  1.00  0.00    -0.205 F 
ATOM     90  C   UNL A   1      46.458  26.169  35.622  1.00  0.00     0.022 A 
BRANCH  88  91
ATOM     91  S   UNL A   1      45.052  23.843  35.968  1.00  0.00     0.127 S 
ATOM     92  O   UNL A   1      45.486  23.968  37.358  1.00  0.00    -0.237 OA
ATOM     93  O   UNL A   1      43.618  23.605  35.795  1.00  0.00    -0.237 OA
ATOM     94  O   UNL A   1      45.906  23.024  35.117  1.00  0.00    -0.744 OA
ENDBRANCH  88  91
ENDBRANCH  61  84
ENDBRANCH  35  36
ENDBRANCH  28  30
ENDBRANCH  27  28
ENDBRANCH  26  27
ENDBRANCH  25  26
ENDBRANCH  24  25
ENDBRANCH  23  24
ENDBRANCH   1  23
TORSDOF 24
ENDMDL
MODEL 3
REMARK VINA RESULT:      -8.5      4.052      5.929
REMARK SMILES COC(=O)CCN(C)C(=O)NCc1ccc(C(=O)OCCOCCOC(=O)c2ccc(-c3c4nc(c(-c5cccc(S(=O)(=O)[O-])c5F)c5ccc([nH]5)c(-c5cccc(S(=O)(=O)[O-])c5F)c5nc(c(-c6cccc(S(=O)(=O)[O-])c6F)c6ccc3[nH]6)C=C5)C=C4)cc2)o1
REMARK SMILES IDX 20 1 19 2 17 3 18 4 16 5 13 6 14 7 91 8 15 9 12 10 11 11
REMARK SMILES IDX 9 12 10 13 7 15 8 16 6 17 5 18 3 19 4 20 2 21 1 22 21 23
REMARK SMILES IDX 22 24 23 25 24 26 25 27 26 28 27 29 28 30 29 31 90 32 30 33
REMARK SMILES IDX 89 34 31 35 32 36 33 37 83 38 34 39 88 40 82 41 84 42 35 43
REMARK SMILES IDX 87 44 81 45 80 46 36 48 68 49 48 50 67 51 49 52 52 53 66 54
REMARK SMILES IDX 85 55 50 56 51 57 65 59 86 60 53 61 37 62 38 63 46 64 39 65
REMARK SMILES IDX 41 66 47 67 40 68 42 69 43 70 44 71 45 72 69 73 70 74 78 75
REMARK SMILES IDX 71 76 73 77 79 78 72 79 74 80 75 81 76 82 77 83 54 84 55 85
REMARK SMILES IDX 63 86 56 87 58 88 64 89 57 90 59 91 60 92 61 93 62 94
REMARK H PARENT 11 14 84 47 52 58
REMARK Flexibility Score: inf
ROOT
ATOM      1  C   UNL A   1      33.022  35.341  29.213  1.00  0.00     0.261 C 
ENDROOT
BRANCH   1   2
ATOM      2  O   UNL A   1      33.647  34.047  29.199  1.00  0.00    -0.457 OA
BRANCH   2   3
ATOM      3  C   UNL A   1      34.444  33.779  28.127  1.00  0.00     0.374 C 
ATOM      4  O   UNL A   1      34.751  34.590  27.260  1.00  0.00    -0.242 OA
BRANCH   3   5
ATOM      5  C   UNL A   1      34.963  32.437  28.240  1.00  0.00     0.211 A 
ATOM      6  C   UNL A   1      34.986  30.288  27.739  1.00  0.00     0.124 A 
ATOM      7  C   UNL A   1      36.126  30.524  28.477  1.00  0.00     0.048 A 
ATOM      8  O   UNL A   1      34.265  31.436  27.619  1.00  0.00    -0.452 OA
ATOM      9  C   UNL A   1      36.116  31.906  28.794  1.00  0.00     0.058 A 
BRANCH   6  10
ATOM     10  C   UNL A   1      34.449  29.113  27.014  1.00  0.00     0.193 C 
BRANCH  10  11
ATOM     11  N   UNL A   1      33.128  28.854  27.547  1.00  0.00    -0.331 N 
ATOM     12  C   UNL A   1      32.071  28.103  27.210  1.00  0.00     0.317 C 
ATOM     13  O   UNL A   1      31.195  28.003  28.076  1.00  0.00    -0.249 OA
ATOM     14  H   UNL A   1      32.963  29.363  28.373  1.00  0.00     0.165 HD
BRANCH  12  15
ATOM     15  N   UNL A   1      31.971  27.450  26.012  1.00  0.00    -0.327 N 
ATOM     16  C   UNL A   1      31.448  27.993  24.772  1.00  0.00     0.148 C 
BRANCH  15  17
ATOM     17  C   UNL A   1      32.432  26.054  25.964  1.00  0.00     0.132 C 
BRANCH  17  18
ATOM     18  C   UNL A   1      31.450  25.131  25.254  1.00  0.00     0.144 C 
BRANCH  18  19
ATOM     19  C   UNL A   1      30.422  24.599  26.216  1.00  0.00     0.307 C 
ATOM     20  O   UNL A   1      29.510  25.273  26.678  1.00  0.00    -0.252 OA
BRANCH  19  21
ATOM     21  O   UNL A   1      30.652  23.285  26.486  1.00  0.00    -0.469 OA
ATOM     22  C   UNL A   1      31.426  22.611  25.493  1.00  0.00     0.282 C 
ENDBRANCH  19  21
ENDBRANCH  18  19
ENDBRANCH  17  18
ENDBRANCH  15  17
ENDBRANCH  12  15
ENDBRANCH  10  11
ENDBRANCH   6  10
ENDBRANCH   3   5
ENDBRANCH   2   3
ENDBRANCH   1   2
BRANCH   1  23
ATOM     23  C   UNL A   1      32.680  35.733  30.653  1.00  0.00     0.202 C 
BRANCH  23  24
ATOM     24  O   UNL A   1      33.806  36.178  31.414  1.00  0.00    -0.374 OA
BRANCH  24  25
ATOM     25  C   UNL A   1      33.768  35.887  32.815  1.00  0.00     0.202 C 
BRANCH  25  26
ATOM     26  C   UNL A   1      34.881  34.954  33.305  1.00  0.00     0.261 C 
BRANCH  26  27
ATOM     27  O   UNL A   1      35.509  34.279  32.201  1.00  0.00    -0.460 OA
BRANCH  27  28
ATOM     28  C   UNL A   1      35.375  32.930  32.190  1.00  0.00     0.338 C 
ATOM     29  O   UNL A   1      34.367  32.293  31.940  1.00  0.00    -0.246 OA
BRANCH  28  30
ATOM     30  C   UNL A   1      36.705  32.305  32.349  1.00  0.00     0.060 A 
ATOM     31  C   UNL A   1      37.796  32.928  31.727  1.00  0.00     0.016 A 
ATOM     32  C   UNL A   1      36.882  31.120  33.067  1.00  0.00     0.016 A 
ATOM     33  C   UNL A   1      39.062  32.345  31.785  1.00  0.00     0.010 A 
ATOM     34  C   UNL A   1      38.150  30.535  33.118  1.00  0.00     0.010 A 
ATOM     35  C   UNL A   1      39.238  31.127  32.452  1.00  0.00    -0.014 A 
BRANCH  35  36
ATOM     36  C   UNL A   1      40.518  30.390  32.348  1.00  0.00     0.031 A 
ATOM     37  C   UNL A   1      41.661  30.798  33.236  1.00  0.00     0.074 A 
ATOM     38  C   UNL A   1      40.677  29.407  31.443  1.00  0.00     0.049 A 
ATOM     39  N   UNL A   1      42.898  30.378  33.238  1.00  0.00    -0.248 NA
ATOM     40  C   UNL A   1      41.369  31.821  34.253  1.00  0.00     0.031 C 
ATOM     41  C   UNL A   1      39.640  28.921  30.534  1.00  0.00     0.029 A 
ATOM     42  N   UNL A   1      41.788  28.671  31.114  1.00  0.00    -0.354 N 
ATOM     43  C   UNL A   1      43.543  31.110  34.226  1.00  0.00     0.074 A 
ATOM     44  C   UNL A   1      42.561  32.001  34.805  1.00  0.00     0.031 C 
ATOM     45  C   UNL A   1      40.175  27.993  29.722  1.00  0.00     0.029 A 
ATOM     46  C   UNL A   1      41.596  27.843  30.033  1.00  0.00     0.049 A 
ATOM     47  H   UNL A   1      42.639  28.729  31.605  1.00  0.00     0.167 HD
ATOM     48  C   UNL A   1      44.835  31.039  34.625  1.00  0.00     0.034 A 
ATOM     49  C   UNL A   1      42.474  27.077  29.356  1.00  0.00     0.034 A 
ATOM     50  C   UNL A   1      45.802  30.135  34.066  1.00  0.00     0.049 A 
ATOM     51  C   UNL A   1      43.910  27.026  29.808  1.00  0.00     0.074 A 
ATOM     52  C   UNL A   1      47.125  29.958  34.429  1.00  0.00     0.029 A 
ATOM     53  N   UNL A   1      45.551  29.260  33.021  1.00  0.00    -0.354 N 
ATOM     54  N   UNL A   1      44.481  27.644  30.815  1.00  0.00    -0.248 NA
ATOM     55  C   UNL A   1      44.820  26.153  29.052  1.00  0.00     0.031 C 
ATOM     56  C   UNL A   1      47.679  28.986  33.592  1.00  0.00     0.029 A 
ATOM     57  C   UNL A   1      46.696  28.544  32.721  1.00  0.00     0.049 A 
ATOM     58  H   UNL A   1      44.687  29.164  32.559  1.00  0.00     0.167 HD
ATOM     59  C   UNL A   1      45.798  27.200  30.841  1.00  0.00     0.074 A 
ATOM     60  C   UNL A   1      45.942  26.256  29.752  1.00  0.00     0.031 C 
ATOM     61  C   UNL A   1      46.802  27.552  31.682  1.00  0.00     0.034 A 
BRANCH  48  62
ATOM     62  C   UNL A   1      45.272  31.946  35.744  1.00  0.00     0.023 A 
ATOM     63  C   UNL A   1      45.251  31.473  37.070  1.00  0.00     0.012 A 
ATOM     64  C   UNL A   1      45.756  33.241  35.477  1.00  0.00     0.148 A 
ATOM     65  C   UNL A   1      45.681  32.285  38.119  1.00  0.00     0.002 A 
ATOM     66  C   UNL A   1      46.219  34.030  36.523  1.00  0.00     0.091 A 
ATOM     67  F   UNL A   1      45.742  33.682  34.210  1.00  0.00    -0.205 F 
ATOM     68  C   UNL A   1      46.175  33.558  37.844  1.00  0.00     0.022 A 
BRANCH  66  69
ATOM     69  S   UNL A   1      46.941  35.654  36.258  1.00  0.00     0.127 S 
ATOM     70  O   UNL A   1      47.378  36.006  37.608  1.00  0.00    -0.237 OA
ATOM     71  O   UNL A   1      48.028  35.362  35.323  1.00  0.00    -0.237 OA
ATOM     72  O   UNL A   1      45.875  36.480  35.708  1.00  0.00    -0.744 OA
ENDBRANCH  66  69
ENDBRANCH  48  62
BRANCH  49  73
ATOM     73  C   UNL A   1      42.010  26.266  28.194  1.00  0.00     0.023 A 
ATOM     74  C   UNL A   1      41.671  26.913  26.990  1.00  0.00     0.012 A 
ATOM     75  C   UNL A   1      41.927  24.862  28.266  1.00  0.00     0.148 A 
ATOM     76  C   UNL A   1      41.234  26.179  25.887  1.00  0.00     0.002 A 
ATOM     77  C   UNL A   1      41.542  24.132  27.146  1.00  0.00     0.091 A 
ATOM     78  F   UNL A   1      42.233  24.266  29.426  1.00  0.00    -0.205 F 
ATOM     79  C   UNL A   1      41.180  24.790  25.961  1.00  0.00     0.022 A 
BRANCH  77  80
ATOM     80  S   UNL A   1      41.571  22.336  27.115  1.00  0.00     0.127 S 
ATOM     81  O   UNL A   1      40.581  22.003  28.134  1.00  0.00    -0.237 OA
ATOM     82  O   UNL A   1      41.163  22.050  25.739  1.00  0.00    -0.237 OA
ATOM     83  O   UNL A   1      42.947  21.963  27.418  1.00  0.00    -0.744 OA
ENDBRANCH  77  80
ENDBRANCH  49  73
BRANCH  61  84
ATOM     84  C   UNL A   1      48.138  26.879  31.511  1.00  0.00     0.023 A 
ATOM     85  C   UNL A   1      48.431  25.707  32.235  1.00  0.00     0.012 A 
ATOM     86  C   UNL A   1      49.055  27.349  30.550  1.00  0.00     0.148 A 
ATOM     87  C   UNL A   1      49.625  25.022  32.017  1.00  0.00     0.002 A 
ATOM     88  C   UNL A   1      50.223  26.635  30.306  1.00  0.00     0.091 A 
ATOM     89  F   UNL A   1      48.764  28.476  29.885  1.00  0.00    -0.205 F 
ATOM     90  C   UNL A   1      50.513  25.477  31.044  1.00  0.00     0.022 A 
BRANCH  88  91
ATOM     91  S   UNL A   1      51.377  27.094  29.007  1.00  0.00     0.127 S 
ATOM     92  O   UNL A   1      50.584  26.848  27.804  1.00  0.00    -0.237 OA
ATOM     93  O   UNL A   1      51.624  28.507  29.296  1.00  0.00    -0.237 OA
ATOM     94  O   UNL A   1      52.538  26.231  29.179  1.00  0.00    -0.744 OA
ENDBRANCH  88  91
ENDBRANCH  61  84
ENDBRANCH  35  36
ENDBRANCH  28  30
ENDBRANCH  27  28
ENDBRANCH  26  27
ENDBRANCH  25  26
ENDBRANCH  24  25
ENDBRANCH  23  24
ENDBRANCH   1  23
TORSDOF 24
ENDMDL
