MODEL 1
REMARK VINA RESULT:     -10.8      0.000      0.000
REMARK SMILES Cc1cc(N2N=C(C(=O)OCCOCCOC(=O)c3ccc(-c4c5nc(c(-c6cccc(S(=O)(=O)[O-])c6F)c6ccc([nH]6)c(-c6cccc(S(=O)(=O)[O-])c6F)c6nc(c(-c7cccc(S(=O)(=O)[O-])c7F)c7ccc4[nH]7)C=C6)C=C5)cc3)C[C@H]2c2ccccc2)c([N+](=O)[O-])cc1C
REMARK SMILES IDX 14 1 13 2 12 3 11 4 10 5 8 6 9 7 7 8 5 9 6 10 83 11 82 12
REMARK SMILES IDX 4 13 1 14 2 15 3 16 95 17 94 18 96 19 90 20 91 21 92 22
REMARK SMILES IDX 93 23 84 24 85 25 89 26 86 27 88 28 87 29 15 30 16 31 17 32
REMARK SMILES IDX 18 33 19 34 20 35 81 36 21 37 80 38 22 39 23 40 24 41 74 42
REMARK SMILES IDX 25 43 79 44 73 45 75 46 26 47 78 48 72 49 71 50 27 52 59 53
REMARK SMILES IDX 39 54 58 55 40 56 43 57 57 58 76 59 41 60 42 61 56 63 77 64
REMARK SMILES IDX 44 65 28 66 29 67 37 68 30 69 32 70 38 71 31 72 33 73 34 74
REMARK SMILES IDX 35 75 36 76 60 77 61 78 69 79 62 80 64 81 70 82 63 83 65 84
REMARK SMILES IDX 66 85 67 86 68 87 45 88 46 89 54 90 47 91 49 92 55 93 48 94
REMARK SMILES IDX 50 95 51 96 52 97 53 98
REMARK H PARENT 75 51 43 62
REMARK Flexibility Score: inf
ROOT
ATOM      1  C   UNL A   1      37.879  23.337  25.891  1.00  0.00     0.202 C 
ENDROOT
BRANCH   1   2
ATOM      2  O   UNL A   1      36.459  23.296  26.066  1.00  0.00    -0.374 OA
BRANCH   2   3
ATOM      3  C   UNL A   1      35.762  22.223  25.425  1.00  0.00     0.202 C 
BRANCH   3   4
ATOM      4  C   UNL A   1      34.281  22.122  25.791  1.00  0.00     0.261 C 
BRANCH   4   5
ATOM      5  O   UNL A   1      33.676  23.418  25.685  1.00  0.00    -0.459 OA
BRANCH   5   6
ATOM      6  C   UNL A   1      32.793  23.556  24.680  1.00  0.00     0.354 C 
ATOM      7  O   UNL A   1      32.575  22.788  23.761  1.00  0.00    -0.245 OA
BRANCH   6   8
ATOM      8  C   UNL A   1      31.974  24.802  24.906  1.00  0.00     0.148 C 
ATOM      9  N   UNL A   1      30.967  26.614  24.528  1.00  0.00    -0.250 N 
ATOM     10  N   UNL A   1      31.624  25.588  23.931  1.00  0.00    -0.169 NA
ATOM     11  C   UNL A   1      31.121  26.636  25.994  1.00  0.00     0.144 C 
ATOM     12  C   UNL A   1      31.429  25.154  26.259  1.00  0.00     0.098 C 
BRANCH   9  13
ATOM     13  C   UNL A   1      30.349  27.572  23.750  1.00  0.00     0.138 A 
ATOM     14  C   UNL A   1      26.737  28.641  23.129  1.00  0.00     0.045 C 
ATOM     15  C   UNL A   1      28.238  28.635  23.033  1.00  0.00    -0.046 A 
ATOM     16  C   UNL A   1      28.951  27.694  23.800  1.00  0.00     0.039 A 
ATOM     17  C   UNL A   1      28.945  29.533  22.216  1.00  0.00    -0.041 A 
ATOM     18  C   UNL A   1      30.347  29.459  22.188  1.00  0.00     0.091 A 
ATOM     19  C   UNL A   1      28.275  30.608  21.404  1.00  0.00     0.045 C 
ATOM     20  C   UNL A   1      31.030  28.487  22.941  1.00  0.00     0.294 A 
BRANCH  20  21
ATOM     21  N   UNL A   1      32.488  28.482  22.873  1.00  0.00     0.065 N 
ATOM     22  O   UNL A   1      33.089  29.324  23.558  1.00  0.00    -0.258 OA
ATOM     23  O   UNL A   1      33.040  27.699  22.083  1.00  0.00    -0.258 OA
ENDBRANCH  20  21
ENDBRANCH   9  13
BRANCH  11  24
ATOM     24  C   UNL A   1      32.210  27.617  26.426  1.00  0.00    -0.023 A 
ATOM     25  C   UNL A   1      33.584  27.345  26.324  1.00  0.00     0.006 A 
ATOM     26  C   UNL A   1      31.831  28.876  26.931  1.00  0.00     0.006 A 
ATOM     27  C   UNL A   1      34.540  28.294  26.698  1.00  0.00     0.000 A 
ATOM     28  C   UNL A   1      32.786  29.837  27.273  1.00  0.00     0.000 A 
ATOM     29  C   UNL A   1      34.141  29.544  27.158  1.00  0.00     0.000 A 
ENDBRANCH  11  24
ENDBRANCH   6   8
ENDBRANCH   5   6
ENDBRANCH   4   5
ENDBRANCH   3   4
ENDBRANCH   2   3
ENDBRANCH   1   2
BRANCH   1  30
ATOM     30  C   UNL A   1      38.587  21.976  25.919  1.00  0.00     0.261 C 
BRANCH  30  31
ATOM     31  O   UNL A   1      39.689  21.970  26.846  1.00  0.00    -0.460 OA
BRANCH  31  32
ATOM     32  C   UNL A   1      40.821  22.571  26.399  1.00  0.00     0.338 C 
ATOM     33  O   UNL A   1      41.618  22.129  25.589  1.00  0.00    -0.246 OA
BRANCH  32  34
ATOM     34  C   UNL A   1      40.880  23.961  26.898  1.00  0.00     0.060 A 
ATOM     35  C   UNL A   1      41.188  24.966  25.971  1.00  0.00     0.016 A 
ATOM     36  C   UNL A   1      40.683  24.278  28.243  1.00  0.00     0.016 A 
ATOM     37  C   UNL A   1      41.334  26.288  26.393  1.00  0.00     0.010 A 
ATOM     38  C   UNL A   1      40.840  25.603  28.666  1.00  0.00     0.010 A 
ATOM     39  C   UNL A   1      41.190  26.610  27.749  1.00  0.00    -0.014 A 
BRANCH  39  40
ATOM     40  C   UNL A   1      41.490  27.985  28.218  1.00  0.00     0.031 A 
ATOM     41  C   UNL A   1      42.916  28.457  28.272  1.00  0.00     0.074 A 
ATOM     42  C   UNL A   1      40.496  28.802  28.612  1.00  0.00     0.049 A 
ATOM     43  N   UNL A   1      43.390  29.610  28.665  1.00  0.00    -0.248 NA
ATOM     44  C   UNL A   1      43.945  27.502  27.828  1.00  0.00     0.031 C 
ATOM     45  C   UNL A   1      39.075  28.457  28.622  1.00  0.00     0.029 A 
ATOM     46  N   UNL A   1      40.536  30.081  29.110  1.00  0.00    -0.354 N 
ATOM     47  C   UNL A   1      44.770  29.516  28.540  1.00  0.00     0.074 A 
ATOM     48  C   UNL A   1      45.060  28.188  28.042  1.00  0.00     0.031 C 
ATOM     49  C   UNL A   1      38.381  29.485  29.138  1.00  0.00     0.029 A 
ATOM     50  C   UNL A   1      39.308  30.553  29.511  1.00  0.00     0.049 A 
ATOM     51  H   UNL A   1      41.364  30.608  29.175  1.00  0.00     0.167 HD
ATOM     52  C   UNL A   1      45.711  30.456  28.799  1.00  0.00     0.034 A 
ATOM     53  C   UNL A   1      38.972  31.704  30.127  1.00  0.00     0.034 A 
ATOM     54  C   UNL A   1      45.423  31.785  29.266  1.00  0.00     0.049 A 
ATOM     55  C   UNL A   1      40.040  32.726  30.419  1.00  0.00     0.074 A 
ATOM     56  C   UNL A   1      46.303  32.831  29.477  1.00  0.00     0.029 A 
ATOM     57  N   UNL A   1      44.164  32.245  29.617  1.00  0.00    -0.354 N 
ATOM     58  N   UNL A   1      41.321  32.683  30.142  1.00  0.00    -0.248 NA
ATOM     59  C   UNL A   1      39.613  33.968  31.082  1.00  0.00     0.031 C 
ATOM     60  C   UNL A   1      45.579  33.919  29.976  1.00  0.00     0.029 A 
ATOM     61  C   UNL A   1      44.246  33.553  30.064  1.00  0.00     0.049 A 
ATOM     62  H   UNL A   1      43.334  31.720  29.556  1.00  0.00     0.167 HD
ATOM     63  C   UNL A   1      41.847  33.896  30.574  1.00  0.00     0.074 A 
ATOM     64  C   UNL A   1      40.741  34.665  31.107  1.00  0.00     0.031 C 
ATOM     65  C   UNL A   1      43.132  34.327  30.549  1.00  0.00     0.034 A 
BRANCH  52  66
ATOM     66  C   UNL A   1      47.148  30.096  28.541  1.00  0.00     0.023 A 
ATOM     67  C   UNL A   1      47.729  30.413  27.297  1.00  0.00     0.012 A 
ATOM     68  C   UNL A   1      47.940  29.510  29.548  1.00  0.00     0.148 A 
ATOM     69  C   UNL A   1      49.073  30.133  27.051  1.00  0.00     0.002 A 
ATOM     70  C   UNL A   1      49.288  29.267  29.307  1.00  0.00     0.091 A 
ATOM     71  F   UNL A   1      47.360  29.193  30.715  1.00  0.00    -0.205 F 
ATOM     72  C   UNL A   1      49.853  29.572  28.058  1.00  0.00     0.022 A 
BRANCH  70  73
ATOM     73  S   UNL A   1      50.389  28.607  30.564  1.00  0.00     0.127 S 
ATOM     74  O   UNL A   1      51.692  28.752  29.918  1.00  0.00    -0.237 OA
ATOM     75  O   UNL A   1      50.160  29.519  31.685  1.00  0.00    -0.237 OA
ATOM     76  O   UNL A   1      49.954  27.238  30.798  1.00  0.00    -0.744 OA
ENDBRANCH  70  73
ENDBRANCH  52  66
BRANCH  53  77
ATOM     77  C   UNL A   1      37.549  31.965  30.483  1.00  0.00     0.023 A 
ATOM     78  C   UNL A   1      37.057  31.546  31.733  1.00  0.00     0.012 A 
ATOM     79  C   UNL A   1      36.691  32.650  29.601  1.00  0.00     0.148 A 
ATOM     80  C   UNL A   1      35.728  31.782  32.089  1.00  0.00     0.002 A 
ATOM     81  C   UNL A   1      35.385  32.932  29.984  1.00  0.00     0.091 A 
ATOM     82  F   UNL A   1      37.170  33.019  28.404  1.00  0.00    -0.205 F 
ATOM     83  C   UNL A   1      34.897  32.486  31.220  1.00  0.00     0.022 A 
BRANCH  81  84
ATOM     84  S   UNL A   1      34.298  33.952  28.981  1.00  0.00     0.127 S 
ATOM     85  O   UNL A   1      33.805  32.992  27.999  1.00  0.00    -0.237 OA
ATOM     86  O   UNL A   1      33.305  34.398  29.961  1.00  0.00    -0.237 OA
ATOM     87  O   UNL A   1      35.141  35.022  28.463  1.00  0.00    -0.744 OA
ENDBRANCH  81  84
ENDBRANCH  53  77
BRANCH  65  88
ATOM     88  C   UNL A   1      43.424  35.695  31.109  1.00  0.00     0.023 A 
ATOM     89  C   UNL A   1      43.565  36.787  30.228  1.00  0.00     0.012 A 
ATOM     90  C   UNL A   1      43.475  35.918  32.499  1.00  0.00     0.148 A 
ATOM     91  C   UNL A   1      43.779  38.073  30.722  1.00  0.00     0.002 A 
ATOM     92  C   UNL A   1      43.646  37.209  32.985  1.00  0.00     0.091 A 
ATOM     93  F   UNL A   1      43.357  34.864  33.320  1.00  0.00    -0.205 F 
ATOM     94  C   UNL A   1      43.807  38.286  32.098  1.00  0.00     0.022 A 
BRANCH  92  95
ATOM     95  S   UNL A   1      43.605  37.589  34.742  1.00  0.00     0.127 S 
ATOM     96  O   UNL A   1      43.791  39.039  34.737  1.00  0.00    -0.237 OA
ATOM     97  O   UNL A   1      42.264  37.147  35.127  1.00  0.00    -0.237 OA
ATOM     98  O   UNL A   1      44.687  36.818  35.339  1.00  0.00    -0.744 OA
ENDBRANCH  92  95
ENDBRANCH  65  88
ENDBRANCH  39  40
ENDBRANCH  32  34
ENDBRANCH  31  32
ENDBRANCH  30  31
ENDBRANCH   1  30
TORSDOF 20
ENDMDL
MODEL 2
REMARK VINA RESULT:     -10.5      1.635      2.019
REMARK SMILES Cc1cc(N2N=C(C(=O)OCCOCCOC(=O)c3ccc(-c4c5nc(c(-c6cccc(S(=O)(=O)[O-])c6F)c6ccc([nH]6)c(-c6cccc(S(=O)(=O)[O-])c6F)c6nc(c(-c7cccc(S(=O)(=O)[O-])c7F)c7ccc4[nH]7)C=C6)C=C5)cc3)C[C@H]2c2ccccc2)c([N+](=O)[O-])cc1C
REMARK SMILES IDX 14 1 13 2 12 3 11 4 10 5 8 6 9 7 7 8 5 9 6 10 83 11 82 12
REMARK SMILES IDX 4 13 1 14 2 15 3 16 95 17 94 18 96 19 90 20 91 21 92 22
REMARK SMILES IDX 93 23 84 24 85 25 89 26 86 27 88 28 87 29 15 30 16 31 17 32
REMARK SMILES IDX 18 33 19 34 20 35 81 36 21 37 80 38 22 39 23 40 24 41 74 42
REMARK SMILES IDX 25 43 79 44 73 45 75 46 26 47 78 48 72 49 71 50 27 52 59 53
REMARK SMILES IDX 39 54 58 55 40 56 43 57 57 58 76 59 41 60 42 61 56 63 77 64
REMARK SMILES IDX 44 65 28 66 29 67 37 68 30 69 32 70 38 71 31 72 33 73 34 74
REMARK SMILES IDX 35 75 36 76 60 77 61 78 69 79 62 80 64 81 70 82 63 83 65 84
REMARK SMILES IDX 66 85 67 86 68 87 45 88 46 89 54 90 47 91 49 92 55 93 48 94
REMARK SMILES IDX 50 95 51 96 52 97 53 98
REMARK H PARENT 75 51 43 62
REMARK Flexibility Score: inf
ROOT
ATOM      1  C   UNL A   1      38.155  23.754  26.306  1.00  0.00     0.202 C 
ENDROOT
BRANCH   1   2
ATOM      2  O   UNL A   1      36.734  23.752  26.133  1.00  0.00    -0.374 OA
BRANCH   2   3
ATOM      3  C   UNL A   1      36.129  22.499  25.798  1.00  0.00     0.202 C 
BRANCH   3   4
ATOM      4  C   UNL A   1      34.619  22.442  26.037  1.00  0.00     0.261 C 
BRANCH   4   5
ATOM      5  O   UNL A   1      34.057  23.746  25.836  1.00  0.00    -0.459 OA
BRANCH   5   6
ATOM      6  C   UNL A   1      33.248  23.861  24.768  1.00  0.00     0.354 C 
ATOM      7  O   UNL A   1      33.159  23.116  23.810  1.00  0.00    -0.245 OA
BRANCH   6   8
ATOM      8  C   UNL A   1      32.325  25.037  24.969  1.00  0.00     0.148 C 
ATOM      9  N   UNL A   1      31.175  26.754  24.556  1.00  0.00    -0.250 N 
ATOM     10  N   UNL A   1      31.922  25.778  23.980  1.00  0.00    -0.169 NA
ATOM     11  C   UNL A   1      31.310  26.807  26.023  1.00  0.00     0.144 C 
ATOM     12  C   UNL A   1      31.737  25.359  26.311  1.00  0.00     0.098 C 
BRANCH   9  13
ATOM     13  C   UNL A   1      30.488  27.647  23.758  1.00  0.00     0.138 A 
ATOM     14  C   UNL A   1      26.811  28.492  23.182  1.00  0.00     0.045 C 
ATOM     15  C   UNL A   1      28.307  28.566  23.051  1.00  0.00    -0.046 A 
ATOM     16  C   UNL A   1      29.087  27.694  23.835  1.00  0.00     0.039 A 
ATOM     17  C   UNL A   1      28.946  29.470  22.188  1.00  0.00    -0.041 A 
ATOM     18  C   UNL A   1      30.349  29.473  22.130  1.00  0.00     0.091 A 
ATOM     19  C   UNL A   1      28.200  30.476  21.354  1.00  0.00     0.045 C 
ATOM     20  C   UNL A   1      31.101  28.568  22.902  1.00  0.00     0.294 A 
BRANCH  20  21
ATOM     21  N   UNL A   1      32.555  28.640  22.801  1.00  0.00     0.065 N 
ATOM     22  O   UNL A   1      33.138  29.417  23.573  1.00  0.00    -0.258 OA
ATOM     23  O   UNL A   1      33.119  27.990  21.906  1.00  0.00    -0.258 OA
ENDBRANCH  20  21
ENDBRANCH   9  13
BRANCH  11  24
ATOM     24  C   UNL A   1      32.307  27.881  26.454  1.00  0.00    -0.023 A 
ATOM     25  C   UNL A   1      31.929  29.162  26.888  1.00  0.00     0.006 A 
ATOM     26  C   UNL A   1      33.682  27.575  26.447  1.00  0.00     0.006 A 
ATOM     27  C   UNL A   1      32.881  30.094  27.310  1.00  0.00     0.000 A 
ATOM     28  C   UNL A   1      34.631  28.494  26.901  1.00  0.00     0.000 A 
ATOM     29  C   UNL A   1      34.230  29.756  27.330  1.00  0.00     0.000 A 
ENDBRANCH  11  24
ENDBRANCH   6   8
ENDBRANCH   5   6
ENDBRANCH   4   5
ENDBRANCH   3   4
ENDBRANCH   2   3
ENDBRANCH   1   2
BRANCH   1  30
ATOM     30  C   UNL A   1      38.840  22.389  26.159  1.00  0.00     0.261 C 
BRANCH  30  31
ATOM     31  O   UNL A   1      39.990  22.277  27.018  1.00  0.00    -0.460 OA
BRANCH  31  32
ATOM     32  C   UNL A   1      41.174  22.610  26.443  1.00  0.00     0.338 C 
ATOM     33  O   UNL A   1      41.772  21.992  25.579  1.00  0.00    -0.246 OA
BRANCH  32  34
ATOM     34  C   UNL A   1      41.579  23.963  26.879  1.00  0.00     0.060 A 
ATOM     35  C   UNL A   1      41.839  24.151  28.243  1.00  0.00     0.016 A 
ATOM     36  C   UNL A   1      41.663  25.036  25.990  1.00  0.00     0.016 A 
ATOM     37  C   UNL A   1      42.151  25.421  28.729  1.00  0.00     0.010 A 
ATOM     38  C   UNL A   1      41.966  26.312  26.481  1.00  0.00     0.010 A 
ATOM     39  C   UNL A   1      42.187  26.515  27.855  1.00  0.00    -0.014 A 
BRANCH  39  40
ATOM     40  C   UNL A   1      42.373  27.885  28.393  1.00  0.00     0.031 A 
ATOM     41  C   UNL A   1      43.763  28.421  28.595  1.00  0.00     0.074 A 
ATOM     42  C   UNL A   1      41.307  28.640  28.718  1.00  0.00     0.049 A 
ATOM     43  N   UNL A   1      44.140  29.581  29.066  1.00  0.00    -0.248 NA
ATOM     44  C   UNL A   1      44.875  27.533  28.220  1.00  0.00     0.031 C 
ATOM     45  C   UNL A   1      39.910  28.228  28.585  1.00  0.00     0.029 A 
ATOM     46  N   UNL A   1      41.237  29.901  29.258  1.00  0.00    -0.354 N 
ATOM     47  C   UNL A   1      45.529  29.557  29.067  1.00  0.00     0.074 A 
ATOM     48  C   UNL A   1      45.929  28.262  28.558  1.00  0.00     0.031 C 
ATOM     49  C   UNL A   1      39.121  29.203  29.066  1.00  0.00     0.029 A 
ATOM     50  C   UNL A   1      39.956  30.300  29.556  1.00  0.00     0.049 A 
ATOM     51  H   UNL A   1      42.028  30.464  29.416  1.00  0.00     0.167 HD
ATOM     52  C   UNL A   1      46.394  30.530  29.442  1.00  0.00     0.034 A 
ATOM     53  C   UNL A   1      39.507  31.411  30.174  1.00  0.00     0.034 A 
ATOM     54  C   UNL A   1      45.997  31.826  29.922  1.00  0.00     0.049 A 
ATOM     55  C   UNL A   1      40.491  32.471  30.597  1.00  0.00     0.074 A 
ATOM     56  C   UNL A   1      46.801  32.904  30.247  1.00  0.00     0.029 A 
ATOM     57  N   UNL A   1      44.690  32.213  30.168  1.00  0.00    -0.354 N 
ATOM     58  N   UNL A   1      41.793  32.498  30.439  1.00  0.00    -0.248 NA
ATOM     59  C   UNL A   1      39.943  33.666  31.255  1.00  0.00     0.031 C 
ATOM     60  C   UNL A   1      45.980  33.939  30.710  1.00  0.00     0.029 A 
ATOM     61  C   UNL A   1      44.665  33.507  30.661  1.00  0.00     0.049 A 
ATOM     62  H   UNL A   1      43.896  31.653  30.014  1.00  0.00     0.167 HD
ATOM     63  C   UNL A   1      42.215  33.719  30.956  1.00  0.00     0.074 A 
ATOM     64  C   UNL A   1      41.028  34.415  31.407  1.00  0.00     0.031 C 
ATOM     65  C   UNL A   1      43.474  34.210  31.064  1.00  0.00     0.034 A 
BRANCH  52  66
ATOM     66  C   UNL A   1      47.865  30.247  29.309  1.00  0.00     0.023 A 
ATOM     67  C   UNL A   1      48.534  29.557  30.339  1.00  0.00     0.012 A 
ATOM     68  C   UNL A   1      48.567  30.600  28.140  1.00  0.00     0.148 A 
ATOM     69  C   UNL A   1      49.886  29.240  30.218  1.00  0.00     0.002 A 
ATOM     70  C   UNL A   1      49.907  30.249  28.011  1.00  0.00     0.091 A 
ATOM     71  F   UNL A   1      47.918  31.279  27.183  1.00  0.00    -0.205 F 
ATOM     72  C   UNL A   1      50.568  29.576  29.051  1.00  0.00     0.022 A 
BRANCH  70  73
ATOM     73  S   UNL A   1      50.852  30.580  26.520  1.00  0.00     0.127 S 
ATOM     74  O   UNL A   1      50.271  31.847  26.079  1.00  0.00    -0.237 OA
ATOM     75  O   UNL A   1      52.218  30.681  27.034  1.00  0.00    -0.237 OA
ATOM     76  O   UNL A   1      50.619  29.444  25.639  1.00  0.00    -0.744 OA
ENDBRANCH  70  73
ENDBRANCH  52  66
BRANCH  53  77
ATOM     77  C   UNL A   1      38.046  31.591  30.404  1.00  0.00     0.023 A 
ATOM     78  C   UNL A   1      37.451  31.049  31.557  1.00  0.00     0.012 A 
ATOM     79  C   UNL A   1      37.252  32.322  29.499  1.00  0.00     0.148 A 
ATOM     80  C   UNL A   1      36.085  31.208  31.795  1.00  0.00     0.002 A 
ATOM     81  C   UNL A   1      35.903  32.525  29.770  1.00  0.00     0.091 A 
ATOM     82  F   UNL A   1      37.830  32.810  28.393  1.00  0.00    -0.205 F 
ATOM     83  C   UNL A   1      35.315  31.956  30.908  1.00  0.00     0.022 A 
BRANCH  81  84
ATOM     84  S   UNL A   1      34.878  33.592  28.750  1.00  0.00     0.127 S 
ATOM     85  O   UNL A   1      33.613  32.865  28.730  1.00  0.00    -0.237 OA
ATOM     86  O   UNL A   1      34.864  34.835  29.524  1.00  0.00    -0.237 OA
ATOM     87  O   UNL A   1      35.577  33.697  27.476  1.00  0.00    -0.744 OA
ENDBRANCH  81  84
ENDBRANCH  53  77
BRANCH  65  88
ATOM     88  C   UNL A   1      43.644  35.570  31.691  1.00  0.00     0.023 A 
ATOM     89  C   UNL A   1      43.783  35.674  33.090  1.00  0.00     0.012 A 
ATOM     90  C   UNL A   1      43.750  36.730  30.898  1.00  0.00     0.148 A 
ATOM     91  C   UNL A   1      43.998  36.913  33.691  1.00  0.00     0.002 A 
ATOM     92  C   UNL A   1      44.007  37.956  31.500  1.00  0.00     0.091 A 
ATOM     93  F   UNL A   1      43.597  36.613  29.570  1.00  0.00    -0.205 F 
ATOM     94  C   UNL A   1      44.122  38.052  32.896  1.00  0.00     0.022 A 
BRANCH  92  95
ATOM     95  S   UNL A   1      44.270  39.458  30.548  1.00  0.00     0.127 S 
ATOM     96  O   UNL A   1      43.074  39.492  29.708  1.00  0.00    -0.237 OA
ATOM     97  O   UNL A   1      44.312  40.485  31.590  1.00  0.00    -0.237 OA
ATOM     98  O   UNL A   1      45.529  39.265  29.842  1.00  0.00    -0.744 OA
ENDBRANCH  92  95
ENDBRANCH  65  88
ENDBRANCH  39  40
ENDBRANCH  32  34
ENDBRANCH  31  32
ENDBRANCH  30  31
ENDBRANCH   1  30
TORSDOF 20
ENDMDL
MODEL 3
REMARK VINA RESULT:     -10.0      0.649      7.507
REMARK SMILES Cc1cc(N2N=C(C(=O)OCCOCCOC(=O)c3ccc(-c4c5nc(c(-c6cccc(S(=O)(=O)[O-])c6F)c6ccc([nH]6)c(-c6cccc(S(=O)(=O)[O-])c6F)c6nc(c(-c7cccc(S(=O)(=O)[O-])c7F)c7ccc4[nH]7)C=C6)C=C5)cc3)C[C@H]2c2ccccc2)c([N+](=O)[O-])cc1C
REMARK SMILES IDX 14 1 13 2 12 3 11 4 10 5 8 6 9 7 7 8 5 9 6 10 83 11 82 12
REMARK SMILES IDX 4 13 1 14 2 15 3 16 95 17 94 18 96 19 90 20 91 21 92 22
REMARK SMILES IDX 93 23 84 24 85 25 89 26 86 27 88 28 87 29 15 30 16 31 17 32
REMARK SMILES IDX 18 33 19 34 20 35 81 36 21 37 80 38 22 39 23 40 24 41 74 42
REMARK SMILES IDX 25 43 79 44 73 45 75 46 26 47 78 48 72 49 71 50 27 52 59 53
REMARK SMILES IDX 39 54 58 55 40 56 43 57 57 58 76 59 41 60 42 61 56 63 77 64
REMARK SMILES IDX 44 65 28 66 29 67 37 68 30 69 32 70 38 71 31 72 33 73 34 74
REMARK SMILES IDX 35 75 36 76 60 77 61 78 69 79 62 80 64 81 70 82 63 83 65 84
REMARK SMILES IDX 66 85 67 86 68 87 45 88 46 89 54 90 47 91 49 92 55 93 48 94
REMARK SMILES IDX 50 95 51 96 52 97 53 98
REMARK H PARENT 75 51 43 62
REMARK Flexibility Score: inf
ROOT
ATOM      1  C   UNL A   1      37.894  23.422  26.153  1.00  0.00     0.202 C 
ENDROOT
BRANCH   1   2
ATOM      2  O   UNL A   1      36.478  23.448  25.948  1.00  0.00    -0.374 OA
BRANCH   2   3
ATOM      3  C   UNL A   1      35.799  22.189  25.984  1.00  0.00     0.202 C 
BRANCH   3   4
ATOM      4  C   UNL A   1      34.287  22.291  26.189  1.00  0.00     0.261 C 
BRANCH   4   5
ATOM      5  O   UNL A   1      33.877  23.657  26.030  1.00  0.00    -0.459 OA
BRANCH   5   6
ATOM      6  C   UNL A   1      33.305  23.948  24.848  1.00  0.00     0.354 C 
ATOM      7  O   UNL A   1      33.401  23.339  23.798  1.00  0.00    -0.245 OA
BRANCH   6   8
ATOM      8  C   UNL A   1      32.382  25.127  25.020  1.00  0.00     0.148 C 
ATOM      9  N   UNL A   1      31.243  26.842  24.568  1.00  0.00    -0.250 N 
ATOM     10  N   UNL A   1      31.998  25.859  24.016  1.00  0.00    -0.169 NA
ATOM     11  C   UNL A   1      31.352  26.910  26.037  1.00  0.00     0.144 C 
ATOM     12  C   UNL A   1      31.770  25.465  26.348  1.00  0.00     0.098 C 
BRANCH   9  13
ATOM     13  C   UNL A   1      30.573  27.728  23.749  1.00  0.00     0.138 A 
ATOM     14  C   UNL A   1      26.910  28.602  23.126  1.00  0.00     0.045 C 
ATOM     15  C   UNL A   1      28.408  28.657  23.008  1.00  0.00    -0.046 A 
ATOM     16  C   UNL A   1      29.172  27.791  23.813  1.00  0.00     0.039 A 
ATOM     17  C   UNL A   1      29.064  29.540  22.134  1.00  0.00    -0.041 A 
ATOM     18  C   UNL A   1      30.467  29.526  22.088  1.00  0.00     0.091 A 
ATOM     19  C   UNL A   1      28.336  30.538  21.276  1.00  0.00     0.045 C 
ATOM     20  C   UNL A   1      31.202  28.627  22.882  1.00  0.00     0.294 A 
BRANCH  20  21
ATOM     21  N   UNL A   1      32.658  28.682  22.792  1.00  0.00     0.065 N 
ATOM     22  O   UNL A   1      33.203  27.932  21.967  1.00  0.00    -0.258 OA
ATOM     23  O   UNL A   1      33.273  29.408  23.590  1.00  0.00    -0.258 OA
ENDBRANCH  20  21
ENDBRANCH   9  13
BRANCH  11  24
ATOM     24  C   UNL A   1      32.344  27.986  26.474  1.00  0.00    -0.023 A 
ATOM     25  C   UNL A   1      31.962  29.280  26.868  1.00  0.00     0.006 A 
ATOM     26  C   UNL A   1      33.716  27.671  26.518  1.00  0.00     0.006 A 
ATOM     27  C   UNL A   1      32.908  30.214  27.298  1.00  0.00     0.000 A 
ATOM     28  C   UNL A   1      34.657  28.594  26.980  1.00  0.00     0.000 A 
ATOM     29  C   UNL A   1      34.253  29.867  27.368  1.00  0.00     0.000 A 
ENDBRANCH  11  24
ENDBRANCH   6   8
ENDBRANCH   5   6
ENDBRANCH   4   5
ENDBRANCH   3   4
ENDBRANCH   2   3
ENDBRANCH   1   2
BRANCH   1  30
ATOM     30  C   UNL A   1      38.585  22.093  25.819  1.00  0.00     0.261 C 
BRANCH  30  31
ATOM     31  O   UNL A   1      39.700  21.841  26.693  1.00  0.00    -0.460 OA
BRANCH  31  32
ATOM     32  C   UNL A   1      40.878  22.387  26.298  1.00  0.00     0.338 C 
ATOM     33  O   UNL A   1      41.629  21.968  25.433  1.00  0.00    -0.246 OA
BRANCH  32  34
ATOM     34  C   UNL A   1      41.062  23.704  26.942  1.00  0.00     0.060 A 
ATOM     35  C   UNL A   1      40.991  24.839  26.122  1.00  0.00     0.016 A 
ATOM     36  C   UNL A   1      41.339  23.834  28.304  1.00  0.00     0.016 A 
ATOM     37  C   UNL A   1      41.231  26.105  26.655  1.00  0.00     0.010 A 
ATOM     38  C   UNL A   1      41.589  25.105  28.835  1.00  0.00     0.010 A 
ATOM     39  C   UNL A   1      41.561  26.244  28.010  1.00  0.00    -0.014 A 
BRANCH  39  40
ATOM     40  C   UNL A   1      41.959  27.570  28.542  1.00  0.00     0.031 A 
ATOM     41  C   UNL A   1      40.901  28.532  29.004  1.00  0.00     0.074 A 
ATOM     42  C   UNL A   1      43.257  27.920  28.595  1.00  0.00     0.049 A 
ATOM     43  N   UNL A   1      41.037  29.741  29.485  1.00  0.00    -0.248 NA
ATOM     44  C   UNL A   1      39.505  28.076  28.910  1.00  0.00     0.031 C 
ATOM     45  C   UNL A   1      44.375  27.083  28.163  1.00  0.00     0.029 A 
ATOM     46  N   UNL A   1      43.850  29.088  29.008  1.00  0.00    -0.354 N 
ATOM     47  C   UNL A   1      39.749  30.200  29.728  1.00  0.00     0.074 A 
ATOM     48  C   UNL A   1      38.842  29.142  29.334  1.00  0.00     0.031 C 
ATOM     49  C   UNL A   1      45.517  27.778  28.297  1.00  0.00     0.029 A 
ATOM     50  C   UNL A   1      45.211  29.114  28.808  1.00  0.00     0.049 A 
ATOM     51  H   UNL A   1      43.350  29.835  29.407  1.00  0.00     0.167 HD
ATOM     52  C   UNL A   1      39.357  31.387  30.250  1.00  0.00     0.034 A 
ATOM     53  C   UNL A   1      46.103  30.107  28.994  1.00  0.00     0.034 A 
ATOM     54  C   UNL A   1      40.258  32.427  30.668  1.00  0.00     0.049 A 
ATOM     55  C   UNL A   1      45.639  31.423  29.559  1.00  0.00     0.074 A 
ATOM     56  C   UNL A   1      39.956  33.629  31.283  1.00  0.00     0.029 A 
ATOM     57  N   UNL A   1      41.632  32.400  30.494  1.00  0.00    -0.354 N 
ATOM     58  N   UNL A   1      44.434  31.780  29.937  1.00  0.00    -0.248 NA
ATOM     59  C   UNL A   1      46.659  32.465  29.752  1.00  0.00     0.031 C 
ATOM     60  C   UNL A   1      41.148  34.340  31.463  1.00  0.00     0.029 A 
ATOM     61  C   UNL A   1      42.192  33.574  30.970  1.00  0.00     0.049 A 
ATOM     62  H   UNL A   1      42.137  31.657  30.093  1.00  0.00     0.167 HD
ATOM     63  C   UNL A   1      44.557  33.074  30.432  1.00  0.00     0.074 A 
ATOM     64  C   UNL A   1      45.957  33.430  30.331  1.00  0.00     0.031 C 
ATOM     65  C   UNL A   1      43.593  33.901  30.909  1.00  0.00     0.034 A 
BRANCH  52  66
ATOM     66  C   UNL A   1      37.882  31.613  30.439  1.00  0.00     0.023 A 
ATOM     67  C   UNL A   1      37.243  31.091  31.581  1.00  0.00     0.012 A 
ATOM     68  C   UNL A   1      37.147  32.398  29.529  1.00  0.00     0.148 A 
ATOM     69  C   UNL A   1      35.887  31.328  31.805  1.00  0.00     0.002 A 
ATOM     70  C   UNL A   1      35.804  32.660  29.778  1.00  0.00     0.091 A 
ATOM     71  F   UNL A   1      37.769  32.864  28.437  1.00  0.00    -0.205 F 
ATOM     72  C   UNL A   1      35.172  32.121  30.911  1.00  0.00     0.022 A 
BRANCH  70  73
ATOM     73  S   UNL A   1      34.817  33.724  28.720  1.00  0.00     0.127 S 
ATOM     74  O   UNL A   1      33.469  33.478  29.231  1.00  0.00    -0.237 OA
ATOM     75  O   UNL A   1      35.352  35.050  29.027  1.00  0.00    -0.237 OA
ATOM     76  O   UNL A   1      35.062  33.272  27.357  1.00  0.00    -0.744 OA
ENDBRANCH  70  73
ENDBRANCH  52  66
BRANCH  53  77
ATOM     77  C   UNL A   1      47.540  29.881  28.669  1.00  0.00     0.023 A 
ATOM     78  C   UNL A   1      48.025  30.214  27.391  1.00  0.00     0.012 A 
ATOM     79  C   UNL A   1      48.431  29.363  29.629  1.00  0.00     0.148 A 
ATOM     80  C   UNL A   1      49.367  30.014  27.065  1.00  0.00     0.002 A 
ATOM     81  C   UNL A   1      49.778  29.219  29.316  1.00  0.00     0.091 A 
ATOM     82  F   UNL A   1      47.947  29.027  30.833  1.00  0.00    -0.205 F 
ATOM     83  C   UNL A   1      50.245  29.529  28.031  1.00  0.00     0.022 A 
BRANCH  81  84
ATOM     84  S   UNL A   1      50.994  28.733  30.547  1.00  0.00     0.127 S 
ATOM     85  O   UNL A   1      50.810  27.286  30.597  1.00  0.00    -0.237 OA
ATOM     86  O   UNL A   1      52.247  29.176  29.932  1.00  0.00    -0.237 OA
ATOM     87  O   UNL A   1      50.636  29.466  31.754  1.00  0.00    -0.744 OA
ENDBRANCH  81  84
ENDBRANCH  53  77
BRANCH  65  88
ATOM     88  C   UNL A   1      44.011  35.274  31.366  1.00  0.00     0.023 A 
ATOM     89  C   UNL A   1      44.023  36.337  30.441  1.00  0.00     0.012 A 
ATOM     90  C   UNL A   1      44.309  35.532  32.719  1.00  0.00     0.148 A 
ATOM     91  C   UNL A   1      44.351  37.629  30.849  1.00  0.00     0.002 A 
ATOM     92  C   UNL A   1      44.593  36.830  33.128  1.00  0.00     0.091 A 
ATOM     93  F   UNL A   1      44.311  34.504  33.581  1.00  0.00    -0.205 F 
ATOM     94  C   UNL A   1      44.624  37.878  32.193  1.00  0.00     0.022 A 
BRANCH  92  95
ATOM     95  S   UNL A   1      44.869  37.257  34.852  1.00  0.00     0.127 S 
ATOM     96  O   UNL A   1      43.542  37.713  35.262  1.00  0.00    -0.237 OA
ATOM     97  O   UNL A   1      45.279  35.976  35.430  1.00  0.00    -0.237 OA
ATOM     98  O   UNL A   1      45.911  38.275  34.847  1.00  0.00    -0.744 OA
ENDBRANCH  92  95
ENDBRANCH  65  88
ENDBRANCH  39  40
ENDBRANCH  32  34
ENDBRANCH  31  32
ENDBRANCH  30  31
ENDBRANCH   1  30
TORSDOF 20
ENDMDL
