MODEL 1
REMARK VINA RESULT:     -11.0      0.000      0.000
REMARK SMILES C[C@H]1[C@@H]([NH2+]C[C@H]2CC[C@@H](C(=O)OCCOCCOC(=O)c3ccc(-c4c5nc(c(-c6cccc(S(=O)(=O)[O-])c6F)c6ccc([nH]6)c(-c6cccc(S(=O)(=O)[O-])c6F)c6nc(c(-c7cccc(S(=O)(=O)[O-])c7F)c7ccc4[nH]7)C=C6)C=C5)cc3)CC2)CCC[C@@H]1C
REMARK SMILES IDX 15 1 14 2 13 3 12 4 10 5 11 6 9 7 6 8 7 9 85 10 8 11 84 12
REMARK SMILES IDX 5 13 4 14 3 17 1 18 2 19 89 20 86 21 88 22 90 23 87 24 16 25
REMARK SMILES IDX 17 26 18 27 19 28 20 29 21 30 22 31 83 32 23 33 82 34 24 35
REMARK SMILES IDX 25 36 26 37 76 38 27 39 81 40 75 41 77 42 28 43 80 44 74 45
REMARK SMILES IDX 73 46 29 48 61 49 41 50 60 51 42 52 45 53 59 54 78 55 43 56
REMARK SMILES IDX 44 57 58 59 79 60 46 61 30 62 31 63 39 64 32 65 34 66 40 67
REMARK SMILES IDX 33 68 35 69 36 70 37 71 38 72 62 73 63 74 71 75 64 76 66 77
REMARK SMILES IDX 72 78 65 79 67 80 68 81 69 82 70 83 47 84 48 85 56 86 49 87
REMARK SMILES IDX 51 88 57 89 50 90 52 91 53 92 54 93 55 94
REMARK H PARENT 4 15 4 16 77 47 45 58
REMARK Flexibility Score: inf
ROOT
ATOM      1  O   UNL A   1      34.960  22.755  25.335  1.00  0.00    -0.374 OA
ENDROOT
BRANCH   1   2
ATOM      2  C   UNL A   1      34.906  22.838  26.761  1.00  0.00     0.202 C 
BRANCH   2   3
ATOM      3  C   UNL A   1      33.517  22.761  27.402  1.00  0.00     0.261 C 
BRANCH   3   4
ATOM      4  O   UNL A   1      32.506  22.395  26.446  1.00  0.00    -0.463 OA
BRANCH   4   5
ATOM      5  C   UNL A   1      31.288  22.978  26.601  1.00  0.00     0.309 C 
ATOM      6  O   UNL A   1      30.619  22.952  27.626  1.00  0.00    -0.252 OA
BRANCH   5   7
ATOM      7  C   UNL A   1      30.800  23.649  25.324  1.00  0.00     0.099 C 
ATOM      8  C   UNL A   1      31.402  25.331  22.910  1.00  0.00     0.044 C 
ATOM      9  C   UNL A   1      31.336  23.794  22.845  1.00  0.00     0.010 C 
ATOM     10  C   UNL A   1      30.445  25.810  24.014  1.00  0.00     0.010 C 
ATOM     11  C   UNL A   1      31.632  23.098  24.169  1.00  0.00     0.016 C 
ATOM     12  C   UNL A   1      30.777  25.185  25.373  1.00  0.00     0.016 C 
BRANCH   8  13
ATOM     13  C   UNL A   1      32.805  25.976  23.105  1.00  0.00     0.264 C 
BRANCH  13  14
ATOM     14  N   UNL A   1      32.862  26.939  24.191  1.00  0.00    -0.343 N 
ATOM     15  H   UNL A   1      31.946  26.960  24.640  1.00  0.00     0.346 HD
ATOM     16  H   UNL A   1      33.613  26.626  24.804  1.00  0.00     0.346 HD
BRANCH  14  17
ATOM     17  C   UNL A   1      33.207  28.319  23.797  1.00  0.00     0.185 C 
ATOM     18  C   UNL A   1      34.179  28.606  26.133  1.00  0.00     0.014 C 
ATOM     19  C   UNL A   1      33.229  29.208  25.082  1.00  0.00     0.047 C 
ATOM     20  C   UNL A   1      31.800  29.451  25.654  1.00  0.00    -0.006 C 
ATOM     21  C   UNL A   1      32.247  28.949  22.765  1.00  0.00     0.065 C 
ATOM     22  C   UNL A   1      30.852  30.000  24.571  1.00  0.00     0.004 C 
ATOM     23  C   UNL A   1      31.782  30.387  26.872  1.00  0.00     0.008 C 
ATOM     24  C   UNL A   1      30.837  29.147  23.308  1.00  0.00     0.006 C 
ENDBRANCH  14  17
ENDBRANCH  13  14
ENDBRANCH   8  13
ENDBRANCH   5   7
ENDBRANCH   4   5
ENDBRANCH   3   4
ENDBRANCH   2   3
ENDBRANCH   1   2
BRANCH   1  25
ATOM     25  C   UNL A   1      35.218  21.471  24.771  1.00  0.00     0.202 C 
BRANCH  25  26
ATOM     26  C   UNL A   1      36.455  20.721  25.280  1.00  0.00     0.261 C 
BRANCH  26  27
ATOM     27  O   UNL A   1      37.682  21.395  24.953  1.00  0.00    -0.460 OA
BRANCH  27  28
ATOM     28  C   UNL A   1      38.728  21.068  25.748  1.00  0.00     0.338 C 
ATOM     29  O   UNL A   1      39.276  19.974  25.829  1.00  0.00    -0.246 OA
BRANCH  28  30
ATOM     30  C   UNL A   1      39.272  22.263  26.415  1.00  0.00     0.060 A 
ATOM     31  C   UNL A   1      38.679  23.494  26.103  1.00  0.00     0.016 A 
ATOM     32  C   UNL A   1      40.392  22.206  27.249  1.00  0.00     0.016 A 
ATOM     33  C   UNL A   1      39.246  24.678  26.566  1.00  0.00     0.010 A 
ATOM     34  C   UNL A   1      40.962  23.398  27.708  1.00  0.00     0.010 A 
ATOM     35  C   UNL A   1      40.419  24.641  27.331  1.00  0.00    -0.014 A 
BRANCH  35  36
ATOM     36  C   UNL A   1      41.150  25.903  27.599  1.00  0.00     0.031 A 
ATOM     37  C   UNL A   1      40.455  27.006  28.352  1.00  0.00     0.074 A 
ATOM     38  C   UNL A   1      42.426  26.055  27.204  1.00  0.00     0.049 A 
ATOM     39  N   UNL A   1      40.906  28.182  28.702  1.00  0.00    -0.248 NA
ATOM     40  C   UNL A   1      39.065  26.748  28.767  1.00  0.00     0.031 C 
ATOM     41  C   UNL A   1      43.210  25.058  26.477  1.00  0.00     0.029 A 
ATOM     42  N   UNL A   1      43.282  27.118  27.349  1.00  0.00    -0.354 N 
ATOM     43  C   UNL A   1      39.854  28.814  29.355  1.00  0.00     0.074 A 
ATOM     44  C   UNL A   1      38.735  27.896  29.340  1.00  0.00     0.031 C 
ATOM     45  C   UNL A   1      44.426  25.567  26.216  1.00  0.00     0.029 A 
ATOM     46  C   UNL A   1      44.500  26.930  26.741  1.00  0.00     0.049 A 
ATOM     47  H   UNL A   1      43.047  27.937  27.842  1.00  0.00     0.167 HD
ATOM     48  C   UNL A   1      39.825  30.038  29.934  1.00  0.00     0.034 A 
ATOM     49  C   UNL A   1      45.548  27.769  26.608  1.00  0.00     0.034 A 
ATOM     50  C   UNL A   1      40.945  30.939  29.970  1.00  0.00     0.049 A 
ATOM     51  C   UNL A   1      45.484  29.135  27.241  1.00  0.00     0.074 A 
ATOM     52  C   UNL A   1      41.027  32.184  30.568  1.00  0.00     0.029 A 
ATOM     53  N   UNL A   1      42.174  30.700  29.375  1.00  0.00    -0.354 N 
ATOM     54  N   UNL A   1      44.524  29.669  27.958  1.00  0.00    -0.248 NA
ATOM     55  C   UNL A   1      46.660  30.001  27.075  1.00  0.00     0.031 C 
ATOM     56  C   UNL A   1      42.301  32.706  30.317  1.00  0.00     0.029 A 
ATOM     57  C   UNL A   1      43.018  31.776  29.582  1.00  0.00     0.049 A 
ATOM     58  H   UNL A   1      42.411  29.883  28.879  1.00  0.00     0.167 HD
ATOM     59  C   UNL A   1      44.994  30.917  28.358  1.00  0.00     0.074 A 
ATOM     60  C   UNL A   1      46.331  31.049  27.820  1.00  0.00     0.031 C 
ATOM     61  C   UNL A   1      44.369  31.871  29.090  1.00  0.00     0.034 A 
BRANCH  48  62
ATOM     62  C   UNL A   1      38.548  30.462  30.608  1.00  0.00     0.023 A 
ATOM     63  C   UNL A   1      38.353  30.171  31.973  1.00  0.00     0.012 A 
ATOM     64  C   UNL A   1      37.568  31.194  29.909  1.00  0.00     0.148 A 
ATOM     65  C   UNL A   1      37.190  30.577  32.627  1.00  0.00     0.002 A 
ATOM     66  C   UNL A   1      36.429  31.631  30.578  1.00  0.00     0.091 A 
ATOM     67  F   UNL A   1      37.760  31.439  28.606  1.00  0.00    -0.205 F 
ATOM     68  C   UNL A   1      36.234  31.315  31.933  1.00  0.00     0.022 A 
BRANCH  66  69
ATOM     69  S   UNL A   1      35.177  32.648  29.789  1.00  0.00     0.127 S 
ATOM     70  O   UNL A   1      34.261  32.903  30.900  1.00  0.00    -0.237 OA
ATOM     71  O   UNL A   1      35.951  33.812  29.358  1.00  0.00    -0.237 OA
ATOM     72  O   UNL A   1      34.635  31.845  28.702  1.00  0.00    -0.744 OA
ENDBRANCH  66  69
ENDBRANCH  48  62
BRANCH  49  73
ATOM     73  C   UNL A   1      46.765  27.324  25.874  1.00  0.00     0.023 A 
ATOM     74  C   UNL A   1      46.866  27.553  24.488  1.00  0.00     0.012 A 
ATOM     75  C   UNL A   1      47.833  26.696  26.545  1.00  0.00     0.148 A 
ATOM     76  C   UNL A   1      47.993  27.137  23.778  1.00  0.00     0.002 A 
ATOM     77  C   UNL A   1      48.977  26.337  25.843  1.00  0.00     0.091 A 
ATOM     78  F   UNL A   1      47.711  26.467  27.860  1.00  0.00    -0.205 F 
ATOM     79  C   UNL A   1      49.052  26.540  24.456  1.00  0.00     0.022 A 
BRANCH  77  80
ATOM     80  S   UNL A   1      50.439  25.692  26.663  1.00  0.00     0.127 S 
ATOM     81  O   UNL A   1      50.743  26.757  27.615  1.00  0.00    -0.237 OA
ATOM     82  O   UNL A   1      49.934  24.455  27.259  1.00  0.00    -0.237 OA
ATOM     83  O   UNL A   1      51.420  25.486  25.605  1.00  0.00    -0.744 OA
ENDBRANCH  77  80
ENDBRANCH  49  73
BRANCH  61  84
ATOM     84  C   UNL A   1      45.130  33.137  29.389  1.00  0.00     0.023 A 
ATOM     85  C   UNL A   1      45.943  33.209  30.538  1.00  0.00     0.012 A 
ATOM     86  C   UNL A   1      45.104  34.224  28.493  1.00  0.00     0.148 A 
ATOM     87  C   UNL A   1      46.693  34.354  30.806  1.00  0.00     0.002 A 
ATOM     88  C   UNL A   1      45.890  35.343  28.742  1.00  0.00     0.091 A 
ATOM     89  F   UNL A   1      44.311  34.144  27.413  1.00  0.00    -0.205 F 
ATOM     90  C   UNL A   1      46.676  35.414  29.902  1.00  0.00     0.022 A 
BRANCH  88  91
ATOM     91  S   UNL A   1      46.003  36.715  27.586  1.00  0.00     0.127 S 
ATOM     92  O   UNL A   1      46.431  36.039  26.362  1.00  0.00    -0.237 OA
ATOM     93  O   UNL A   1      44.628  37.213  27.559  1.00  0.00    -0.237 OA
ATOM     94  O   UNL A   1      46.968  37.643  28.161  1.00  0.00    -0.744 OA
ENDBRANCH  88  91
ENDBRANCH  61  84
ENDBRANCH  35  36
ENDBRANCH  28  30
ENDBRANCH  27  28
ENDBRANCH  26  27
ENDBRANCH  25  26
ENDBRANCH   1  25
TORSDOF 20
ENDMDL
MODEL 2
REMARK VINA RESULT:     -10.5      0.819      7.809
REMARK SMILES C[C@H]1[C@@H]([NH2+]C[C@H]2CC[C@@H](C(=O)OCCOCCOC(=O)c3ccc(-c4c5nc(c(-c6cccc(S(=O)(=O)[O-])c6F)c6ccc([nH]6)c(-c6cccc(S(=O)(=O)[O-])c6F)c6nc(c(-c7cccc(S(=O)(=O)[O-])c7F)c7ccc4[nH]7)C=C6)C=C5)cc3)CC2)CCC[C@@H]1C
REMARK SMILES IDX 15 1 14 2 13 3 12 4 10 5 11 6 9 7 6 8 7 9 85 10 8 11 84 12
REMARK SMILES IDX 5 13 4 14 3 17 1 18 2 19 89 20 86 21 88 22 90 23 87 24 16 25
REMARK SMILES IDX 17 26 18 27 19 28 20 29 21 30 22 31 83 32 23 33 82 34 24 35
REMARK SMILES IDX 25 36 26 37 76 38 27 39 81 40 75 41 77 42 28 43 80 44 74 45
REMARK SMILES IDX 73 46 29 48 61 49 41 50 60 51 42 52 45 53 59 54 78 55 43 56
REMARK SMILES IDX 44 57 58 59 79 60 46 61 30 62 31 63 39 64 32 65 34 66 40 67
REMARK SMILES IDX 33 68 35 69 36 70 37 71 38 72 62 73 63 74 71 75 64 76 66 77
REMARK SMILES IDX 72 78 65 79 67 80 68 81 69 82 70 83 47 84 48 85 56 86 49 87
REMARK SMILES IDX 51 88 57 89 50 90 52 91 53 92 54 93 55 94
REMARK H PARENT 4 15 4 16 77 47 45 58
REMARK Flexibility Score: inf
ROOT
ATOM      1  O   UNL A   1      35.392  22.778  25.385  1.00  0.00    -0.374 OA
ENDROOT
BRANCH   1   2
ATOM      2  C   UNL A   1      34.802  22.434  26.640  1.00  0.00     0.202 C 
BRANCH   2   3
ATOM      3  C   UNL A   1      33.328  22.016  26.616  1.00  0.00     0.261 C 
BRANCH   3   4
ATOM      4  O   UNL A   1      32.534  22.900  25.805  1.00  0.00    -0.463 OA
BRANCH   4   5
ATOM      5  C   UNL A   1      31.482  23.502  26.420  1.00  0.00     0.309 C 
ATOM      6  O   UNL A   1      31.271  23.494  27.626  1.00  0.00    -0.252 OA
BRANCH   5   7
ATOM      7  C   UNL A   1      30.538  24.171  25.430  1.00  0.00     0.099 C 
ATOM      8  C   UNL A   1      30.101  26.205  23.264  1.00  0.00     0.044 C 
ATOM      9  C   UNL A   1      30.337  24.714  22.956  1.00  0.00     0.010 C 
ATOM     10  C   UNL A   1      29.403  26.312  24.629  1.00  0.00     0.010 C 
ATOM     11  C   UNL A   1      31.118  23.969  24.033  1.00  0.00     0.016 C 
ATOM     12  C   UNL A   1      30.213  25.641  25.743  1.00  0.00     0.016 C 
BRANCH   8  13
ATOM     13  C   UNL A   1      31.340  27.145  23.223  1.00  0.00     0.264 C 
BRANCH  13  14
ATOM     14  N   UNL A   1      31.094  28.464  23.779  1.00  0.00    -0.343 N 
ATOM     15  H   UNL A   1      30.698  29.047  23.041  1.00  0.00     0.346 HD
ATOM     16  H   UNL A   1      30.467  28.321  24.571  1.00  0.00     0.346 HD
BRANCH  14  17
ATOM     17  C   UNL A   1      32.279  29.157  24.320  1.00  0.00     0.185 C 
ATOM     18  C   UNL A   1      33.691  27.444  23.073  1.00  0.00     0.014 C 
ATOM     19  C   UNL A   1      33.446  28.124  24.431  1.00  0.00     0.047 C 
ATOM     20  C   UNL A   1      33.209  27.089  25.572  1.00  0.00    -0.006 C 
ATOM     21  C   UNL A   1      32.059  29.820  25.696  1.00  0.00     0.065 C 
ATOM     22  C   UNL A   1      32.909  27.791  26.910  1.00  0.00     0.004 C 
ATOM     23  C   UNL A   1      34.377  26.109  25.758  1.00  0.00     0.008 C 
ATOM     24  C   UNL A   1      31.782  28.811  26.805  1.00  0.00     0.006 C 
ENDBRANCH  14  17
ENDBRANCH  13  14
ENDBRANCH   8  13
ENDBRANCH   5   7
ENDBRANCH   4   5
ENDBRANCH   3   4
ENDBRANCH   2   3
ENDBRANCH   1   2
BRANCH   1  25
ATOM     25  C   UNL A   1      35.940  21.712  24.613  1.00  0.00     0.202 C 
BRANCH  25  26
ATOM     26  C   UNL A   1      37.013  20.846  25.284  1.00  0.00     0.261 C 
BRANCH  26  27
ATOM     27  O   UNL A   1      38.346  21.308  25.009  1.00  0.00    -0.460 OA
BRANCH  27  28
ATOM     28  C   UNL A   1      39.236  21.071  26.002  1.00  0.00     0.338 C 
ATOM     29  O   UNL A   1      39.787  20.005  26.256  1.00  0.00    -0.246 OA
BRANCH  28  30
ATOM     30  C   UNL A   1      39.617  22.325  26.673  1.00  0.00     0.060 A 
ATOM     31  C   UNL A   1      38.947  23.491  26.278  1.00  0.00     0.016 A 
ATOM     32  C   UNL A   1      40.667  22.387  27.593  1.00  0.00     0.016 A 
ATOM     33  C   UNL A   1      39.369  24.731  26.748  1.00  0.00     0.010 A 
ATOM     34  C   UNL A   1      41.092  23.637  28.060  1.00  0.00     0.010 A 
ATOM     35  C   UNL A   1      40.475  24.816  27.603  1.00  0.00    -0.014 A 
BRANCH  35  36
ATOM     36  C   UNL A   1      41.069  26.145  27.889  1.00  0.00     0.031 A 
ATOM     37  C   UNL A   1      42.463  26.443  27.406  1.00  0.00     0.074 A 
ATOM     38  C   UNL A   1      40.365  27.086  28.543  1.00  0.00     0.049 A 
ATOM     39  N   UNL A   1      43.169  27.535  27.536  1.00  0.00    -0.248 NA
ATOM     40  C   UNL A   1      43.154  25.364  26.679  1.00  0.00     0.031 C 
ATOM     41  C   UNL A   1      39.004  26.922  29.052  1.00  0.00     0.029 A 
ATOM     42  N   UNL A   1      40.709  28.364  28.904  1.00  0.00    -0.354 N 
ATOM     43  C   UNL A   1      44.393  27.271  26.931  1.00  0.00     0.074 A 
ATOM     44  C   UNL A   1      44.339  25.909  26.446  1.00  0.00     0.031 C 
ATOM     45  C   UNL A   1      38.637  28.051  29.682  1.00  0.00     0.029 A 
ATOM     46  C   UNL A   1      39.742  29.008  29.638  1.00  0.00     0.049 A 
ATOM     47  H   UNL A   1      41.567  28.781  28.660  1.00  0.00     0.167 HD
ATOM     48  C   UNL A   1      45.457  28.093  26.774  1.00  0.00     0.034 A 
ATOM     49  C   UNL A   1      39.754  30.224  30.222  1.00  0.00     0.034 A 
ATOM     50  C   UNL A   1      45.500  29.455  27.234  1.00  0.00     0.049 A 
ATOM     51  C   UNL A   1      40.960  31.111  30.052  1.00  0.00     0.074 A 
ATOM     52  C   UNL A   1      46.519  30.380  27.086  1.00  0.00     0.029 A 
ATOM     53  N   UNL A   1      44.488  30.084  27.942  1.00  0.00    -0.354 N 
ATOM     54  N   UNL A   1      42.061  30.889  29.374  1.00  0.00    -0.248 NA
ATOM     55  C   UNL A   1      40.912  32.430  30.700  1.00  0.00     0.031 C 
ATOM     56  C   UNL A   1      46.129  31.564  27.723  1.00  0.00     0.029 A 
ATOM     57  C   UNL A   1      44.859  31.382  28.247  1.00  0.00     0.049 A 
ATOM     58  H   UNL A   1      43.631  29.668  28.190  1.00  0.00     0.167 HD
ATOM     59  C   UNL A   1      42.819  32.051  29.484  1.00  0.00     0.074 A 
ATOM     60  C   UNL A   1      42.042  32.981  30.276  1.00  0.00     0.031 C 
ATOM     61  C   UNL A   1      44.052  32.317  28.987  1.00  0.00     0.034 A 
BRANCH  48  62
ATOM     62  C   UNL A   1      46.656  27.551  26.042  1.00  0.00     0.023 A 
ATOM     63  C   UNL A   1      46.768  27.748  24.650  1.00  0.00     0.012 A 
ATOM     64  C   UNL A   1      47.695  26.898  26.734  1.00  0.00     0.148 A 
ATOM     65  C   UNL A   1      47.881  27.279  23.954  1.00  0.00     0.002 A 
ATOM     66  C   UNL A   1      48.820  26.469  26.039  1.00  0.00     0.091 A 
ATOM     67  F   UNL A   1      47.558  26.699  28.052  1.00  0.00    -0.205 F 
ATOM     68  C   UNL A   1      48.910  26.650  24.649  1.00  0.00     0.022 A 
BRANCH  66  69
ATOM     69  S   UNL A   1      50.230  25.713  26.857  1.00  0.00     0.127 S 
ATOM     70  O   UNL A   1      49.654  24.456  27.334  1.00  0.00    -0.237 OA
ATOM     71  O   UNL A   1      51.183  25.568  25.757  1.00  0.00    -0.237 OA
ATOM     72  O   UNL A   1      50.640  26.648  27.895  1.00  0.00    -0.744 OA
ENDBRANCH  66  69
ENDBRANCH  48  62
BRANCH  49  73
ATOM     73  C   UNL A   1      38.567  30.688  30.993  1.00  0.00     0.023 A 
ATOM     74  C   UNL A   1      38.528  30.507  32.389  1.00  0.00     0.012 A 
ATOM     75  C   UNL A   1      37.487  31.327  30.353  1.00  0.00     0.148 A 
ATOM     76  C   UNL A   1      37.422  30.926  33.130  1.00  0.00     0.002 A 
ATOM     77  C   UNL A   1      36.415  31.794  31.104  1.00  0.00     0.091 A 
ATOM     78  F   UNL A   1      37.531  31.471  29.022  1.00  0.00    -0.205 F 
ATOM     79  C   UNL A   1      36.372  31.579  32.490  1.00  0.00     0.022 A 
BRANCH  77  80
ATOM     80  S   UNL A   1      35.091  32.767  30.378  1.00  0.00     0.127 S 
ATOM     81  O   UNL A   1      34.196  32.951  31.517  1.00  0.00    -0.237 OA
ATOM     82  O   UNL A   1      35.800  33.972  29.947  1.00  0.00    -0.237 OA
ATOM     83  O   UNL A   1      34.569  31.959  29.284  1.00  0.00    -0.744 OA
ENDBRANCH  77  80
ENDBRANCH  49  73
BRANCH  61  84
ATOM     84  C   UNL A   1      44.635  33.682  29.251  1.00  0.00     0.023 A 
ATOM     85  C   UNL A   1      45.453  33.887  30.379  1.00  0.00     0.012 A 
ATOM     86  C   UNL A   1      44.437  34.739  28.340  1.00  0.00     0.148 A 
ATOM     87  C   UNL A   1      46.040  35.131  30.613  1.00  0.00     0.002 A 
ATOM     88  C   UNL A   1      45.063  35.961  28.555  1.00  0.00     0.091 A 
ATOM     89  F   UNL A   1      43.640  34.530  27.281  1.00  0.00    -0.205 F 
ATOM     90  C   UNL A   1      45.855  36.162  29.696  1.00  0.00     0.022 A 
BRANCH  88  91
ATOM     91  S   UNL A   1      44.957  37.315  27.378  1.00  0.00     0.127 S 
ATOM     92  O   UNL A   1      43.592  37.168  26.876  1.00  0.00    -0.237 OA
ATOM     93  O   UNL A   1      45.170  38.486  28.229  1.00  0.00    -0.237 OA
ATOM     94  O   UNL A   1      46.013  37.081  26.402  1.00  0.00    -0.744 OA
ENDBRANCH  88  91
ENDBRANCH  61  84
ENDBRANCH  35  36
ENDBRANCH  28  30
ENDBRANCH  27  28
ENDBRANCH  26  27
ENDBRANCH  25  26
ENDBRANCH   1  25
TORSDOF 20
ENDMDL
MODEL 3
REMARK VINA RESULT:     -10.3      5.266      8.806
REMARK SMILES C[C@H]1[C@@H]([NH2+]C[C@H]2CC[C@@H](C(=O)OCCOCCOC(=O)c3ccc(-c4c5nc(c(-c6cccc(S(=O)(=O)[O-])c6F)c6ccc([nH]6)c(-c6cccc(S(=O)(=O)[O-])c6F)c6nc(c(-c7cccc(S(=O)(=O)[O-])c7F)c7ccc4[nH]7)C=C6)C=C5)cc3)CC2)CCC[C@@H]1C
REMARK SMILES IDX 15 1 14 2 13 3 12 4 10 5 11 6 9 7 6 8 7 9 85 10 8 11 84 12
REMARK SMILES IDX 5 13 4 14 3 17 1 18 2 19 89 20 86 21 88 22 90 23 87 24 16 25
REMARK SMILES IDX 17 26 18 27 19 28 20 29 21 30 22 31 83 32 23 33 82 34 24 35
REMARK SMILES IDX 25 36 26 37 76 38 27 39 81 40 75 41 77 42 28 43 80 44 74 45
REMARK SMILES IDX 73 46 29 48 61 49 41 50 60 51 42 52 45 53 59 54 78 55 43 56
REMARK SMILES IDX 44 57 58 59 79 60 46 61 30 62 31 63 39 64 32 65 34 66 40 67
REMARK SMILES IDX 33 68 35 69 36 70 37 71 38 72 62 73 63 74 71 75 64 76 66 77
REMARK SMILES IDX 72 78 65 79 67 80 68 81 69 82 70 83 47 84 48 85 56 86 49 87
REMARK SMILES IDX 51 88 57 89 50 90 52 91 53 92 54 93 55 94
REMARK H PARENT 4 15 4 16 77 47 45 58
REMARK Flexibility Score: inf
ROOT
ATOM      1  O   UNL A   1      31.397  33.066  26.532  1.00  0.00    -0.374 OA
ENDROOT
BRANCH   1   2
ATOM      2  C   UNL A   1      31.077  31.738  26.109  1.00  0.00     0.202 C 
BRANCH   2   3
ATOM      3  C   UNL A   1      31.972  30.613  26.640  1.00  0.00     0.261 C 
BRANCH   3   4
ATOM      4  O   UNL A   1      32.849  30.102  25.620  1.00  0.00    -0.463 OA
BRANCH   4   5
ATOM      5  C   UNL A   1      32.905  28.749  25.495  1.00  0.00     0.309 C 
ATOM      6  O   UNL A   1      33.934  28.084  25.484  1.00  0.00    -0.252 OA
BRANCH   5   7
ATOM      7  C   UNL A   1      31.528  28.126  25.319  1.00  0.00     0.099 C 
ATOM      8  C   UNL A   1      29.834  25.894  24.236  1.00  0.00     0.044 C 
ATOM      9  C   UNL A   1      30.288  25.942  25.707  1.00  0.00     0.010 C 
ATOM     10  C   UNL A   1      29.697  27.337  23.724  1.00  0.00     0.010 C 
ATOM     11  C   UNL A   1      31.571  26.732  25.941  1.00  0.00     0.016 C 
ATOM     12  C   UNL A   1      31.002  28.126  23.874  1.00  0.00     0.016 C 
BRANCH   8  13
ATOM     13  C   UNL A   1      30.703  25.059  23.250  1.00  0.00     0.264 C 
BRANCH  13  14
ATOM     14  N   UNL A   1      31.550  24.077  23.903  1.00  0.00    -0.343 N 
ATOM     15  H   UNL A   1      31.682  24.371  24.872  1.00  0.00     0.346 HD
ATOM     16  H   UNL A   1      31.069  23.183  23.807  1.00  0.00     0.346 HD
BRANCH  14  17
ATOM     17  C   UNL A   1      32.884  23.888  23.300  1.00  0.00     0.185 C 
ATOM     18  C   UNL A   1      32.163  21.505  22.766  1.00  0.00     0.014 C 
ATOM     19  C   UNL A   1      33.261  22.375  23.403  1.00  0.00     0.047 C 
ATOM     20  C   UNL A   1      33.576  21.945  24.867  1.00  0.00    -0.006 C 
ATOM     21  C   UNL A   1      34.003  24.732  23.946  1.00  0.00     0.065 C 
ATOM     22  C   UNL A   1      34.636  22.865  25.503  1.00  0.00     0.004 C 
ATOM     23  C   UNL A   1      34.029  20.483  24.990  1.00  0.00     0.008 C 
ATOM     24  C   UNL A   1      34.282  24.343  25.393  1.00  0.00     0.006 C 
ENDBRANCH  14  17
ENDBRANCH  13  14
ENDBRANCH   8  13
ENDBRANCH   5   7
ENDBRANCH   4   5
ENDBRANCH   3   4
ENDBRANCH   2   3
ENDBRANCH   1   2
BRANCH   1  25
ATOM     25  C   UNL A   1      32.332  33.196  27.601  1.00  0.00     0.202 C 
BRANCH  25  26
ATOM     26  C   UNL A   1      33.499  34.169  27.392  1.00  0.00     0.261 C 
BRANCH  26  27
ATOM     27  O   UNL A   1      33.533  35.211  28.382  1.00  0.00    -0.460 OA
BRANCH  27  28
ATOM     28  C   UNL A   1      33.673  34.769  29.654  1.00  0.00     0.338 C 
ATOM     29  O   UNL A   1      32.899  34.955  30.587  1.00  0.00    -0.246 OA
BRANCH  28  30
ATOM     30  C   UNL A   1      34.826  33.859  29.767  1.00  0.00     0.060 A 
ATOM     31  C   UNL A   1      34.628  32.662  30.468  1.00  0.00     0.016 A 
ATOM     32  C   UNL A   1      36.094  34.201  29.290  1.00  0.00     0.016 A 
ATOM     33  C   UNL A   1      35.709  31.835  30.757  1.00  0.00     0.010 A 
ATOM     34  C   UNL A   1      37.181  33.370  29.586  1.00  0.00     0.010 A 
ATOM     35  C   UNL A   1      37.000  32.208  30.360  1.00  0.00    -0.014 A 
BRANCH  35  36
ATOM     36  C   UNL A   1      38.165  31.459  30.889  1.00  0.00     0.031 A 
ATOM     37  C   UNL A   1      38.695  31.800  32.257  1.00  0.00     0.074 A 
ATOM     38  C   UNL A   1      38.726  30.466  30.176  1.00  0.00     0.049 A 
ATOM     39  N   UNL A   1      39.692  31.269  32.915  1.00  0.00    -0.248 NA
ATOM     40  C   UNL A   1      38.008  32.885  32.979  1.00  0.00     0.031 C 
ATOM     41  C   UNL A   1      38.298  30.036  28.847  1.00  0.00     0.029 A 
ATOM     42  N   UNL A   1      39.790  29.651  30.470  1.00  0.00    -0.354 N 
ATOM     43  C   UNL A   1      39.770  31.967  34.115  1.00  0.00     0.074 A 
ATOM     44  C   UNL A   1      38.728  32.970  34.088  1.00  0.00     0.031 C 
ATOM     45  C   UNL A   1      39.109  29.050  28.427  1.00  0.00     0.029 A 
ATOM     46  C   UNL A   1      40.123  28.793  29.449  1.00  0.00     0.049 A 
ATOM     47  H   UNL A   1      40.269  29.677  31.329  1.00  0.00     0.167 HD
ATOM     48  C   UNL A   1      40.617  31.778  35.154  1.00  0.00     0.034 A 
ATOM     49  C   UNL A   1      41.141  27.913  29.345  1.00  0.00     0.034 A 
ATOM     50  C   UNL A   1      41.636  30.764  35.190  1.00  0.00     0.049 A 
ATOM     51  C   UNL A   1      42.085  27.737  30.506  1.00  0.00     0.074 A 
ATOM     52  C   UNL A   1      42.517  30.467  36.215  1.00  0.00     0.029 A 
ATOM     53  N   UNL A   1      41.920  29.890  34.153  1.00  0.00    -0.354 N 
ATOM     54  N   UNL A   1      42.069  28.322  31.680  1.00  0.00    -0.248 NA
ATOM     55  C   UNL A   1      43.167  26.756  30.342  1.00  0.00     0.031 C 
ATOM     56  C   UNL A   1      43.348  29.425  35.788  1.00  0.00     0.029 A 
ATOM     57  C   UNL A   1      42.969  29.059  34.507  1.00  0.00     0.049 A 
ATOM     58  H   UNL A   1      41.445  29.864  33.291  1.00  0.00     0.167 HD
ATOM     59  C   UNL A   1      43.113  27.755  32.405  1.00  0.00     0.074 A 
ATOM     60  C   UNL A   1      43.727  26.766  31.545  1.00  0.00     0.031 C 
ATOM     61  C   UNL A   1      43.534  28.039  33.662  1.00  0.00     0.034 A 
BRANCH  48  62
ATOM     62  C   UNL A   1      40.455  32.667  36.358  1.00  0.00     0.023 A 
ATOM     63  C   UNL A   1      41.268  33.811  36.491  1.00  0.00     0.012 A 
ATOM     64  C   UNL A   1      39.465  32.406  37.325  1.00  0.00     0.148 A 
ATOM     65  C   UNL A   1      41.119  34.666  37.582  1.00  0.00     0.002 A 
ATOM     66  C   UNL A   1      39.294  33.285  38.390  1.00  0.00     0.091 A 
ATOM     67  F   UNL A   1      38.719  31.301  37.194  1.00  0.00    -0.205 F 
ATOM     68  C   UNL A   1      40.127  34.408  38.525  1.00  0.00     0.022 A 
BRANCH  66  69
ATOM     69  S   UNL A   1      37.997  33.078  39.615  1.00  0.00     0.127 S 
ATOM     70  O   UNL A   1      38.437  31.867  40.307  1.00  0.00    -0.237 OA
ATOM     71  O   UNL A   1      38.116  34.306  40.401  1.00  0.00    -0.237 OA
ATOM     72  O   UNL A   1      36.755  32.956  38.866  1.00  0.00    -0.744 OA
ENDBRANCH  66  69
ENDBRANCH  48  62
BRANCH  49  73
ATOM     73  C   UNL A   1      41.297  27.103  28.105  1.00  0.00     0.023 A 
ATOM     74  C   UNL A   1      41.919  27.670  26.975  1.00  0.00     0.012 A 
ATOM     75  C   UNL A   1      40.852  25.768  28.045  1.00  0.00     0.148 A 
ATOM     76  C   UNL A   1      42.068  26.933  25.800  1.00  0.00     0.002 A 
ATOM     77  C   UNL A   1      41.056  25.021  26.891  1.00  0.00     0.091 A 
ATOM     78  F   UNL A   1      40.243  25.252  29.121  1.00  0.00    -0.205 F 
ATOM     79  C   UNL A   1      41.648  25.606  25.762  1.00  0.00     0.022 A 
BRANCH  77  80
ATOM     80  S   UNL A   1      40.672  23.268  26.807  1.00  0.00     0.127 S 
ATOM     81  O   UNL A   1      39.251  23.289  26.470  1.00  0.00    -0.237 OA
ATOM     82  O   UNL A   1      41.555  22.814  25.732  1.00  0.00    -0.237 OA
ATOM     83  O   UNL A   1      41.007  22.732  28.119  1.00  0.00    -0.744 OA
ENDBRANCH  77  80
ENDBRANCH  49  73
BRANCH  61  84
ATOM     84  C   UNL A   1      44.696  27.249  34.207  1.00  0.00     0.023 A 
ATOM     85  C   UNL A   1      46.012  27.701  33.990  1.00  0.00     0.012 A 
ATOM     86  C   UNL A   1      44.481  26.104  35.001  1.00  0.00     0.148 A 
ATOM     87  C   UNL A   1      47.098  27.009  34.528  1.00  0.00     0.002 A 
ATOM     88  C   UNL A   1      45.564  25.447  35.572  1.00  0.00     0.091 A 
ATOM     89  F   UNL A   1      43.221  25.678  35.182  1.00  0.00    -0.205 F 
ATOM     90  C   UNL A   1      46.873  25.891  35.328  1.00  0.00     0.022 A 
BRANCH  88  91
ATOM     91  S   UNL A   1      45.363  24.056  36.692  1.00  0.00     0.127 S 
ATOM     92  O   UNL A   1      44.338  24.555  37.607  1.00  0.00    -0.237 OA
ATOM     93  O   UNL A   1      44.912  22.993  35.792  1.00  0.00    -0.237 OA
ATOM     94  O   UNL A   1      46.674  23.826  37.284  1.00  0.00    -0.744 OA
ENDBRANCH  88  91
ENDBRANCH  61  84
ENDBRANCH  35  36
ENDBRANCH  28  30
ENDBRANCH  27  28
ENDBRANCH  26  27
ENDBRANCH  25  26
ENDBRANCH   1  25
TORSDOF 20
ENDMDL
