MODEL 1
REMARK VINA RESULT:     -11.4      0.000      0.000
REMARK SMILES CC(C)CSc1cc2c(cc1Cl)C=C(C(=O)OCCOCCOC(=O)c1ccc(-c3c4nc(c(-c5cccc(S(=O)(=O)[O-])c5F)c5ccc([nH]5)c(-c5cccc(S(=O)(=O)[O-])c5F)c5nc(c(-c6cccc(S(=O)(=O)[O-])c6F)c6ccc3[nH]6)C=C5)C=C4)cc1)[C@H](C(F)(F)F)O2
REMARK SMILES IDX 20 1 19 2 18 3 17 4 15 5 16 6 14 7 6 8 7 9 11 10 8 11 10 12
REMARK SMILES IDX 12 13 9 14 94 15 13 16 89 17 5 18 4 19 2 20 1 21 3 22 90 23
REMARK SMILES IDX 91 24 92 25 93 26 21 27 22 28 23 29 24 30 25 31 26 32 27 33
REMARK SMILES IDX 88 34 28 35 87 36 29 37 30 38 31 39 81 40 32 41 86 42 80 43
REMARK SMILES IDX 82 44 33 45 85 46 79 47 78 48 34 50 66 51 46 52 65 53 47 54
REMARK SMILES IDX 50 55 64 56 83 57 48 58 49 59 63 61 84 62 51 63 35 64 36 65
REMARK SMILES IDX 44 66 37 67 39 68 45 69 38 70 40 71 41 72 42 73 43 74 67 75
REMARK SMILES IDX 68 76 76 77 69 78 71 79 77 80 70 81 72 82 73 83 74 84 75 85
REMARK SMILES IDX 52 86 53 87 61 88 54 89 56 90 62 91 55 92 57 93 58 94 59 95
REMARK SMILES IDX 60 96
REMARK H PARENT 82 49 50 60
REMARK Flexibility Score: inf
ROOT
ATOM      1  O   UNL A   1      35.296  18.384  24.663  1.00  0.00    -0.374 OA
ENDROOT
BRANCH   1   2
ATOM      2  C   UNL A   1      33.940  18.394  24.212  1.00  0.00     0.202 C 
BRANCH   2   3
ATOM      3  C   UNL A   1      32.866  18.478  25.303  1.00  0.00     0.261 C 
BRANCH   3   4
ATOM      4  O   UNL A   1      32.260  19.781  25.325  1.00  0.00    -0.460 OA
BRANCH   4   5
ATOM      5  C   UNL A   1      32.339  20.466  24.166  1.00  0.00     0.338 C 
ATOM      6  O   UNL A   1      32.206  20.011  23.041  1.00  0.00    -0.246 OA
BRANCH   5   7
ATOM      7  C   UNL A   1      32.469  21.910  24.438  1.00  0.00     0.087 C 
ATOM      8  C   UNL A   1      31.946  26.868  23.854  1.00  0.00     0.030 A 
ATOM      9  C   UNL A   1      32.998  26.028  24.271  1.00  0.00     0.063 A 
ATOM     10  C   UNL A   1      30.667  26.309  23.695  1.00  0.00     0.055 A 
ATOM     11  C   UNL A   1      32.809  24.652  24.401  1.00  0.00     0.129 A 
ATOM     12  C   UNL A   1      30.487  24.925  23.799  1.00  0.00     0.033 A 
ATOM     13  Cl  UNL A   1      29.248  27.243  23.371  1.00  0.00    -0.083 Cl
ATOM     14  C   UNL A   1      31.566  24.096  24.112  1.00  0.00     0.019 A 
ATOM     15  O   UNL A   1      33.909  23.899  24.717  1.00  0.00    -0.475 OA
ATOM     16  C   UNL A   1      31.439  22.656  24.015  1.00  0.00     0.027 C 
ATOM     17  C   UNL A   1      33.688  22.502  25.096  1.00  0.00     0.316 C 
BRANCH   8  18
ATOM     18  S   UNL A   1      32.402  28.571  23.537  1.00  0.00    -0.124 SA
BRANCH  18  19
ATOM     19  C   UNL A   1      31.582  29.512  24.887  1.00  0.00     0.078 C 
BRANCH  19  20
ATOM     20  C   UNL A   1      32.246  29.538  26.279  1.00  0.00    -0.007 C 
ATOM     21  C   UNL A   1      32.142  30.875  27.013  1.00  0.00     0.008 C 
ATOM     22  C   UNL A   1      31.588  28.460  27.153  1.00  0.00     0.008 C 
ENDBRANCH  19  20
ENDBRANCH  18  19
ENDBRANCH   8  18
BRANCH  17  23
ATOM     23  C   UNL A   1      33.696  22.382  26.636  1.00  0.00     0.430 C 
ATOM     24  F   UNL A   1      34.233  21.208  27.050  1.00  0.00    -0.167 F 
ATOM     25  F   UNL A   1      34.393  23.378  27.227  1.00  0.00    -0.167 F 
ATOM     26  F   UNL A   1      32.439  22.443  27.140  1.00  0.00    -0.167 F 
ENDBRANCH  17  23
ENDBRANCH   5   7
ENDBRANCH   4   5
ENDBRANCH   3   4
ENDBRANCH   2   3
ENDBRANCH   1   2
BRANCH   1  27
ATOM     27  C   UNL A   1      35.924  19.648  24.883  1.00  0.00     0.202 C 
BRANCH  27  28
ATOM     28  C   UNL A   1      37.452  19.710  24.760  1.00  0.00     0.261 C 
BRANCH  28  29
ATOM     29  O   UNL A   1      38.002  20.825  25.480  1.00  0.00    -0.460 OA
BRANCH  29  30
ATOM     30  C   UNL A   1      39.202  20.596  26.069  1.00  0.00     0.338 C 
ATOM     31  O   UNL A   1      39.847  19.559  26.033  1.00  0.00    -0.246 OA
BRANCH  30  32
ATOM     32  C   UNL A   1      39.739  21.867  26.598  1.00  0.00     0.060 A 
ATOM     33  C   UNL A   1      40.759  21.895  27.550  1.00  0.00     0.016 A 
ATOM     34  C   UNL A   1      39.198  23.063  26.105  1.00  0.00     0.016 A 
ATOM     35  C   UNL A   1      41.257  23.127  27.985  1.00  0.00     0.010 A 
ATOM     36  C   UNL A   1      39.703  24.292  26.535  1.00  0.00     0.010 A 
ATOM     37  C   UNL A   1      40.748  24.333  27.466  1.00  0.00    -0.014 A 
BRANCH  37  38
ATOM     38  C   UNL A   1      41.399  25.622  27.816  1.00  0.00     0.031 A 
ATOM     39  C   UNL A   1      42.806  25.935  27.401  1.00  0.00     0.074 A 
ATOM     40  C   UNL A   1      40.699  26.518  28.541  1.00  0.00     0.049 A 
ATOM     41  N   UNL A   1      43.467  27.055  27.542  1.00  0.00    -0.248 NA
ATOM     42  C   UNL A   1      43.574  24.862  26.750  1.00  0.00     0.031 C 
ATOM     43  C   UNL A   1      39.351  26.299  29.070  1.00  0.00     0.029 A 
ATOM     44  N   UNL A   1      41.019  27.786  28.955  1.00  0.00    -0.354 N 
ATOM     45  C   UNL A   1      44.727  26.826  27.005  1.00  0.00     0.074 A 
ATOM     46  C   UNL A   1      44.749  25.451  26.556  1.00  0.00     0.031 C 
ATOM     47  C   UNL A   1      38.948  27.407  29.711  1.00  0.00     0.029 A 
ATOM     48  C   UNL A   1      40.012  28.405  29.658  1.00  0.00     0.049 A 
ATOM     49  H   UNL A   1      41.887  28.212  28.768  1.00  0.00     0.167 HD
ATOM     50  C   UNL A   1      45.758  27.694  26.875  1.00  0.00     0.034 A 
ATOM     51  C   UNL A   1      39.943  29.640  30.191  1.00  0.00     0.034 A 
ATOM     52  C   UNL A   1      45.728  29.066  27.305  1.00  0.00     0.049 A 
ATOM     53  C   UNL A   1      41.095  30.586  30.020  1.00  0.00     0.074 A 
ATOM     54  C   UNL A   1      46.705  30.034  27.144  1.00  0.00     0.029 A 
ATOM     55  N   UNL A   1      44.684  29.662  27.993  1.00  0.00    -0.354 N 
ATOM     56  N   UNL A   1      42.220  30.399  29.373  1.00  0.00    -0.248 NA
ATOM     57  C   UNL A   1      40.965  31.920  30.625  1.00  0.00     0.031 C 
ATOM     58  C   UNL A   1      46.260  31.210  27.754  1.00  0.00     0.029 A 
ATOM     59  C   UNL A   1      44.998  30.980  28.276  1.00  0.00     0.049 A 
ATOM     60  H   UNL A   1      43.843  29.214  28.243  1.00  0.00     0.167 HD
ATOM     61  C   UNL A   1      42.923  31.593  29.479  1.00  0.00     0.074 A 
ATOM     62  C   UNL A   1      42.092  32.504  30.237  1.00  0.00     0.031 C 
ATOM     63  C   UNL A   1      44.152  31.895  28.997  1.00  0.00     0.034 A 
BRANCH  50  64
ATOM     64  C   UNL A   1      47.003  27.218  26.178  1.00  0.00     0.023 A 
ATOM     65  C   UNL A   1      47.202  27.563  24.826  1.00  0.00     0.012 A 
ATOM     66  C   UNL A   1      48.022  26.551  26.884  1.00  0.00     0.148 A 
ATOM     67  C   UNL A   1      48.398  27.245  24.184  1.00  0.00     0.002 A 
ATOM     68  C   UNL A   1      49.221  26.262  26.244  1.00  0.00     0.091 A 
ATOM     69  F   UNL A   1      47.805  26.231  28.168  1.00  0.00    -0.205 F 
ATOM     70  C   UNL A   1      49.410  26.605  24.894  1.00  0.00     0.022 A 
BRANCH  68  71
ATOM     71  S   UNL A   1      50.609  25.481  27.077  1.00  0.00     0.127 S 
ATOM     72  O   UNL A   1      51.538  25.273  25.966  1.00  0.00    -0.237 OA
ATOM     73  O   UNL A   1      51.016  26.515  28.028  1.00  0.00    -0.237 OA
ATOM     74  O   UNL A   1      50.086  24.263  27.678  1.00  0.00    -0.744 OA
ENDBRANCH  68  71
ENDBRANCH  50  64
BRANCH  51  75
ATOM     75  C   UNL A   1      38.692  30.064  30.875  1.00  0.00     0.023 A 
ATOM     76  C   UNL A   1      38.514  29.760  32.238  1.00  0.00     0.012 A 
ATOM     77  C   UNL A   1      37.720  30.829  30.203  1.00  0.00     0.148 A 
ATOM     78  C   UNL A   1      37.383  30.206  32.921  1.00  0.00     0.002 A 
ATOM     79  C   UNL A   1      36.614  31.301  30.898  1.00  0.00     0.091 A 
ATOM     80  F   UNL A   1      37.920  31.106  28.907  1.00  0.00    -0.205 F 
ATOM     81  C   UNL A   1      36.440  30.984  32.254  1.00  0.00     0.022 A 
BRANCH  79  82
ATOM     82  S   UNL A   1      35.388  32.382  30.152  1.00  0.00     0.127 S 
ATOM     83  O   UNL A   1      34.917  31.569  29.033  1.00  0.00    -0.237 OA
ATOM     84  O   UNL A   1      34.430  32.542  31.245  1.00  0.00    -0.237 OA
ATOM     85  O   UNL A   1      36.101  33.597  29.782  1.00  0.00    -0.744 OA
ENDBRANCH  79  82
ENDBRANCH  51  75
BRANCH  63  86
ATOM     86  C   UNL A   1      44.706  33.269  29.259  1.00  0.00     0.023 A 
ATOM     87  C   UNL A   1      45.551  33.472  30.366  1.00  0.00     0.012 A 
ATOM     88  C   UNL A   1      44.513  34.310  28.330  1.00  0.00     0.148 A 
ATOM     89  C   UNL A   1      46.199  34.694  30.544  1.00  0.00     0.002 A 
ATOM     90  C   UNL A   1      45.187  35.513  28.495  1.00  0.00     0.091 A 
ATOM     91  F   UNL A   1      43.699  34.089  27.287  1.00  0.00    -0.205 F 
ATOM     92  C   UNL A   1      46.028  35.707  29.604  1.00  0.00     0.022 A 
BRANCH  90  93
ATOM     93  S   UNL A   1      45.089  36.855  27.305  1.00  0.00     0.127 S 
ATOM     94  O   UNL A   1      45.520  37.999  28.108  1.00  0.00    -0.237 OA
ATOM     95  O   UNL A   1      46.046  36.430  26.284  1.00  0.00    -0.237 OA
ATOM     96  O   UNL A   1      43.702  36.903  26.860  1.00  0.00    -0.744 OA
ENDBRANCH  90  93
ENDBRANCH  63  86
ENDBRANCH  37  38
ENDBRANCH  30  32
ENDBRANCH  29  30
ENDBRANCH  28  29
ENDBRANCH  27  28
ENDBRANCH   1  27
TORSDOF 21
ENDMDL
MODEL 2
REMARK VINA RESULT:     -11.4      2.362      2.971
REMARK SMILES CC(C)CSc1cc2c(cc1Cl)C=C(C(=O)OCCOCCOC(=O)c1ccc(-c3c4nc(c(-c5cccc(S(=O)(=O)[O-])c5F)c5ccc([nH]5)c(-c5cccc(S(=O)(=O)[O-])c5F)c5nc(c(-c6cccc(S(=O)(=O)[O-])c6F)c6ccc3[nH]6)C=C5)C=C4)cc1)[C@H](C(F)(F)F)O2
REMARK SMILES IDX 20 1 19 2 18 3 17 4 15 5 16 6 14 7 6 8 7 9 11 10 8 11 10 12
REMARK SMILES IDX 12 13 9 14 94 15 13 16 89 17 5 18 4 19 2 20 1 21 3 22 90 23
REMARK SMILES IDX 91 24 92 25 93 26 21 27 22 28 23 29 24 30 25 31 26 32 27 33
REMARK SMILES IDX 88 34 28 35 87 36 29 37 30 38 31 39 81 40 32 41 86 42 80 43
REMARK SMILES IDX 82 44 33 45 85 46 79 47 78 48 34 50 66 51 46 52 65 53 47 54
REMARK SMILES IDX 50 55 64 56 83 57 48 58 49 59 63 61 84 62 51 63 35 64 36 65
REMARK SMILES IDX 44 66 37 67 39 68 45 69 38 70 40 71 41 72 42 73 43 74 67 75
REMARK SMILES IDX 68 76 76 77 69 78 71 79 77 80 70 81 72 82 73 83 74 84 75 85
REMARK SMILES IDX 52 86 53 87 61 88 54 89 56 90 62 91 55 92 57 93 58 94 59 95
REMARK SMILES IDX 60 96
REMARK H PARENT 82 49 50 60
REMARK Flexibility Score: inf
ROOT
ATOM      1  O   UNL A   1      35.598  21.378  25.158  1.00  0.00    -0.374 OA
ENDROOT
BRANCH   1   2
ATOM      2  C   UNL A   1      34.964  21.681  26.403  1.00  0.00     0.202 C 
BRANCH   2   3
ATOM      3  C   UNL A   1      33.637  20.966  26.678  1.00  0.00     0.261 C 
BRANCH   3   4
ATOM      4  O   UNL A   1      32.543  21.657  26.050  1.00  0.00    -0.460 OA
BRANCH   4   5
ATOM      5  C   UNL A   1      32.047  22.696  26.753  1.00  0.00     0.338 C 
ATOM      6  O   UNL A   1      31.845  22.729  27.957  1.00  0.00    -0.246 OA
BRANCH   5   7
ATOM      7  C   UNL A   1      31.908  23.877  25.882  1.00  0.00     0.087 C 
ATOM      8  C   UNL A   1      31.131  28.645  24.517  1.00  0.00     0.030 A 
ATOM      9  C   UNL A   1      30.768  27.393  23.982  1.00  0.00     0.063 A 
ATOM     10  C   UNL A   1      32.049  28.677  25.580  1.00  0.00     0.055 A 
ATOM     11  C   UNL A   1      31.206  26.206  24.571  1.00  0.00     0.129 A 
ATOM     12  C   UNL A   1      32.466  27.486  26.185  1.00  0.00     0.033 A 
ATOM     13  Cl  UNL A   1      32.729  30.136  26.214  1.00  0.00    -0.083 Cl
ATOM     14  C   UNL A   1      32.012  26.256  25.705  1.00  0.00     0.019 A 
ATOM     15  O   UNL A   1      30.727  25.036  24.045  1.00  0.00    -0.475 OA
ATOM     16  C   UNL A   1      32.265  25.038  26.448  1.00  0.00     0.027 C 
ATOM     17  C   UNL A   1      31.358  23.789  24.482  1.00  0.00     0.316 C 
BRANCH   8  18
ATOM     18  S   UNL A   1      30.321  30.061  23.777  1.00  0.00    -0.124 SA
BRANCH  18  19
ATOM     19  C   UNL A   1      28.830  29.351  22.969  1.00  0.00     0.078 C 
BRANCH  19  20
ATOM     20  C   UNL A   1      27.712  30.309  22.508  1.00  0.00    -0.007 C 
ATOM     21  C   UNL A   1      27.498  31.524  23.411  1.00  0.00     0.008 C 
ATOM     22  C   UNL A   1      28.055  30.815  21.098  1.00  0.00     0.008 C 
ENDBRANCH  19  20
ENDBRANCH  18  19
ENDBRANCH   8  18
BRANCH  17  23
ATOM     23  C   UNL A   1      32.392  23.340  23.425  1.00  0.00     0.430 C 
ATOM     24  F   UNL A   1      32.292  24.057  22.280  1.00  0.00    -0.167 F 
ATOM     25  F   UNL A   1      33.664  23.459  23.867  1.00  0.00    -0.167 F 
ATOM     26  F   UNL A   1      32.222  22.037  23.094  1.00  0.00    -0.167 F 
ENDBRANCH  17  23
ENDBRANCH   5   7
ENDBRANCH   4   5
ENDBRANCH   3   4
ENDBRANCH   2   3
ENDBRANCH   1   2
BRANCH   1  27
ATOM     27  C   UNL A   1      36.109  20.055  24.988  1.00  0.00     0.202 C 
BRANCH  27  28
ATOM     28  C   UNL A   1      37.633  19.884  24.963  1.00  0.00     0.261 C 
BRANCH  28  29
ATOM     29  O   UNL A   1      38.313  21.069  25.410  1.00  0.00    -0.460 OA
BRANCH  29  30
ATOM     30  C   UNL A   1      39.438  20.849  26.135  1.00  0.00     0.338 C 
ATOM     31  O   UNL A   1      40.063  19.803  26.214  1.00  0.00    -0.246 OA
BRANCH  30  32
ATOM     32  C   UNL A   1      39.936  22.135  26.667  1.00  0.00     0.060 A 
ATOM     33  C   UNL A   1      40.952  22.191  27.623  1.00  0.00     0.016 A 
ATOM     34  C   UNL A   1      39.364  23.315  26.172  1.00  0.00     0.016 A 
ATOM     35  C   UNL A   1      41.413  23.436  28.060  1.00  0.00     0.010 A 
ATOM     36  C   UNL A   1      39.833  24.557  26.604  1.00  0.00     0.010 A 
ATOM     37  C   UNL A   1      40.873  24.628  27.540  1.00  0.00    -0.014 A 
BRANCH  37  38
ATOM     38  C   UNL A   1      41.485  25.934  27.892  1.00  0.00     0.031 A 
ATOM     39  C   UNL A   1      42.886  26.285  27.487  1.00  0.00     0.074 A 
ATOM     40  C   UNL A   1      40.756  26.811  28.611  1.00  0.00     0.049 A 
ATOM     41  N   UNL A   1      43.515  27.423  27.631  1.00  0.00    -0.248 NA
ATOM     42  C   UNL A   1      43.688  25.233  26.843  1.00  0.00     0.031 C 
ATOM     43  C   UNL A   1      39.411  26.557  29.131  1.00  0.00     0.029 A 
ATOM     44  N   UNL A   1      41.039  28.089  29.026  1.00  0.00    -0.354 N 
ATOM     45  C   UNL A   1      44.785  27.228  27.103  1.00  0.00     0.074 A 
ATOM     46  C   UNL A   1      44.848  25.853  26.656  1.00  0.00     0.031 C 
ATOM     47  C   UNL A   1      38.973  27.654  29.768  1.00  0.00     0.029 A 
ATOM     48  C   UNL A   1      40.010  28.680  29.721  1.00  0.00     0.049 A 
ATOM     49  H   UNL A   1      41.896  28.538  28.845  1.00  0.00     0.167 HD
ATOM     50  C   UNL A   1      45.793  28.124  26.979  1.00  0.00     0.034 A 
ATOM     51  C   UNL A   1      39.904  29.914  30.252  1.00  0.00     0.034 A 
ATOM     52  C   UNL A   1      45.723  29.494  27.407  1.00  0.00     0.049 A 
ATOM     53  C   UNL A   1      41.031  30.891  30.088  1.00  0.00     0.074 A 
ATOM     54  C   UNL A   1      46.673  30.489  27.251  1.00  0.00     0.029 A 
ATOM     55  N   UNL A   1      44.657  30.063  28.087  1.00  0.00    -0.354 N 
ATOM     56  N   UNL A   1      42.166  30.734  29.450  1.00  0.00    -0.248 NA
ATOM     57  C   UNL A   1      40.860  32.221  30.690  1.00  0.00     0.031 C 
ATOM     58  C   UNL A   1      46.192  31.653  27.857  1.00  0.00     0.029 A 
ATOM     59  C   UNL A   1      44.934  31.388  28.371  1.00  0.00     0.049 A 
ATOM     60  H   UNL A   1      43.828  29.592  28.332  1.00  0.00     0.167 HD
ATOM     61  C   UNL A   1      42.834  31.947  29.559  1.00  0.00     0.074 A 
ATOM     62  C   UNL A   1      41.974  32.836  30.310  1.00  0.00     0.031 C 
ATOM     63  C   UNL A   1      44.058  32.282  29.085  1.00  0.00     0.034 A 
BRANCH  50  64
ATOM     64  C   UNL A   1      47.055  27.681  26.291  1.00  0.00     0.023 A 
ATOM     65  C   UNL A   1      48.001  26.931  27.018  1.00  0.00     0.012 A 
ATOM     66  C   UNL A   1      47.243  27.889  24.911  1.00  0.00     0.148 A 
ATOM     67  C   UNL A   1      49.122  26.399  26.383  1.00  0.00     0.002 A 
ATOM     68  C   UNL A   1      48.349  27.333  24.280  1.00  0.00     0.091 A 
ATOM     69  F   UNL A   1      46.330  28.609  24.244  1.00  0.00    -0.205 F 
ATOM     70  C   UNL A   1      49.290  26.591  25.014  1.00  0.00     0.022 A 
BRANCH  68  71
ATOM     71  S   UNL A   1      48.640  27.479  22.513  1.00  0.00     0.127 S 
ATOM     72  O   UNL A   1      49.959  28.113  22.485  1.00  0.00    -0.237 OA
ATOM     73  O   UNL A   1      48.625  26.081  22.084  1.00  0.00    -0.237 OA
ATOM     74  O   UNL A   1      47.554  28.295  21.990  1.00  0.00    -0.744 OA
ENDBRANCH  68  71
ENDBRANCH  50  64
BRANCH  51  75
ATOM     75  C   UNL A   1      38.638  30.304  30.928  1.00  0.00     0.023 A 
ATOM     76  C   UNL A   1      38.482  30.048  32.302  1.00  0.00     0.012 A 
ATOM     77  C   UNL A   1      37.626  30.993  30.232  1.00  0.00     0.148 A 
ATOM     78  C   UNL A   1      37.334  30.466  32.975  1.00  0.00     0.002 A 
ATOM     79  C   UNL A   1      36.502  31.439  30.914  1.00  0.00     0.091 A 
ATOM     80  F   UNL A   1      37.805  31.225  28.924  1.00  0.00    -0.205 F 
ATOM     81  C   UNL A   1      36.350  31.169  32.284  1.00  0.00     0.022 A 
BRANCH  79  82
ATOM     82  S   UNL A   1      35.221  32.427  30.134  1.00  0.00     0.127 S 
ATOM     83  O   UNL A   1      34.308  32.666  31.250  1.00  0.00    -0.237 OA
ATOM     84  O   UNL A   1      35.976  33.598  29.692  1.00  0.00    -0.237 OA
ATOM     85  O   UNL A   1      34.685  31.605  29.057  1.00  0.00    -0.744 OA
ENDBRANCH  79  82
ENDBRANCH  51  75
BRANCH  63  86
ATOM     86  C   UNL A   1      44.572  33.670  29.349  1.00  0.00     0.023 A 
ATOM     87  C   UNL A   1      44.262  34.704  28.446  1.00  0.00     0.012 A 
ATOM     88  C   UNL A   1      45.226  33.975  30.559  1.00  0.00     0.148 A 
ATOM     89  C   UNL A   1      44.594  36.025  28.745  1.00  0.00     0.002 A 
ATOM     90  C   UNL A   1      45.524  35.297  30.865  1.00  0.00     0.091 A 
ATOM     91  F   UNL A   1      45.512  32.969  31.399  1.00  0.00    -0.205 F 
ATOM     92  C   UNL A   1      45.211  36.322  29.958  1.00  0.00     0.022 A 
BRANCH  90  93
ATOM     93  S   UNL A   1      46.255  35.792  32.430  1.00  0.00     0.127 S 
ATOM     94  O   UNL A   1      45.255  35.323  33.389  1.00  0.00    -0.237 OA
ATOM     95  O   UNL A   1      47.508  35.037  32.436  1.00  0.00    -0.237 OA
ATOM     96  O   UNL A   1      46.413  37.239  32.364  1.00  0.00    -0.744 OA
ENDBRANCH  90  93
ENDBRANCH  63  86
ENDBRANCH  37  38
ENDBRANCH  30  32
ENDBRANCH  29  30
ENDBRANCH  28  29
ENDBRANCH  27  28
ENDBRANCH   1  27
TORSDOF 21
ENDMDL
MODEL 3
REMARK VINA RESULT:     -11.1      2.052      2.675
REMARK SMILES CC(C)CSc1cc2c(cc1Cl)C=C(C(=O)OCCOCCOC(=O)c1ccc(-c3c4nc(c(-c5cccc(S(=O)(=O)[O-])c5F)c5ccc([nH]5)c(-c5cccc(S(=O)(=O)[O-])c5F)c5nc(c(-c6cccc(S(=O)(=O)[O-])c6F)c6ccc3[nH]6)C=C5)C=C4)cc1)[C@H](C(F)(F)F)O2
REMARK SMILES IDX 20 1 19 2 18 3 17 4 15 5 16 6 14 7 6 8 7 9 11 10 8 11 10 12
REMARK SMILES IDX 12 13 9 14 94 15 13 16 89 17 5 18 4 19 2 20 1 21 3 22 90 23
REMARK SMILES IDX 91 24 92 25 93 26 21 27 22 28 23 29 24 30 25 31 26 32 27 33
REMARK SMILES IDX 88 34 28 35 87 36 29 37 30 38 31 39 81 40 32 41 86 42 80 43
REMARK SMILES IDX 82 44 33 45 85 46 79 47 78 48 34 50 66 51 46 52 65 53 47 54
REMARK SMILES IDX 50 55 64 56 83 57 48 58 49 59 63 61 84 62 51 63 35 64 36 65
REMARK SMILES IDX 44 66 37 67 39 68 45 69 38 70 40 71 41 72 42 73 43 74 67 75
REMARK SMILES IDX 68 76 76 77 69 78 71 79 77 80 70 81 72 82 73 83 74 84 75 85
REMARK SMILES IDX 52 86 53 87 61 88 54 89 56 90 62 91 55 92 57 93 58 94 59 95
REMARK SMILES IDX 60 96
REMARK H PARENT 82 49 50 60
REMARK Flexibility Score: inf
ROOT
ATOM      1  O   UNL A   1      34.873  21.584  26.910  1.00  0.00    -0.374 OA
ENDROOT
BRANCH   1   2
ATOM      2  C   UNL A   1      33.517  22.034  26.903  1.00  0.00     0.202 C 
BRANCH   2   3
ATOM      3  C   UNL A   1      32.695  21.684  25.658  1.00  0.00     0.261 C 
BRANCH   3   4
ATOM      4  O   UNL A   1      31.904  22.807  25.234  1.00  0.00    -0.460 OA
BRANCH   4   5
ATOM      5  C   UNL A   1      32.056  23.154  23.941  1.00  0.00     0.338 C 
ATOM      6  O   UNL A   1      32.358  22.414  23.019  1.00  0.00    -0.246 OA
BRANCH   5   7
ATOM      7  C   UNL A   1      31.657  24.561  23.743  1.00  0.00     0.087 C 
ATOM      8  C   UNL A   1      28.794  28.516  22.579  1.00  0.00     0.030 A 
ATOM      9  C   UNL A   1      30.151  28.188  22.387  1.00  0.00     0.063 A 
ATOM     10  C   UNL A   1      28.018  27.690  23.409  1.00  0.00     0.055 A 
ATOM     11  C   UNL A   1      30.684  27.006  22.902  1.00  0.00     0.129 A 
ATOM     12  C   UNL A   1      28.547  26.492  23.901  1.00  0.00     0.033 A 
ATOM     13  Cl  UNL A   1      26.398  28.064  23.885  1.00  0.00    -0.083 Cl
ATOM     14  C   UNL A   1      29.865  26.134  23.614  1.00  0.00     0.019 A 
ATOM     15  O   UNL A   1      31.986  26.720  22.587  1.00  0.00    -0.475 OA
ATOM     16  C   UNL A   1      30.355  24.808  23.936  1.00  0.00     0.027 C 
ATOM     17  C   UNL A   1      32.633  25.624  23.310  1.00  0.00     0.316 C 
BRANCH   8  18
ATOM     18  S   UNL A   1      28.217  29.956  21.683  1.00  0.00    -0.124 SA
BRANCH  18  19
ATOM     19  C   UNL A   1      29.324  31.310  22.253  1.00  0.00     0.078 C 
BRANCH  19  20
ATOM     20  C   UNL A   1      28.951  32.078  23.537  1.00  0.00    -0.007 C 
ATOM     21  C   UNL A   1      29.858  31.801  24.735  1.00  0.00     0.008 C 
ATOM     22  C   UNL A   1      29.003  33.584  23.235  1.00  0.00     0.008 C 
ENDBRANCH  19  20
ENDBRANCH  18  19
ENDBRANCH   8  18
BRANCH  17  23
ATOM     23  C   UNL A   1      33.489  26.202  24.459  1.00  0.00     0.430 C 
ATOM     24  F   UNL A   1      32.755  26.422  25.577  1.00  0.00    -0.167 F 
ATOM     25  F   UNL A   1      34.511  25.386  24.800  1.00  0.00    -0.167 F 
ATOM     26  F   UNL A   1      34.045  27.387  24.109  1.00  0.00    -0.167 F 
ENDBRANCH  17  23
ENDBRANCH   5   7
ENDBRANCH   4   5
ENDBRANCH   3   4
ENDBRANCH   2   3
ENDBRANCH   1   2
BRANCH   1  27
ATOM     27  C   UNL A   1      35.690  21.944  25.795  1.00  0.00     0.202 C 
BRANCH  27  28
ATOM     28  C   UNL A   1      36.705  20.907  25.297  1.00  0.00     0.261 C 
BRANCH  28  29
ATOM     29  O   UNL A   1      37.987  21.499  25.029  1.00  0.00    -0.460 OA
BRANCH  29  30
ATOM     30  C   UNL A   1      38.971  21.158  25.898  1.00  0.00     0.338 C 
ATOM     31  O   UNL A   1      39.437  20.043  26.073  1.00  0.00    -0.246 OA
BRANCH  30  32
ATOM     32  C   UNL A   1      39.565  22.385  26.469  1.00  0.00     0.060 A 
ATOM     33  C   UNL A   1      40.614  22.334  27.389  1.00  0.00     0.016 A 
ATOM     34  C   UNL A   1      39.050  23.620  26.051  1.00  0.00     0.016 A 
ATOM     35  C   UNL A   1      41.165  23.527  27.866  1.00  0.00     0.010 A 
ATOM     36  C   UNL A   1      39.608  24.810  26.523  1.00  0.00     0.010 A 
ATOM     37  C   UNL A   1      40.681  24.773  27.422  1.00  0.00    -0.014 A 
BRANCH  37  38
ATOM     38  C   UNL A   1      41.385  26.021  27.812  1.00  0.00     0.031 A 
ATOM     39  C   UNL A   1      42.792  26.304  27.377  1.00  0.00     0.074 A 
ATOM     40  C   UNL A   1      40.733  26.908  28.591  1.00  0.00     0.049 A 
ATOM     41  N   UNL A   1      43.495  27.394  27.552  1.00  0.00    -0.248 NA
ATOM     42  C   UNL A   1      43.508  25.235  26.663  1.00  0.00     0.031 C 
ATOM     43  C   UNL A   1      39.390  26.713  29.141  1.00  0.00     0.029 A 
ATOM     44  N   UNL A   1      41.107  28.146  29.052  1.00  0.00    -0.354 N 
ATOM     45  C   UNL A   1      44.735  27.146  26.976  1.00  0.00     0.074 A 
ATOM     46  C   UNL A   1      44.698  25.791  26.467  1.00  0.00     0.031 C 
ATOM     47  C   UNL A   1      39.040  27.804  29.839  1.00  0.00     0.029 A 
ATOM     48  C   UNL A   1      40.137  28.767  29.804  1.00  0.00     0.049 A 
ATOM     49  H   UNL A   1      41.984  28.549  28.863  1.00  0.00     0.167 HD
ATOM     50  C   UNL A   1      45.792  27.983  26.859  1.00  0.00     0.034 A 
ATOM     51  C   UNL A   1      40.124  29.979  30.392  1.00  0.00     0.034 A 
ATOM     52  C   UNL A   1      45.821  29.334  27.349  1.00  0.00     0.049 A 
ATOM     53  C   UNL A   1      41.305  30.892  30.235  1.00  0.00     0.074 A 
ATOM     54  C   UNL A   1      46.827  30.275  27.207  1.00  0.00     0.029 A 
ATOM     55  N   UNL A   1      44.813  29.935  28.086  1.00  0.00    -0.354 N 
ATOM     56  N   UNL A   1      42.408  30.695  29.555  1.00  0.00    -0.248 NA
ATOM     57  C   UNL A   1      41.235  32.201  30.900  1.00  0.00     0.031 C 
ATOM     58  C   UNL A   1      46.437  31.437  27.878  1.00  0.00     0.029 A 
ATOM     59  C   UNL A   1      45.180  31.227  28.419  1.00  0.00     0.049 A 
ATOM     60  H   UNL A   1      43.963  29.506  28.336  1.00  0.00     0.167 HD
ATOM     61  C   UNL A   1      43.154  31.858  29.695  1.00  0.00     0.074 A 
ATOM     62  C   UNL A   1      42.373  32.763  30.512  1.00  0.00     0.031 C 
ATOM     63  C   UNL A   1      44.383  32.139  29.198  1.00  0.00     0.034 A 
BRANCH  50  64
ATOM     64  C   UNL A   1      47.004  27.495  26.113  1.00  0.00     0.023 A 
ATOM     65  C   UNL A   1      47.881  26.594  26.750  1.00  0.00     0.012 A 
ATOM     66  C   UNL A   1      47.203  27.819  24.758  1.00  0.00     0.148 A 
ATOM     67  C   UNL A   1      48.944  26.027  26.050  1.00  0.00     0.002 A 
ATOM     68  C   UNL A   1      48.249  27.228  24.059  1.00  0.00     0.091 A 
ATOM     69  F   UNL A   1      46.357  28.682  24.177  1.00  0.00    -0.205 F 
ATOM     70  C   UNL A   1      49.121  26.335  24.704  1.00  0.00     0.022 A 
BRANCH  68  71
ATOM     71  S   UNL A   1      48.542  27.519  22.310  1.00  0.00     0.127 S 
ATOM     72  O   UNL A   1      49.752  28.341  22.349  1.00  0.00    -0.237 OA
ATOM     73  O   UNL A   1      48.743  26.162  21.804  1.00  0.00    -0.237 OA
ATOM     74  O   UNL A   1      47.354  28.194  21.808  1.00  0.00    -0.744 OA
ENDBRANCH  68  71
ENDBRANCH  50  64
BRANCH  51  75
ATOM     75  C   UNL A   1      38.904  30.415  31.123  1.00  0.00     0.023 A 
ATOM     76  C   UNL A   1      38.754  30.073  32.480  1.00  0.00     0.012 A 
ATOM     77  C   UNL A   1      37.936  31.227  30.502  1.00  0.00     0.148 A 
ATOM     78  C   UNL A   1      37.655  30.528  33.207  1.00  0.00     0.002 A 
ATOM     79  C   UNL A   1      36.863  31.707  31.241  1.00  0.00     0.091 A 
ATOM     80  F   UNL A   1      38.109  31.539  29.210  1.00  0.00    -0.205 F 
ATOM     81  C   UNL A   1      36.716  31.352  32.591  1.00  0.00     0.022 A 
BRANCH  79  82
ATOM     82  S   UNL A   1      35.649  32.843  30.563  1.00  0.00     0.127 S 
ATOM     83  O   UNL A   1      36.194  34.137  30.967  1.00  0.00    -0.237 OA
ATOM     84  O   UNL A   1      35.738  32.555  29.132  1.00  0.00    -0.237 OA
ATOM     85  O   UNL A   1      34.379  32.483  31.180  1.00  0.00    -0.744 OA
ENDBRANCH  79  82
ENDBRANCH  51  75
BRANCH  63  86
ATOM     86  C   UNL A   1      44.990  33.480  29.507  1.00  0.00     0.023 A 
ATOM     87  C   UNL A   1      45.747  33.640  30.682  1.00  0.00     0.012 A 
ATOM     88  C   UNL A   1      44.939  34.525  28.563  1.00  0.00     0.148 A 
ATOM     89  C   UNL A   1      46.447  34.824  30.915  1.00  0.00     0.002 A 
ATOM     90  C   UNL A   1      45.665  35.688  28.786  1.00  0.00     0.091 A 
ATOM     91  F   UNL A   1      44.207  34.345  27.454  1.00  0.00    -0.205 F 
ATOM     92  C   UNL A   1      46.417  35.840  29.963  1.00  0.00     0.022 A 
BRANCH  90  93
ATOM     93  S   UNL A   1      45.748  37.027  27.590  1.00  0.00     0.127 S 
ATOM     94  O   UNL A   1      44.363  37.495  27.570  1.00  0.00    -0.237 OA
ATOM     95  O   UNL A   1      46.694  37.945  28.223  1.00  0.00    -0.237 OA
ATOM     96  O   UNL A   1      46.214  36.430  26.345  1.00  0.00    -0.744 OA
ENDBRANCH  90  93
ENDBRANCH  63  86
ENDBRANCH  37  38
ENDBRANCH  30  32
ENDBRANCH  29  30
ENDBRANCH  28  29
ENDBRANCH  27  28
ENDBRANCH   1  27
TORSDOF 21
ENDMDL
