MODEL 1
REMARK VINA RESULT:     -11.1      0.000      0.000
REMARK SMILES Cc1ccc([C@@H](C)[N@@H+]2CCO[C@H](CC(=O)OCCOCCOC(=O)c3ccc(-c4c5nc(c(-c6cccc(S(=O)(=O)[O-])c6F)c6ccc([nH]6)c(-c6cccc(S(=O)(=O)[O-])c6F)c6nc(c(-c7cccc(S(=O)(=O)[O-])c7F)c7ccc4[nH]7)C=C6)C=C5)cc3)C2)o1
REMARK SMILES IDX 19 1 18 2 17 3 16 4 14 5 15 6 13 7 12 8 8 9 9 10 88 11 10 13
REMARK SMILES IDX 11 14 6 15 7 16 5 17 1 18 2 19 3 20 89 21 4 22 20 23 21 24
REMARK SMILES IDX 22 25 23 26 24 27 25 28 26 29 87 30 27 31 86 32 28 33 29 34
REMARK SMILES IDX 30 35 80 36 31 37 85 38 79 39 81 40 32 41 84 42 78 43 77 44
REMARK SMILES IDX 33 46 65 47 45 48 64 49 46 50 49 51 63 52 82 53 47 54 48 55
REMARK SMILES IDX 62 57 83 58 50 59 34 60 35 61 43 62 36 63 38 64 44 65 37 66
REMARK SMILES IDX 39 67 40 68 41 69 42 70 66 71 67 72 75 73 68 74 70 75 76 76
REMARK SMILES IDX 69 77 71 78 72 79 73 80 74 81 51 82 52 83 60 84 53 85 55 86
REMARK SMILES IDX 61 87 54 88 56 89 57 90 58 91 59 92
REMARK H PARENT 8 12 81 45 49 56
REMARK Flexibility Score: inf
ROOT
ATOM      1  O   UNL A   1      30.655  29.795  24.228  1.00  0.00    -0.374 OA
ENDROOT
BRANCH   1   2
ATOM      2  C   UNL A   1      30.809  28.758  23.277  1.00  0.00     0.202 C 
BRANCH   2   3
ATOM      3  C   UNL A   1      31.863  27.739  23.712  1.00  0.00     0.261 C 
BRANCH   3   4
ATOM      4  O   UNL A   1      31.890  26.545  22.916  1.00  0.00    -0.463 OA
BRANCH   4   5
ATOM      5  C   UNL A   1      33.073  26.211  22.358  1.00  0.00     0.308 C 
ATOM      6  O   UNL A   1      33.751  26.947  21.644  1.00  0.00    -0.252 OA
BRANCH   5   7
ATOM      7  C   UNL A   1      33.614  24.878  22.782  1.00  0.00     0.160 C 
BRANCH   7   8
ATOM      8  C   UNL A   1      34.439  24.646  24.052  1.00  0.00     0.184 C 
ATOM      9  N   UNL A   1      33.530  22.635  25.329  1.00  0.00    -0.322 N 
ATOM     10  C   UNL A   1      33.382  23.530  26.481  1.00  0.00     0.291 C 
ATOM     11  C   UNL A   1      34.557  23.153  24.433  1.00  0.00     0.295 C 
ATOM     12  H   UNL A   1      33.907  21.739  25.637  1.00  0.00     0.348 HD
ATOM     13  C   UNL A   1      33.202  25.004  26.088  1.00  0.00     0.222 C 
ATOM     14  O   UNL A   1      34.208  25.484  25.185  1.00  0.00    -0.366 OA
BRANCH   9  15
ATOM     15  C   UNL A   1      32.310  21.996  24.805  1.00  0.00     0.248 C 
ATOM     16  C   UNL A   1      31.081  22.201  25.705  1.00  0.00     0.084 C 
BRANCH  15  17
ATOM     17  C   UNL A   1      32.412  20.569  24.332  1.00  0.00     0.161 A 
ATOM     18  C   UNL A   1      32.431  17.140  25.410  1.00  0.00     0.087 C 
ATOM     19  C   UNL A   1      32.409  18.378  24.598  1.00  0.00     0.101 A 
ATOM     20  C   UNL A   1      32.388  18.603  23.240  1.00  0.00     0.046 A 
ATOM     21  O   UNL A   1      32.434  19.569  25.268  1.00  0.00    -0.460 OA
ATOM     22  C   UNL A   1      32.362  20.005  23.070  1.00  0.00     0.052 A 
ENDBRANCH  15  17
ENDBRANCH   9  15
ENDBRANCH   7   8
ENDBRANCH   5   7
ENDBRANCH   4   5
ENDBRANCH   3   4
ENDBRANCH   2   3
ENDBRANCH   1   2
BRANCH   1  23
ATOM     23  C   UNL A   1      31.652  29.934  25.234  1.00  0.00     0.202 C 
BRANCH  23  24
ATOM     24  C   UNL A   1      31.654  31.116  26.229  1.00  0.00     0.261 C 
BRANCH  24  25
ATOM     25  O   UNL A   1      32.528  31.035  27.361  1.00  0.00    -0.460 OA
BRANCH  25  26
ATOM     26  C   UNL A   1      33.361  32.075  27.569  1.00  0.00     0.338 C 
ATOM     27  O   UNL A   1      33.059  33.250  27.642  1.00  0.00    -0.246 OA
BRANCH  26  28
ATOM     28  C   UNL A   1      34.704  31.532  27.867  1.00  0.00     0.060 A 
ATOM     29  C   UNL A   1      34.855  30.145  27.985  1.00  0.00     0.016 A 
ATOM     30  C   UNL A   1      35.786  32.386  28.097  1.00  0.00     0.016 A 
ATOM     31  C   UNL A   1      36.072  29.613  28.411  1.00  0.00     0.010 A 
ATOM     32  C   UNL A   1      37.001  31.852  28.536  1.00  0.00     0.010 A 
ATOM     33  C   UNL A   1      37.130  30.467  28.747  1.00  0.00    -0.014 A 
BRANCH  33  34
ATOM     34  C   UNL A   1      38.288  29.931  29.500  1.00  0.00     0.031 A 
ATOM     35  C   UNL A   1      38.500  30.390  30.919  1.00  0.00     0.074 A 
ATOM     36  C   UNL A   1      39.140  29.054  28.942  1.00  0.00     0.049 A 
ATOM     37  N   UNL A   1      39.442  30.066  31.765  1.00  0.00    -0.248 NA
ATOM     38  C   UNL A   1      37.518  31.351  31.450  1.00  0.00     0.031 C 
ATOM     39  C   UNL A   1      39.046  28.543  27.576  1.00  0.00     0.029 A 
ATOM     40  N   UNL A   1      40.267  28.461  29.452  1.00  0.00    -0.354 N 
ATOM     41  C   UNL A   1      39.188  30.805  32.914  1.00  0.00     0.074 A 
ATOM     42  C   UNL A   1      38.010  31.602  32.655  1.00  0.00     0.031 C 
ATOM     43  C   UNL A   1      40.098  27.741  27.342  1.00  0.00     0.029 A 
ATOM     44  C   UNL A   1      40.946  27.697  28.534  1.00  0.00     0.049 A 
ATOM     45  H   UNL A   1      40.561  28.571  30.385  1.00  0.00     0.167 HD
ATOM     46  C   UNL A   1      39.865  30.809  34.086  1.00  0.00     0.034 A 
ATOM     47  C   UNL A   1      42.128  27.058  28.634  1.00  0.00     0.034 A 
ATOM     48  C   UNL A   1      41.023  29.999  34.350  1.00  0.00     0.049 A 
ATOM     49  C   UNL A   1      42.868  27.074  29.946  1.00  0.00     0.074 A 
ATOM     50  C   UNL A   1      41.735  29.873  35.530  1.00  0.00     0.029 A 
ATOM     51  N   UNL A   1      41.651  29.192  33.415  1.00  0.00    -0.354 N 
ATOM     52  N   UNL A   1      42.536  27.661  31.072  1.00  0.00    -0.248 NA
ATOM     53  C   UNL A   1      44.123  26.312  30.015  1.00  0.00     0.031 C 
ATOM     54  C   UNL A   1      42.814  29.014  35.296  1.00  0.00     0.029 A 
ATOM     55  C   UNL A   1      42.757  28.581  33.980  1.00  0.00     0.049 A 
ATOM     56  H   UNL A   1      41.355  29.072  32.483  1.00  0.00     0.167 HD
ATOM     57  C   UNL A   1      43.525  27.317  31.989  1.00  0.00     0.074 A 
ATOM     58  C   UNL A   1      44.456  26.454  31.292  1.00  0.00     0.031 C 
ATOM     59  C   UNL A   1      43.654  27.691  33.288  1.00  0.00     0.034 A 
BRANCH  46  60
ATOM     60  C   UNL A   1      39.358  31.716  35.177  1.00  0.00     0.023 A 
ATOM     61  C   UNL A   1      38.405  31.239  36.101  1.00  0.00     0.012 A 
ATOM     62  C   UNL A   1      39.841  33.033  35.302  1.00  0.00     0.148 A 
ATOM     63  C   UNL A   1      37.913  32.071  37.106  1.00  0.00     0.002 A 
ATOM     64  C   UNL A   1      39.378  33.842  36.333  1.00  0.00     0.091 A 
ATOM     65  F   UNL A   1      40.724  33.480  34.398  1.00  0.00    -0.205 F 
ATOM     66  C   UNL A   1      38.405  33.367  37.227  1.00  0.00     0.022 A 
BRANCH  64  67
ATOM     67  S   UNL A   1      40.014  35.498  36.613  1.00  0.00     0.127 S 
ATOM     68  O   UNL A   1      39.476  36.220  35.461  1.00  0.00    -0.237 OA
ATOM     69  O   UNL A   1      39.402  35.853  37.894  1.00  0.00    -0.237 OA
ATOM     70  O   UNL A   1      41.464  35.365  36.653  1.00  0.00    -0.744 OA
ENDBRANCH  64  67
ENDBRANCH  46  60
BRANCH  47  71
ATOM     71  C   UNL A   1      42.664  26.326  27.452  1.00  0.00     0.023 A 
ATOM     72  C   UNL A   1      43.555  26.971  26.574  1.00  0.00     0.012 A 
ATOM     73  C   UNL A   1      42.343  24.971  27.237  1.00  0.00     0.148 A 
ATOM     74  C   UNL A   1      44.107  26.282  25.493  1.00  0.00     0.002 A 
ATOM     75  C   UNL A   1      42.941  24.275  26.194  1.00  0.00     0.091 A 
ATOM     76  F   UNL A   1      41.480  24.383  28.077  1.00  0.00    -0.205 F 
ATOM     77  C   UNL A   1      43.812  24.932  25.311  1.00  0.00     0.022 A 
BRANCH  75  78
ATOM     78  S   UNL A   1      42.736  22.504  25.972  1.00  0.00     0.127 S 
ATOM     79  O   UNL A   1      41.285  22.384  25.850  1.00  0.00    -0.237 OA
ATOM     80  O   UNL A   1      43.481  22.270  24.735  1.00  0.00    -0.237 OA
ATOM     81  O   UNL A   1      43.322  21.886  27.154  1.00  0.00    -0.744 OA
ENDBRANCH  75  78
ENDBRANCH  47  71
BRANCH  59  82
ATOM     82  C   UNL A   1      44.833  27.157  34.058  1.00  0.00     0.023 A 
ATOM     83  C   UNL A   1      46.072  27.827  33.998  1.00  0.00     0.012 A 
ATOM     84  C   UNL A   1      44.693  26.041  34.908  1.00  0.00     0.148 A 
ATOM     85  C   UNL A   1      47.158  27.378  34.749  1.00  0.00     0.002 A 
ATOM     86  C   UNL A   1      45.765  25.629  35.690  1.00  0.00     0.091 A 
ATOM     87  F   UNL A   1      43.512  25.405  34.938  1.00  0.00    -0.205 F 
ATOM     88  C   UNL A   1      47.002  26.289  35.603  1.00  0.00     0.022 A 
BRANCH  86  89
ATOM     89  S   UNL A   1      45.627  24.297  36.888  1.00  0.00     0.127 S 
ATOM     90  O   UNL A   1      44.471  24.722  37.676  1.00  0.00    -0.237 OA
ATOM     91  O   UNL A   1      45.387  23.133  36.032  1.00  0.00    -0.237 OA
ATOM     92  O   UNL A   1      46.896  24.267  37.602  1.00  0.00    -0.744 OA
ENDBRANCH  86  89
ENDBRANCH  59  82
ENDBRANCH  33  34
ENDBRANCH  26  28
ENDBRANCH  25  26
ENDBRANCH  24  25
ENDBRANCH  23  24
ENDBRANCH   1  23
TORSDOF 20
ENDMDL
MODEL 2
REMARK VINA RESULT:     -10.9      1.420      2.049
REMARK SMILES Cc1ccc([C@@H](C)[N@@H+]2CCO[C@H](CC(=O)OCCOCCOC(=O)c3ccc(-c4c5nc(c(-c6cccc(S(=O)(=O)[O-])c6F)c6ccc([nH]6)c(-c6cccc(S(=O)(=O)[O-])c6F)c6nc(c(-c7cccc(S(=O)(=O)[O-])c7F)c7ccc4[nH]7)C=C6)C=C5)cc3)C2)o1
REMARK SMILES IDX 19 1 18 2 17 3 16 4 14 5 15 6 13 7 12 8 8 9 9 10 88 11 10 13
REMARK SMILES IDX 11 14 6 15 7 16 5 17 1 18 2 19 3 20 89 21 4 22 20 23 21 24
REMARK SMILES IDX 22 25 23 26 24 27 25 28 26 29 87 30 27 31 86 32 28 33 29 34
REMARK SMILES IDX 30 35 80 36 31 37 85 38 79 39 81 40 32 41 84 42 78 43 77 44
REMARK SMILES IDX 33 46 65 47 45 48 64 49 46 50 49 51 63 52 82 53 47 54 48 55
REMARK SMILES IDX 62 57 83 58 50 59 34 60 35 61 43 62 36 63 38 64 44 65 37 66
REMARK SMILES IDX 39 67 40 68 41 69 42 70 66 71 67 72 75 73 68 74 70 75 76 76
REMARK SMILES IDX 69 77 71 78 72 79 73 80 74 81 51 82 52 83 60 84 53 85 55 86
REMARK SMILES IDX 61 87 54 88 56 89 57 90 58 91 59 92
REMARK H PARENT 8 12 81 45 49 56
REMARK Flexibility Score: inf
ROOT
ATOM      1  O   UNL A   1      32.187  30.510  26.546  1.00  0.00    -0.374 OA
ENDROOT
BRANCH   1   2
ATOM      2  C   UNL A   1      31.780  29.297  25.941  1.00  0.00     0.202 C 
BRANCH   2   3
ATOM      3  C   UNL A   1      32.422  29.104  24.567  1.00  0.00     0.261 C 
BRANCH   3   4
ATOM      4  O   UNL A   1      32.270  27.783  24.027  1.00  0.00    -0.463 OA
BRANCH   4   5
ATOM      5  C   UNL A   1      31.007  27.333  23.862  1.00  0.00     0.308 C 
ATOM      6  O   UNL A   1      30.148  27.877  23.173  1.00  0.00    -0.252 OA
BRANCH   5   7
ATOM      7  C   UNL A   1      30.731  25.997  24.486  1.00  0.00     0.160 C 
BRANCH   7   8
ATOM      8  C   UNL A   1      31.053  25.641  25.941  1.00  0.00     0.184 C 
ATOM      9  N   UNL A   1      32.700  23.697  26.019  1.00  0.00    -0.322 N 
ATOM     10  C   UNL A   1      31.713  22.993  26.844  1.00  0.00     0.291 C 
ATOM     11  C   UNL A   1      32.500  25.137  26.135  1.00  0.00     0.295 C 
ATOM     12  H   UNL A   1      33.634  23.551  26.403  1.00  0.00     0.348 HD
ATOM     13  C   UNL A   1      30.270  23.459  26.597  1.00  0.00     0.222 C 
ATOM     14  O   UNL A   1      30.103  24.881  26.689  1.00  0.00    -0.366 OA
BRANCH   9  15
ATOM     15  C   UNL A   1      33.078  23.077  24.737  1.00  0.00     0.248 C 
ATOM     16  C   UNL A   1      31.872  22.594  23.916  1.00  0.00     0.084 C 
BRANCH  15  17
ATOM     17  C   UNL A   1      34.180  22.049  24.751  1.00  0.00     0.161 A 
ATOM     18  C   UNL A   1      37.739  21.601  24.960  1.00  0.00     0.087 C 
ATOM     19  C   UNL A   1      36.277  21.380  24.909  1.00  0.00     0.101 A 
ATOM     20  C   UNL A   1      35.504  20.241  24.944  1.00  0.00     0.046 A 
ATOM     21  O   UNL A   1      35.479  22.482  24.781  1.00  0.00    -0.460 OA
ATOM     22  C   UNL A   1      34.160  20.671  24.871  1.00  0.00     0.052 A 
ENDBRANCH  15  17
ENDBRANCH   9  15
ENDBRANCH   7   8
ENDBRANCH   5   7
ENDBRANCH   4   5
ENDBRANCH   3   4
ENDBRANCH   2   3
ENDBRANCH   1   2
BRANCH   1  23
ATOM     23  C   UNL A   1      31.342  31.646  26.403  1.00  0.00     0.202 C 
BRANCH  23  24
ATOM     24  C   UNL A   1      31.816  33.072  26.761  1.00  0.00     0.261 C 
BRANCH  24  25
ATOM     25  O   UNL A   1      32.424  33.272  28.043  1.00  0.00    -0.460 OA
BRANCH  25  26
ATOM     26  C   UNL A   1      33.515  34.064  28.089  1.00  0.00     0.338 C 
ATOM     27  O   UNL A   1      33.536  35.279  28.075  1.00  0.00    -0.246 OA
BRANCH  26  28
ATOM     28  C   UNL A   1      34.693  33.204  28.332  1.00  0.00     0.060 A 
ATOM     29  C   UNL A   1      34.489  31.912  28.830  1.00  0.00     0.016 A 
ATOM     30  C   UNL A   1      35.988  33.695  28.139  1.00  0.00     0.016 A 
ATOM     31  C   UNL A   1      35.582  31.133  29.210  1.00  0.00     0.010 A 
ATOM     32  C   UNL A   1      37.082  32.917  28.532  1.00  0.00     0.010 A 
ATOM     33  C   UNL A   1      36.878  31.655  29.120  1.00  0.00    -0.014 A 
BRANCH  33  34
ATOM     34  C   UNL A   1      37.991  30.970  29.818  1.00  0.00     0.031 A 
ATOM     35  C   UNL A   1      38.283  31.342  31.248  1.00  0.00     0.074 A 
ATOM     36  C   UNL A   1      38.732  30.033  29.201  1.00  0.00     0.049 A 
ATOM     37  N   UNL A   1      39.205  30.884  32.053  1.00  0.00    -0.248 NA
ATOM     38  C   UNL A   1      37.421  32.376  31.845  1.00  0.00     0.031 C 
ATOM     39  C   UNL A   1      38.553  29.595  27.819  1.00  0.00     0.029 A 
ATOM     40  N   UNL A   1      39.802  29.304  29.655  1.00  0.00    -0.354 N 
ATOM     41  C   UNL A   1      39.057  31.595  33.238  1.00  0.00     0.074 A 
ATOM     42  C   UNL A   1      37.964  32.521  33.044  1.00  0.00     0.031 C 
ATOM     43  C   UNL A   1      39.509  28.698  27.523  1.00  0.00     0.029 A 
ATOM     44  C   UNL A   1      40.375  28.515  28.687  1.00  0.00     0.049 A 
ATOM     45  H   UNL A   1      40.128  29.342  30.583  1.00  0.00     0.167 HD
ATOM     46  C   UNL A   1      39.759  31.478  34.391  1.00  0.00     0.034 A 
ATOM     47  C   UNL A   1      41.485  27.751  28.729  1.00  0.00     0.034 A 
ATOM     48  C   UNL A   1      40.830  30.541  34.588  1.00  0.00     0.049 A 
ATOM     49  C   UNL A   1      42.253  27.633  30.019  1.00  0.00     0.074 A 
ATOM     50  C   UNL A   1      41.552  30.289  35.742  1.00  0.00     0.029 A 
ATOM     51  N   UNL A   1      41.348  29.714  33.604  1.00  0.00    -0.354 N 
ATOM     52  N   UNL A   1      42.011  28.202  31.176  1.00  0.00    -0.248 NA
ATOM     53  C   UNL A   1      43.421  26.741  30.022  1.00  0.00     0.031 C 
ATOM     54  C   UNL A   1      42.530  29.334  35.443  1.00  0.00     0.029 A 
ATOM     55  C   UNL A   1      42.396  28.966  34.113  1.00  0.00     0.049 A 
ATOM     56  H   UNL A   1      41.019  29.666  32.677  1.00  0.00     0.167 HD
ATOM     57  C   UNL A   1      42.979  27.717  32.051  1.00  0.00     0.074 A 
ATOM     58  C   UNL A   1      43.798  26.792  31.294  1.00  0.00     0.031 C 
ATOM     59  C   UNL A   1      43.177  28.018  33.360  1.00  0.00     0.034 A 
BRANCH  46  60
ATOM     60  C   UNL A   1      39.376  32.384  35.531  1.00  0.00     0.023 A 
ATOM     61  C   UNL A   1      38.510  31.916  36.540  1.00  0.00     0.012 A 
ATOM     62  C   UNL A   1      39.891  33.692  35.616  1.00  0.00     0.148 A 
ATOM     63  C   UNL A   1      38.132  32.748  37.594  1.00  0.00     0.002 A 
ATOM     64  C   UNL A   1      39.545  34.501  36.693  1.00  0.00     0.091 A 
ATOM     65  F   UNL A   1      40.689  34.132  34.633  1.00  0.00    -0.205 F 
ATOM     66  C   UNL A   1      38.656  34.035  37.674  1.00  0.00     0.022 A 
BRANCH  64  67
ATOM     67  S   UNL A   1      40.233  36.144  36.920  1.00  0.00     0.127 S 
ATOM     68  O   UNL A   1      39.479  36.623  38.077  1.00  0.00    -0.237 OA
ATOM     69  O   UNL A   1      41.643  35.857  37.188  1.00  0.00    -0.237 OA
ATOM     70  O   UNL A   1      39.989  36.852  35.670  1.00  0.00    -0.744 OA
ENDBRANCH  64  67
ENDBRANCH  46  60
BRANCH  47  71
ATOM     71  C   UNL A   1      41.912  27.020  27.503  1.00  0.00     0.023 A 
ATOM     72  C   UNL A   1      42.572  27.711  26.469  1.00  0.00     0.012 A 
ATOM     73  C   UNL A   1      41.727  25.628  27.393  1.00  0.00     0.148 A 
ATOM     74  C   UNL A   1      43.026  27.029  25.339  1.00  0.00     0.002 A 
ATOM     75  C   UNL A   1      42.233  24.946  26.294  1.00  0.00     0.091 A 
ATOM     76  F   UNL A   1      41.082  24.994  28.383  1.00  0.00    -0.205 F 
ATOM     77  C   UNL A   1      42.870  25.647  25.257  1.00  0.00     0.022 A 
BRANCH  75  78
ATOM     78  S   UNL A   1      42.209  23.154  26.173  1.00  0.00     0.127 S 
ATOM     79  O   UNL A   1      43.009  22.765  27.332  1.00  0.00    -0.237 OA
ATOM     80  O   UNL A   1      40.779  22.866  26.285  1.00  0.00    -0.237 OA
ATOM     81  O   UNL A   1      42.787  22.836  24.874  1.00  0.00    -0.744 OA
ENDBRANCH  75  78
ENDBRANCH  47  71
BRANCH  59  82
ATOM     82  C   UNL A   1      44.312  27.331  34.075  1.00  0.00     0.023 A 
ATOM     83  C   UNL A   1      45.589  27.927  34.099  1.00  0.00     0.012 A 
ATOM     84  C   UNL A   1      44.093  26.139  34.793  1.00  0.00     0.148 A 
ATOM     85  C   UNL A   1      46.636  27.332  34.804  1.00  0.00     0.002 A 
ATOM     86  C   UNL A   1      45.127  25.578  35.533  1.00  0.00     0.091 A 
ATOM     87  F   UNL A   1      42.876  25.576  34.743  1.00  0.00    -0.205 F 
ATOM     88  C   UNL A   1      46.402  26.167  35.530  1.00  0.00     0.022 A 
BRANCH  86  89
ATOM     89  S   UNL A   1      44.892  24.131  36.572  1.00  0.00     0.127 S 
ATOM     90  O   UNL A   1      44.133  23.248  35.689  1.00  0.00    -0.237 OA
ATOM     91  O   UNL A   1      46.269  23.703  36.827  1.00  0.00    -0.237 OA
ATOM     92  O   UNL A   1      44.179  24.600  37.754  1.00  0.00    -0.744 OA
ENDBRANCH  86  89
ENDBRANCH  59  82
ENDBRANCH  33  34
ENDBRANCH  26  28
ENDBRANCH  25  26
ENDBRANCH  24  25
ENDBRANCH  23  24
ENDBRANCH   1  23
TORSDOF 20
ENDMDL
MODEL 3
REMARK VINA RESULT:     -10.9      1.265      2.085
REMARK SMILES Cc1ccc([C@@H](C)[N@@H+]2CCO[C@H](CC(=O)OCCOCCOC(=O)c3ccc(-c4c5nc(c(-c6cccc(S(=O)(=O)[O-])c6F)c6ccc([nH]6)c(-c6cccc(S(=O)(=O)[O-])c6F)c6nc(c(-c7cccc(S(=O)(=O)[O-])c7F)c7ccc4[nH]7)C=C6)C=C5)cc3)C2)o1
REMARK SMILES IDX 19 1 18 2 17 3 16 4 14 5 15 6 13 7 12 8 8 9 9 10 88 11 10 13
REMARK SMILES IDX 11 14 6 15 7 16 5 17 1 18 2 19 3 20 89 21 4 22 20 23 21 24
REMARK SMILES IDX 22 25 23 26 24 27 25 28 26 29 87 30 27 31 86 32 28 33 29 34
REMARK SMILES IDX 30 35 80 36 31 37 85 38 79 39 81 40 32 41 84 42 78 43 77 44
REMARK SMILES IDX 33 46 65 47 45 48 64 49 46 50 49 51 63 52 82 53 47 54 48 55
REMARK SMILES IDX 62 57 83 58 50 59 34 60 35 61 43 62 36 63 38 64 44 65 37 66
REMARK SMILES IDX 39 67 40 68 41 69 42 70 66 71 67 72 75 73 68 74 70 75 76 76
REMARK SMILES IDX 69 77 71 78 72 79 73 80 74 81 51 82 52 83 60 84 53 85 55 86
REMARK SMILES IDX 61 87 54 88 56 89 57 90 58 91 59 92
REMARK H PARENT 8 12 81 45 49 56
REMARK Flexibility Score: inf
ROOT
ATOM      1  O   UNL A   1      32.012  30.456  26.520  1.00  0.00    -0.374 OA
ENDROOT
BRANCH   1   2
ATOM      2  C   UNL A   1      31.665  29.282  25.810  1.00  0.00     0.202 C 
BRANCH   2   3
ATOM      3  C   UNL A   1      32.828  28.764  24.964  1.00  0.00     0.261 C 
BRANCH   3   4
ATOM      4  O   UNL A   1      33.444  27.574  25.476  1.00  0.00    -0.463 OA
BRANCH   4   5
ATOM      5  C   UNL A   1      33.726  26.601  24.583  1.00  0.00     0.308 C 
ATOM      6  O   UNL A   1      33.732  26.741  23.362  1.00  0.00    -0.252 OA
BRANCH   5   7
ATOM      7  C   UNL A   1      34.188  25.307  25.189  1.00  0.00     0.160 C 
BRANCH   7   8
ATOM      8  C   UNL A   1      35.234  24.384  24.557  1.00  0.00     0.184 C 
ATOM      9  N   UNL A   1      34.233  22.071  24.168  1.00  0.00    -0.322 N 
ATOM     10  C   UNL A   1      35.338  21.541  24.975  1.00  0.00     0.291 C 
ATOM     11  C   UNL A   1      34.621  23.350  23.585  1.00  0.00     0.295 C 
ATOM     12  H   UNL A   1      34.084  21.471  23.356  1.00  0.00     0.348 HD
ATOM     13  C   UNL A   1      35.898  22.558  25.981  1.00  0.00     0.222 C 
ATOM     14  O   UNL A   1      36.245  23.818  25.390  1.00  0.00    -0.366 OA
BRANCH   9  15
ATOM     15  C   UNL A   1      32.863  21.835  24.655  1.00  0.00     0.248 C 
ATOM     16  C   UNL A   1      32.323  20.440  24.302  1.00  0.00     0.084 C 
BRANCH  15  17
ATOM     17  C   UNL A   1      31.832  22.904  24.398  1.00  0.00     0.161 A 
ATOM     18  C   UNL A   1      30.092  25.682  25.870  1.00  0.00     0.087 C 
ATOM     19  C   UNL A   1      30.625  24.674  24.927  1.00  0.00     0.101 A 
ATOM     20  C   UNL A   1      30.428  24.459  23.582  1.00  0.00     0.046 A 
ATOM     21  O   UNL A   1      31.469  23.725  25.432  1.00  0.00    -0.460 OA
ATOM     22  C   UNL A   1      31.222  23.343  23.237  1.00  0.00     0.052 A 
ENDBRANCH  15  17
ENDBRANCH   9  15
ENDBRANCH   7   8
ENDBRANCH   5   7
ENDBRANCH   4   5
ENDBRANCH   3   4
ENDBRANCH   2   3
ENDBRANCH   1   2
BRANCH   1  23
ATOM     23  C   UNL A   1      31.284  31.647  26.240  1.00  0.00     0.202 C 
BRANCH  23  24
ATOM     24  C   UNL A   1      31.732  33.026  26.774  1.00  0.00     0.261 C 
BRANCH  24  25
ATOM     25  O   UNL A   1      32.469  33.060  28.002  1.00  0.00    -0.460 OA
BRANCH  25  26
ATOM     26  C   UNL A   1      33.528  33.893  28.060  1.00  0.00     0.338 C 
ATOM     27  O   UNL A   1      33.502  35.108  28.054  1.00  0.00    -0.246 OA
BRANCH  26  28
ATOM     28  C   UNL A   1      34.737  33.078  28.305  1.00  0.00     0.060 A 
ATOM     29  C   UNL A   1      34.577  31.749  28.715  1.00  0.00     0.016 A 
ATOM     30  C   UNL A   1      36.012  33.641  28.201  1.00  0.00     0.016 A 
ATOM     31  C   UNL A   1      35.692  31.002  29.098  1.00  0.00     0.010 A 
ATOM     32  C   UNL A   1      37.126  32.894  28.596  1.00  0.00     0.010 A 
ATOM     33  C   UNL A   1      36.962  31.590  29.097  1.00  0.00    -0.014 A 
BRANCH  33  34
ATOM     34  C   UNL A   1      38.078  30.917  29.804  1.00  0.00     0.031 A 
ATOM     35  C   UNL A   1      38.355  31.292  31.236  1.00  0.00     0.074 A 
ATOM     36  C   UNL A   1      38.834  29.990  29.192  1.00  0.00     0.049 A 
ATOM     37  N   UNL A   1      39.276  30.845  32.048  1.00  0.00    -0.248 NA
ATOM     38  C   UNL A   1      37.476  32.315  31.827  1.00  0.00     0.031 C 
ATOM     39  C   UNL A   1      38.671  29.551  27.808  1.00  0.00     0.029 A 
ATOM     40  N   UNL A   1      39.909  29.273  29.653  1.00  0.00    -0.354 N 
ATOM     41  C   UNL A   1      39.111  31.553  33.232  1.00  0.00     0.074 A 
ATOM     42  C   UNL A   1      38.009  32.467  33.031  1.00  0.00     0.031 C 
ATOM     43  C   UNL A   1      39.640  28.666  27.519  1.00  0.00     0.029 A 
ATOM     44  C   UNL A   1      40.499  28.492  28.690  1.00  0.00     0.049 A 
ATOM     45  H   UNL A   1      40.228  29.315  30.584  1.00  0.00     0.167 HD
ATOM     46  C   UNL A   1      39.805  31.443  34.390  1.00  0.00     0.034 A 
ATOM     47  C   UNL A   1      41.618  27.741  28.739  1.00  0.00     0.034 A 
ATOM     48  C   UNL A   1      40.887  30.519  34.595  1.00  0.00     0.049 A 
ATOM     49  C   UNL A   1      42.377  27.631  30.035  1.00  0.00     0.074 A 
ATOM     50  C   UNL A   1      41.603  30.275  35.754  1.00  0.00     0.029 A 
ATOM     51  N   UNL A   1      41.421  29.699  33.614  1.00  0.00    -0.354 N 
ATOM     52  N   UNL A   1      42.121  28.196  31.191  1.00  0.00    -0.248 NA
ATOM     53  C   UNL A   1      43.556  26.754  30.046  1.00  0.00     0.031 C 
ATOM     54  C   UNL A   1      42.594  29.331  35.462  1.00  0.00     0.029 A 
ATOM     55  C   UNL A   1      42.474  28.963  34.130  1.00  0.00     0.049 A 
ATOM     56  H   UNL A   1      41.100  29.648  32.684  1.00  0.00     0.167 HD
ATOM     57  C   UNL A   1      43.087  27.722  32.072  1.00  0.00     0.074 A 
ATOM     58  C   UNL A   1      43.923  26.808  31.320  1.00  0.00     0.031 C 
ATOM     59  C   UNL A   1      43.272  28.025  33.382  1.00  0.00     0.034 A 
BRANCH  46  60
ATOM     60  C   UNL A   1      39.404  32.345  35.528  1.00  0.00     0.023 A 
ATOM     61  C   UNL A   1      38.520  31.872  36.520  1.00  0.00     0.012 A 
ATOM     62  C   UNL A   1      39.918  33.651  35.628  1.00  0.00     0.148 A 
ATOM     63  C   UNL A   1      38.124  32.698  37.571  1.00  0.00     0.002 A 
ATOM     64  C   UNL A   1      39.554  34.455  36.703  1.00  0.00     0.091 A 
ATOM     65  F   UNL A   1      40.733  34.095  34.661  1.00  0.00    -0.205 F 
ATOM     66  C   UNL A   1      38.647  33.985  37.667  1.00  0.00     0.022 A 
BRANCH  64  67
ATOM     67  S   UNL A   1      40.238  36.096  36.950  1.00  0.00     0.127 S 
ATOM     68  O   UNL A   1      41.658  35.800  37.135  1.00  0.00    -0.237 OA
ATOM     69  O   UNL A   1      39.915  36.761  35.687  1.00  0.00    -0.237 OA
ATOM     70  O   UNL A   1      39.551  36.642  38.112  1.00  0.00    -0.744 OA
ENDBRANCH  64  67
ENDBRANCH  46  60
BRANCH  47  71
ATOM     71  C   UNL A   1      42.063  27.016  27.516  1.00  0.00     0.023 A 
ATOM     72  C   UNL A   1      42.756  27.707  26.505  1.00  0.00     0.012 A 
ATOM     73  C   UNL A   1      41.860  25.628  27.388  1.00  0.00     0.148 A 
ATOM     74  C   UNL A   1      43.226  27.030  25.378  1.00  0.00     0.002 A 
ATOM     75  C   UNL A   1      42.382  24.950  26.293  1.00  0.00     0.091 A 
ATOM     76  F   UNL A   1      41.184  24.994  28.356  1.00  0.00    -0.205 F 
ATOM     77  C   UNL A   1      43.052  25.651  25.279  1.00  0.00     0.022 A 
BRANCH  75  78
ATOM     78  S   UNL A   1      42.335  23.159  26.154  1.00  0.00     0.127 S 
ATOM     79  O   UNL A   1      43.136  22.749  27.304  1.00  0.00    -0.237 OA
ATOM     80  O   UNL A   1      40.902  22.888  26.271  1.00  0.00    -0.237 OA
ATOM     81  O   UNL A   1      42.901  22.848  24.848  1.00  0.00    -0.744 OA
ENDBRANCH  75  78
ENDBRANCH  47  71
BRANCH  59  82
ATOM     82  C   UNL A   1      44.409  27.351  34.106  1.00  0.00     0.023 A 
ATOM     83  C   UNL A   1      45.687  27.946  34.111  1.00  0.00     0.012 A 
ATOM     84  C   UNL A   1      44.192  26.174  34.849  1.00  0.00     0.148 A 
ATOM     85  C   UNL A   1      46.737  27.363  34.823  1.00  0.00     0.002 A 
ATOM     86  C   UNL A   1      45.230  25.626  35.595  1.00  0.00     0.091 A 
ATOM     87  F   UNL A   1      42.975  25.612  34.817  1.00  0.00    -0.205 F 
ATOM     88  C   UNL A   1      46.506  26.213  35.573  1.00  0.00     0.022 A 
BRANCH  86  89
ATOM     89  S   UNL A   1      44.998  24.202  36.665  1.00  0.00     0.127 S 
ATOM     90  O   UNL A   1      44.081  24.731  37.673  1.00  0.00    -0.237 OA
ATOM     91  O   UNL A   1      44.404  23.221  35.754  1.00  0.00    -0.237 OA
ATOM     92  O   UNL A   1      46.325  23.845  37.150  1.00  0.00    -0.744 OA
ENDBRANCH  86  89
ENDBRANCH  59  82
ENDBRANCH  33  34
ENDBRANCH  26  28
ENDBRANCH  25  26
ENDBRANCH  24  25
ENDBRANCH  23  24
ENDBRANCH   1  23
TORSDOF 20
ENDMDL
