MODEL 1
REMARK VINA RESULT:     -11.5      0.000      0.000
REMARK SMILES CN(C)c1ccc(CCC(=O)N2C[C@@H](C(=O)OCCOCCOC(=O)c3ccc(-c4c5nc(c(-c6cccc(S(=O)(=O)[O-])c6F)c6ccc([nH]6)c(-c6cccc(S(=O)(=O)[O-])c6F)c6nc(c(-c7cccc(S(=O)(=O)[O-])c7F)c7ccc4[nH]7)C=C6)C=C5)cc3)[C@H](c3cccnc3)C2)cc1
REMARK SMILES IDX 19 1 18 2 17 3 15 4 16 5 14 6 12 7 13 8 96 9 89 10 10 11
REMARK SMILES IDX 11 12 9 13 8 14 7 15 4 16 5 17 98 18 6 19 97 20 2 21 1 22
REMARK SMILES IDX 3 23 90 24 91 25 95 26 92 27 94 28 93 29 20 30 21 31 22 32
REMARK SMILES IDX 23 33 24 34 25 35 26 36 27 37 88 38 28 39 87 40 29 41 30 42
REMARK SMILES IDX 31 43 81 44 32 45 86 46 80 47 82 48 33 49 85 50 79 51 78 52
REMARK SMILES IDX 34 54 66 55 46 56 65 57 47 58 50 59 64 60 83 61 48 62 49 63
REMARK SMILES IDX 63 65 84 66 51 67 35 68 36 69 44 70 37 71 39 72 45 73 38 74
REMARK SMILES IDX 40 75 41 76 42 77 43 78 67 79 68 80 76 81 69 82 71 83 77 84
REMARK SMILES IDX 70 85 72 86 73 87 74 88 75 89 52 90 53 91 61 92 54 93 56 94
REMARK SMILES IDX 62 95 55 96 57 97 58 98 59 99 60 100
REMARK H PARENT 82 53 50 64
REMARK Flexibility Score: inf
ROOT
ATOM      1  C   UNL A   1      33.583  26.812  23.905  1.00  0.00     0.202 C 
ENDROOT
BRANCH   1   2
ATOM      2  C   UNL A   1      33.648  26.409  22.433  1.00  0.00     0.261 C 
BRANCH   2   3
ATOM      3  O   UNL A   1      32.973  25.161  22.180  1.00  0.00    -0.463 OA
BRANCH   3   4
ATOM      4  C   UNL A   1      33.600  24.019  22.571  1.00  0.00     0.311 C 
ATOM      5  O   UNL A   1      34.713  23.669  22.209  1.00  0.00    -0.252 OA
BRANCH   4   6
ATOM      6  C   UNL A   1      32.676  23.200  23.448  1.00  0.00     0.128 C 
ATOM      7  N   UNL A   1      31.438  23.764  25.400  1.00  0.00    -0.341 N 
ATOM      8  C   UNL A   1      31.520  24.006  23.988  1.00  0.00     0.135 C 
ATOM      9  C   UNL A   1      32.669  23.173  25.891  1.00  0.00     0.128 C 
ATOM     10  C   UNL A   1      33.414  22.594  24.665  1.00  0.00     0.056 C 
BRANCH   7  11
ATOM     11  C   UNL A   1      30.501  24.349  26.235  1.00  0.00     0.222 C 
ATOM     12  O   UNL A   1      30.043  23.736  27.203  1.00  0.00    -0.275 OA
BRANCH  11  13
ATOM     13  C   UNL A   1      29.913  25.713  25.843  1.00  0.00     0.105 C 
BRANCH  13  14
ATOM     14  C   UNL A   1      28.535  25.782  25.152  1.00  0.00     0.045 C 
BRANCH  14  15
ATOM     15  C   UNL A   1      28.497  26.856  24.085  1.00  0.00    -0.047 A 
ATOM     16  C   UNL A   1      28.449  29.410  22.897  1.00  0.00     0.036 A 
ATOM     17  C   UNL A   1      27.270  28.698  23.123  1.00  0.00     0.026 A 
ATOM     18  C   UNL A   1      29.654  28.729  23.072  1.00  0.00     0.026 A 
ATOM     19  C   UNL A   1      27.285  27.415  23.682  1.00  0.00     0.006 A 
ATOM     20  C   UNL A   1      29.684  27.457  23.648  1.00  0.00     0.006 A 
BRANCH  16  21
ATOM     21  N   UNL A   1      28.461  30.772  22.636  1.00  0.00    -0.378 N 
ATOM     22  C   UNL A   1      28.867  31.698  23.670  1.00  0.00     0.143 C 
ATOM     23  C   UNL A   1      28.688  31.171  21.255  1.00  0.00     0.143 C 
ENDBRANCH  16  21
ENDBRANCH  14  15
ENDBRANCH  13  14
ENDBRANCH  11  13
ENDBRANCH   7  11
BRANCH  10  24
ATOM     24  C   UNL A   1      33.532  21.091  24.454  1.00  0.00    -0.024 A 
ATOM     25  C   UNL A   1      32.508  20.417  23.758  1.00  0.00     0.007 A 
ATOM     26  C   UNL A   1      34.583  20.305  24.903  1.00  0.00     0.115 A 
ATOM     27  C   UNL A   1      32.526  19.035  23.618  1.00  0.00     0.020 A 
ATOM     28  N   UNL A   1      34.646  18.957  24.751  1.00  0.00    -0.264 NA
ATOM     29  C   UNL A   1      33.608  18.353  24.133  1.00  0.00     0.111 A 
ENDBRANCH  10  24
ENDBRANCH   4   6
ENDBRANCH   3   4
ENDBRANCH   2   3
ENDBRANCH   1   2
BRANCH   1  30
ATOM     30  O   UNL A   1      33.107  28.143  24.103  1.00  0.00    -0.374 OA
BRANCH  30  31
ATOM     31  C   UNL A   1      32.916  28.526  25.463  1.00  0.00     0.202 C 
BRANCH  31  32
ATOM     32  C   UNL A   1      32.727  30.037  25.663  1.00  0.00     0.261 C 
BRANCH  32  33
ATOM     33  O   UNL A   1      32.608  30.398  27.053  1.00  0.00    -0.460 OA
BRANCH  33  34
ATOM     34  C   UNL A   1      33.308  31.497  27.432  1.00  0.00     0.338 C 
ATOM     35  O   UNL A   1      32.862  32.609  27.622  1.00  0.00    -0.246 OA
BRANCH  34  36
ATOM     36  C   UNL A   1      34.717  31.140  27.737  1.00  0.00     0.060 A 
ATOM     37  C   UNL A   1      35.018  29.776  27.848  1.00  0.00     0.016 A 
ATOM     38  C   UNL A   1      35.711  32.095  27.972  1.00  0.00     0.016 A 
ATOM     39  C   UNL A   1      36.289  29.363  28.256  1.00  0.00     0.010 A 
ATOM     40  C   UNL A   1      36.989  31.676  28.382  1.00  0.00     0.010 A 
ATOM     41  C   UNL A   1      37.274  30.309  28.570  1.00  0.00    -0.014 A 
BRANCH  41  42
ATOM     42  C   UNL A   1      38.503  29.867  29.286  1.00  0.00     0.031 A 
ATOM     43  C   UNL A   1      38.681  30.286  30.725  1.00  0.00     0.074 A 
ATOM     44  C   UNL A   1      39.425  29.065  28.716  1.00  0.00     0.049 A 
ATOM     45  N   UNL A   1      39.623  29.964  31.574  1.00  0.00    -0.248 NA
ATOM     46  C   UNL A   1      37.658  31.187  31.279  1.00  0.00     0.031 C 
ATOM     47  C   UNL A   1      39.393  28.578  27.340  1.00  0.00     0.029 A 
ATOM     48  N   UNL A   1      40.579  28.525  29.234  1.00  0.00    -0.354 N 
ATOM     49  C   UNL A   1      39.317  30.636  32.751  1.00  0.00     0.074 A 
ATOM     50  C   UNL A   1      38.123  31.411  32.498  1.00  0.00     0.031 C 
ATOM     51  C   UNL A   1      40.482  27.820  27.117  1.00  0.00     0.029 A 
ATOM     52  C   UNL A   1      41.298  27.774  28.330  1.00  0.00     0.049 A 
ATOM     53  H   UNL A   1      40.866  28.662  30.166  1.00  0.00     0.167 HD
ATOM     54  C   UNL A   1      39.946  30.596  33.949  1.00  0.00     0.034 A 
ATOM     55  C   UNL A   1      42.475  27.128  28.464  1.00  0.00     0.034 A 
ATOM     56  C   UNL A   1      41.120  29.816  34.223  1.00  0.00     0.049 A 
ATOM     57  C   UNL A   1      43.178  27.124  29.801  1.00  0.00     0.074 A 
ATOM     58  C   UNL A   1      41.797  29.678  35.422  1.00  0.00     0.029 A 
ATOM     59  N   UNL A   1      41.801  29.056  33.287  1.00  0.00    -0.354 N 
ATOM     60  N   UNL A   1      42.797  27.651  30.939  1.00  0.00    -0.248 NA
ATOM     61  C   UNL A   1      44.458  26.400  29.879  1.00  0.00     0.031 C 
ATOM     62  C   UNL A   1      42.908  28.857  35.202  1.00  0.00     0.029 A 
ATOM     63  C   UNL A   1      42.902  28.458  33.876  1.00  0.00     0.049 A 
ATOM     64  H   UNL A   1      41.542  28.956  32.344  1.00  0.00     0.167 HD
ATOM     65  C   UNL A   1      43.765  27.291  31.873  1.00  0.00     0.074 A 
ATOM     66  C   UNL A   1      44.742  26.485  31.173  1.00  0.00     0.031 C 
ATOM     67  C   UNL A   1      43.841  27.609  33.190  1.00  0.00     0.034 A 
BRANCH  54  68
ATOM     68  C   UNL A   1      39.348  31.408  35.066  1.00  0.00     0.023 A 
ATOM     69  C   UNL A   1      38.382  30.826  35.912  1.00  0.00     0.012 A 
ATOM     70  C   UNL A   1      39.758  32.736  35.293  1.00  0.00     0.148 A 
ATOM     71  C   UNL A   1      37.802  31.566  36.941  1.00  0.00     0.002 A 
ATOM     72  C   UNL A   1      39.210  33.452  36.350  1.00  0.00     0.091 A 
ATOM     73  F   UNL A   1      40.658  33.279  34.461  1.00  0.00    -0.205 F 
ATOM     74  C   UNL A   1      38.222  32.874  37.165  1.00  0.00     0.022 A 
BRANCH  72  75
ATOM     75  S   UNL A   1      39.742  35.115  36.766  1.00  0.00     0.127 S 
ATOM     76  O   UNL A   1      39.303  35.868  35.592  1.00  0.00    -0.237 OA
ATOM     77  O   UNL A   1      38.978  35.386  37.985  1.00  0.00    -0.237 OA
ATOM     78  O   UNL A   1      41.182  35.039  36.959  1.00  0.00    -0.744 OA
ENDBRANCH  72  75
ENDBRANCH  54  68
BRANCH  55  79
ATOM     79  C   UNL A   1      43.055  26.377  27.312  1.00  0.00     0.023 A 
ATOM     80  C   UNL A   1      43.981  27.012  26.460  1.00  0.00     0.012 A 
ATOM     81  C   UNL A   1      42.688  25.042  27.050  1.00  0.00     0.148 A 
ATOM     82  C   UNL A   1      44.505  26.345  25.352  1.00  0.00     0.002 A 
ATOM     83  C   UNL A   1      43.256  24.365  25.976  1.00  0.00     0.091 A 
ATOM     84  F   UNL A   1      41.794  24.460  27.860  1.00  0.00    -0.205 F 
ATOM     85  C   UNL A   1      44.149  25.020  25.115  1.00  0.00     0.022 A 
BRANCH  83  86
ATOM     86  S   UNL A   1      42.955  22.622  25.662  1.00  0.00     0.127 S 
ATOM     87  O   UNL A   1      43.718  21.988  26.734  1.00  0.00    -0.237 OA
ATOM     88  O   UNL A   1      41.501  22.542  25.808  1.00  0.00    -0.237 OA
ATOM     89  O   UNL A   1      43.440  22.375  24.312  1.00  0.00    -0.744 OA
ENDBRANCH  83  86
ENDBRANCH  55  79
BRANCH  67  90
ATOM     90  C   UNL A   1      44.995  27.057  33.990  1.00  0.00     0.023 A 
ATOM     91  C   UNL A   1      46.141  27.847  34.210  1.00  0.00     0.012 A 
ATOM     92  C   UNL A   1      44.904  25.790  34.601  1.00  0.00     0.148 A 
ATOM     93  C   UNL A   1      47.189  27.374  35.000  1.00  0.00     0.002 A 
ATOM     94  C   UNL A   1      45.930  25.345  35.428  1.00  0.00     0.091 A 
ATOM     95  F   UNL A   1      43.814  25.045  34.369  1.00  0.00    -0.205 F 
ATOM     96  C   UNL A   1      47.078  26.130  35.619  1.00  0.00     0.022 A 
BRANCH  94  97
ATOM     97  S   UNL A   1      45.831  23.803  36.345  1.00  0.00     0.127 S 
ATOM     98  O   UNL A   1      46.271  22.833  35.344  1.00  0.00    -0.237 OA
ATOM     99  O   UNL A   1      46.779  24.028  37.435  1.00  0.00    -0.237 OA
ATOM    100  O   UNL A   1      44.442  23.676  36.767  1.00  0.00    -0.744 OA
ENDBRANCH  94  97
ENDBRANCH  67  90
ENDBRANCH  41  42
ENDBRANCH  34  36
ENDBRANCH  33  34
ENDBRANCH  32  33
ENDBRANCH  31  32
ENDBRANCH  30  31
ENDBRANCH   1  30
TORSDOF 23
ENDMDL
MODEL 2
REMARK VINA RESULT:     -11.4      1.610      4.628
REMARK SMILES CN(C)c1ccc(CCC(=O)N2C[C@@H](C(=O)OCCOCCOC(=O)c3ccc(-c4c5nc(c(-c6cccc(S(=O)(=O)[O-])c6F)c6ccc([nH]6)c(-c6cccc(S(=O)(=O)[O-])c6F)c6nc(c(-c7cccc(S(=O)(=O)[O-])c7F)c7ccc4[nH]7)C=C6)C=C5)cc3)[C@H](c3cccnc3)C2)cc1
REMARK SMILES IDX 19 1 18 2 17 3 15 4 16 5 14 6 12 7 13 8 96 9 89 10 10 11
REMARK SMILES IDX 11 12 9 13 8 14 7 15 4 16 5 17 98 18 6 19 97 20 2 21 1 22
REMARK SMILES IDX 3 23 90 24 91 25 95 26 92 27 94 28 93 29 20 30 21 31 22 32
REMARK SMILES IDX 23 33 24 34 25 35 26 36 27 37 88 38 28 39 87 40 29 41 30 42
REMARK SMILES IDX 31 43 81 44 32 45 86 46 80 47 82 48 33 49 85 50 79 51 78 52
REMARK SMILES IDX 34 54 66 55 46 56 65 57 47 58 50 59 64 60 83 61 48 62 49 63
REMARK SMILES IDX 63 65 84 66 51 67 35 68 36 69 44 70 37 71 39 72 45 73 38 74
REMARK SMILES IDX 40 75 41 76 42 77 43 78 67 79 68 80 76 81 69 82 71 83 77 84
REMARK SMILES IDX 70 85 72 86 73 87 74 88 75 89 52 90 53 91 61 92 54 93 56 94
REMARK SMILES IDX 62 95 55 96 57 97 58 98 59 99 60 100
REMARK H PARENT 82 53 50 64
REMARK Flexibility Score: inf
ROOT
ATOM      1  C   UNL A   1      33.824  29.381  25.982  1.00  0.00     0.202 C 
ENDROOT
BRANCH   1   2
ATOM      2  C   UNL A   1      33.547  28.381  27.104  1.00  0.00     0.261 C 
BRANCH   2   3
ATOM      3  O   UNL A   1      32.750  27.267  26.654  1.00  0.00    -0.463 OA
BRANCH   3   4
ATOM      4  C   UNL A   1      31.414  27.311  26.902  1.00  0.00     0.311 C 
ATOM      5  O   UNL A   1      30.899  27.805  27.894  1.00  0.00    -0.252 OA
BRANCH   4   6
ATOM      6  C   UNL A   1      30.664  26.575  25.812  1.00  0.00     0.128 C 
ATOM      7  N   UNL A   1      31.041  24.463  24.782  1.00  0.00    -0.341 N 
ATOM      8  C   UNL A   1      30.655  25.080  26.018  1.00  0.00     0.135 C 
ATOM      9  C   UNL A   1      31.670  25.431  23.901  1.00  0.00     0.128 C 
ATOM     10  C   UNL A   1      31.269  26.835  24.411  1.00  0.00     0.056 C 
BRANCH   7  11
ATOM     11  C   UNL A   1      31.157  23.096  24.599  1.00  0.00     0.222 C 
ATOM     12  O   UNL A   1      30.869  22.308  25.503  1.00  0.00    -0.275 OA
BRANCH  11  13
ATOM     13  C   UNL A   1      31.810  22.577  23.308  1.00  0.00     0.105 C 
BRANCH  13  14
ATOM     14  C   UNL A   1      33.017  21.621  23.393  1.00  0.00     0.045 C 
BRANCH  14  15
ATOM     15  C   UNL A   1      34.079  22.142  24.340  1.00  0.00    -0.047 A 
ATOM     16  C   UNL A   1      36.618  22.695  25.428  1.00  0.00     0.036 A 
ATOM     17  C   UNL A   1      35.878  21.589  25.850  1.00  0.00     0.026 A 
ATOM     18  C   UNL A   1      35.969  23.631  24.622  1.00  0.00     0.026 A 
ATOM     19  C   UNL A   1      34.602  21.323  25.340  1.00  0.00     0.006 A 
ATOM     20  C   UNL A   1      34.704  23.369  24.089  1.00  0.00     0.006 A 
BRANCH  16  21
ATOM     21  N   UNL A   1      37.976  22.824  25.673  1.00  0.00    -0.378 N 
ATOM     22  C   UNL A   1      38.474  23.989  26.370  1.00  0.00     0.143 C 
ATOM     23  C   UNL A   1      38.737  21.590  25.806  1.00  0.00     0.143 C 
ENDBRANCH  16  21
ENDBRANCH  14  15
ENDBRANCH  13  14
ENDBRANCH  11  13
ENDBRANCH   7  11
BRANCH  10  24
ATOM     24  C   UNL A   1      30.302  27.711  23.627  1.00  0.00    -0.024 A 
ATOM     25  C   UNL A   1      30.814  28.794  22.883  1.00  0.00     0.007 A 
ATOM     26  C   UNL A   1      28.926  27.536  23.584  1.00  0.00     0.115 A 
ATOM     27  C   UNL A   1      29.964  29.674  22.224  1.00  0.00     0.020 A 
ATOM     28  N   UNL A   1      28.075  28.359  22.920  1.00  0.00    -0.264 NA
ATOM     29  C   UNL A   1      28.610  29.419  22.277  1.00  0.00     0.111 A 
ENDBRANCH  10  24
ENDBRANCH   4   6
ENDBRANCH   3   4
ENDBRANCH   2   3
ENDBRANCH   1   2
BRANCH   1  30
ATOM     30  O   UNL A   1      32.693  30.191  25.660  1.00  0.00    -0.374 OA
BRANCH  30  31
ATOM     31  C   UNL A   1      32.070  30.834  26.770  1.00  0.00     0.202 C 
BRANCH  31  32
ATOM     32  C   UNL A   1      32.101  32.368  26.696  1.00  0.00     0.261 C 
BRANCH  32  33
ATOM     33  O   UNL A   1      32.250  32.978  27.994  1.00  0.00    -0.460 OA
BRANCH  33  34
ATOM     34  C   UNL A   1      33.301  33.827  28.120  1.00  0.00     0.338 C 
ATOM     35  O   UNL A   1      33.251  35.039  28.162  1.00  0.00    -0.246 OA
BRANCH  34  36
ATOM     36  C   UNL A   1      34.559  33.073  28.350  1.00  0.00     0.060 A 
ATOM     37  C   UNL A   1      34.458  31.868  29.058  1.00  0.00     0.016 A 
ATOM     38  C   UNL A   1      35.814  33.543  27.950  1.00  0.00     0.016 A 
ATOM     39  C   UNL A   1      35.608  31.163  29.424  1.00  0.00     0.010 A 
ATOM     40  C   UNL A   1      36.969  32.832  28.319  1.00  0.00     0.010 A 
ATOM     41  C   UNL A   1      36.877  31.660  29.097  1.00  0.00    -0.014 A 
BRANCH  41  42
ATOM     42  C   UNL A   1      38.078  31.070  29.751  1.00  0.00     0.031 A 
ATOM     43  C   UNL A   1      38.379  31.456  31.178  1.00  0.00     0.074 A 
ATOM     44  C   UNL A   1      38.866  30.165  29.135  1.00  0.00     0.049 A 
ATOM     45  N   UNL A   1      39.317  31.018  31.978  1.00  0.00    -0.248 NA
ATOM     46  C   UNL A   1      37.501  32.471  31.783  1.00  0.00     0.031 C 
ATOM     47  C   UNL A   1      38.705  29.693  27.763  1.00  0.00     0.029 A 
ATOM     48  N   UNL A   1      39.972  29.487  29.593  1.00  0.00    -0.354 N 
ATOM     49  C   UNL A   1      39.154  31.716  33.168  1.00  0.00     0.074 A 
ATOM     50  C   UNL A   1      38.051  32.631  32.976  1.00  0.00     0.031 C 
ATOM     51  C   UNL A   1      39.683  28.811  27.485  1.00  0.00     0.029 A 
ATOM     52  C   UNL A   1      40.547  28.660  28.655  1.00  0.00     0.049 A 
ATOM     53  H   UNL A   1      40.320  29.583  30.510  1.00  0.00     0.167 HD
ATOM     54  C   UNL A   1      39.833  31.595  34.333  1.00  0.00     0.034 A 
ATOM     55  C   UNL A   1      41.643  27.876  28.729  1.00  0.00     0.034 A 
ATOM     56  C   UNL A   1      40.917  30.677  34.548  1.00  0.00     0.049 A 
ATOM     57  C   UNL A   1      42.408  27.780  30.028  1.00  0.00     0.074 A 
ATOM     58  C   UNL A   1      41.633  30.451  35.710  1.00  0.00     0.029 A 
ATOM     59  N   UNL A   1      41.453  29.845  33.579  1.00  0.00    -0.354 N 
ATOM     60  N   UNL A   1      42.151  28.343  31.183  1.00  0.00    -0.248 NA
ATOM     61  C   UNL A   1      43.594  26.907  30.041  1.00  0.00     0.031 C 
ATOM     62  C   UNL A   1      42.624  29.504  35.435  1.00  0.00     0.029 A 
ATOM     63  C   UNL A   1      42.503  29.115  34.111  1.00  0.00     0.049 A 
ATOM     64  H   UNL A   1      41.136  29.782  32.650  1.00  0.00     0.167 HD
ATOM     65  C   UNL A   1      43.115  27.864  32.067  1.00  0.00     0.074 A 
ATOM     66  C   UNL A   1      43.951  26.949  31.319  1.00  0.00     0.031 C 
ATOM     67  C   UNL A   1      43.296  28.163  33.378  1.00  0.00     0.034 A 
BRANCH  54  68
ATOM     68  C   UNL A   1      39.396  32.467  35.478  1.00  0.00     0.023 A 
ATOM     69  C   UNL A   1      38.473  31.970  36.421  1.00  0.00     0.012 A 
ATOM     70  C   UNL A   1      39.914  33.766  35.636  1.00  0.00     0.148 A 
ATOM     71  C   UNL A   1      38.040  32.767  37.479  1.00  0.00     0.002 A 
ATOM     72  C   UNL A   1      39.513  34.538  36.719  1.00  0.00     0.091 A 
ATOM     73  F   UNL A   1      40.770  34.230  34.714  1.00  0.00    -0.205 F 
ATOM     74  C   UNL A   1      38.566  34.046  37.633  1.00  0.00     0.022 A 
BRANCH  72  75
ATOM     75  S   UNL A   1      40.193  36.167  37.046  1.00  0.00     0.127 S 
ATOM     76  O   UNL A   1      39.929  36.856  35.783  1.00  0.00    -0.237 OA
ATOM     77  O   UNL A   1      39.375  36.622  38.172  1.00  0.00    -0.237 OA
ATOM     78  O   UNL A   1      41.598  35.959  37.364  1.00  0.00    -0.744 OA
ENDBRANCH  72  75
ENDBRANCH  54  68
BRANCH  55  79
ATOM     79  C   UNL A   1      42.069  27.066  27.549  1.00  0.00     0.023 A 
ATOM     80  C   UNL A   1      42.484  27.717  26.370  1.00  0.00     0.012 A 
ATOM     81  C   UNL A   1      42.057  25.658  27.585  1.00  0.00     0.148 A 
ATOM     82  C   UNL A   1      42.847  26.983  25.239  1.00  0.00     0.002 A 
ATOM     83  C   UNL A   1      42.472  24.933  26.474  1.00  0.00     0.091 A 
ATOM     84  F   UNL A   1      41.643  25.057  28.709  1.00  0.00    -0.205 F 
ATOM     85  C   UNL A   1      42.849  25.592  25.295  1.00  0.00     0.022 A 
BRANCH  83  86
ATOM     86  S   UNL A   1      42.626  23.142  26.490  1.00  0.00     0.127 S 
ATOM     87  O   UNL A   1      41.563  22.758  27.415  1.00  0.00    -0.237 OA
ATOM     88  O   UNL A   1      42.374  22.811  25.087  1.00  0.00    -0.237 OA
ATOM     89  O   UNL A   1      43.983  22.867  26.940  1.00  0.00    -0.744 OA
ENDBRANCH  83  86
ENDBRANCH  55  79
BRANCH  67  90
ATOM     90  C   UNL A   1      44.414  27.472  34.119  1.00  0.00     0.023 A 
ATOM     91  C   UNL A   1      45.596  28.175  34.425  1.00  0.00     0.012 A 
ATOM     92  C   UNL A   1      44.255  26.153  34.592  1.00  0.00     0.148 A 
ATOM     93  C   UNL A   1      46.612  27.568  35.164  1.00  0.00     0.002 A 
ATOM     94  C   UNL A   1      45.250  25.572  35.369  1.00  0.00     0.091 A 
ATOM     95  F   UNL A   1      43.131  25.493  34.277  1.00  0.00    -0.205 F 
ATOM     96  C   UNL A   1      46.434  26.273  35.646  1.00  0.00     0.022 A 
BRANCH  94  97
ATOM     97  S   UNL A   1      45.066  23.948  36.116  1.00  0.00     0.127 S 
ATOM     98  O   UNL A   1      45.738  23.093  35.138  1.00  0.00    -0.237 OA
ATOM     99  O   UNL A   1      45.782  24.105  37.382  1.00  0.00    -0.237 OA
ATOM    100  O   UNL A   1      43.633  23.730  36.255  1.00  0.00    -0.744 OA
ENDBRANCH  94  97
ENDBRANCH  67  90
ENDBRANCH  41  42
ENDBRANCH  34  36
ENDBRANCH  33  34
ENDBRANCH  32  33
ENDBRANCH  31  32
ENDBRANCH  30  31
ENDBRANCH   1  30
TORSDOF 23
ENDMDL
MODEL 3
REMARK VINA RESULT:     -11.1      2.531      8.832
REMARK SMILES CN(C)c1ccc(CCC(=O)N2C[C@@H](C(=O)OCCOCCOC(=O)c3ccc(-c4c5nc(c(-c6cccc(S(=O)(=O)[O-])c6F)c6ccc([nH]6)c(-c6cccc(S(=O)(=O)[O-])c6F)c6nc(c(-c7cccc(S(=O)(=O)[O-])c7F)c7ccc4[nH]7)C=C6)C=C5)cc3)[C@H](c3cccnc3)C2)cc1
REMARK SMILES IDX 19 1 18 2 17 3 15 4 16 5 14 6 12 7 13 8 96 9 89 10 10 11
REMARK SMILES IDX 11 12 9 13 8 14 7 15 4 16 5 17 98 18 6 19 97 20 2 21 1 22
REMARK SMILES IDX 3 23 90 24 91 25 95 26 92 27 94 28 93 29 20 30 21 31 22 32
REMARK SMILES IDX 23 33 24 34 25 35 26 36 27 37 88 38 28 39 87 40 29 41 30 42
REMARK SMILES IDX 31 43 81 44 32 45 86 46 80 47 82 48 33 49 85 50 79 51 78 52
REMARK SMILES IDX 34 54 66 55 46 56 65 57 47 58 50 59 64 60 83 61 48 62 49 63
REMARK SMILES IDX 63 65 84 66 51 67 35 68 36 69 44 70 37 71 39 72 45 73 38 74
REMARK SMILES IDX 40 75 41 76 42 77 43 78 67 79 68 80 76 81 69 82 71 83 77 84
REMARK SMILES IDX 70 85 72 86 73 87 74 88 75 89 52 90 53 91 61 92 54 93 56 94
REMARK SMILES IDX 62 95 55 96 57 97 58 98 59 99 60 100
REMARK H PARENT 82 53 50 64
REMARK Flexibility Score: inf
ROOT
ATOM      1  C   UNL A   1      32.465  30.271  25.714  1.00  0.00     0.202 C 
ENDROOT
BRANCH   1   2
ATOM      2  C   UNL A   1      33.237  29.169  26.437  1.00  0.00     0.261 C 
BRANCH   2   3
ATOM      3  O   UNL A   1      32.720  27.857  26.137  1.00  0.00    -0.463 OA
BRANCH   3   4
ATOM      4  C   UNL A   1      31.493  27.537  26.630  1.00  0.00     0.311 C 
ATOM      5  O   UNL A   1      31.118  27.754  27.773  1.00  0.00    -0.252 OA
BRANCH   4   6
ATOM      6  C   UNL A   1      30.696  26.792  25.582  1.00  0.00     0.128 C 
ATOM      7  N   UNL A   1      31.075  24.712  24.489  1.00  0.00    -0.341 N 
ATOM      8  C   UNL A   1      30.754  25.294  25.761  1.00  0.00     0.135 C 
ATOM      9  C   UNL A   1      31.605  25.716  23.585  1.00  0.00     0.128 C 
ATOM     10  C   UNL A   1      31.190  27.096  24.148  1.00  0.00     0.056 C 
BRANCH   7  11
ATOM     11  C   UNL A   1      31.226  23.353  24.274  1.00  0.00     0.222 C 
ATOM     12  O   UNL A   1      31.255  22.891  23.130  1.00  0.00    -0.275 OA
BRANCH  11  13
ATOM     13  C   UNL A   1      31.189  22.405  25.482  1.00  0.00     0.105 C 
BRANCH  13  14
ATOM     14  C   UNL A   1      32.315  21.368  25.676  1.00  0.00     0.045 C 
BRANCH  14  15
ATOM     15  C   UNL A   1      33.676  21.956  25.368  1.00  0.00    -0.047 A 
ATOM     16  C   UNL A   1      36.416  22.566  25.615  1.00  0.00     0.036 A 
ATOM     17  C   UNL A   1      35.437  23.444  26.084  1.00  0.00     0.026 A 
ATOM     18  C   UNL A   1      35.993  21.494  24.828  1.00  0.00     0.026 A 
ATOM     19  C   UNL A   1      34.073  23.165  25.938  1.00  0.00     0.006 A 
ATOM     20  C   UNL A   1      34.636  21.194  24.691  1.00  0.00     0.006 A 
BRANCH  16  21
ATOM     21  N   UNL A   1      37.744  22.652  26.003  1.00  0.00    -0.378 N 
ATOM     22  C   UNL A   1      38.663  21.589  25.660  1.00  0.00     0.143 C 
ATOM     23  C   UNL A   1      38.296  23.990  26.153  1.00  0.00     0.143 C 
ENDBRANCH  16  21
ENDBRANCH  14  15
ENDBRANCH  13  14
ENDBRANCH  11  13
ENDBRANCH   7  11
BRANCH  10  24
ATOM     24  C   UNL A   1      30.140  27.948  23.449  1.00  0.00    -0.024 A 
ATOM     25  C   UNL A   1      30.555  29.086  22.727  1.00  0.00     0.007 A 
ATOM     26  C   UNL A   1      28.775  27.700  23.465  1.00  0.00     0.115 A 
ATOM     27  C   UNL A   1      29.628  29.943  22.148  1.00  0.00     0.020 A 
ATOM     28  N   UNL A   1      27.849  28.500  22.879  1.00  0.00    -0.264 NA
ATOM     29  C   UNL A   1      28.294  29.613  22.256  1.00  0.00     0.111 A 
ENDBRANCH  10  24
ENDBRANCH   4   6
ENDBRANCH   3   4
ENDBRANCH   2   3
ENDBRANCH   1   2
BRANCH   1  30
ATOM     30  O   UNL A   1      31.791  31.161  26.605  1.00  0.00    -0.374 OA
BRANCH  30  31
ATOM     31  C   UNL A   1      32.640  31.940  27.444  1.00  0.00     0.202 C 
BRANCH  31  32
ATOM     32  C   UNL A   1      32.415  33.455  27.322  1.00  0.00     0.261 C 
BRANCH  32  33
ATOM     33  O   UNL A   1      32.385  34.112  28.604  1.00  0.00    -0.460 OA
BRANCH  33  34
ATOM     34  C   UNL A   1      33.462  34.889  28.884  1.00  0.00     0.338 C 
ATOM     35  O   UNL A   1      33.501  36.102  28.878  1.00  0.00    -0.246 OA
BRANCH  34  36
ATOM     36  C   UNL A   1      34.599  34.058  29.355  1.00  0.00     0.060 A 
ATOM     37  C   UNL A   1      34.312  33.062  30.299  1.00  0.00     0.016 A 
ATOM     38  C   UNL A   1      35.920  34.272  28.949  1.00  0.00     0.016 A 
ATOM     39  C   UNL A   1      35.343  32.323  30.885  1.00  0.00     0.010 A 
ATOM     40  C   UNL A   1      36.955  33.526  29.539  1.00  0.00     0.010 A 
ATOM     41  C   UNL A   1      36.678  32.578  30.544  1.00  0.00    -0.014 A 
BRANCH  41  42
ATOM     42  C   UNL A   1      37.764  32.006  31.388  1.00  0.00     0.031 A 
ATOM     43  C   UNL A   1      38.598  30.885  30.818  1.00  0.00     0.074 A 
ATOM     44  C   UNL A   1      38.062  32.492  32.610  1.00  0.00     0.049 A 
ATOM     45  N   UNL A   1      39.641  30.283  31.329  1.00  0.00    -0.248 NA
ATOM     46  C   UNL A   1      38.202  30.379  29.494  1.00  0.00     0.031 C 
ATOM     47  C   UNL A   1      37.351  33.569  33.294  1.00  0.00     0.029 A 
ATOM     48  N   UNL A   1      39.048  32.128  33.498  1.00  0.00    -0.354 N 
ATOM     49  C   UNL A   1      40.011  29.317  30.400  1.00  0.00     0.074 A 
ATOM     50  C   UNL A   1      39.062  29.390  29.312  1.00  0.00     0.031 C 
ATOM     51  C   UNL A   1      37.915  33.771  34.499  1.00  0.00     0.029 A 
ATOM     52  C   UNL A   1      39.022  32.833  34.680  1.00  0.00     0.049 A 
ATOM     53  H   UNL A   1      39.713  31.426  33.306  1.00  0.00     0.167 HD
ATOM     54  C   UNL A   1      41.061  28.463  30.424  1.00  0.00     0.034 A 
ATOM     55  C   UNL A   1      39.798  32.732  35.780  1.00  0.00     0.034 A 
ATOM     56  C   UNL A   1      42.024  28.392  31.487  1.00  0.00     0.049 A 
ATOM     57  C   UNL A   1      40.944  31.749  35.801  1.00  0.00     0.074 A 
ATOM     58  C   UNL A   1      43.149  27.590  31.574  1.00  0.00     0.029 A 
ATOM     59  N   UNL A   1      41.972  29.137  32.653  1.00  0.00    -0.354 N 
ATOM     60  N   UNL A   1      41.360  30.944  34.854  1.00  0.00    -0.248 NA
ATOM     61  C   UNL A   1      41.750  31.690  37.031  1.00  0.00     0.031 C 
ATOM     62  C   UNL A   1      43.760  27.828  32.809  1.00  0.00     0.029 A 
ATOM     63  C   UNL A   1      43.035  28.803  33.475  1.00  0.00     0.049 A 
ATOM     64  H   UNL A   1      41.282  29.805  32.867  1.00  0.00     0.167 HD
ATOM     65  C   UNL A   1      42.496  30.315  35.357  1.00  0.00     0.074 A 
ATOM     66  C   UNL A   1      42.714  30.845  36.686  1.00  0.00     0.031 C 
ATOM     67  C   UNL A   1      43.282  29.375  34.774  1.00  0.00     0.034 A 
BRANCH  54  68
ATOM     68  C   UNL A   1      41.232  27.551  29.240  1.00  0.00     0.023 A 
ATOM     69  C   UNL A   1      40.641  26.271  29.254  1.00  0.00     0.012 A 
ATOM     70  C   UNL A   1      41.956  27.967  28.106  1.00  0.00     0.148 A 
ATOM     71  C   UNL A   1      40.802  25.403  28.175  1.00  0.00     0.002 A 
ATOM     72  C   UNL A   1      42.073  27.114  27.016  1.00  0.00     0.091 A 
ATOM     73  F   UNL A   1      42.532  29.177  28.124  1.00  0.00    -0.205 F 
ATOM     74  C   UNL A   1      41.509  25.827  27.055  1.00  0.00     0.022 A 
BRANCH  72  75
ATOM     75  S   UNL A   1      42.898  27.599  25.497  1.00  0.00     0.127 S 
ATOM     76  O   UNL A   1      44.244  27.907  25.978  1.00  0.00    -0.237 OA
ATOM     77  O   UNL A   1      42.802  26.380  24.692  1.00  0.00    -0.237 OA
ATOM     78  O   UNL A   1      42.145  28.730  24.975  1.00  0.00    -0.744 OA
ENDBRANCH  72  75
ENDBRANCH  54  68
BRANCH  55  79
ATOM     79  C   UNL A   1      39.557  33.625  36.953  1.00  0.00     0.023 A 
ATOM     80  C   UNL A   1      39.996  34.964  36.913  1.00  0.00     0.012 A 
ATOM     81  C   UNL A   1      38.905  33.153  38.109  1.00  0.00     0.148 A 
ATOM     82  C   UNL A   1      39.820  35.805  38.012  1.00  0.00     0.002 A 
ATOM     83  C   UNL A   1      38.683  34.013  39.179  1.00  0.00     0.091 A 
ATOM     84  F   UNL A   1      38.510  31.873  38.135  1.00  0.00    -0.205 F 
ATOM     85  C   UNL A   1      39.157  35.332  39.141  1.00  0.00     0.022 A 
BRANCH  83  86
ATOM     86  S   UNL A   1      37.732  33.532  40.626  1.00  0.00     0.127 S 
ATOM     87  O   UNL A   1      38.601  32.530  41.237  1.00  0.00    -0.237 OA
ATOM     88  O   UNL A   1      37.639  34.797  41.354  1.00  0.00    -0.237 OA
ATOM     89  O   UNL A   1      36.461  33.036  40.115  1.00  0.00    -0.744 OA
ENDBRANCH  83  86
ENDBRANCH  55  79
BRANCH  67  90
ATOM     90  C   UNL A   1      44.483  28.875  35.537  1.00  0.00     0.023 A 
ATOM     91  C   UNL A   1      45.739  29.486  35.354  1.00  0.00     0.012 A 
ATOM     92  C   UNL A   1      44.346  27.859  36.506  1.00  0.00     0.148 A 
ATOM     93  C   UNL A   1      46.844  29.076  36.099  1.00  0.00     0.002 A 
ATOM     94  C   UNL A   1      45.440  27.489  37.280  1.00  0.00     0.091 A 
ATOM     95  F   UNL A   1      43.147  27.277  36.656  1.00  0.00    -0.205 F 
ATOM     96  C   UNL A   1      46.692  28.088  37.070  1.00  0.00     0.022 A 
BRANCH  94  97
ATOM     97  S   UNL A   1      45.316  26.298  38.619  1.00  0.00     0.127 S 
ATOM     98  O   UNL A   1      44.955  25.077  37.900  1.00  0.00    -0.237 OA
ATOM     99  O   UNL A   1      46.672  26.304  39.168  1.00  0.00    -0.237 OA
ATOM    100  O   UNL A   1      44.296  26.814  39.522  1.00  0.00    -0.744 OA
ENDBRANCH  94  97
ENDBRANCH  67  90
ENDBRANCH  41  42
ENDBRANCH  34  36
ENDBRANCH  33  34
ENDBRANCH  32  33
ENDBRANCH  31  32
ENDBRANCH  30  31
ENDBRANCH   1  30
TORSDOF 23
ENDMDL
