MODEL 1
REMARK VINA RESULT:     -10.6      0.000      0.000
REMARK SMILES O=C(OCCOCCOC(=O)[C@H]1C[C@@H]2N=CN=C2C[NH2+]1)c1ccc(-c2c3nc(c(-c4cccc(S(=O)(=O)[O-])c4F)c4ccc([nH]4)c(-c4cccc(S(=O)(=O)[O-])c4F)c4nc(c(-c5cccc(S(=O)(=O)[O-])c5F)c5ccc2[nH]5)C=C4)C=C3)cc1
REMARK SMILES IDX 4 1 3 2 2 3 1 4 21 5 22 6 83 7 23 8 82 9 24 10 25 11 26 12
REMARK SMILES IDX 76 13 27 14 81 15 75 16 77 17 28 18 80 19 74 20 73 21 29 23
REMARK SMILES IDX 61 24 41 25 60 26 42 27 45 28 59 29 78 30 43 31 44 32 58 34
REMARK SMILES IDX 79 35 46 36 30 37 31 38 39 39 32 40 34 41 40 42 33 43 35 44
REMARK SMILES IDX 36 45 37 46 38 47 62 48 63 49 71 50 64 51 66 52 72 53 65 54
REMARK SMILES IDX 67 55 68 56 69 57 70 58 47 59 48 60 56 61 49 62 51 63 57 64
REMARK SMILES IDX 50 65 52 66 53 67 54 68 55 69 5 70 6 71 7 72 8 73 9 74 10 75
REMARK SMILES IDX 11 76 12 77 13 78 20 79 14 80 19 81 15 84 18 85 16 86 17 87
REMARK H PARENT 77 22 45 33 20 82 20 83
REMARK Flexibility Score: inf
ROOT
ATOM      1  C   UNL A   1      42.025  21.306  27.670  1.00  0.00     0.261 C 
ENDROOT
BRANCH   1   2
ATOM      2  O   UNL A   1      41.446  22.212  26.726  1.00  0.00    -0.460 OA
BRANCH   2   3
ATOM      3  C   UNL A   1      40.585  23.219  27.003  1.00  0.00     0.338 C 
ATOM      4  O   UNL A   1      39.382  22.971  27.051  1.00  0.00    -0.246 OA
BRANCH   3   5
ATOM      5  C   UNL A   1      41.056  24.586  27.354  1.00  0.00     0.060 A 
ATOM      6  C   UNL A   1      42.028  24.893  28.307  1.00  0.00     0.016 A 
ATOM      7  C   UNL A   1      40.370  25.632  26.722  1.00  0.00     0.016 A 
ATOM      8  C   UNL A   1      42.038  26.139  28.889  1.00  0.00     0.010 A 
ATOM      9  C   UNL A   1      40.459  26.914  27.222  1.00  0.00     0.010 A 
ATOM     10  C   UNL A   1      41.193  27.120  28.382  1.00  0.00    -0.014 A 
BRANCH  10  11
ATOM     11  C   UNL A   1      41.208  28.407  29.042  1.00  0.00     0.031 A 
ATOM     12  C   UNL A   1      42.235  29.326  28.490  1.00  0.00     0.074 A 
ATOM     13  C   UNL A   1      40.317  28.713  30.002  1.00  0.00     0.049 A 
ATOM     14  N   UNL A   1      43.281  29.795  29.085  1.00  0.00    -0.248 NA
ATOM     15  C   UNL A   1      42.204  29.580  27.039  1.00  0.00     0.031 C 
ATOM     16  C   UNL A   1      39.132  27.948  30.405  1.00  0.00     0.029 A 
ATOM     17  N   UNL A   1      40.189  29.866  30.709  1.00  0.00    -0.354 N 
ATOM     18  C   UNL A   1      43.903  30.609  28.140  1.00  0.00     0.074 A 
ATOM     19  C   UNL A   1      43.336  30.261  26.867  1.00  0.00     0.031 C 
ATOM     20  C   UNL A   1      38.272  28.775  31.039  1.00  0.00     0.029 A 
ATOM     21  C   UNL A   1      38.903  30.074  31.196  1.00  0.00     0.049 A 
ATOM     22  H   UNL A   1      40.933  30.492  30.861  1.00  0.00     0.167 HD
ATOM     23  C   UNL A   1      44.628  31.697  28.517  1.00  0.00     0.034 A 
ATOM     24  C   UNL A   1      38.374  31.264  31.575  1.00  0.00     0.034 A 
ATOM     25  C   UNL A   1      44.985  31.630  29.910  1.00  0.00     0.049 A 
ATOM     26  C   UNL A   1      39.506  32.190  31.823  1.00  0.00     0.074 A 
ATOM     27  C   UNL A   1      45.716  30.759  30.692  1.00  0.00     0.029 A 
ATOM     28  N   UNL A   1      44.228  32.382  30.777  1.00  0.00    -0.354 N 
ATOM     29  N   UNL A   1      40.362  32.032  32.793  1.00  0.00    -0.248 NA
ATOM     30  C   UNL A   1      39.957  33.023  30.719  1.00  0.00     0.031 C 
ATOM     31  C   UNL A   1      45.018  30.710  31.932  1.00  0.00     0.029 A 
ATOM     32  C   UNL A   1      43.947  31.602  31.864  1.00  0.00     0.049 A 
ATOM     33  H   UNL A   1      43.942  33.313  30.639  1.00  0.00     0.167 HD
ATOM     34  C   UNL A   1      41.590  32.336  32.219  1.00  0.00     0.074 A 
ATOM     35  C   UNL A   1      41.268  33.042  30.980  1.00  0.00     0.031 C 
ATOM     36  C   UNL A   1      42.735  31.724  32.644  1.00  0.00     0.034 A 
BRANCH  23  37
ATOM     37  C   UNL A   1      44.662  33.005  27.760  1.00  0.00     0.023 A 
ATOM     38  C   UNL A   1      45.856  33.317  27.074  1.00  0.00     0.012 A 
ATOM     39  C   UNL A   1      43.728  34.054  27.930  1.00  0.00     0.148 A 
ATOM     40  C   UNL A   1      46.138  34.618  26.645  1.00  0.00     0.002 A 
ATOM     41  C   UNL A   1      43.978  35.328  27.435  1.00  0.00     0.091 A 
ATOM     42  F   UNL A   1      42.646  33.877  28.689  1.00  0.00    -0.205 F 
ATOM     43  C   UNL A   1      45.197  35.624  26.823  1.00  0.00     0.022 A 
BRANCH  41  44
ATOM     44  S   UNL A   1      42.779  36.656  27.602  1.00  0.00     0.127 S 
ATOM     45  O   UNL A   1      41.558  36.008  27.129  1.00  0.00    -0.237 OA
ATOM     46  O   UNL A   1      42.826  36.916  29.042  1.00  0.00    -0.237 OA
ATOM     47  O   UNL A   1      43.281  37.750  26.782  1.00  0.00    -0.744 OA
ENDBRANCH  41  44
ENDBRANCH  23  37
BRANCH  24  48
ATOM     48  C   UNL A   1      36.981  31.750  31.424  1.00  0.00     0.023 A 
ATOM     49  C   UNL A   1      36.310  32.299  32.534  1.00  0.00     0.012 A 
ATOM     50  C   UNL A   1      36.405  31.926  30.144  1.00  0.00     0.148 A 
ATOM     51  C   UNL A   1      35.120  33.022  32.373  1.00  0.00     0.002 A 
ATOM     52  C   UNL A   1      35.217  32.635  29.990  1.00  0.00     0.091 A 
ATOM     53  F   UNL A   1      37.069  31.484  29.069  1.00  0.00    -0.205 F 
ATOM     54  C   UNL A   1      34.578  33.195  31.102  1.00  0.00     0.022 A 
BRANCH  52  55
ATOM     55  S   UNL A   1      34.477  32.913  28.375  1.00  0.00     0.127 S 
ATOM     56  O   UNL A   1      35.608  33.460  27.617  1.00  0.00    -0.237 OA
ATOM     57  O   UNL A   1      34.087  31.555  27.987  1.00  0.00    -0.237 OA
ATOM     58  O   UNL A   1      33.389  33.846  28.587  1.00  0.00    -0.744 OA
ENDBRANCH  52  55
ENDBRANCH  24  48
BRANCH  36  59
ATOM     59  C   UNL A   1      42.674  30.901  33.904  1.00  0.00     0.023 A 
ATOM     60  C   UNL A   1      42.736  31.475  35.191  1.00  0.00     0.012 A 
ATOM     61  C   UNL A   1      42.359  29.539  33.782  1.00  0.00     0.148 A 
ATOM     62  C   UNL A   1      42.510  30.699  36.332  1.00  0.00     0.002 A 
ATOM     63  C   UNL A   1      42.087  28.783  34.914  1.00  0.00     0.091 A 
ATOM     64  F   UNL A   1      42.298  29.011  32.549  1.00  0.00    -0.205 F 
ATOM     65  C   UNL A   1      42.172  29.356  36.192  1.00  0.00     0.022 A 
BRANCH  63  66
ATOM     66  S   UNL A   1      41.517  27.087  34.786  1.00  0.00     0.127 S 
ATOM     67  O   UNL A   1      40.364  27.220  33.899  1.00  0.00    -0.237 OA
ATOM     68  O   UNL A   1      42.673  26.412  34.193  1.00  0.00    -0.237 OA
ATOM     69  O   UNL A   1      41.217  26.662  36.148  1.00  0.00    -0.744 OA
ENDBRANCH  63  66
ENDBRANCH  36  59
ENDBRANCH  10  11
ENDBRANCH   3   5
ENDBRANCH   2   3
ENDBRANCH   1   2
BRANCH   1  70
ATOM     70  C   UNL A   1      41.554  19.864  27.449  1.00  0.00     0.202 C 
BRANCH  70  71
ATOM     71  O   UNL A   1      42.486  18.825  27.178  1.00  0.00    -0.374 OA
BRANCH  71  72
ATOM     72  C   UNL A   1      42.798  18.428  25.841  1.00  0.00     0.202 C 
BRANCH  72  73
ATOM     73  C   UNL A   1      44.207  18.581  25.252  1.00  0.00     0.261 C 
BRANCH  73  74
ATOM     74  O   UNL A   1      44.365  19.670  24.331  1.00  0.00    -0.459 OA
BRANCH  74  75
ATOM     75  C   UNL A   1      45.497  20.394  24.537  1.00  0.00     0.365 C 
ATOM     76  O   UNL A   1      46.638  19.965  24.375  1.00  0.00    -0.245 OA
BRANCH  75  77
ATOM     77  C   UNL A   1      45.250  21.858  24.857  1.00  0.00     0.296 C 
ATOM     78  C   UNL A   1      46.318  22.798  24.253  1.00  0.00     0.111 C 
ATOM     79  N   UNL A   1      43.879  22.375  24.562  1.00  0.00    -0.330 N 
ATOM     80  C   UNL A   1      46.304  24.129  24.995  1.00  0.00     0.164 C 
ATOM     81  C   UNL A   1      43.756  23.825  24.880  1.00  0.00     0.316 C 
ATOM     82  H   UNL A   1      43.203  21.856  25.123  1.00  0.00     0.347 HD
ATOM     83  H   UNL A   1      43.699  22.251  23.566  1.00  0.00     0.347 HD
ATOM     84  N   UNL A   1      47.206  24.111  26.161  1.00  0.00    -0.264 NA
ATOM     85  C   UNL A   1      44.973  24.230  25.665  1.00  0.00     0.098 C 
ATOM     86  C   UNL A   1      46.420  24.255  27.184  1.00  0.00     0.216 C 
ATOM     87  N   UNL A   1      45.068  24.353  26.948  1.00  0.00    -0.238 NA
ENDBRANCH  75  77
ENDBRANCH  74  75
ENDBRANCH  73  74
ENDBRANCH  72  73
ENDBRANCH  71  72
ENDBRANCH  70  71
ENDBRANCH   1  70
TORSDOF 17
ENDMDL
MODEL 2
REMARK VINA RESULT:     -10.5      3.156     11.782
REMARK SMILES O=C(OCCOCCOC(=O)[C@H]1C[C@@H]2N=CN=C2C[NH2+]1)c1ccc(-c2c3nc(c(-c4cccc(S(=O)(=O)[O-])c4F)c4ccc([nH]4)c(-c4cccc(S(=O)(=O)[O-])c4F)c4nc(c(-c5cccc(S(=O)(=O)[O-])c5F)c5ccc2[nH]5)C=C4)C=C3)cc1
REMARK SMILES IDX 4 1 3 2 2 3 1 4 21 5 22 6 83 7 23 8 82 9 24 10 25 11 26 12
REMARK SMILES IDX 76 13 27 14 81 15 75 16 77 17 28 18 80 19 74 20 73 21 29 23
REMARK SMILES IDX 61 24 41 25 60 26 42 27 45 28 59 29 78 30 43 31 44 32 58 34
REMARK SMILES IDX 79 35 46 36 30 37 31 38 39 39 32 40 34 41 40 42 33 43 35 44
REMARK SMILES IDX 36 45 37 46 38 47 62 48 63 49 71 50 64 51 66 52 72 53 65 54
REMARK SMILES IDX 67 55 68 56 69 57 70 58 47 59 48 60 56 61 49 62 51 63 57 64
REMARK SMILES IDX 50 65 52 66 53 67 54 68 55 69 5 70 6 71 7 72 8 73 9 74 10 75
REMARK SMILES IDX 11 76 12 77 13 78 20 79 14 80 19 81 15 84 18 85 16 86 17 87
REMARK H PARENT 77 22 45 33 20 82 20 83
REMARK Flexibility Score: inf
ROOT
ATOM      1  C   UNL A   1      35.201  34.158  28.333  1.00  0.00     0.261 C 
ENDROOT
BRANCH   1   2
ATOM      2  O   UNL A   1      35.402  32.973  29.107  1.00  0.00    -0.460 OA
BRANCH   2   3
ATOM      3  C   UNL A   1      35.918  31.802  28.665  1.00  0.00     0.338 C 
ATOM      4  O   UNL A   1      35.448  31.297  27.647  1.00  0.00    -0.246 OA
BRANCH   3   5
ATOM      5  C   UNL A   1      37.100  31.167  29.307  1.00  0.00     0.060 A 
ATOM      6  C   UNL A   1      38.297  31.809  29.625  1.00  0.00     0.016 A 
ATOM      7  C   UNL A   1      36.998  29.783  29.503  1.00  0.00     0.016 A 
ATOM      8  C   UNL A   1      39.451  31.070  29.749  1.00  0.00     0.010 A 
ATOM      9  C   UNL A   1      38.132  29.037  29.745  1.00  0.00     0.010 A 
ATOM     10  C   UNL A   1      39.361  29.683  29.733  1.00  0.00    -0.014 A 
BRANCH  10  11
ATOM     11  C   UNL A   1      40.599  28.942  29.832  1.00  0.00     0.031 A 
ATOM     12  C   UNL A   1      41.008  28.688  31.237  1.00  0.00     0.074 A 
ATOM     13  C   UNL A   1      41.238  28.494  28.737  1.00  0.00     0.049 A 
ATOM     14  N   UNL A   1      42.047  29.142  31.855  1.00  0.00    -0.248 NA
ATOM     15  C   UNL A   1      40.030  28.022  32.115  1.00  0.00     0.031 C 
ATOM     16  C   UNL A   1      40.755  28.494  27.352  1.00  0.00     0.029 A 
ATOM     17  N   UNL A   1      42.393  27.783  28.655  1.00  0.00    -0.354 N 
ATOM     18  C   UNL A   1      41.972  28.604  33.138  1.00  0.00     0.074 A 
ATOM     19  C   UNL A   1      40.627  28.126  33.301  1.00  0.00     0.031 C 
ATOM     20  C   UNL A   1      41.447  27.572  26.647  1.00  0.00     0.029 A 
ATOM     21  C   UNL A   1      42.493  27.026  27.493  1.00  0.00     0.049 A 
ATOM     22  H   UNL A   1      43.090  27.804  29.350  1.00  0.00     0.167 HD
ATOM     23  C   UNL A   1      43.097  28.339  33.856  1.00  0.00     0.034 A 
ATOM     24  C   UNL A   1      43.296  25.949  27.307  1.00  0.00     0.034 A 
ATOM     25  C   UNL A   1      44.235  29.038  33.323  1.00  0.00     0.049 A 
ATOM     26  C   UNL A   1      44.354  26.003  28.345  1.00  0.00     0.074 A 
ATOM     27  C   UNL A   1      44.564  30.364  33.124  1.00  0.00     0.029 A 
ATOM     28  N   UNL A   1      45.095  28.308  32.538  1.00  0.00    -0.354 N 
ATOM     29  N   UNL A   1      45.268  26.931  28.389  1.00  0.00    -0.248 NA
ATOM     30  C   UNL A   1      44.116  25.301  29.596  1.00  0.00     0.031 C 
ATOM     31  C   UNL A   1      45.276  30.382  31.890  1.00  0.00     0.029 A 
ATOM     32  C   UNL A   1      45.402  29.067  31.442  1.00  0.00     0.049 A 
ATOM     33  H   UNL A   1      45.429  27.402  32.730  1.00  0.00     0.167 HD
ATOM     34  C   UNL A   1      45.374  27.246  29.738  1.00  0.00     0.074 A 
ATOM     35  C   UNL A   1      44.725  26.139  30.440  1.00  0.00     0.031 C 
ATOM     36  C   UNL A   1      45.701  28.509  30.141  1.00  0.00     0.034 A 
BRANCH  23  37
ATOM     37  C   UNL A   1      43.267  27.146  34.770  1.00  0.00     0.023 A 
ATOM     38  C   UNL A   1      43.374  27.408  36.153  1.00  0.00     0.012 A 
ATOM     39  C   UNL A   1      43.622  25.847  34.335  1.00  0.00     0.148 A 
ATOM     40  C   UNL A   1      43.877  26.455  37.044  1.00  0.00     0.002 A 
ATOM     41  C   UNL A   1      44.049  24.879  35.234  1.00  0.00     0.091 A 
ATOM     42  F   UNL A   1      43.686  25.566  33.032  1.00  0.00    -0.205 F 
ATOM     43  C   UNL A   1      44.212  25.188  36.585  1.00  0.00     0.022 A 
BRANCH  41  44
ATOM     44  S   UNL A   1      44.458  23.212  34.699  1.00  0.00     0.127 S 
ATOM     45  O   UNL A   1      43.234  22.820  34.005  1.00  0.00    -0.237 OA
ATOM     46  O   UNL A   1      45.613  23.454  33.835  1.00  0.00    -0.237 OA
ATOM     47  O   UNL A   1      44.768  22.470  35.915  1.00  0.00    -0.744 OA
ENDBRANCH  41  44
ENDBRANCH  23  37
BRANCH  24  48
ATOM     48  C   UNL A   1      43.032  24.720  26.520  1.00  0.00     0.023 A 
ATOM     49  C   UNL A   1      44.001  24.252  25.612  1.00  0.00     0.012 A 
ATOM     50  C   UNL A   1      41.958  23.860  26.850  1.00  0.00     0.148 A 
ATOM     51  C   UNL A   1      43.920  22.961  25.071  1.00  0.00     0.002 A 
ATOM     52  C   UNL A   1      41.875  22.584  26.300  1.00  0.00     0.091 A 
ATOM     53  F   UNL A   1      41.072  24.255  27.772  1.00  0.00    -0.205 F 
ATOM     54  C   UNL A   1      42.862  22.127  25.419  1.00  0.00     0.022 A 
BRANCH  52  55
ATOM     55  S   UNL A   1      40.547  21.449  26.727  1.00  0.00     0.127 S 
ATOM     56  O   UNL A   1      40.651  21.401  28.189  1.00  0.00    -0.237 OA
ATOM     57  O   UNL A   1      39.370  22.164  26.225  1.00  0.00    -0.237 OA
ATOM     58  O   UNL A   1      40.857  20.200  26.062  1.00  0.00    -0.744 OA
ENDBRANCH  52  55
ENDBRANCH  24  48
BRANCH  36  59
ATOM     59  C   UNL A   1      46.183  29.485  29.100  1.00  0.00     0.023 A 
ATOM     60  C   UNL A   1      47.505  29.478  28.606  1.00  0.00     0.012 A 
ATOM     61  C   UNL A   1      45.227  30.300  28.474  1.00  0.00     0.148 A 
ATOM     62  C   UNL A   1      47.868  30.286  27.524  1.00  0.00     0.002 A 
ATOM     63  C   UNL A   1      45.580  31.063  27.369  1.00  0.00     0.091 A 
ATOM     64  F   UNL A   1      43.974  30.288  28.952  1.00  0.00    -0.205 F 
ATOM     65  C   UNL A   1      46.902  31.068  26.897  1.00  0.00     0.022 A 
BRANCH  63  66
ATOM     66  S   UNL A   1      44.351  31.983  26.442  1.00  0.00     0.127 S 
ATOM     67  O   UNL A   1      45.123  32.455  25.296  1.00  0.00    -0.237 OA
ATOM     68  O   UNL A   1      43.358  30.952  26.131  1.00  0.00    -0.237 OA
ATOM     69  O   UNL A   1      43.864  33.020  27.343  1.00  0.00    -0.744 OA
ENDBRANCH  63  66
ENDBRANCH  36  59
ENDBRANCH  10  11
ENDBRANCH   3   5
ENDBRANCH   2   3
ENDBRANCH   1   2
BRANCH   1  70
ATOM     70  C   UNL A   1      33.732  34.599  28.323  1.00  0.00     0.202 C 
BRANCH  70  71
ATOM     71  O   UNL A   1      32.994  34.707  29.532  1.00  0.00    -0.374 OA
BRANCH  71  72
ATOM     72  C   UNL A   1      32.874  35.948  30.230  1.00  0.00     0.202 C 
BRANCH  72  73
ATOM     73  C   UNL A   1      32.213  36.048  31.612  1.00  0.00     0.261 C 
BRANCH  73  74
ATOM     74  O   UNL A   1      32.834  35.263  32.640  1.00  0.00    -0.459 OA
BRANCH  74  75
ATOM     75  C   UNL A   1      33.869  35.895  33.254  1.00  0.00     0.365 C 
ATOM     76  O   UNL A   1      33.772  36.953  33.872  1.00  0.00    -0.245 OA
BRANCH  75  77
ATOM     77  C   UNL A   1      35.170  35.111  33.243  1.00  0.00     0.296 C 
ATOM     78  C   UNL A   1      35.004  33.656  33.739  1.00  0.00     0.111 C 
ATOM     79  N   UNL A   1      35.945  35.138  31.965  1.00  0.00    -0.330 N 
ATOM     80  C   UNL A   1      36.359  33.106  34.167  1.00  0.00     0.164 C 
ATOM     81  C   UNL A   1      37.181  34.311  32.053  1.00  0.00     0.316 C 
ATOM     82  H   UNL A   1      36.207  36.102  31.759  1.00  0.00     0.347 HD
ATOM     83  H   UNL A   1      35.356  34.752  31.228  1.00  0.00     0.347 HD
ATOM     84  N   UNL A   1      36.638  33.390  35.587  1.00  0.00    -0.264 NA
ATOM     85  C   UNL A   1      37.394  33.949  33.498  1.00  0.00     0.098 C 
ATOM     86  C   UNL A   1      37.673  34.174  35.565  1.00  0.00     0.216 C 
ATOM     87  N   UNL A   1      38.186  34.529  34.338  1.00  0.00    -0.238 NA
ENDBRANCH  75  77
ENDBRANCH  74  75
ENDBRANCH  73  74
ENDBRANCH  72  73
ENDBRANCH  71  72
ENDBRANCH  70  71
ENDBRANCH   1  70
TORSDOF 17
ENDMDL
MODEL 3
REMARK VINA RESULT:     -10.5      2.427      2.944
REMARK SMILES O=C(OCCOCCOC(=O)[C@H]1C[C@@H]2N=CN=C2C[NH2+]1)c1ccc(-c2c3nc(c(-c4cccc(S(=O)(=O)[O-])c4F)c4ccc([nH]4)c(-c4cccc(S(=O)(=O)[O-])c4F)c4nc(c(-c5cccc(S(=O)(=O)[O-])c5F)c5ccc2[nH]5)C=C4)C=C3)cc1
REMARK SMILES IDX 4 1 3 2 2 3 1 4 21 5 22 6 83 7 23 8 82 9 24 10 25 11 26 12
REMARK SMILES IDX 76 13 27 14 81 15 75 16 77 17 28 18 80 19 74 20 73 21 29 23
REMARK SMILES IDX 61 24 41 25 60 26 42 27 45 28 59 29 78 30 43 31 44 32 58 34
REMARK SMILES IDX 79 35 46 36 30 37 31 38 39 39 32 40 34 41 40 42 33 43 35 44
REMARK SMILES IDX 36 45 37 46 38 47 62 48 63 49 71 50 64 51 66 52 72 53 65 54
REMARK SMILES IDX 67 55 68 56 69 57 70 58 47 59 48 60 56 61 49 62 51 63 57 64
REMARK SMILES IDX 50 65 52 66 53 67 54 68 55 69 5 70 6 71 7 72 8 73 9 74 10 75
REMARK SMILES IDX 11 76 12 77 13 78 20 79 14 80 19 81 15 84 18 85 16 86 17 87
REMARK H PARENT 77 22 45 33 20 82 20 83
REMARK Flexibility Score: inf
ROOT
ATOM      1  C   UNL A   1      40.426  20.087  26.530  1.00  0.00     0.261 C 
ENDROOT
BRANCH   1   2
ATOM      2  O   UNL A   1      40.503  21.433  26.053  1.00  0.00    -0.460 OA
BRANCH   2   3
ATOM      3  C   UNL A   1      39.546  22.383  26.171  1.00  0.00     0.338 C 
ATOM      4  O   UNL A   1      38.508  22.258  25.525  1.00  0.00    -0.246 OA
BRANCH   3   5
ATOM      5  C   UNL A   1      39.667  23.511  27.134  1.00  0.00     0.060 A 
ATOM      6  C   UNL A   1      38.832  24.627  27.190  1.00  0.00     0.016 A 
ATOM      7  C   UNL A   1      40.787  23.457  27.974  1.00  0.00     0.016 A 
ATOM      8  C   UNL A   1      39.296  25.794  27.752  1.00  0.00     0.010 A 
ATOM      9  C   UNL A   1      41.202  24.591  28.640  1.00  0.00     0.010 A 
ATOM     10  C   UNL A   1      40.520  25.777  28.410  1.00  0.00    -0.014 A 
BRANCH  10  11
ATOM     11  C   UNL A   1      40.989  27.031  28.959  1.00  0.00     0.031 A 
ATOM     12  C   UNL A   1      42.304  27.444  28.409  1.00  0.00     0.074 A 
ATOM     13  C   UNL A   1      40.241  27.743  29.822  1.00  0.00     0.049 A 
ATOM     14  N   UNL A   1      43.427  27.556  29.038  1.00  0.00    -0.248 NA
ATOM     15  C   UNL A   1      42.425  27.538  26.944  1.00  0.00     0.031 C 
ATOM     16  C   UNL A   1      38.843  27.513  30.199  1.00  0.00     0.029 A 
ATOM     17  N   UNL A   1      40.526  28.929  30.417  1.00  0.00    -0.354 N 
ATOM     18  C   UNL A   1      44.343  27.980  28.077  1.00  0.00     0.074 A 
ATOM     19  C   UNL A   1      43.735  27.733  26.799  1.00  0.00     0.031 C 
ATOM     20  C   UNL A   1      38.331  28.661  30.695  1.00  0.00     0.029 A 
ATOM     21  C   UNL A   1      39.393  29.646  30.788  1.00  0.00     0.049 A 
ATOM     22  H   UNL A   1      41.444  29.250  30.571  1.00  0.00     0.167 HD
ATOM     23  C   UNL A   1      45.406  28.758  28.414  1.00  0.00     0.034 A 
ATOM     24  C   UNL A   1      39.333  30.979  31.026  1.00  0.00     0.034 A 
ATOM     25  C   UNL A   1      45.661  28.713  29.829  1.00  0.00     0.049 A 
ATOM     26  C   UNL A   1      40.718  31.446  31.279  1.00  0.00     0.074 A 
ATOM     27  C   UNL A   1      45.984  27.722  30.734  1.00  0.00     0.029 A 
ATOM     28  N   UNL A   1      45.207  29.777  30.572  1.00  0.00    -0.354 N 
ATOM     29  N   UNL A   1      41.416  31.087  32.319  1.00  0.00    -0.248 NA
ATOM     30  C   UNL A   1      41.489  31.933  30.145  1.00  0.00     0.031 C 
ATOM     31  C   UNL A   1      45.273  28.064  31.919  1.00  0.00     0.029 A 
ATOM     32  C   UNL A   1      44.614  29.274  31.697  1.00  0.00     0.049 A 
ATOM     33  H   UNL A   1      45.294  30.729  30.335  1.00  0.00     0.167 HD
ATOM     34  C   UNL A   1      42.690  30.857  31.814  1.00  0.00     0.074 A 
ATOM     35  C   UNL A   1      42.701  31.496  30.499  1.00  0.00     0.031 C 
ATOM     36  C   UNL A   1      43.507  29.915  32.372  1.00  0.00     0.034 A 
BRANCH  23  37
ATOM     37  C   UNL A   1      45.955  29.875  27.554  1.00  0.00     0.023 A 
ATOM     38  C   UNL A   1      47.358  30.028  27.521  1.00  0.00     0.012 A 
ATOM     39  C   UNL A   1      45.182  30.940  27.034  1.00  0.00     0.148 A 
ATOM     40  C   UNL A   1      47.957  31.207  27.064  1.00  0.00     0.002 A 
ATOM     41  C   UNL A   1      45.783  32.077  26.510  1.00  0.00     0.091 A 
ATOM     42  F   UNL A   1      43.854  30.934  27.160  1.00  0.00    -0.205 F 
ATOM     43  C   UNL A   1      47.170  32.231  26.556  1.00  0.00     0.022 A 
BRANCH  41  44
ATOM     44  S   UNL A   1      44.813  33.415  25.804  1.00  0.00     0.127 S 
ATOM     45  O   UNL A   1      45.860  34.340  25.375  1.00  0.00    -0.237 OA
ATOM     46  O   UNL A   1      44.108  32.729  24.721  1.00  0.00    -0.237 OA
ATOM     47  O   UNL A   1      43.946  33.886  26.877  1.00  0.00    -0.744 OA
ENDBRANCH  41  44
ENDBRANCH  23  37
BRANCH  24  48
ATOM     48  C   UNL A   1      38.228  31.924  30.732  1.00  0.00     0.023 A 
ATOM     49  C   UNL A   1      37.721  32.019  29.422  1.00  0.00     0.012 A 
ATOM     50  C   UNL A   1      37.491  32.532  31.776  1.00  0.00     0.148 A 
ATOM     51  C   UNL A   1      36.509  32.672  29.162  1.00  0.00     0.002 A 
ATOM     52  C   UNL A   1      36.294  33.190  31.511  1.00  0.00     0.091 A 
ATOM     53  F   UNL A   1      37.913  32.383  33.038  1.00  0.00    -0.205 F 
ATOM     54  C   UNL A   1      35.794  33.252  30.205  1.00  0.00     0.022 A 
BRANCH  52  55
ATOM     55  S   UNL A   1      35.311  33.940  32.818  1.00  0.00     0.127 S 
ATOM     56  O   UNL A   1      33.994  34.042  32.181  1.00  0.00    -0.237 OA
ATOM     57  O   UNL A   1      35.399  32.929  33.875  1.00  0.00    -0.237 OA
ATOM     58  O   UNL A   1      35.936  35.214  33.109  1.00  0.00    -0.744 OA
ENDBRANCH  52  55
ENDBRANCH  24  48
BRANCH  36  59
ATOM     59  C   UNL A   1      43.097  29.310  33.689  1.00  0.00     0.023 A 
ATOM     60  C   UNL A   1      42.181  28.241  33.783  1.00  0.00     0.012 A 
ATOM     61  C   UNL A   1      43.797  29.708  34.839  1.00  0.00     0.148 A 
ATOM     62  C   UNL A   1      41.953  27.599  35.004  1.00  0.00     0.002 A 
ATOM     63  C   UNL A   1      43.605  29.037  36.038  1.00  0.00     0.091 A 
ATOM     64  F   UNL A   1      44.670  30.721  34.729  1.00  0.00    -0.205 F 
ATOM     65  C   UNL A   1      42.676  27.988  36.129  1.00  0.00     0.022 A 
BRANCH  63  66
ATOM     66  S   UNL A   1      44.603  29.405  37.482  1.00  0.00     0.127 S 
ATOM     67  O   UNL A   1      43.853  30.495  38.101  1.00  0.00    -0.237 OA
ATOM     68  O   UNL A   1      44.568  28.140  38.218  1.00  0.00    -0.237 OA
ATOM     69  O   UNL A   1      45.924  29.759  36.976  1.00  0.00    -0.744 OA
ENDBRANCH  63  66
ENDBRANCH  36  59
ENDBRANCH  10  11
ENDBRANCH   3   5
ENDBRANCH   2   3
ENDBRANCH   1   2
BRANCH   1  70
ATOM     70  C   UNL A   1      41.756  19.341  26.372  1.00  0.00     0.202 C 
BRANCH  70  71
ATOM     71  O   UNL A   1      42.678  19.699  25.351  1.00  0.00    -0.374 OA
BRANCH  71  72
ATOM     72  C   UNL A   1      43.752  18.836  24.973  1.00  0.00     0.202 C 
BRANCH  72  73
ATOM     73  C   UNL A   1      44.674  19.150  23.788  1.00  0.00     0.261 C 
BRANCH  73  74
ATOM     74  O   UNL A   1      45.026  20.533  23.642  1.00  0.00    -0.459 OA
BRANCH  74  75
ATOM     75  C   UNL A   1      45.934  20.962  24.558  1.00  0.00     0.365 C 
ATOM     76  O   UNL A   1      47.062  20.490  24.695  1.00  0.00    -0.245 OA
BRANCH  75  77
ATOM     77  C   UNL A   1      45.501  22.192  25.336  1.00  0.00     0.296 C 
ATOM     78  C   UNL A   1      44.790  23.245  24.456  1.00  0.00     0.111 C 
ATOM     79  N   UNL A   1      44.714  21.941  26.582  1.00  0.00    -0.330 N 
ATOM     80  C   UNL A   1      44.832  24.601  25.148  1.00  0.00     0.164 C 
ATOM     81  C   UNL A   1      44.311  23.213  27.245  1.00  0.00     0.316 C 
ATOM     82  H   UNL A   1      45.285  21.397  27.229  1.00  0.00     0.347 HD
ATOM     83  H   UNL A   1      43.867  21.434  26.326  1.00  0.00     0.347 HD
ATOM     84  N   UNL A   1      46.047  25.356  24.792  1.00  0.00    -0.264 NA
ATOM     85  C   UNL A   1      45.076  24.334  26.597  1.00  0.00     0.098 C 
ATOM     86  C   UNL A   1      46.698  25.474  25.910  1.00  0.00     0.216 C 
ATOM     87  N   UNL A   1      46.153  24.898  27.034  1.00  0.00    -0.238 NA
ENDBRANCH  75  77
ENDBRANCH  74  75
ENDBRANCH  73  74
ENDBRANCH  72  73
ENDBRANCH  71  72
ENDBRANCH  70  71
ENDBRANCH   1  70
TORSDOF 17
ENDMDL
