MODEL 1
REMARK VINA RESULT:     -10.5      0.000      0.000
REMARK SMILES CC[NH2+][C@]1(C(=O)OCCOCCOC(=O)c2ccc(-c3c4nc(c(-c5cccc(S(=O)(=O)[O-])c5F)c5ccc([nH]5)c(-c5cccc(S(=O)(=O)[O-])c5F)c5nc(c(-c6cccc(S(=O)(=O)[O-])c6F)c6ccc3[nH]6)C=C5)C=C4)cc2)CC[C@@H](Sc2ccccc2C)C1
REMARK SMILES IDX 11 1 10 2 9 3 8 4 7 5 5 6 6 7 4 8 79 9 90 10 80 11 81 12
REMARK SMILES IDX 3 13 2 16 1 17 82 18 83 19 84 20 88 21 85 22 87 23 89 24
REMARK SMILES IDX 86 25 12 26 13 27 14 28 15 29 16 30 17 31 78 32 18 33 77 34
REMARK SMILES IDX 19 35 20 36 21 37 71 38 22 39 76 40 70 41 72 42 23 43 75 44
REMARK SMILES IDX 69 45 68 46 24 48 56 49 36 50 55 51 37 52 40 53 54 54 73 55
REMARK SMILES IDX 38 56 39 57 53 59 74 60 41 61 25 62 26 63 34 64 27 65 29 66
REMARK SMILES IDX 35 67 28 68 30 69 31 70 32 71 33 72 57 73 58 74 66 75 59 76
REMARK SMILES IDX 61 77 67 78 60 79 62 80 63 81 64 82 65 83 42 84 43 85 51 86
REMARK SMILES IDX 44 87 46 88 52 89 45 90 47 91 48 92 49 93 50 94
REMARK H PARENT 3 14 3 15 72 47 40 58
REMARK Flexibility Score: inf
ROOT
ATOM      1  C   UNL A   1      31.472  31.372  26.498  1.00  0.00     0.202 C 
ENDROOT
BRANCH   1   2
ATOM      2  O   UNL A   1      32.624  30.532  26.387  1.00  0.00    -0.374 OA
BRANCH   2   3
ATOM      3  C   UNL A   1      32.560  29.245  26.994  1.00  0.00     0.202 C 
BRANCH   3   4
ATOM      4  C   UNL A   1      33.625  28.226  26.584  1.00  0.00     0.261 C 
BRANCH   4   5
ATOM      5  O   UNL A   1      33.225  27.379  25.497  1.00  0.00    -0.459 OA
BRANCH   5   6
ATOM      6  C   UNL A   1      33.459  27.911  24.264  1.00  0.00     0.368 C 
ATOM      7  O   UNL A   1      34.388  28.674  24.021  1.00  0.00    -0.245 OA
BRANCH   6   8
ATOM      8  C   UNL A   1      32.432  27.474  23.195  1.00  0.00     0.195 C 
ATOM      9  C   UNL A   1      33.213  26.742  22.088  1.00  0.00     0.082 C 
ATOM     10  C   UNL A   1      31.525  26.368  23.791  1.00  0.00     0.096 C 
ATOM     11  C   UNL A   1      32.267  25.689  21.543  1.00  0.00     0.022 C 
ATOM     12  C   UNL A   1      31.415  25.261  22.736  1.00  0.00     0.059 C 
BRANCH   8  13
ATOM     13  N   UNL A   1      31.484  28.540  22.780  1.00  0.00    -0.332 N 
ATOM     14  H   UNL A   1      32.036  29.361  22.531  1.00  0.00     0.347 HD
ATOM     15  H   UNL A   1      30.947  28.131  22.016  1.00  0.00     0.347 HD
BRANCH  13  16
ATOM     16  C   UNL A   1      30.486  28.964  23.757  1.00  0.00     0.257 C 
ATOM     17  C   UNL A   1      29.347  29.660  23.020  1.00  0.00     0.071 C 
ENDBRANCH  13  16
ENDBRANCH   8  13
BRANCH  12  18
ATOM     18  S   UNL A   1      31.713  23.559  23.387  1.00  0.00    -0.122 SA
BRANCH  18  19
ATOM     19  C   UNL A   1      33.228  23.709  24.334  1.00  0.00     0.010 A 
ATOM     20  C   UNL A   1      34.435  23.632  23.619  1.00  0.00     0.015 A 
ATOM     21  C   UNL A   1      33.273  23.768  25.741  1.00  0.00    -0.038 A 
ATOM     22  C   UNL A   1      35.669  23.673  24.274  1.00  0.00     0.001 A 
ATOM     23  C   UNL A   1      34.525  23.844  26.383  1.00  0.00     0.004 A 
ATOM     24  C   UNL A   1      32.062  23.783  26.634  1.00  0.00     0.045 C 
ATOM     25  C   UNL A   1      35.713  23.794  25.657  1.00  0.00     0.000 A 
ENDBRANCH  18  19
ENDBRANCH  12  18
ENDBRANCH   6   8
ENDBRANCH   5   6
ENDBRANCH   4   5
ENDBRANCH   3   4
ENDBRANCH   2   3
ENDBRANCH   1   2
BRANCH   1  26
ATOM     26  C   UNL A   1      31.719  32.810  26.967  1.00  0.00     0.261 C 
BRANCH  26  27
ATOM     27  O   UNL A   1      33.121  33.149  26.908  1.00  0.00    -0.460 OA
BRANCH  27  28
ATOM     28  C   UNL A   1      33.638  33.670  28.046  1.00  0.00     0.338 C 
ATOM     29  O   UNL A   1      33.112  34.496  28.785  1.00  0.00    -0.246 OA
BRANCH  28  30
ATOM     30  C   UNL A   1      34.871  32.957  28.411  1.00  0.00     0.060 A 
ATOM     31  C   UNL A   1      34.751  31.645  28.889  1.00  0.00     0.016 A 
ATOM     32  C   UNL A   1      36.116  33.586  28.370  1.00  0.00     0.016 A 
ATOM     33  C   UNL A   1      35.875  30.971  29.363  1.00  0.00     0.010 A 
ATOM     34  C   UNL A   1      37.241  32.910  28.856  1.00  0.00     0.010 A 
ATOM     35  C   UNL A   1      37.121  31.612  29.382  1.00  0.00    -0.014 A 
BRANCH  35  36
ATOM     36  C   UNL A   1      38.270  30.950  30.047  1.00  0.00     0.031 A 
ATOM     37  C   UNL A   1      38.623  31.320  31.462  1.00  0.00     0.074 A 
ATOM     38  C   UNL A   1      38.982  30.014  29.396  1.00  0.00     0.049 A 
ATOM     39  N   UNL A   1      39.562  30.833  32.232  1.00  0.00    -0.248 NA
ATOM     40  C   UNL A   1      37.813  32.374  32.092  1.00  0.00     0.031 C 
ATOM     41  C   UNL A   1      38.745  29.581  28.020  1.00  0.00     0.029 A 
ATOM     42  N   UNL A   1      40.062  29.272  29.803  1.00  0.00    -0.354 N 
ATOM     43  C   UNL A   1      39.471  31.532  33.430  1.00  0.00     0.074 A 
ATOM     44  C   UNL A   1      38.394  32.488  33.278  1.00  0.00     0.031 C 
ATOM     45  C   UNL A   1      39.669  28.662  27.688  1.00  0.00     0.029 A 
ATOM     46  C   UNL A   1      40.567  28.452  28.822  1.00  0.00     0.049 A 
ATOM     47  H   UNL A   1      40.439  29.321  30.712  1.00  0.00     0.167 HD
ATOM     48  C   UNL A   1      40.201  31.378  34.560  1.00  0.00     0.034 A 
ATOM     49  C   UNL A   1      41.637  27.633  28.835  1.00  0.00     0.034 A 
ATOM     50  C   UNL A   1      41.260  30.416  34.716  1.00  0.00     0.049 A 
ATOM     51  C   UNL A   1      42.436  27.484  30.103  1.00  0.00     0.074 A 
ATOM     52  C   UNL A   1      42.023  30.151  35.839  1.00  0.00     0.029 A 
ATOM     53  N   UNL A   1      41.715  29.571  33.716  1.00  0.00    -0.354 N 
ATOM     54  N   UNL A   1      42.247  28.051  31.270  1.00  0.00    -0.248 NA
ATOM     55  C   UNL A   1      43.572  26.553  30.065  1.00  0.00     0.031 C 
ATOM     56  C   UNL A   1      42.955  29.158  35.512  1.00  0.00     0.029 A 
ATOM     57  C   UNL A   1      42.756  28.791  34.191  1.00  0.00     0.049 A 
ATOM     58  H   UNL A   1      41.351  29.530  32.802  1.00  0.00     0.167 HD
ATOM     59  C   UNL A   1      43.218  27.523  32.113  1.00  0.00     0.074 A 
ATOM     60  C   UNL A   1      43.977  26.571  31.328  1.00  0.00     0.031 C 
ATOM     61  C   UNL A   1      43.473  27.813  33.414  1.00  0.00     0.034 A 
BRANCH  48  62
ATOM     62  C   UNL A   1      39.853  32.250  35.738  1.00  0.00     0.023 A 
ATOM     63  C   UNL A   1      40.496  33.495  35.893  1.00  0.00     0.012 A 
ATOM     64  C   UNL A   1      38.855  31.869  36.655  1.00  0.00     0.148 A 
ATOM     65  C   UNL A   1      40.174  34.334  36.958  1.00  0.00     0.002 A 
ATOM     66  C   UNL A   1      38.511  32.728  37.693  1.00  0.00     0.091 A 
ATOM     67  F   UNL A   1      38.272  30.671  36.506  1.00  0.00    -0.205 F 
ATOM     68  C   UNL A   1      39.174  33.956  37.851  1.00  0.00     0.022 A 
BRANCH  66  69
ATOM     69  S   UNL A   1      37.188  32.361  38.852  1.00  0.00     0.127 S 
ATOM     70  O   UNL A   1      37.312  30.911  38.990  1.00  0.00    -0.237 OA
ATOM     71  O   UNL A   1      37.592  33.123  40.035  1.00  0.00    -0.237 OA
ATOM     72  O   UNL A   1      35.962  32.828  38.221  1.00  0.00    -0.744 OA
ENDBRANCH  66  69
ENDBRANCH  48  62
BRANCH  49  73
ATOM     73  C   UNL A   1      41.984  26.849  27.616  1.00  0.00     0.023 A 
ATOM     74  C   UNL A   1      42.604  27.492  26.528  1.00  0.00     0.012 A 
ATOM     75  C   UNL A   1      41.726  25.466  27.542  1.00  0.00     0.148 A 
ATOM     76  C   UNL A   1      42.935  26.779  25.375  1.00  0.00     0.002 A 
ATOM     77  C   UNL A   1      42.111  24.750  26.414  1.00  0.00     0.091 A 
ATOM     78  F   UNL A   1      41.116  24.876  28.579  1.00  0.00    -0.205 F 
ATOM     79  C   UNL A   1      42.700  25.407  25.322  1.00  0.00     0.022 A 
BRANCH  77  80
ATOM     80  S   UNL A   1      41.971  22.962  26.322  1.00  0.00     0.127 S 
ATOM     81  O   UNL A   1      42.753  22.540  27.481  1.00  0.00    -0.237 OA
ATOM     82  O   UNL A   1      40.526  22.764  26.445  1.00  0.00    -0.237 OA
ATOM     83  O   UNL A   1      42.513  22.596  25.020  1.00  0.00    -0.744 OA
ENDBRANCH  77  80
ENDBRANCH  49  73
BRANCH  61  84
ATOM     84  C   UNL A   1      44.609  27.078  34.079  1.00  0.00     0.023 A 
ATOM     85  C   UNL A   1      45.927  27.561  33.944  1.00  0.00     0.012 A 
ATOM     86  C   UNL A   1      44.371  25.942  34.877  1.00  0.00     0.148 A 
ATOM     87  C   UNL A   1      46.992  26.902  34.558  1.00  0.00     0.002 A 
ATOM     88  C   UNL A   1      45.431  25.318  35.525  1.00  0.00     0.091 A 
ATOM     89  F   UNL A   1      43.115  25.482  34.980  1.00  0.00    -0.205 F 
ATOM     90  C   UNL A   1      46.743  25.788  35.357  1.00  0.00     0.022 A 
BRANCH  88  91
ATOM     91  S   UNL A   1      45.183  23.934  36.644  1.00  0.00     0.127 S 
ATOM     92  O   UNL A   1      44.473  22.983  35.790  1.00  0.00    -0.237 OA
ATOM     93  O   UNL A   1      46.556  23.548  36.977  1.00  0.00    -0.237 OA
ATOM     94  O   UNL A   1      44.422  24.466  37.766  1.00  0.00    -0.744 OA
ENDBRANCH  88  91
ENDBRANCH  61  84
ENDBRANCH  35  36
ENDBRANCH  28  30
ENDBRANCH  27  28
ENDBRANCH  26  27
ENDBRANCH   1  26
TORSDOF 21
ENDMDL
MODEL 2
REMARK VINA RESULT:     -10.4      1.400      7.728
REMARK SMILES CC[NH2+][C@]1(C(=O)OCCOCCOC(=O)c2ccc(-c3c4nc(c(-c5cccc(S(=O)(=O)[O-])c5F)c5ccc([nH]5)c(-c5cccc(S(=O)(=O)[O-])c5F)c5nc(c(-c6cccc(S(=O)(=O)[O-])c6F)c6ccc3[nH]6)C=C5)C=C4)cc2)CC[C@@H](Sc2ccccc2C)C1
REMARK SMILES IDX 11 1 10 2 9 3 8 4 7 5 5 6 6 7 4 8 79 9 90 10 80 11 81 12
REMARK SMILES IDX 3 13 2 16 1 17 82 18 83 19 84 20 88 21 85 22 87 23 89 24
REMARK SMILES IDX 86 25 12 26 13 27 14 28 15 29 16 30 17 31 78 32 18 33 77 34
REMARK SMILES IDX 19 35 20 36 21 37 71 38 22 39 76 40 70 41 72 42 23 43 75 44
REMARK SMILES IDX 69 45 68 46 24 48 56 49 36 50 55 51 37 52 40 53 54 54 73 55
REMARK SMILES IDX 38 56 39 57 53 59 74 60 41 61 25 62 26 63 34 64 27 65 29 66
REMARK SMILES IDX 35 67 28 68 30 69 31 70 32 71 33 72 57 73 58 74 66 75 59 76
REMARK SMILES IDX 61 77 67 78 60 79 62 80 63 81 64 82 65 83 42 84 43 85 51 86
REMARK SMILES IDX 44 87 46 88 52 89 45 90 47 91 48 92 49 93 50 94
REMARK H PARENT 3 14 3 15 72 47 40 58
REMARK Flexibility Score: inf
ROOT
ATOM      1  C   UNL A   1      31.501  29.637  24.998  1.00  0.00     0.202 C 
ENDROOT
BRANCH   1   2
ATOM      2  O   UNL A   1      32.644  28.777  24.967  1.00  0.00    -0.374 OA
BRANCH   2   3
ATOM      3  C   UNL A   1      33.391  28.718  23.756  1.00  0.00     0.202 C 
BRANCH   3   4
ATOM      4  C   UNL A   1      33.571  27.342  23.113  1.00  0.00     0.261 C 
BRANCH   4   5
ATOM      5  O   UNL A   1      33.674  26.270  24.062  1.00  0.00    -0.459 OA
BRANCH   5   6
ATOM      6  C   UNL A   1      33.104  25.105  23.645  1.00  0.00     0.368 C 
ATOM      7  O   UNL A   1      33.397  24.545  22.593  1.00  0.00    -0.245 OA
BRANCH   6   8
ATOM      8  C   UNL A   1      32.036  24.553  24.618  1.00  0.00     0.195 C 
ATOM      9  C   UNL A   1      31.837  23.065  24.278  1.00  0.00     0.082 C 
ATOM     10  C   UNL A   1      32.629  24.522  26.050  1.00  0.00     0.096 C 
ATOM     11  C   UNL A   1      31.497  22.384  25.589  1.00  0.00     0.022 C 
ATOM     12  C   UNL A   1      32.268  23.160  26.654  1.00  0.00     0.059 C 
BRANCH   8  13
ATOM     13  N   UNL A   1      30.822  25.400  24.743  1.00  0.00    -0.332 N 
ATOM     14  H   UNL A   1      30.182  24.926  25.379  1.00  0.00     0.347 HD
ATOM     15  H   UNL A   1      31.165  26.305  25.067  1.00  0.00     0.347 HD
BRANCH  13  16
ATOM     16  C   UNL A   1      30.085  25.694  23.519  1.00  0.00     0.257 C 
ATOM     17  C   UNL A   1      29.425  27.062  23.663  1.00  0.00     0.071 C 
ENDBRANCH  13  16
ENDBRANCH   8  13
BRANCH  12  18
ATOM     18  S   UNL A   1      33.686  22.281  27.445  1.00  0.00    -0.122 SA
BRANCH  18  19
ATOM     19  C   UNL A   1      34.994  22.368  26.223  1.00  0.00     0.010 A 
ATOM     20  C   UNL A   1      35.805  23.516  26.240  1.00  0.00     0.015 A 
ATOM     21  C   UNL A   1      35.166  21.429  25.187  1.00  0.00    -0.038 A 
ATOM     22  C   UNL A   1      36.809  23.707  25.288  1.00  0.00     0.001 A 
ATOM     23  C   UNL A   1      36.206  21.621  24.255  1.00  0.00     0.004 A 
ATOM     24  C   UNL A   1      34.324  20.195  25.004  1.00  0.00     0.045 C 
ATOM     25  C   UNL A   1      37.019  22.750  24.303  1.00  0.00     0.000 A 
ENDBRANCH  18  19
ENDBRANCH  12  18
ENDBRANCH   6   8
ENDBRANCH   5   6
ENDBRANCH   4   5
ENDBRANCH   3   4
ENDBRANCH   2   3
ENDBRANCH   1   2
BRANCH   1  26
ATOM     26  C   UNL A   1      31.544  30.793  26.003  1.00  0.00     0.261 C 
BRANCH  26  27
ATOM     27  O   UNL A   1      32.576  30.593  26.991  1.00  0.00    -0.460 OA
BRANCH  27  28
ATOM     28  C   UNL A   1      33.302  31.694  27.300  1.00  0.00     0.338 C 
ATOM     29  O   UNL A   1      32.905  32.853  27.337  1.00  0.00    -0.246 OA
BRANCH  28  30
ATOM     30  C   UNL A   1      34.630  31.299  27.794  1.00  0.00     0.060 A 
ATOM     31  C   UNL A   1      34.821  29.959  28.157  1.00  0.00     0.016 A 
ATOM     32  C   UNL A   1      35.646  32.237  27.981  1.00  0.00     0.016 A 
ATOM     33  C   UNL A   1      36.021  29.561  28.744  1.00  0.00     0.010 A 
ATOM     34  C   UNL A   1      36.845  31.836  28.581  1.00  0.00     0.010 A 
ATOM     35  C   UNL A   1      37.027  30.504  28.993  1.00  0.00    -0.014 A 
BRANCH  35  36
ATOM     36  C   UNL A   1      38.223  30.104  29.773  1.00  0.00     0.031 A 
ATOM     37  C   UNL A   1      39.187  29.104  29.196  1.00  0.00     0.074 A 
ATOM     38  C   UNL A   1      38.455  30.644  30.983  1.00  0.00     0.049 A 
ATOM     39  N   UNL A   1      40.307  28.653  29.698  1.00  0.00    -0.248 NA
ATOM     40  C   UNL A   1      38.845  28.539  27.881  1.00  0.00     0.031 C 
ATOM     41  C   UNL A   1      37.588  31.612  31.653  1.00  0.00     0.029 A 
ATOM     42  N   UNL A   1      39.482  30.439  31.869  1.00  0.00    -0.354 N 
ATOM     43  C   UNL A   1      40.796  27.737  28.773  1.00  0.00     0.074 A 
ATOM     44  C   UNL A   1      39.841  27.686  27.686  1.00  0.00     0.031 C 
ATOM     45  C   UNL A   1      38.109  31.901  32.858  1.00  0.00     0.029 A 
ATOM     46  C   UNL A   1      39.337  31.131  33.048  1.00  0.00     0.049 A 
ATOM     47  H   UNL A   1      40.249  29.852  31.679  1.00  0.00     0.167 HD
ATOM     48  C   UNL A   1      41.944  27.021  28.814  1.00  0.00     0.034 A 
ATOM     49  C   UNL A   1      40.103  31.136  34.156  1.00  0.00     0.034 A 
ATOM     50  C   UNL A   1      42.902  27.084  29.887  1.00  0.00     0.049 A 
ATOM     51  C   UNL A   1      41.373  30.326  34.178  1.00  0.00     0.074 A 
ATOM     52  C   UNL A   1      44.119  26.434  29.994  1.00  0.00     0.029 A 
ATOM     53  N   UNL A   1      42.745  27.830  31.044  1.00  0.00    -0.354 N 
ATOM     54  N   UNL A   1      41.890  29.575  33.236  1.00  0.00    -0.248 NA
ATOM     55  C   UNL A   1      42.183  30.396  35.402  1.00  0.00     0.031 C 
ATOM     56  C   UNL A   1      44.689  26.773  31.227  1.00  0.00     0.029 A 
ATOM     57  C   UNL A   1      43.837  27.650  31.878  1.00  0.00     0.049 A 
ATOM     58  H   UNL A   1      41.971  28.406  31.245  1.00  0.00     0.167 HD
ATOM     59  C   UNL A   1      43.100  29.109  33.740  1.00  0.00     0.074 A 
ATOM     60  C   UNL A   1      43.249  29.685  35.060  1.00  0.00     0.031 C 
ATOM     61  C   UNL A   1      43.996  28.265  33.170  1.00  0.00     0.034 A 
BRANCH  48  62
ATOM     62  C   UNL A   1      42.251  26.128  27.640  1.00  0.00     0.023 A 
ATOM     63  C   UNL A   1      42.995  26.639  26.557  1.00  0.00     0.012 A 
ATOM     64  C   UNL A   1      41.857  24.776  27.632  1.00  0.00     0.148 A 
ATOM     65  C   UNL A   1      43.317  25.827  25.470  1.00  0.00     0.002 A 
ATOM     66  C   UNL A   1      42.216  23.962  26.563  1.00  0.00     0.091 A 
ATOM     67  F   UNL A   1      41.130  24.315  28.659  1.00  0.00    -0.205 F 
ATOM     68  C   UNL A   1      42.937  24.487  25.478  1.00  0.00     0.022 A 
BRANCH  66  69
ATOM     69  S   UNL A   1      41.834  22.207  26.515  1.00  0.00     0.127 S 
ATOM     70  O   UNL A   1      42.310  21.767  27.826  1.00  0.00    -0.237 OA
ATOM     71  O   UNL A   1      40.378  22.210  26.365  1.00  0.00    -0.237 OA
ATOM     72  O   UNL A   1      42.560  21.670  25.373  1.00  0.00    -0.744 OA
ENDBRANCH  66  69
ENDBRANCH  48  62
BRANCH  49  73
ATOM     73  C   UNL A   1      39.715  31.979  35.322  1.00  0.00     0.023 A 
ATOM     74  C   UNL A   1      40.172  33.308  35.402  1.00  0.00     0.012 A 
ATOM     75  C   UNL A   1      38.876  31.478  36.336  1.00  0.00     0.148 A 
ATOM     76  C   UNL A   1      39.824  34.115  36.486  1.00  0.00     0.002 A 
ATOM     77  C   UNL A   1      38.486  32.305  37.383  1.00  0.00     0.091 A 
ATOM     78  F   UNL A   1      38.469  30.204  36.253  1.00  0.00    -0.205 F 
ATOM     79  C   UNL A   1      38.972  33.618  37.470  1.00  0.00     0.022 A 
BRANCH  77  80
ATOM     80  S   UNL A   1      37.284  31.788  38.614  1.00  0.00     0.127 S 
ATOM     81  O   UNL A   1      37.032  30.404  38.224  1.00  0.00    -0.237 OA
ATOM     82  O   UNL A   1      38.035  31.954  39.859  1.00  0.00    -0.237 OA
ATOM     83  O   UNL A   1      36.161  32.706  38.470  1.00  0.00    -0.744 OA
ENDBRANCH  77  80
ENDBRANCH  49  73
BRANCH  61  84
ATOM     84  C   UNL A   1      45.232  27.926  33.964  1.00  0.00     0.023 A 
ATOM     85  C   UNL A   1      46.374  28.747  33.864  1.00  0.00     0.012 A 
ATOM     86  C   UNL A   1      45.250  26.827  34.846  1.00  0.00     0.148 A 
ATOM     87  C   UNL A   1      47.525  28.456  34.596  1.00  0.00     0.002 A 
ATOM     88  C   UNL A   1      46.385  26.571  35.607  1.00  0.00     0.091 A 
ATOM     89  F   UNL A   1      44.164  26.042  34.915  1.00  0.00    -0.205 F 
ATOM     90  C   UNL A   1      47.527  27.377  35.475  1.00  0.00     0.022 A 
BRANCH  88  91
ATOM     91  S   UNL A   1      46.436  25.254  36.829  1.00  0.00     0.127 S 
ATOM     92  O   UNL A   1      47.798  25.379  37.346  1.00  0.00    -0.237 OA
ATOM     93  O   UNL A   1      45.388  25.657  37.770  1.00  0.00    -0.237 OA
ATOM     94  O   UNL A   1      46.146  24.027  36.099  1.00  0.00    -0.744 OA
ENDBRANCH  88  91
ENDBRANCH  61  84
ENDBRANCH  35  36
ENDBRANCH  28  30
ENDBRANCH  27  28
ENDBRANCH  26  27
ENDBRANCH   1  26
TORSDOF 21
ENDMDL
MODEL 3
REMARK VINA RESULT:     -10.2      1.821      2.128
REMARK SMILES CC[NH2+][C@]1(C(=O)OCCOCCOC(=O)c2ccc(-c3c4nc(c(-c5cccc(S(=O)(=O)[O-])c5F)c5ccc([nH]5)c(-c5cccc(S(=O)(=O)[O-])c5F)c5nc(c(-c6cccc(S(=O)(=O)[O-])c6F)c6ccc3[nH]6)C=C5)C=C4)cc2)CC[C@@H](Sc2ccccc2C)C1
REMARK SMILES IDX 11 1 10 2 9 3 8 4 7 5 5 6 6 7 4 8 79 9 90 10 80 11 81 12
REMARK SMILES IDX 3 13 2 16 1 17 82 18 83 19 84 20 88 21 85 22 87 23 89 24
REMARK SMILES IDX 86 25 12 26 13 27 14 28 15 29 16 30 17 31 78 32 18 33 77 34
REMARK SMILES IDX 19 35 20 36 21 37 71 38 22 39 76 40 70 41 72 42 23 43 75 44
REMARK SMILES IDX 69 45 68 46 24 48 56 49 36 50 55 51 37 52 40 53 54 54 73 55
REMARK SMILES IDX 38 56 39 57 53 59 74 60 41 61 25 62 26 63 34 64 27 65 29 66
REMARK SMILES IDX 35 67 28 68 30 69 31 70 32 71 33 72 57 73 58 74 66 75 59 76
REMARK SMILES IDX 61 77 67 78 60 79 62 80 63 81 64 82 65 83 42 84 43 85 51 86
REMARK SMILES IDX 44 87 46 88 52 89 45 90 47 91 48 92 49 93 50 94
REMARK H PARENT 3 14 3 15 72 47 40 58
REMARK Flexibility Score: inf
ROOT
ATOM      1  C   UNL A   1      31.205  31.166  26.284  1.00  0.00     0.202 C 
ENDROOT
BRANCH   1   2
ATOM      2  O   UNL A   1      32.380  30.354  26.212  1.00  0.00    -0.374 OA
BRANCH   2   3
ATOM      3  C   UNL A   1      32.367  29.114  26.913  1.00  0.00     0.202 C 
BRANCH   3   4
ATOM      4  C   UNL A   1      33.482  28.118  26.590  1.00  0.00     0.261 C 
BRANCH   4   5
ATOM      5  O   UNL A   1      33.158  27.215  25.523  1.00  0.00    -0.459 OA
BRANCH   5   6
ATOM      6  C   UNL A   1      33.478  27.683  24.283  1.00  0.00     0.368 C 
ATOM      7  O   UNL A   1      34.418  28.443  24.068  1.00  0.00    -0.245 OA
BRANCH   6   8
ATOM      8  C   UNL A   1      32.536  27.180  23.167  1.00  0.00     0.195 C 
ATOM      9  C   UNL A   1      33.420  26.537  22.082  1.00  0.00     0.082 C 
ATOM     10  C   UNL A   1      31.705  25.989  23.709  1.00  0.00     0.096 C 
ATOM     11  C   UNL A   1      32.590  25.418  21.484  1.00  0.00     0.022 C 
ATOM     12  C   UNL A   1      31.733  24.897  22.635  1.00  0.00     0.059 C 
BRANCH   8  13
ATOM     13  N   UNL A   1      31.517  28.168  22.729  1.00  0.00    -0.332 N 
ATOM     14  H   UNL A   1      32.007  29.031  22.495  1.00  0.00     0.347 HD
ATOM     15  H   UNL A   1      31.033  27.720  21.951  1.00  0.00     0.347 HD
BRANCH  13  16
ATOM     16  C   UNL A   1      30.464  28.508  23.681  1.00  0.00     0.257 C 
ATOM     17  C   UNL A   1      29.117  28.425  22.969  1.00  0.00     0.071 C 
ENDBRANCH  13  16
ENDBRANCH   8  13
BRANCH  12  18
ATOM     18  S   UNL A   1      32.151  23.215  23.272  1.00  0.00    -0.122 SA
BRANCH  18  19
ATOM     19  C   UNL A   1      33.769  23.417  24.018  1.00  0.00     0.010 A 
ATOM     20  C   UNL A   1      34.882  23.184  23.194  1.00  0.00     0.015 A 
ATOM     21  C   UNL A   1      33.976  23.664  25.389  1.00  0.00    -0.038 A 
ATOM     22  C   UNL A   1      36.183  23.252  23.698  1.00  0.00     0.001 A 
ATOM     23  C   UNL A   1      35.296  23.763  25.874  1.00  0.00     0.004 A 
ATOM     24  C   UNL A   1      32.877  23.860  26.398  1.00  0.00     0.045 C 
ATOM     25  C   UNL A   1      36.390  23.557  25.038  1.00  0.00     0.000 A 
ENDBRANCH  18  19
ENDBRANCH  12  18
ENDBRANCH   6   8
ENDBRANCH   5   6
ENDBRANCH   4   5
ENDBRANCH   3   4
ENDBRANCH   2   3
ENDBRANCH   1   2
BRANCH   1  26
ATOM     26  C   UNL A   1      31.411  32.630  26.687  1.00  0.00     0.261 C 
BRANCH  26  27
ATOM     27  O   UNL A   1      32.805  33.000  26.630  1.00  0.00    -0.460 OA
BRANCH  27  28
ATOM     28  C   UNL A   1      33.298  33.570  27.755  1.00  0.00     0.338 C 
ATOM     29  O   UNL A   1      32.745  34.406  28.462  1.00  0.00    -0.246 OA
BRANCH  28  30
ATOM     30  C   UNL A   1      34.544  32.899  28.154  1.00  0.00     0.060 A 
ATOM     31  C   UNL A   1      34.453  31.590  28.648  1.00  0.00     0.016 A 
ATOM     32  C   UNL A   1      35.770  33.564  28.128  1.00  0.00     0.016 A 
ATOM     33  C   UNL A   1      35.587  30.957  29.153  1.00  0.00     0.010 A 
ATOM     34  C   UNL A   1      36.905  32.929  28.646  1.00  0.00     0.010 A 
ATOM     35  C   UNL A   1      36.813  31.635  29.188  1.00  0.00    -0.014 A 
BRANCH  35  36
ATOM     36  C   UNL A   1      37.967  31.017  29.885  1.00  0.00     0.031 A 
ATOM     37  C   UNL A   1      38.280  31.414  31.302  1.00  0.00     0.074 A 
ATOM     38  C   UNL A   1      38.721  30.095  29.260  1.00  0.00     0.049 A 
ATOM     39  N   UNL A   1      39.217  30.966  32.097  1.00  0.00    -0.248 NA
ATOM     40  C   UNL A   1      37.426  32.451  31.901  1.00  0.00     0.031 C 
ATOM     41  C   UNL A   1      38.526  29.638  27.885  1.00  0.00     0.029 A 
ATOM     42  N   UNL A   1      39.814  29.391  29.699  1.00  0.00    -0.354 N 
ATOM     43  C   UNL A   1      39.080  31.676  33.284  1.00  0.00     0.074 A 
ATOM     44  C   UNL A   1      37.978  32.597  33.097  1.00  0.00     0.031 C 
ATOM     45  C   UNL A   1      39.484  28.744  27.584  1.00  0.00     0.029 A 
ATOM     46  C   UNL A   1      40.364  28.576  28.739  1.00  0.00     0.049 A 
ATOM     47  H   UNL A   1      40.171  29.463  30.614  1.00  0.00     0.167 HD
ATOM     48  C   UNL A   1      39.790  31.559  34.430  1.00  0.00     0.034 A 
ATOM     49  C   UNL A   1      41.458  27.790  28.784  1.00  0.00     0.034 A 
ATOM     50  C   UNL A   1      40.875  30.632  34.620  1.00  0.00     0.049 A 
ATOM     51  C   UNL A   1      42.235  27.681  30.070  1.00  0.00     0.074 A 
ATOM     52  C   UNL A   1      41.623  30.404  35.762  1.00  0.00     0.029 A 
ATOM     53  N   UNL A   1      41.376  29.788  33.641  1.00  0.00    -0.354 N 
ATOM     54  N   UNL A   1      42.004  28.256  31.226  1.00  0.00    -0.248 NA
ATOM     55  C   UNL A   1      43.400  26.785  30.067  1.00  0.00     0.031 C 
ATOM     56  C   UNL A   1      42.590  29.436  35.467  1.00  0.00     0.029 A 
ATOM     57  C   UNL A   1      42.430  29.047  34.147  1.00  0.00     0.049 A 
ATOM     58  H   UNL A   1      41.032  29.726  32.720  1.00  0.00     0.167 HD
ATOM     59  C   UNL A   1      42.974  27.768  32.095  1.00  0.00     0.074 A 
ATOM     60  C   UNL A   1      43.777  26.830  31.338  1.00  0.00     0.031 C 
ATOM     61  C   UNL A   1      43.193  28.082  33.397  1.00  0.00     0.034 A 
BRANCH  48  62
ATOM     62  C   UNL A   1      39.392  32.434  35.590  1.00  0.00     0.023 A 
ATOM     63  C   UNL A   1      38.571  31.905  36.607  1.00  0.00     0.012 A 
ATOM     64  C   UNL A   1      39.872  33.752  35.704  1.00  0.00     0.148 A 
ATOM     65  C   UNL A   1      38.211  32.683  37.705  1.00  0.00     0.002 A 
ATOM     66  C   UNL A   1      39.540  34.510  36.823  1.00  0.00     0.091 A 
ATOM     67  F   UNL A   1      40.631  34.245  34.716  1.00  0.00    -0.205 F 
ATOM     68  C   UNL A   1      38.703  33.981  37.819  1.00  0.00     0.022 A 
BRANCH  66  69
ATOM     69  S   UNL A   1      40.184  36.166  37.093  1.00  0.00     0.127 S 
ATOM     70  O   UNL A   1      39.380  36.611  38.231  1.00  0.00    -0.237 OA
ATOM     71  O   UNL A   1      41.590  35.905  37.405  1.00  0.00    -0.237 OA
ATOM     72  O   UNL A   1      39.963  36.889  35.849  1.00  0.00    -0.744 OA
ENDBRANCH  66  69
ENDBRANCH  48  62
BRANCH  49  73
ATOM     73  C   UNL A   1      41.854  27.002  27.583  1.00  0.00     0.023 A 
ATOM     74  C   UNL A   1      42.472  27.652  26.497  1.00  0.00     0.012 A 
ATOM     75  C   UNL A   1      41.645  25.610  27.523  1.00  0.00     0.148 A 
ATOM     76  C   UNL A   1      42.848  26.934  25.360  1.00  0.00     0.002 A 
ATOM     77  C   UNL A   1      42.075  24.893  26.413  1.00  0.00     0.091 A 
ATOM     78  F   UNL A   1      41.037  25.014  28.558  1.00  0.00    -0.205 F 
ATOM     79  C   UNL A   1      42.661  25.555  25.323  1.00  0.00     0.022 A 
BRANCH  77  80
ATOM     80  S   UNL A   1      41.997  23.100  26.343  1.00  0.00     0.127 S 
ATOM     81  O   UNL A   1      40.559  22.859  26.409  1.00  0.00    -0.237 OA
ATOM     82  O   UNL A   1      42.613  22.820  25.045  1.00  0.00    -0.237 OA
ATOM     83  O   UNL A   1      42.775  22.633  27.484  1.00  0.00    -0.744 OA
ENDBRANCH  77  80
ENDBRANCH  49  73
BRANCH  61  84
ATOM     84  C   UNL A   1      44.337  27.391  34.095  1.00  0.00     0.023 A 
ATOM     85  C   UNL A   1      44.115  26.162  34.749  1.00  0.00     0.012 A 
ATOM     86  C   UNL A   1      45.638  27.929  34.062  1.00  0.00     0.148 A 
ATOM     87  C   UNL A   1      45.161  25.502  35.394  1.00  0.00     0.002 A 
ATOM     88  C   UNL A   1      46.685  27.242  34.667  1.00  0.00     0.091 A 
ATOM     89  F   UNL A   1      45.830  29.109  33.454  1.00  0.00    -0.205 F 
ATOM     90  C   UNL A   1      46.446  26.035  35.343  1.00  0.00     0.022 A 
BRANCH  88  91
ATOM     91  S   UNL A   1      48.385  27.815  34.568  1.00  0.00     0.127 S 
ATOM     92  O   UNL A   1      48.677  27.640  33.146  1.00  0.00    -0.237 OA
ATOM     93  O   UNL A   1      48.273  29.210  35.000  1.00  0.00    -0.237 OA
ATOM     94  O   UNL A   1      49.141  26.966  35.478  1.00  0.00    -0.744 OA
ENDBRANCH  88  91
ENDBRANCH  61  84
ENDBRANCH  35  36
ENDBRANCH  28  30
ENDBRANCH  27  28
ENDBRANCH  26  27
ENDBRANCH   1  26
TORSDOF 21
ENDMDL
