MODEL 1
REMARK VINA RESULT:     -11.1      0.000      0.000
REMARK SMILES CC[NH2+][C@@]1(C(=O)OCCOCCOC(=O)c2ccc(-c3c4nc(c(-c5cccc(S(=O)(=O)[O-])c5F)c5ccc([nH]5)c(-c5cccc(S(=O)(=O)[O-])c5F)c5nc(c(-c6cccc(S(=O)(=O)[O-])c6F)c6ccc3[nH]6)C=C5)C=C4)cc2)CCC[C@@H]1CC[NH+]1CCS(=O)(=O)CC1
REMARK SMILES IDX 10 1 9 2 8 3 7 4 5 5 6 6 4 7 79 8 82 9 80 10 81 11 3 12 2 15
REMARK SMILES IDX 1 16 83 17 84 18 85 19 86 20 92 21 87 23 91 24 88 25 89 26
REMARK SMILES IDX 90 27 11 28 12 29 13 30 14 31 15 32 16 33 17 34 78 35 18 36
REMARK SMILES IDX 77 37 19 38 20 39 21 40 71 41 22 42 76 43 70 44 72 45 23 46
REMARK SMILES IDX 75 47 69 48 68 49 24 51 56 52 36 53 55 54 37 55 40 56 54 57
REMARK SMILES IDX 73 58 38 59 39 60 53 62 74 63 41 64 25 65 26 66 34 67 27 68
REMARK SMILES IDX 29 69 35 70 28 71 30 72 31 73 32 74 33 75 57 76 58 77 66 78
REMARK SMILES IDX 59 79 61 80 67 81 60 82 62 83 63 84 64 85 65 86 42 87 43 88
REMARK SMILES IDX 51 89 44 90 46 91 52 92 45 93 47 94 48 95 49 96 50 97
REMARK H PARENT 3 13 3 14 85 22 72 50 40 61
REMARK Flexibility Score: inf
ROOT
ATOM      1  O   UNL A   1      30.903  29.608  24.250  1.00  0.00    -0.374 OA
ENDROOT
BRANCH   1   2
ATOM      2  C   UNL A   1      30.470  28.346  23.735  1.00  0.00     0.202 C 
BRANCH   2   3
ATOM      3  C   UNL A   1      31.616  27.574  22.992  1.00  0.00     0.261 C 
BRANCH   3   4
ATOM      4  O   UNL A   1      32.162  26.518  23.844  1.00  0.00    -0.459 OA
BRANCH   4   5
ATOM      5  C   UNL A   1      32.467  25.272  23.346  1.00  0.00     0.368 C 
ATOM      6  O   UNL A   1      32.640  25.040  22.155  1.00  0.00    -0.245 OA
BRANCH   5   7
ATOM      7  C   UNL A   1      32.527  24.174  24.479  1.00  0.00     0.197 C 
ATOM      8  C   UNL A   1      33.364  24.747  25.631  1.00  0.00     0.081 C 
ATOM      9  C   UNL A   1      33.377  22.954  24.112  1.00  0.00     0.068 C 
ATOM     10  C   UNL A   1      34.802  24.667  25.101  1.00  0.00     0.008 C 
ATOM     11  C   UNL A   1      34.825  23.485  24.104  1.00  0.00     0.011 C 
BRANCH   7  12
ATOM     12  N   UNL A   1      31.242  23.561  24.889  1.00  0.00    -0.332 N 
ATOM     13  H   UNL A   1      30.555  23.816  24.180  1.00  0.00     0.347 HD
ATOM     14  H   UNL A   1      31.477  22.574  24.986  1.00  0.00     0.347 HD
BRANCH  12  15
ATOM     15  C   UNL A   1      30.655  23.885  26.172  1.00  0.00     0.257 C 
ATOM     16  C   UNL A   1      29.846  25.179  25.988  1.00  0.00     0.071 C 
ENDBRANCH  12  15
ENDBRANCH   7  12
BRANCH   9  17
ATOM     17  C   UNL A   1      32.853  22.011  23.010  1.00  0.00     0.072 C 
BRANCH  17  18
ATOM     18  C   UNL A   1      32.149  20.640  23.237  1.00  0.00     0.262 C 
BRANCH  18  19
ATOM     19  N   UNL A   1      32.525  19.321  23.756  1.00  0.00    -0.333 N 
ATOM     20  C   UNL A   1      32.390  19.008  25.158  1.00  0.00     0.278 C 
ATOM     21  C   UNL A   1      32.523  18.127  22.916  1.00  0.00     0.278 C 
ATOM     22  H   UNL A   1      33.470  19.684  23.638  1.00  0.00     0.348 HD
ATOM     23  C   UNL A   1      33.590  18.206  25.651  1.00  0.00     0.198 C 
ATOM     24  C   UNL A   1      33.739  17.240  23.086  1.00  0.00     0.198 C 
ATOM     25  S   UNL A   1      33.792  16.683  24.753  1.00  0.00     0.161 S 
ATOM     26  O   UNL A   1      35.131  16.182  25.011  1.00  0.00    -0.228 OA
ATOM     27  O   UNL A   1      32.641  15.833  24.998  1.00  0.00    -0.228 OA
ENDBRANCH  18  19
ENDBRANCH  17  18
ENDBRANCH   9  17
ENDBRANCH   5   7
ENDBRANCH   4   5
ENDBRANCH   3   4
ENDBRANCH   2   3
ENDBRANCH   1   2
BRANCH   1  28
ATOM     28  C   UNL A   1      31.867  29.763  25.302  1.00  0.00     0.202 C 
BRANCH  28  29
ATOM     29  C   UNL A   1      31.780  30.905  26.339  1.00  0.00     0.261 C 
BRANCH  29  30
ATOM     30  O   UNL A   1      32.775  30.815  27.344  1.00  0.00    -0.460 OA
BRANCH  30  31
ATOM     31  C   UNL A   1      33.452  31.973  27.511  1.00  0.00     0.338 C 
ATOM     32  O   UNL A   1      32.994  33.088  27.618  1.00  0.00    -0.246 OA
BRANCH  31  33
ATOM     33  C   UNL A   1      34.798  31.559  27.923  1.00  0.00     0.060 A 
ATOM     34  C   UNL A   1      35.006  30.185  28.086  1.00  0.00     0.016 A 
ATOM     35  C   UNL A   1      35.850  32.481  28.011  1.00  0.00     0.016 A 
ATOM     36  C   UNL A   1      36.265  29.728  28.423  1.00  0.00     0.010 A 
ATOM     37  C   UNL A   1      37.108  32.028  28.373  1.00  0.00     0.010 A 
ATOM     38  C   UNL A   1      37.284  30.662  28.649  1.00  0.00    -0.014 A 
BRANCH  38  39
ATOM     39  C   UNL A   1      38.364  30.257  29.557  1.00  0.00     0.031 A 
ATOM     40  C   UNL A   1      39.347  29.260  29.013  1.00  0.00     0.074 A 
ATOM     41  C   UNL A   1      38.481  30.798  30.776  1.00  0.00     0.049 A 
ATOM     42  N   UNL A   1      40.385  28.724  29.588  1.00  0.00    -0.248 NA
ATOM     43  C   UNL A   1      39.131  28.808  27.623  1.00  0.00     0.031 C 
ATOM     44  C   UNL A   1      37.586  31.800  31.351  1.00  0.00     0.029 A 
ATOM     45  N   UNL A   1      39.404  30.558  31.755  1.00  0.00    -0.354 N 
ATOM     46  C   UNL A   1      40.921  27.854  28.646  1.00  0.00     0.074 A 
ATOM     47  C   UNL A   1      40.098  27.922  27.465  1.00  0.00     0.031 C 
ATOM     48  C   UNL A   1      37.987  32.065  32.608  1.00  0.00     0.029 A 
ATOM     49  C   UNL A   1      39.142  31.228  32.922  1.00  0.00     0.049 A 
ATOM     50  H   UNL A   1      40.179  29.963  31.634  1.00  0.00     0.167 HD
ATOM     51  C   UNL A   1      42.013  27.070  28.760  1.00  0.00     0.034 A 
ATOM     52  C   UNL A   1      39.758  31.133  34.116  1.00  0.00     0.034 A 
ATOM     53  C   UNL A   1      42.814  27.021  29.947  1.00  0.00     0.049 A 
ATOM     54  C   UNL A   1      40.944  30.211  34.233  1.00  0.00     0.074 A 
ATOM     55  C   UNL A   1      43.958  26.287  30.182  1.00  0.00     0.029 A 
ATOM     56  N   UNL A   1      42.532  27.725  31.108  1.00  0.00    -0.354 N 
ATOM     57  N   UNL A   1      41.501  29.460  33.312  1.00  0.00    -0.248 NA
ATOM     58  C   UNL A   1      41.603  30.144  35.543  1.00  0.00     0.031 C 
ATOM     59  C   UNL A   1      44.345  26.514  31.505  1.00  0.00     0.029 A 
ATOM     60  C   UNL A   1      43.470  27.427  32.076  1.00  0.00     0.049 A 
ATOM     61  H   UNL A   1      41.776  28.345  31.225  1.00  0.00     0.167 HD
ATOM     62  C   UNL A   1      42.596  28.857  33.920  1.00  0.00     0.074 A 
ATOM     63  C   UNL A   1      42.632  29.348  35.284  1.00  0.00     0.031 C 
ATOM     64  C   UNL A   1      43.490  27.973  33.409  1.00  0.00     0.034 A 
BRANCH  51  65
ATOM     65  C   UNL A   1      42.373  26.200  27.589  1.00  0.00     0.023 A 
ATOM     66  C   UNL A   1      43.134  26.722  26.523  1.00  0.00     0.012 A 
ATOM     67  C   UNL A   1      41.967  24.853  27.555  1.00  0.00     0.148 A 
ATOM     68  C   UNL A   1      43.462  25.922  25.429  1.00  0.00     0.002 A 
ATOM     69  C   UNL A   1      42.340  24.050  26.487  1.00  0.00     0.091 A 
ATOM     70  F   UNL A   1      41.209  24.390  28.560  1.00  0.00    -0.205 F 
ATOM     71  C   UNL A   1      43.076  24.584  25.417  1.00  0.00     0.022 A 
BRANCH  69  72
ATOM     72  S   UNL A   1      41.955  22.298  26.416  1.00  0.00     0.127 S 
ATOM     73  O   UNL A   1      40.499  22.320  26.294  1.00  0.00    -0.237 OA
ATOM     74  O   UNL A   1      42.662  21.880  25.205  1.00  0.00    -0.237 OA
ATOM     75  O   UNL A   1      42.467  21.721  27.651  1.00  0.00    -0.744 OA
ENDBRANCH  69  72
ENDBRANCH  51  65
BRANCH  52  76
ATOM     76  C   UNL A   1      39.262  31.922  35.276  1.00  0.00     0.023 A 
ATOM     77  C   UNL A   1      38.322  31.360  36.158  1.00  0.00     0.012 A 
ATOM     78  C   UNL A   1      39.737  33.227  35.517  1.00  0.00     0.148 A 
ATOM     79  C   UNL A   1      37.837  32.094  37.241  1.00  0.00     0.002 A 
ATOM     80  C   UNL A   1      39.295  33.932  36.628  1.00  0.00     0.091 A 
ATOM     81  F   UNL A   1      40.623  33.749  34.656  1.00  0.00    -0.205 F 
ATOM     82  C   UNL A   1      38.330  33.375  37.482  1.00  0.00     0.022 A 
BRANCH  80  83
ATOM     83  S   UNL A   1      39.969  35.533  37.082  1.00  0.00     0.127 S 
ATOM     84  O   UNL A   1      39.265  35.810  38.331  1.00  0.00    -0.237 OA
ATOM     85  O   UNL A   1      41.393  35.229  37.232  1.00  0.00    -0.237 OA
ATOM     86  O   UNL A   1      39.660  36.422  35.970  1.00  0.00    -0.744 OA
ENDBRANCH  80  83
ENDBRANCH  52  76
BRANCH  64  87
ATOM     87  C   UNL A   1      44.602  27.512  34.310  1.00  0.00     0.023 A 
ATOM     88  C   UNL A   1      45.782  28.274  34.418  1.00  0.00     0.012 A 
ATOM     89  C   UNL A   1      44.430  26.374  35.122  1.00  0.00     0.148 A 
ATOM     90  C   UNL A   1      46.789  27.889  35.301  1.00  0.00     0.002 A 
ATOM     91  C   UNL A   1      45.412  26.031  36.039  1.00  0.00     0.091 A 
ATOM     92  F   UNL A   1      43.301  25.661  34.991  1.00  0.00    -0.205 F 
ATOM     93  C   UNL A   1      46.599  26.777  36.119  1.00  0.00     0.022 A 
BRANCH  91  94
ATOM     94  S   UNL A   1      45.207  24.684  37.208  1.00  0.00     0.127 S 
ATOM     95  O   UNL A   1      44.899  23.564  36.320  1.00  0.00    -0.237 OA
ATOM     96  O   UNL A   1      46.527  24.621  37.838  1.00  0.00    -0.237 OA
ATOM     97  O   UNL A   1      44.128  25.084  38.101  1.00  0.00    -0.744 OA
ENDBRANCH  91  94
ENDBRANCH  64  87
ENDBRANCH  38  39
ENDBRANCH  31  33
ENDBRANCH  30  31
ENDBRANCH  29  30
ENDBRANCH  28  29
ENDBRANCH   1  28
TORSDOF 22
ENDMDL
MODEL 2
REMARK VINA RESULT:     -10.8      4.746      7.730
REMARK SMILES CC[NH2+][C@@]1(C(=O)OCCOCCOC(=O)c2ccc(-c3c4nc(c(-c5cccc(S(=O)(=O)[O-])c5F)c5ccc([nH]5)c(-c5cccc(S(=O)(=O)[O-])c5F)c5nc(c(-c6cccc(S(=O)(=O)[O-])c6F)c6ccc3[nH]6)C=C5)C=C4)cc2)CCC[C@@H]1CC[NH+]1CCS(=O)(=O)CC1
REMARK SMILES IDX 10 1 9 2 8 3 7 4 5 5 6 6 4 7 79 8 82 9 80 10 81 11 3 12 2 15
REMARK SMILES IDX 1 16 83 17 84 18 85 19 86 20 92 21 87 23 91 24 88 25 89 26
REMARK SMILES IDX 90 27 11 28 12 29 13 30 14 31 15 32 16 33 17 34 78 35 18 36
REMARK SMILES IDX 77 37 19 38 20 39 21 40 71 41 22 42 76 43 70 44 72 45 23 46
REMARK SMILES IDX 75 47 69 48 68 49 24 51 56 52 36 53 55 54 37 55 40 56 54 57
REMARK SMILES IDX 73 58 38 59 39 60 53 62 74 63 41 64 25 65 26 66 34 67 27 68
REMARK SMILES IDX 29 69 35 70 28 71 30 72 31 73 32 74 33 75 57 76 58 77 66 78
REMARK SMILES IDX 59 79 61 80 67 81 60 82 62 83 63 84 64 85 65 86 42 87 43 88
REMARK SMILES IDX 51 89 44 90 46 91 52 92 45 93 47 94 48 95 49 96 50 97
REMARK H PARENT 3 13 3 14 85 22 72 50 40 61
REMARK Flexibility Score: inf
ROOT
ATOM      1  O   UNL A   1      37.378  21.148  25.577  1.00  0.00    -0.374 OA
ENDROOT
BRANCH   1   2
ATOM      2  C   UNL A   1      37.179  22.493  25.131  1.00  0.00     0.202 C 
BRANCH   2   3
ATOM      3  C   UNL A   1      36.521  22.563  23.708  1.00  0.00     0.261 C 
BRANCH   3   4
ATOM      4  O   UNL A   1      35.075  22.747  23.818  1.00  0.00    -0.459 OA
BRANCH   4   5
ATOM      5  C   UNL A   1      34.529  23.774  24.554  1.00  0.00     0.368 C 
ATOM      6  O   UNL A   1      35.088  24.849  24.738  1.00  0.00    -0.245 OA
BRANCH   5   7
ATOM      7  C   UNL A   1      33.125  23.390  25.166  1.00  0.00     0.197 C 
ATOM      8  C   UNL A   1      33.183  23.682  26.671  1.00  0.00     0.081 C 
ATOM      9  C   UNL A   1      32.856  21.883  25.196  1.00  0.00     0.068 C 
ATOM     10  C   UNL A   1      34.043  22.536  27.224  1.00  0.00     0.008 C 
ATOM     11  C   UNL A   1      33.829  21.342  26.264  1.00  0.00     0.011 C 
BRANCH   7  12
ATOM     12  N   UNL A   1      31.925  23.918  24.476  1.00  0.00    -0.332 N 
ATOM     13  H   UNL A   1      31.979  23.601  23.508  1.00  0.00     0.347 HD
ATOM     14  H   UNL A   1      31.157  23.567  25.047  1.00  0.00     0.347 HD
BRANCH  12  15
ATOM     15  C   UNL A   1      31.675  25.344  24.434  1.00  0.00     0.257 C 
ATOM     16  C   UNL A   1      30.157  25.535  24.298  1.00  0.00     0.071 C 
ENDBRANCH  12  15
ENDBRANCH   7  12
BRANCH   9  17
ATOM     17  C   UNL A   1      32.644  21.157  23.853  1.00  0.00     0.072 C 
BRANCH  17  18
ATOM     18  C   UNL A   1      32.443  19.624  23.663  1.00  0.00     0.262 C 
BRANCH  18  19
ATOM     19  N   UNL A   1      33.000  18.395  24.238  1.00  0.00    -0.333 N 
ATOM     20  C   UNL A   1      34.086  17.699  23.593  1.00  0.00     0.278 C 
ATOM     21  C   UNL A   1      32.917  18.098  25.665  1.00  0.00     0.278 C 
ATOM     22  H   UNL A   1      32.143  17.984  23.868  1.00  0.00     0.348 HD
ATOM     23  C   UNL A   1      33.870  16.190  23.646  1.00  0.00     0.198 C 
ATOM     24  C   UNL A   1      32.519  16.673  25.986  1.00  0.00     0.198 C 
ATOM     25  S   UNL A   1      33.733  15.592  25.317  1.00  0.00     0.161 S 
ATOM     26  O   UNL A   1      33.163  14.257  25.272  1.00  0.00    -0.228 OA
ATOM     27  O   UNL A   1      34.991  15.819  26.005  1.00  0.00    -0.228 OA
ENDBRANCH  18  19
ENDBRANCH  17  18
ENDBRANCH   9  17
ENDBRANCH   5   7
ENDBRANCH   4   5
ENDBRANCH   3   4
ENDBRANCH   2   3
ENDBRANCH   1   2
BRANCH   1  28
ATOM     28  C   UNL A   1      38.130  20.162  24.855  1.00  0.00     0.202 C 
BRANCH  28  29
ATOM     29  C   UNL A   1      39.253  19.333  25.518  1.00  0.00     0.261 C 
BRANCH  29  30
ATOM     30  O   UNL A   1      39.848  19.993  26.621  1.00  0.00    -0.460 OA
BRANCH  30  31
ATOM     31  C   UNL A   1      41.096  20.438  26.350  1.00  0.00     0.338 C 
ATOM     32  O   UNL A   1      41.883  19.987  25.549  1.00  0.00    -0.246 OA
BRANCH  31  33
ATOM     33  C   UNL A   1      41.142  21.787  26.927  1.00  0.00     0.060 A 
ATOM     34  C   UNL A   1      40.480  22.793  26.215  1.00  0.00     0.016 A 
ATOM     35  C   UNL A   1      41.701  22.020  28.191  1.00  0.00     0.016 A 
ATOM     36  C   UNL A   1      40.444  24.073  26.733  1.00  0.00     0.010 A 
ATOM     37  C   UNL A   1      41.688  23.309  28.700  1.00  0.00     0.010 A 
ATOM     38  C   UNL A   1      41.124  24.338  27.928  1.00  0.00    -0.014 A 
BRANCH  38  39
ATOM     39  C   UNL A   1      41.592  25.713  28.134  1.00  0.00     0.031 A 
ATOM     40  C   UNL A   1      42.974  26.024  27.633  1.00  0.00     0.074 A 
ATOM     41  C   UNL A   1      40.797  26.638  28.687  1.00  0.00     0.049 A 
ATOM     42  N   UNL A   1      43.641  27.141  27.687  1.00  0.00    -0.248 NA
ATOM     43  C   UNL A   1      43.705  24.920  26.977  1.00  0.00     0.031 C 
ATOM     44  C   UNL A   1      39.432  26.414  29.158  1.00  0.00     0.029 A 
ATOM     45  N   UNL A   1      41.044  27.955  28.960  1.00  0.00    -0.354 N 
ATOM     46  C   UNL A   1      44.871  26.866  27.103  1.00  0.00     0.074 A 
ATOM     47  C   UNL A   1      44.871  25.480  26.708  1.00  0.00     0.031 C 
ATOM     48  C   UNL A   1      38.970  27.556  29.698  1.00  0.00     0.029 A 
ATOM     49  C   UNL A   1      40.021  28.569  29.634  1.00  0.00     0.049 A 
ATOM     50  H   UNL A   1      41.874  28.414  28.698  1.00  0.00     0.167 HD
ATOM     51  C   UNL A   1      45.911  27.704  26.911  1.00  0.00     0.034 A 
ATOM     52  C   UNL A   1      39.972  29.805  30.166  1.00  0.00     0.034 A 
ATOM     53  C   UNL A   1      45.885  29.079  27.314  1.00  0.00     0.049 A 
ATOM     54  C   UNL A   1      41.165  30.706  29.983  1.00  0.00     0.074 A 
ATOM     55  C   UNL A   1      46.862  30.039  27.155  1.00  0.00     0.029 A 
ATOM     56  N   UNL A   1      44.826  29.677  27.980  1.00  0.00    -0.354 N 
ATOM     57  N   UNL A   1      42.291  30.468  29.350  1.00  0.00    -0.248 NA
ATOM     58  C   UNL A   1      41.073  32.052  30.561  1.00  0.00     0.031 C 
ATOM     59  C   UNL A   1      46.411  31.211  27.767  1.00  0.00     0.029 A 
ATOM     60  C   UNL A   1      45.133  30.993  28.262  1.00  0.00     0.049 A 
ATOM     61  H   UNL A   1      43.981  29.230  28.217  1.00  0.00     0.167 HD
ATOM     62  C   UNL A   1      43.027  31.645  29.423  1.00  0.00     0.074 A 
ATOM     63  C   UNL A   1      42.209  32.599  30.146  1.00  0.00     0.031 C 
ATOM     64  C   UNL A   1      44.269  31.919  28.948  1.00  0.00     0.034 A 
BRANCH  51  65
ATOM     65  C   UNL A   1      47.147  27.146  26.265  1.00  0.00     0.023 A 
ATOM     66  C   UNL A   1      47.340  27.268  24.874  1.00  0.00     0.012 A 
ATOM     67  C   UNL A   1      48.131  26.512  27.048  1.00  0.00     0.148 A 
ATOM     68  C   UNL A   1      48.482  26.742  24.268  1.00  0.00     0.002 A 
ATOM     69  C   UNL A   1      49.287  26.036  26.445  1.00  0.00     0.091 A 
ATOM     70  F   UNL A   1      47.907  26.371  28.363  1.00  0.00    -0.205 F 
ATOM     71  C   UNL A   1      49.460  26.138  25.055  1.00  0.00     0.022 A 
BRANCH  69  72
ATOM     72  S   UNL A   1      50.635  25.310  27.382  1.00  0.00     0.127 S 
ATOM     73  O   UNL A   1      51.585  24.977  26.322  1.00  0.00    -0.237 OA
ATOM     74  O   UNL A   1      51.043  26.423  28.240  1.00  0.00    -0.237 OA
ATOM     75  O   UNL A   1      50.068  24.170  28.089  1.00  0.00    -0.744 OA
ENDBRANCH  69  72
ENDBRANCH  51  65
BRANCH  52  76
ATOM     76  C   UNL A   1      38.765  30.247  30.915  1.00  0.00     0.023 A 
ATOM     77  C   UNL A   1      38.654  29.979  32.291  1.00  0.00     0.012 A 
ATOM     78  C   UNL A   1      37.731  30.952  30.266  1.00  0.00     0.148 A 
ATOM     79  C   UNL A   1      37.521  30.376  33.003  1.00  0.00     0.002 A 
ATOM     80  C   UNL A   1      36.632  31.393  30.990  1.00  0.00     0.091 A 
ATOM     81  F   UNL A   1      37.850  31.185  28.951  1.00  0.00    -0.205 F 
ATOM     82  C   UNL A   1      36.515  31.091  32.356  1.00  0.00     0.022 A 
BRANCH  80  83
ATOM     83  S   UNL A   1      35.355  32.427  30.266  1.00  0.00     0.127 S 
ATOM     84  O   UNL A   1      34.399  32.535  31.364  1.00  0.00    -0.237 OA
ATOM     85  O   UNL A   1      36.094  33.655  29.968  1.00  0.00    -0.237 OA
ATOM     86  O   UNL A   1      34.887  31.708  29.087  1.00  0.00    -0.744 OA
ENDBRANCH  80  83
ENDBRANCH  52  76
BRANCH  64  87
ATOM     87  C   UNL A   1      44.800  33.310  29.154  1.00  0.00     0.023 A 
ATOM     88  C   UNL A   1      45.540  33.617  30.312  1.00  0.00     0.012 A 
ATOM     89  C   UNL A   1      44.645  34.283  28.147  1.00  0.00     0.148 A 
ATOM     90  C   UNL A   1      46.092  34.886  30.479  1.00  0.00     0.002 A 
ATOM     91  C   UNL A   1      45.246  35.524  28.294  1.00  0.00     0.091 A 
ATOM     92  F   UNL A   1      43.926  33.968  27.059  1.00  0.00    -0.205 F 
ATOM     93  C   UNL A   1      45.956  35.833  29.465  1.00  0.00     0.022 A 
BRANCH  91  94
ATOM     94  S   UNL A   1      45.218  36.766  26.998  1.00  0.00     0.127 S 
ATOM     95  O   UNL A   1      45.983  36.108  25.940  1.00  0.00    -0.237 OA
ATOM     96  O   UNL A   1      43.786  36.894  26.727  1.00  0.00    -0.237 OA
ATOM     97  O   UNL A   1      45.837  37.957  27.564  1.00  0.00    -0.744 OA
ENDBRANCH  91  94
ENDBRANCH  64  87
ENDBRANCH  38  39
ENDBRANCH  31  33
ENDBRANCH  30  31
ENDBRANCH  29  30
ENDBRANCH  28  29
ENDBRANCH   1  28
TORSDOF 22
ENDMDL
MODEL 3
REMARK VINA RESULT:     -10.8      1.866      8.049
REMARK SMILES CC[NH2+][C@@]1(C(=O)OCCOCCOC(=O)c2ccc(-c3c4nc(c(-c5cccc(S(=O)(=O)[O-])c5F)c5ccc([nH]5)c(-c5cccc(S(=O)(=O)[O-])c5F)c5nc(c(-c6cccc(S(=O)(=O)[O-])c6F)c6ccc3[nH]6)C=C5)C=C4)cc2)CCC[C@@H]1CC[NH+]1CCS(=O)(=O)CC1
REMARK SMILES IDX 10 1 9 2 8 3 7 4 5 5 6 6 4 7 79 8 82 9 80 10 81 11 3 12 2 15
REMARK SMILES IDX 1 16 83 17 84 18 85 19 86 20 92 21 87 23 91 24 88 25 89 26
REMARK SMILES IDX 90 27 11 28 12 29 13 30 14 31 15 32 16 33 17 34 78 35 18 36
REMARK SMILES IDX 77 37 19 38 20 39 21 40 71 41 22 42 76 43 70 44 72 45 23 46
REMARK SMILES IDX 75 47 69 48 68 49 24 51 56 52 36 53 55 54 37 55 40 56 54 57
REMARK SMILES IDX 73 58 38 59 39 60 53 62 74 63 41 64 25 65 26 66 34 67 27 68
REMARK SMILES IDX 29 69 35 70 28 71 30 72 31 73 32 74 33 75 57 76 58 77 66 78
REMARK SMILES IDX 59 79 61 80 67 81 60 82 62 83 63 84 64 85 65 86 42 87 43 88
REMARK SMILES IDX 51 89 44 90 46 91 52 92 45 93 47 94 48 95 49 96 50 97
REMARK H PARENT 3 13 3 14 85 22 72 50 40 61
REMARK Flexibility Score: inf
ROOT
ATOM      1  O   UNL A   1      32.329  29.032  27.162  1.00  0.00    -0.374 OA
ENDROOT
BRANCH   1   2
ATOM      2  C   UNL A   1      32.882  27.876  26.526  1.00  0.00     0.202 C 
BRANCH   2   3
ATOM      3  C   UNL A   1      33.482  28.195  25.112  1.00  0.00     0.261 C 
BRANCH   3   4
ATOM      4  O   UNL A   1      32.692  27.555  24.062  1.00  0.00    -0.459 OA
BRANCH   4   5
ATOM      5  C   UNL A   1      32.780  26.205  23.811  1.00  0.00     0.368 C 
ATOM      6  O   UNL A   1      33.771  25.529  24.068  1.00  0.00    -0.245 OA
BRANCH   5   7
ATOM      7  C   UNL A   1      31.479  25.640  23.117  1.00  0.00     0.197 C 
ATOM      8  C   UNL A   1      30.275  26.354  23.746  1.00  0.00     0.081 C 
ATOM      9  C   UNL A   1      31.157  24.191  23.496  1.00  0.00     0.068 C 
ATOM     10  C   UNL A   1      30.153  25.698  25.129  1.00  0.00     0.008 C 
ATOM     11  C   UNL A   1      30.725  24.269  24.974  1.00  0.00     0.011 C 
BRANCH   7  12
ATOM     12  N   UNL A   1      31.472  25.595  21.637  1.00  0.00    -0.332 N 
ATOM     13  H   UNL A   1      31.200  24.649  21.372  1.00  0.00     0.347 HD
ATOM     14  H   UNL A   1      30.842  26.357  21.385  1.00  0.00     0.347 HD
BRANCH  12  15
ATOM     15  C   UNL A   1      32.674  25.906  20.892  1.00  0.00     0.257 C 
ATOM     16  C   UNL A   1      32.445  25.441  19.445  1.00  0.00     0.071 C 
ENDBRANCH  12  15
ENDBRANCH   7  12
BRANCH   9  17
ATOM     17  C   UNL A   1      32.100  23.082  22.986  1.00  0.00     0.072 C 
BRANCH  17  18
ATOM     18  C   UNL A   1      33.117  22.278  23.849  1.00  0.00     0.262 C 
BRANCH  18  19
ATOM     19  N   UNL A   1      34.493  22.460  24.322  1.00  0.00    -0.333 N 
ATOM     20  C   UNL A   1      35.508  23.017  23.461  1.00  0.00     0.278 C 
ATOM     21  C   UNL A   1      34.813  22.622  25.737  1.00  0.00     0.278 C 
ATOM     22  H   UNL A   1      34.537  21.449  24.191  1.00  0.00     0.348 HD
ATOM     23  C   UNL A   1      36.829  22.275  23.630  1.00  0.00     0.198 C 
ATOM     24  C   UNL A   1      36.004  21.814  26.207  1.00  0.00     0.198 C 
ATOM     25  S   UNL A   1      37.422  22.337  25.307  1.00  0.00     0.161 S 
ATOM     26  O   UNL A   1      38.445  21.318  25.461  1.00  0.00    -0.228 OA
ATOM     27  O   UNL A   1      37.713  23.715  25.655  1.00  0.00    -0.228 OA
ENDBRANCH  18  19
ENDBRANCH  17  18
ENDBRANCH   9  17
ENDBRANCH   5   7
ENDBRANCH   4   5
ENDBRANCH   3   4
ENDBRANCH   2   3
ENDBRANCH   1   2
BRANCH   1  28
ATOM     28  C   UNL A   1      31.769  30.150  26.456  1.00  0.00     0.202 C 
BRANCH  28  29
ATOM     29  C   UNL A   1      32.107  31.612  26.827  1.00  0.00     0.261 C 
BRANCH  29  30
ATOM     30  O   UNL A   1      32.948  31.712  27.963  1.00  0.00    -0.460 OA
BRANCH  30  31
ATOM     31  C   UNL A   1      33.777  32.778  27.905  1.00  0.00     0.338 C 
ATOM     32  O   UNL A   1      33.478  33.950  27.948  1.00  0.00    -0.246 OA
BRANCH  31  33
ATOM     33  C   UNL A   1      35.110  32.226  28.172  1.00  0.00     0.060 A 
ATOM     34  C   UNL A   1      35.257  30.844  28.007  1.00  0.00     0.016 A 
ATOM     35  C   UNL A   1      36.204  33.059  28.441  1.00  0.00     0.016 A 
ATOM     36  C   UNL A   1      36.501  30.271  28.193  1.00  0.00     0.010 A 
ATOM     37  C   UNL A   1      37.446  32.484  28.653  1.00  0.00     0.010 A 
ATOM     38  C   UNL A   1      37.565  31.085  28.601  1.00  0.00    -0.014 A 
BRANCH  38  39
ATOM     39  C   UNL A   1      38.641  30.437  29.360  1.00  0.00     0.031 A 
ATOM     40  C   UNL A   1      38.751  30.817  30.809  1.00  0.00     0.074 A 
ATOM     41  C   UNL A   1      39.435  29.522  28.789  1.00  0.00     0.049 A 
ATOM     42  N   UNL A   1      39.602  30.413  31.708  1.00  0.00    -0.248 NA
ATOM     43  C   UNL A   1      37.758  31.787  31.317  1.00  0.00     0.031 C 
ATOM     44  C   UNL A   1      39.356  29.077  27.399  1.00  0.00     0.029 A 
ATOM     45  N   UNL A   1      40.478  28.815  29.319  1.00  0.00    -0.354 N 
ATOM     46  C   UNL A   1      39.268  31.098  32.868  1.00  0.00     0.074 A 
ATOM     47  C   UNL A   1      38.145  31.950  32.569  1.00  0.00     0.031 C 
ATOM     48  C   UNL A   1      40.343  28.191  27.175  1.00  0.00     0.029 A 
ATOM     49  C   UNL A   1      41.129  28.039  28.396  1.00  0.00     0.049 A 
ATOM     50  H   UNL A   1      40.734  28.860  30.268  1.00  0.00     0.167 HD
ATOM     51  C   UNL A   1      39.849  31.017  34.083  1.00  0.00     0.034 A 
ATOM     52  C   UNL A   1      42.259  27.319  28.534  1.00  0.00     0.034 A 
ATOM     53  C   UNL A   1      40.965  30.161  34.354  1.00  0.00     0.049 A 
ATOM     54  C   UNL A   1      42.920  27.284  29.888  1.00  0.00     0.074 A 
ATOM     55  C   UNL A   1      41.630  29.968  35.547  1.00  0.00     0.029 A 
ATOM     56  N   UNL A   1      41.594  29.373  33.402  1.00  0.00    -0.354 N 
ATOM     57  N   UNL A   1      42.546  27.863  31.005  1.00  0.00    -0.248 NA
ATOM     58  C   UNL A   1      44.140  26.477  30.009  1.00  0.00     0.031 C 
ATOM     59  C   UNL A   1      42.693  29.093  35.306  1.00  0.00     0.029 A 
ATOM     60  C   UNL A   1      42.657  28.704  33.974  1.00  0.00     0.049 A 
ATOM     61  H   UNL A   1      41.322  29.300  32.458  1.00  0.00     0.167 HD
ATOM     62  C   UNL A   1      43.463  27.463  31.970  1.00  0.00     0.074 A 
ATOM     63  C   UNL A   1      44.399  26.578  31.306  1.00  0.00     0.031 C 
ATOM     64  C   UNL A   1      43.538  27.798  33.283  1.00  0.00     0.034 A 
BRANCH  51  65
ATOM     65  C   UNL A   1      39.301  31.887  35.179  1.00  0.00     0.023 A 
ATOM     66  C   UNL A   1      38.287  31.403  36.031  1.00  0.00     0.012 A 
ATOM     67  C   UNL A   1      39.808  33.185  35.375  1.00  0.00     0.148 A 
ATOM     68  C   UNL A   1      37.767  32.210  37.043  1.00  0.00     0.002 A 
ATOM     69  C   UNL A   1      39.322  33.963  36.415  1.00  0.00     0.091 A 
ATOM     70  F   UNL A   1      40.744  33.638  34.527  1.00  0.00    -0.205 F 
ATOM     71  C   UNL A   1      38.294  33.484  37.243  1.00  0.00     0.022 A 
BRANCH  69  72
ATOM     72  S   UNL A   1      39.986  35.586  36.799  1.00  0.00     0.127 S 
ATOM     73  O   UNL A   1      39.296  35.900  38.048  1.00  0.00    -0.237 OA
ATOM     74  O   UNL A   1      41.414  35.304  36.945  1.00  0.00    -0.237 OA
ATOM     75  O   UNL A   1      39.645  36.440  35.669  1.00  0.00    -0.744 OA
ENDBRANCH  69  72
ENDBRANCH  51  65
BRANCH  52  76
ATOM     76  C   UNL A   1      42.826  26.590  27.368  1.00  0.00     0.023 A 
ATOM     77  C   UNL A   1      43.704  27.246  26.487  1.00  0.00     0.012 A 
ATOM     78  C   UNL A   1      42.508  25.236  27.140  1.00  0.00     0.148 A 
ATOM     79  C   UNL A   1      44.231  26.578  25.381  1.00  0.00     0.002 A 
ATOM     80  C   UNL A   1      43.079  24.560  26.070  1.00  0.00     0.091 A 
ATOM     81  F   UNL A   1      41.658  24.632  27.984  1.00  0.00    -0.205 F 
ATOM     82  C   UNL A   1      43.928  25.234  25.178  1.00  0.00     0.022 A 
BRANCH  80  83
ATOM     83  S   UNL A   1      42.843  22.799  25.809  1.00  0.00     0.127 S 
ATOM     84  O   UNL A   1      43.340  22.630  24.446  1.00  0.00    -0.237 OA
ATOM     85  O   UNL A   1      43.693  22.222  26.852  1.00  0.00    -0.237 OA
ATOM     86  O   UNL A   1      41.418  22.560  25.996  1.00  0.00    -0.744 OA
ENDBRANCH  80  83
ENDBRANCH  52  76
BRANCH  64  87
ATOM     87  C   UNL A   1      44.639  27.176  34.096  1.00  0.00     0.023 A 
ATOM     88  C   UNL A   1      45.908  27.784  34.146  1.00  0.00     0.012 A 
ATOM     89  C   UNL A   1      44.377  26.041  34.889  1.00  0.00     0.148 A 
ATOM     90  C   UNL A   1      46.913  27.250  34.951  1.00  0.00     0.002 A 
ATOM     91  C   UNL A   1      45.365  25.550  35.730  1.00  0.00     0.091 A 
ATOM     92  F   UNL A   1      43.164  25.474  34.814  1.00  0.00    -0.205 F 
ATOM     93  C   UNL A   1      46.637  26.142  35.751  1.00  0.00     0.022 A 
BRANCH  91  94
ATOM     94  S   UNL A   1      45.068  24.199  36.875  1.00  0.00     0.127 S 
ATOM     95  O   UNL A   1      46.350  24.115  37.573  1.00  0.00    -0.237 OA
ATOM     96  O   UNL A   1      43.964  24.718  37.682  1.00  0.00    -0.237 OA
ATOM     97  O   UNL A   1      44.729  23.042  36.056  1.00  0.00    -0.744 OA
ENDBRANCH  91  94
ENDBRANCH  64  87
ENDBRANCH  38  39
ENDBRANCH  31  33
ENDBRANCH  30  31
ENDBRANCH  29  30
ENDBRANCH  28  29
ENDBRANCH   1  28
TORSDOF 22
ENDMDL
