MODEL 1
REMARK VINA RESULT:     -11.0      0.000      0.000
REMARK SMILES CC1(C)OC(=O)C(/C=N/[C@@H](CCC(N)=O)C(=O)OCCOCCOC(=O)c2ccc(-c3c4nc(c(-c5cccc(S(=O)(=O)[O-])c5F)c5ccc([nH]5)c(-c5cccc(S(=O)(=O)[O-])c5F)c5nc(c(-c6cccc(S(=O)(=O)[O-])c6F)c6ccc3[nH]6)C=C5)C=C4)cc2)C(=O)O1
REMARK SMILES IDX 21 1 20 2 19 3 18 4 16 5 17 6 10 7 9 8 8 9 7 10 1 11 2 12
REMARK SMILES IDX 3 13 4 14 92 15 5 16 90 17 6 18 91 19 11 20 12 21 13 22
REMARK SMILES IDX 14 23 15 24 22 27 23 28 24 29 25 30 26 31 27 32 28 33 89 34
REMARK SMILES IDX 29 35 88 36 30 37 31 38 32 39 82 40 33 41 87 42 81 43 83 44
REMARK SMILES IDX 34 45 86 46 80 47 79 48 35 50 67 51 47 52 66 53 48 54 51 55
REMARK SMILES IDX 65 56 84 57 49 58 50 59 64 61 85 62 52 63 36 64 37 65 45 66
REMARK SMILES IDX 38 67 40 68 46 69 39 70 41 71 42 72 43 73 44 74 68 75 69 76
REMARK SMILES IDX 77 77 70 78 72 79 78 80 71 81 73 82 74 83 75 84 76 85 53 86
REMARK SMILES IDX 54 87 62 88 55 89 57 90 63 91 56 92 58 93 59 94 60 95 61 96
REMARK H PARENT 14 25 14 26 83 49 51 60
REMARK Flexibility Score: inf
ROOT
ATOM      1  O   UNL A   1      32.497  30.180  26.204  1.00  0.00    -0.374 OA
ENDROOT
BRANCH   1   2
ATOM      2  C   UNL A   1      32.331  28.999  26.981  1.00  0.00     0.202 C 
BRANCH   2   3
ATOM      3  C   UNL A   1      31.936  27.723  26.233  1.00  0.00     0.261 C 
BRANCH   3   4
ATOM      4  O   UNL A   1      31.039  26.874  26.970  1.00  0.00    -0.462 OA
BRANCH   4   5
ATOM      5  C   UNL A   1      30.451  25.896  26.236  1.00  0.00     0.330 C 
ATOM      6  O   UNL A   1      29.536  25.181  26.644  1.00  0.00    -0.250 OA
BRANCH   5   7
ATOM      7  C   UNL A   1      31.042  25.670  24.852  1.00  0.00     0.215 C 
BRANCH   7   8
ATOM      8  N   UNL A   1      31.934  24.527  24.581  1.00  0.00    -0.281 NA
ATOM      9  C   UNL A   1      31.515  23.374  24.214  1.00  0.00     0.106 C 
BRANCH   9  10
ATOM     10  C   UNL A   1      32.496  22.385  23.633  1.00  0.00     0.250 C 
ATOM     11  C   UNL A   1      34.956  22.710  26.151  1.00  0.00     0.106 C 
ATOM     12  C   UNL A   1      34.994  21.969  24.816  1.00  0.00     0.252 C 
ATOM     13  C   UNL A   1      36.356  21.300  24.632  1.00  0.00     0.106 C 
ATOM     14  O   UNL A   1      34.867  22.890  23.735  1.00  0.00    -0.422 OA
ATOM     15  O   UNL A   1      34.027  20.924  24.807  1.00  0.00    -0.422 OA
ATOM     16  C   UNL A   1      33.707  23.027  23.077  1.00  0.00     0.329 C 
ATOM     17  C   UNL A   1      32.747  21.253  24.571  1.00  0.00     0.329 C 
ATOM     18  O   UNL A   1      33.666  23.688  22.042  1.00  0.00    -0.251 OA
ATOM     19  O   UNL A   1      31.838  20.571  25.034  1.00  0.00    -0.251 OA
ENDBRANCH   9  10
ENDBRANCH   7   8
BRANCH   7  20
ATOM     20  C   UNL A   1      30.011  25.896  23.735  1.00  0.00     0.049 C 
BRANCH  20  21
ATOM     21  C   UNL A   1      29.938  27.287  23.106  1.00  0.00     0.102 C 
BRANCH  21  22
ATOM     22  C   UNL A   1      31.242  27.779  22.523  1.00  0.00     0.217 C 
ATOM     23  N   UNL A   1      31.834  26.954  21.620  1.00  0.00    -0.370 N 
ATOM     24  O   UNL A   1      31.764  28.836  22.854  1.00  0.00    -0.275 OA
ATOM     25  H   UNL A   1      31.399  26.108  21.366  1.00  0.00     0.159 HD
ATOM     26  H   UNL A   1      32.699  27.204  21.221  1.00  0.00     0.159 HD
ENDBRANCH  21  22
ENDBRANCH  20  21
ENDBRANCH   7  20
ENDBRANCH   5   7
ENDBRANCH   4   5
ENDBRANCH   3   4
ENDBRANCH   2   3
ENDBRANCH   1   2
BRANCH   1  27
ATOM     27  C   UNL A   1      31.403  31.098  26.154  1.00  0.00     0.202 C 
BRANCH  27  28
ATOM     28  C   UNL A   1      31.560  32.419  26.917  1.00  0.00     0.261 C 
BRANCH  28  29
ATOM     29  O   UNL A   1      32.851  33.029  26.734  1.00  0.00    -0.460 OA
BRANCH  29  30
ATOM     30  C   UNL A   1      33.413  33.531  27.861  1.00  0.00     0.338 C 
ATOM     31  O   UNL A   1      32.967  34.408  28.591  1.00  0.00    -0.246 OA
BRANCH  30  32
ATOM     32  C   UNL A   1      34.628  32.776  28.202  1.00  0.00     0.060 A 
ATOM     33  C   UNL A   1      34.511  31.450  28.631  1.00  0.00     0.016 A 
ATOM     34  C   UNL A   1      35.860  33.425  28.239  1.00  0.00     0.016 A 
ATOM     35  C   UNL A   1      35.632  30.778  29.126  1.00  0.00     0.010 A 
ATOM     36  C   UNL A   1      36.985  32.742  28.708  1.00  0.00     0.010 A 
ATOM     37  C   UNL A   1      36.873  31.427  29.191  1.00  0.00    -0.014 A 
BRANCH  37  38
ATOM     38  C   UNL A   1      38.026  30.791  29.884  1.00  0.00     0.031 A 
ATOM     39  C   UNL A   1      38.356  31.197  31.298  1.00  0.00     0.074 A 
ATOM     40  C   UNL A   1      38.790  29.876  29.257  1.00  0.00     0.049 A 
ATOM     41  N   UNL A   1      39.343  30.806  32.063  1.00  0.00    -0.248 NA
ATOM     42  C   UNL A   1      37.467  32.187  31.928  1.00  0.00     0.031 C 
ATOM     43  C   UNL A   1      38.601  29.416  27.882  1.00  0.00     0.029 A 
ATOM     44  N   UNL A   1      39.895  29.187  29.694  1.00  0.00    -0.354 N 
ATOM     45  C   UNL A   1      39.220  31.531  33.242  1.00  0.00     0.074 A 
ATOM     46  C   UNL A   1      38.074  32.399  33.087  1.00  0.00     0.031 C 
ATOM     47  C   UNL A   1      39.563  28.525  27.585  1.00  0.00     0.029 A 
ATOM     48  C   UNL A   1      40.448  28.368  28.737  1.00  0.00     0.049 A 
ATOM     49  H   UNL A   1      40.258  29.271  30.605  1.00  0.00     0.167 HD
ATOM     50  C   UNL A   1      39.972  31.464  34.366  1.00  0.00     0.034 A 
ATOM     51  C   UNL A   1      41.548  27.588  28.781  1.00  0.00     0.034 A 
ATOM     52  C   UNL A   1      41.072  30.557  34.554  1.00  0.00     0.049 A 
ATOM     53  C   UNL A   1      42.349  27.507  30.055  1.00  0.00     0.074 A 
ATOM     54  C   UNL A   1      41.843  30.364  35.686  1.00  0.00     0.029 A 
ATOM     55  N   UNL A   1      41.553  29.690  33.587  1.00  0.00    -0.354 N 
ATOM     56  N   UNL A   1      42.136  28.099  31.204  1.00  0.00    -0.248 NA
ATOM     57  C   UNL A   1      43.527  26.623  30.048  1.00  0.00     0.031 C 
ATOM     58  C   UNL A   1      42.798  29.382  35.401  1.00  0.00     0.029 A 
ATOM     59  C   UNL A   1      42.616  28.961  34.094  1.00  0.00     0.049 A 
ATOM     60  H   UNL A   1      41.194  29.605  32.675  1.00  0.00     0.167 HD
ATOM     61  C   UNL A   1      43.130  27.641  32.062  1.00  0.00     0.074 A 
ATOM     62  C   UNL A   1      43.934  26.702  31.308  1.00  0.00     0.031 C 
ATOM     63  C   UNL A   1      43.368  27.982  33.353  1.00  0.00     0.034 A 
BRANCH  50  64
ATOM     64  C   UNL A   1      39.591  32.362  35.513  1.00  0.00     0.023 A 
ATOM     65  C   UNL A   1      40.066  33.688  35.538  1.00  0.00     0.012 A 
ATOM     66  C   UNL A   1      38.730  31.915  36.532  1.00  0.00     0.148 A 
ATOM     67  C   UNL A   1      39.713  34.548  36.578  1.00  0.00     0.002 A 
ATOM     68  C   UNL A   1      38.353  32.788  37.546  1.00  0.00     0.091 A 
ATOM     69  F   UNL A   1      38.311  30.640  36.506  1.00  0.00    -0.205 F 
ATOM     70  C   UNL A   1      38.850  34.102  37.575  1.00  0.00     0.022 A 
BRANCH  68  71
ATOM     71  S   UNL A   1      37.190  32.321  38.833  1.00  0.00     0.127 S 
ATOM     72  O   UNL A   1      37.686  33.087  39.974  1.00  0.00    -0.237 OA
ATOM     73  O   UNL A   1      35.915  32.794  38.290  1.00  0.00    -0.237 OA
ATOM     74  O   UNL A   1      37.292  30.873  38.951  1.00  0.00    -0.744 OA
ENDBRANCH  68  71
ENDBRANCH  50  64
BRANCH  51  75
ATOM     75  C   UNL A   1      41.923  26.770  27.594  1.00  0.00     0.023 A 
ATOM     76  C   UNL A   1      42.598  27.381  26.520  1.00  0.00     0.012 A 
ATOM     77  C   UNL A   1      41.645  25.391  27.533  1.00  0.00     0.148 A 
ATOM     78  C   UNL A   1      42.968  26.640  25.396  1.00  0.00     0.002 A 
ATOM     79  C   UNL A   1      42.066  24.647  26.436  1.00  0.00     0.091 A 
ATOM     80  F   UNL A   1      40.980  24.830  28.554  1.00  0.00    -0.205 F 
ATOM     81  C   UNL A   1      42.714  25.272  25.360  1.00  0.00     0.022 A 
BRANCH  79  82
ATOM     82  S   UNL A   1      41.901  22.858  26.373  1.00  0.00     0.127 S 
ATOM     83  O   UNL A   1      42.607  22.449  27.585  1.00  0.00    -0.237 OA
ATOM     84  O   UNL A   1      40.449  22.685  26.417  1.00  0.00    -0.237 OA
ATOM     85  O   UNL A   1      42.511  22.456  25.112  1.00  0.00    -0.744 OA
ENDBRANCH  79  82
ENDBRANCH  51  75
BRANCH  63  86
ATOM     86  C   UNL A   1      44.533  27.329  34.051  1.00  0.00     0.023 A 
ATOM     87  C   UNL A   1      45.794  27.958  34.031  1.00  0.00     0.012 A 
ATOM     88  C   UNL A   1      44.362  26.146  34.796  1.00  0.00     0.148 A 
ATOM     89  C   UNL A   1      46.871  27.408  34.723  1.00  0.00     0.002 A 
ATOM     90  C   UNL A   1      45.431  25.625  35.517  1.00  0.00     0.091 A 
ATOM     91  F   UNL A   1      43.161  25.550  34.786  1.00  0.00    -0.205 F 
ATOM     92  C   UNL A   1      46.688  26.251  35.476  1.00  0.00     0.022 A 
BRANCH  90  93
ATOM     93  S   UNL A   1      45.255  24.188  36.582  1.00  0.00     0.127 S 
ATOM     94  O   UNL A   1      44.359  24.693  37.620  1.00  0.00    -0.237 OA
ATOM     95  O   UNL A   1      44.654  23.201  35.684  1.00  0.00    -0.237 OA
ATOM     96  O   UNL A   1      46.604  23.855  37.021  1.00  0.00    -0.744 OA
ENDBRANCH  90  93
ENDBRANCH  63  86
ENDBRANCH  37  38
ENDBRANCH  30  32
ENDBRANCH  29  30
ENDBRANCH  28  29
ENDBRANCH  27  28
ENDBRANCH   1  27
TORSDOF 22
ENDMDL
MODEL 2
REMARK VINA RESULT:     -10.5      5.009     10.529
REMARK SMILES CC1(C)OC(=O)C(/C=N/[C@@H](CCC(N)=O)C(=O)OCCOCCOC(=O)c2ccc(-c3c4nc(c(-c5cccc(S(=O)(=O)[O-])c5F)c5ccc([nH]5)c(-c5cccc(S(=O)(=O)[O-])c5F)c5nc(c(-c6cccc(S(=O)(=O)[O-])c6F)c6ccc3[nH]6)C=C5)C=C4)cc2)C(=O)O1
REMARK SMILES IDX 21 1 20 2 19 3 18 4 16 5 17 6 10 7 9 8 8 9 7 10 1 11 2 12
REMARK SMILES IDX 3 13 4 14 92 15 5 16 90 17 6 18 91 19 11 20 12 21 13 22
REMARK SMILES IDX 14 23 15 24 22 27 23 28 24 29 25 30 26 31 27 32 28 33 89 34
REMARK SMILES IDX 29 35 88 36 30 37 31 38 32 39 82 40 33 41 87 42 81 43 83 44
REMARK SMILES IDX 34 45 86 46 80 47 79 48 35 50 67 51 47 52 66 53 48 54 51 55
REMARK SMILES IDX 65 56 84 57 49 58 50 59 64 61 85 62 52 63 36 64 37 65 45 66
REMARK SMILES IDX 38 67 40 68 46 69 39 70 41 71 42 72 43 73 44 74 68 75 69 76
REMARK SMILES IDX 77 77 70 78 72 79 78 80 71 81 73 82 74 83 75 84 76 85 53 86
REMARK SMILES IDX 54 87 62 88 55 89 57 90 63 91 56 92 58 93 59 94 60 95 61 96
REMARK H PARENT 14 25 14 26 83 49 51 60
REMARK Flexibility Score: inf
ROOT
ATOM      1  O   UNL A   1      37.020  21.417  24.290  1.00  0.00    -0.374 OA
ENDROOT
BRANCH   1   2
ATOM      2  C   UNL A   1      36.068  22.310  24.858  1.00  0.00     0.202 C 
BRANCH   2   3
ATOM      3  C   UNL A   1      35.506  23.401  23.943  1.00  0.00     0.261 C 
BRANCH   3   4
ATOM      4  O   UNL A   1      34.653  22.899  22.900  1.00  0.00    -0.462 OA
BRANCH   4   5
ATOM      5  C   UNL A   1      33.528  23.628  22.685  1.00  0.00     0.330 C 
ATOM      6  O   UNL A   1      33.345  24.341  21.699  1.00  0.00    -0.250 OA
BRANCH   5   7
ATOM      7  C   UNL A   1      32.489  23.572  23.795  1.00  0.00     0.215 C 
BRANCH   7   8
ATOM      8  N   UNL A   1      31.539  24.679  24.008  1.00  0.00    -0.281 NA
ATOM      9  C   UNL A   1      30.795  24.783  25.045  1.00  0.00     0.106 C 
BRANCH   9  10
ATOM     10  C   UNL A   1      30.120  26.100  25.337  1.00  0.00     0.250 C 
ATOM     11  C   UNL A   1      31.943  28.030  23.003  1.00  0.00     0.106 C 
ATOM     12  C   UNL A   1      30.957  28.457  24.089  1.00  0.00     0.252 C 
ATOM     13  C   UNL A   1      30.810  29.979  24.086  1.00  0.00     0.106 C 
ATOM     14  O   UNL A   1      31.465  28.121  25.378  1.00  0.00    -0.422 OA
ATOM     15  O   UNL A   1      29.666  27.926  23.815  1.00  0.00    -0.422 OA
ATOM     16  C   UNL A   1      30.998  27.057  26.048  1.00  0.00     0.329 C 
ATOM     17  C   UNL A   1      29.433  26.641  24.130  1.00  0.00     0.329 C 
ATOM     18  O   UNL A   1      31.316  26.887  27.222  1.00  0.00    -0.251 OA
ATOM     19  O   UNL A   1      28.606  25.990  23.498  1.00  0.00    -0.251 OA
ENDBRANCH   9  10
ENDBRANCH   7   8
BRANCH   7  20
ATOM     20  C   UNL A   1      31.823  22.190  23.900  1.00  0.00     0.049 C 
BRANCH  20  21
ATOM     21  C   UNL A   1      32.182  21.318  25.103  1.00  0.00     0.102 C 
BRANCH  21  22
ATOM     22  C   UNL A   1      32.843  20.007  24.750  1.00  0.00     0.217 C 
ATOM     23  N   UNL A   1      33.485  19.376  25.767  1.00  0.00    -0.370 N 
ATOM     24  O   UNL A   1      32.839  19.541  23.616  1.00  0.00    -0.275 OA
ATOM     25  H   UNL A   1      33.477  19.765  26.671  1.00  0.00     0.159 HD
ATOM     26  H   UNL A   1      33.958  18.528  25.599  1.00  0.00     0.159 HD
ENDBRANCH  21  22
ENDBRANCH  20  21
ENDBRANCH   7  20
ENDBRANCH   5   7
ENDBRANCH   4   5
ENDBRANCH   3   4
ENDBRANCH   2   3
ENDBRANCH   1   2
BRANCH   1  27
ATOM     27  C   UNL A   1      37.069  20.086  24.810  1.00  0.00     0.202 C 
BRANCH  27  28
ATOM     28  C   UNL A   1      38.455  19.462  25.012  1.00  0.00     0.261 C 
BRANCH  28  29
ATOM     29  O   UNL A   1      39.005  19.714  26.318  1.00  0.00    -0.460 OA
BRANCH  29  30
ATOM     30  C   UNL A   1      40.327  20.011  26.336  1.00  0.00     0.338 C 
ATOM     31  O   UNL A   1      41.251  19.330  25.908  1.00  0.00    -0.246 OA
BRANCH  30  32
ATOM     32  C   UNL A   1      40.534  21.376  26.842  1.00  0.00     0.060 A 
ATOM     33  C   UNL A   1      39.899  22.446  26.202  1.00  0.00     0.016 A 
ATOM     34  C   UNL A   1      41.468  21.609  27.849  1.00  0.00     0.016 A 
ATOM     35  C   UNL A   1      40.223  23.759  26.556  1.00  0.00     0.010 A 
ATOM     36  C   UNL A   1      41.769  22.921  28.221  1.00  0.00     0.010 A 
ATOM     37  C   UNL A   1      41.179  24.007  27.552  1.00  0.00    -0.014 A 
BRANCH  37  38
ATOM     38  C   UNL A   1      41.666  25.389  27.807  1.00  0.00     0.031 A 
ATOM     39  C   UNL A   1      43.054  25.778  27.367  1.00  0.00     0.074 A 
ATOM     40  C   UNL A   1      40.892  26.287  28.446  1.00  0.00     0.049 A 
ATOM     41  N   UNL A   1      43.690  26.909  27.536  1.00  0.00    -0.248 NA
ATOM     42  C   UNL A   1      43.836  24.752  26.657  1.00  0.00     0.031 C 
ATOM     43  C   UNL A   1      39.544  26.034  28.953  1.00  0.00     0.029 A 
ATOM     44  N   UNL A   1      41.144  27.591  28.797  1.00  0.00    -0.354 N 
ATOM     45  C   UNL A   1      44.956  26.718  26.995  1.00  0.00     0.074 A 
ATOM     46  C   UNL A   1      45.006  25.357  26.507  1.00  0.00     0.031 C 
ATOM     47  C   UNL A   1      39.090  27.146  29.557  1.00  0.00     0.029 A 
ATOM     48  C   UNL A   1      40.120  28.181  29.501  1.00  0.00     0.049 A 
ATOM     49  H   UNL A   1      41.979  28.060  28.568  1.00  0.00     0.167 HD
ATOM     50  C   UNL A   1      45.978  27.599  26.884  1.00  0.00     0.034 A 
ATOM     51  C   UNL A   1      40.027  29.412  30.046  1.00  0.00     0.034 A 
ATOM     52  C   UNL A   1      45.914  28.973  27.305  1.00  0.00     0.049 A 
ATOM     53  C   UNL A   1      41.165  30.385  29.881  1.00  0.00     0.074 A 
ATOM     54  C   UNL A   1      46.872  29.960  27.164  1.00  0.00     0.029 A 
ATOM     55  N   UNL A   1      44.831  29.552  27.945  1.00  0.00    -0.354 N 
ATOM     56  N   UNL A   1      42.302  30.227  29.247  1.00  0.00    -0.248 NA
ATOM     57  C   UNL A   1      40.996  31.719  30.480  1.00  0.00     0.031 C 
ATOM     58  C   UNL A   1      46.369  31.140  27.726  1.00  0.00     0.029 A 
ATOM     59  C   UNL A   1      45.097  30.885  28.211  1.00  0.00     0.049 A 
ATOM     60  H   UNL A   1      43.995  29.086  28.177  1.00  0.00     0.167 HD
ATOM     61  C   UNL A   1      42.968  31.443  29.346  1.00  0.00     0.074 A 
ATOM     62  C   UNL A   1      42.099  32.338  30.080  1.00  0.00     0.031 C 
ATOM     63  C   UNL A   1      44.198  31.784  28.886  1.00  0.00     0.034 A 
BRANCH  50  64
ATOM     64  C   UNL A   1      47.243  27.119  26.225  1.00  0.00     0.023 A 
ATOM     65  C   UNL A   1      47.461  27.398  24.862  1.00  0.00     0.012 A 
ATOM     66  C   UNL A   1      48.232  26.439  26.960  1.00  0.00     0.148 A 
ATOM     67  C   UNL A   1      48.633  26.981  24.231  1.00  0.00     0.002 A 
ATOM     68  C   UNL A   1      49.415  26.059  26.334  1.00  0.00     0.091 A 
ATOM     69  F   UNL A   1      47.995  26.157  28.250  1.00  0.00    -0.205 F 
ATOM     70  C   UNL A   1      49.613  26.322  24.968  1.00  0.00     0.022 A 
BRANCH  68  71
ATOM     71  S   UNL A   1      50.760  25.268  27.223  1.00  0.00     0.127 S 
ATOM     72  O   UNL A   1      51.183  26.333  28.129  1.00  0.00    -0.237 OA
ATOM     73  O   UNL A   1      50.086  24.145  27.877  1.00  0.00    -0.237 OA
ATOM     74  O   UNL A   1      51.729  24.879  26.209  1.00  0.00    -0.744 OA
ENDBRANCH  68  71
ENDBRANCH  50  64
BRANCH  51  75
ATOM     75  C   UNL A   1      38.777  29.816  30.749  1.00  0.00     0.023 A 
ATOM     76  C   UNL A   1      38.579  29.421  32.087  1.00  0.00     0.012 A 
ATOM     77  C   UNL A   1      37.801  30.611  30.118  1.00  0.00     0.148 A 
ATOM     78  C   UNL A   1      37.422  29.789  32.775  1.00  0.00     0.002 A 
ATOM     79  C   UNL A   1      36.678  31.022  30.827  1.00  0.00     0.091 A 
ATOM     80  F   UNL A   1      37.995  30.959  28.837  1.00  0.00    -0.205 F 
ATOM     81  C   UNL A   1      36.478  30.599  32.150  1.00  0.00     0.022 A 
BRANCH  79  82
ATOM     82  S   UNL A   1      35.484  32.178  30.142  1.00  0.00     0.127 S 
ATOM     83  O   UNL A   1      34.982  31.440  28.986  1.00  0.00    -0.237 OA
ATOM     84  O   UNL A   1      34.532  32.321  31.244  1.00  0.00    -0.237 OA
ATOM     85  O   UNL A   1      36.240  33.388  29.848  1.00  0.00    -0.744 OA
ENDBRANCH  79  82
ENDBRANCH  51  75
BRANCH  63  86
ATOM     86  C   UNL A   1      44.682  33.187  29.142  1.00  0.00     0.023 A 
ATOM     87  C   UNL A   1      45.265  33.503  30.386  1.00  0.00     0.012 A 
ATOM     88  C   UNL A   1      44.642  34.165  28.129  1.00  0.00     0.148 A 
ATOM     89  C   UNL A   1      45.780  34.775  30.625  1.00  0.00     0.002 A 
ATOM     90  C   UNL A   1      45.194  35.420  28.361  1.00  0.00     0.091 A 
ATOM     91  F   UNL A   1      44.065  33.853  26.960  1.00  0.00    -0.205 F 
ATOM     92  C   UNL A   1      45.757  35.730  29.610  1.00  0.00     0.022 A 
BRANCH  90  93
ATOM     93  S   UNL A   1      45.284  36.676  27.078  1.00  0.00     0.127 S 
ATOM     94  O   UNL A   1      45.971  35.958  26.005  1.00  0.00    -0.237 OA
ATOM     95  O   UNL A   1      43.873  36.960  26.815  1.00  0.00    -0.237 OA
ATOM     96  O   UNL A   1      46.020  37.787  27.665  1.00  0.00    -0.744 OA
ENDBRANCH  90  93
ENDBRANCH  63  86
ENDBRANCH  37  38
ENDBRANCH  30  32
ENDBRANCH  29  30
ENDBRANCH  28  29
ENDBRANCH  27  28
ENDBRANCH   1  27
TORSDOF 22
ENDMDL
MODEL 3
REMARK VINA RESULT:     -10.4      1.198      7.616
REMARK SMILES CC1(C)OC(=O)C(/C=N/[C@@H](CCC(N)=O)C(=O)OCCOCCOC(=O)c2ccc(-c3c4nc(c(-c5cccc(S(=O)(=O)[O-])c5F)c5ccc([nH]5)c(-c5cccc(S(=O)(=O)[O-])c5F)c5nc(c(-c6cccc(S(=O)(=O)[O-])c6F)c6ccc3[nH]6)C=C5)C=C4)cc2)C(=O)O1
REMARK SMILES IDX 21 1 20 2 19 3 18 4 16 5 17 6 10 7 9 8 8 9 7 10 1 11 2 12
REMARK SMILES IDX 3 13 4 14 92 15 5 16 90 17 6 18 91 19 11 20 12 21 13 22
REMARK SMILES IDX 14 23 15 24 22 27 23 28 24 29 25 30 26 31 27 32 28 33 89 34
REMARK SMILES IDX 29 35 88 36 30 37 31 38 32 39 82 40 33 41 87 42 81 43 83 44
REMARK SMILES IDX 34 45 86 46 80 47 79 48 35 50 67 51 47 52 66 53 48 54 51 55
REMARK SMILES IDX 65 56 84 57 49 58 50 59 64 61 85 62 52 63 36 64 37 65 45 66
REMARK SMILES IDX 38 67 40 68 46 69 39 70 41 71 42 72 43 73 44 74 68 75 69 76
REMARK SMILES IDX 77 77 70 78 72 79 78 80 71 81 73 82 74 83 75 84 76 85 53 86
REMARK SMILES IDX 54 87 62 88 55 89 57 90 63 91 56 92 58 93 59 94 60 95 61 96
REMARK H PARENT 14 25 14 26 83 49 51 60
REMARK Flexibility Score: inf
ROOT
ATOM      1  O   UNL A   1      32.447  28.711  25.236  1.00  0.00    -0.374 OA
ENDROOT
BRANCH   1   2
ATOM      2  C   UNL A   1      31.636  28.839  24.073  1.00  0.00     0.202 C 
BRANCH   2   3
ATOM      3  C   UNL A   1      32.165  28.206  22.783  1.00  0.00     0.261 C 
BRANCH   3   4
ATOM      4  O   UNL A   1      31.510  26.975  22.431  1.00  0.00    -0.462 OA
BRANCH   4   5
ATOM      5  C   UNL A   1      30.411  26.685  23.171  1.00  0.00     0.330 C 
ATOM      6  O   UNL A   1      29.411  27.400  23.233  1.00  0.00    -0.250 OA
BRANCH   5   7
ATOM      7  C   UNL A   1      30.499  25.417  24.007  1.00  0.00     0.215 C 
BRANCH   7   8
ATOM      8  N   UNL A   1      31.569  24.428  23.783  1.00  0.00    -0.281 NA
ATOM      9  C   UNL A   1      31.387  23.313  23.178  1.00  0.00     0.106 C 
BRANCH   9  10
ATOM     10  C   UNL A   1      32.585  22.534  22.696  1.00  0.00     0.250 C 
ATOM     11  C   UNL A   1      34.902  23.847  25.021  1.00  0.00     0.106 C 
ATOM     12  C   UNL A   1      35.117  22.951  23.803  1.00  0.00     0.252 C 
ATOM     13  C   UNL A   1      36.605  22.634  23.649  1.00  0.00     0.106 C 
ATOM     14  O   UNL A   1      34.744  23.638  22.610  1.00  0.00    -0.422 OA
ATOM     15  O   UNL A   1      34.456  21.704  23.988  1.00  0.00    -0.422 OA
ATOM     16  C   UNL A   1      33.582  23.374  21.996  1.00  0.00     0.329 C 
ATOM     17  C   UNL A   1      33.132  21.656  23.770  1.00  0.00     0.329 C 
ATOM     18  O   UNL A   1      33.359  23.841  20.882  1.00  0.00    -0.251 OA
ATOM     19  O   UNL A   1      32.437  20.840  24.369  1.00  0.00    -0.251 OA
ENDBRANCH   9  10
ENDBRANCH   7   8
BRANCH   7  20
ATOM     20  C   UNL A   1      30.240  25.684  25.499  1.00  0.00     0.049 C 
BRANCH  20  21
ATOM     21  C   UNL A   1      31.059  24.888  26.515  1.00  0.00     0.102 C 
BRANCH  21  22
ATOM     22  C   UNL A   1      30.460  23.554  26.894  1.00  0.00     0.217 C 
ATOM     23  N   UNL A   1      31.190  22.460  26.552  1.00  0.00    -0.370 N 
ATOM     24  O   UNL A   1      29.371  23.444  27.445  1.00  0.00    -0.275 OA
ATOM     25  H   UNL A   1      32.063  22.569  26.110  1.00  0.00     0.159 HD
ATOM     26  H   UNL A   1      30.845  21.559  26.748  1.00  0.00     0.159 HD
ENDBRANCH  21  22
ENDBRANCH  20  21
ENDBRANCH   7  20
ENDBRANCH   5   7
ENDBRANCH   4   5
ENDBRANCH   3   4
ENDBRANCH   2   3
ENDBRANCH   1   2
BRANCH   1  27
ATOM     27  C   UNL A   1      31.854  29.037  26.495  1.00  0.00     0.202 C 
BRANCH  27  28
ATOM     28  C   UNL A   1      32.032  30.472  27.004  1.00  0.00     0.261 C 
BRANCH  28  29
ATOM     29  O   UNL A   1      33.251  31.088  26.548  1.00  0.00    -0.460 OA
BRANCH  29  30
ATOM     30  C   UNL A   1      33.817  31.954  27.422  1.00  0.00     0.338 C 
ATOM     31  O   UNL A   1      33.310  32.953  27.918  1.00  0.00    -0.246 OA
BRANCH  30  32
ATOM     32  C   UNL A   1      35.143  31.468  27.832  1.00  0.00     0.060 A 
ATOM     33  C   UNL A   1      35.317  30.107  28.106  1.00  0.00     0.016 A 
ATOM     34  C   UNL A   1      36.168  32.377  28.088  1.00  0.00     0.016 A 
ATOM     35  C   UNL A   1      36.517  29.658  28.665  1.00  0.00     0.010 A 
ATOM     36  C   UNL A   1      37.376  31.922  28.620  1.00  0.00     0.010 A 
ATOM     37  C   UNL A   1      37.547  30.566  28.949  1.00  0.00    -0.014 A 
BRANCH  37  38
ATOM     38  C   UNL A   1      38.750  30.133  29.711  1.00  0.00     0.031 A 
ATOM     39  C   UNL A   1      39.651  29.073  29.131  1.00  0.00     0.074 A 
ATOM     40  C   UNL A   1      39.029  30.658  30.919  1.00  0.00     0.049 A 
ATOM     41  N   UNL A   1      40.717  28.517  29.649  1.00  0.00    -0.248 NA
ATOM     42  C   UNL A   1      39.296  28.558  27.798  1.00  0.00     0.031 C 
ATOM     43  C   UNL A   1      38.225  31.667  31.609  1.00  0.00     0.029 A 
ATOM     44  N   UNL A   1      40.058  30.395  31.790  1.00  0.00    -0.354 N 
ATOM     45  C   UNL A   1      41.133  27.562  28.730  1.00  0.00     0.074 A 
ATOM     46  C   UNL A   1      40.195  27.598  27.629  1.00  0.00     0.031 C 
ATOM     47  C   UNL A   1      38.788  31.932  32.801  1.00  0.00     0.029 A 
ATOM     48  C   UNL A   1      39.977  31.098  32.969  1.00  0.00     0.049 A 
ATOM     49  H   UNL A   1      40.786  29.763  31.589  1.00  0.00     0.167 HD
ATOM     50  C   UNL A   1      42.212  26.745  28.779  1.00  0.00     0.034 A 
ATOM     51  C   UNL A   1      40.766  31.067  34.063  1.00  0.00     0.034 A 
ATOM     52  C   UNL A   1      43.185  26.749  29.837  1.00  0.00     0.049 A 
ATOM     53  C   UNL A   1      41.979  30.173  34.079  1.00  0.00     0.074 A 
ATOM     54  C   UNL A   1      44.351  26.011  29.934  1.00  0.00     0.029 A 
ATOM     55  N   UNL A   1      43.107  27.530  30.978  1.00  0.00    -0.354 N 
ATOM     56  N   UNL A   1      42.429  29.375  33.142  1.00  0.00    -0.248 NA
ATOM     57  C   UNL A   1      42.811  30.198  35.293  1.00  0.00     0.031 C 
ATOM     58  C   UNL A   1      44.977  26.342  31.141  1.00  0.00     0.029 A 
ATOM     59  C   UNL A   1      44.202  27.290  31.790  1.00  0.00     0.049 A 
ATOM     60  H   UNL A   1      42.380  28.162  31.182  1.00  0.00     0.167 HD
ATOM     61  C   UNL A   1      43.607  28.827  33.638  1.00  0.00     0.074 A 
ATOM     62  C   UNL A   1      43.815  29.402  34.951  1.00  0.00     0.031 C 
ATOM     63  C   UNL A   1      44.432  27.915  33.067  1.00  0.00     0.034 A 
BRANCH  50  64
ATOM     64  C   UNL A   1      42.431  25.813  27.617  1.00  0.00     0.023 A 
ATOM     65  C   UNL A   1      43.249  26.224  26.547  1.00  0.00     0.012 A 
ATOM     66  C   UNL A   1      41.874  24.521  27.607  1.00  0.00     0.148 A 
ATOM     67  C   UNL A   1      43.486  25.374  25.467  1.00  0.00     0.002 A 
ATOM     68  C   UNL A   1      42.143  23.664  26.545  1.00  0.00     0.091 A 
ATOM     69  F   UNL A   1      41.075  24.157  28.621  1.00  0.00    -0.205 F 
ATOM     70  C   UNL A   1      42.942  24.092  25.471  1.00  0.00     0.022 A 
BRANCH  68  71
ATOM     71  S   UNL A   1      41.543  21.972  26.500  1.00  0.00     0.127 S 
ATOM     72  O   UNL A   1      42.422  21.372  25.499  1.00  0.00    -0.237 OA
ATOM     73  O   UNL A   1      41.782  21.518  27.871  1.00  0.00    -0.237 OA
ATOM     74  O   UNL A   1      40.137  22.061  26.133  1.00  0.00    -0.744 OA
ENDBRANCH  68  71
ENDBRANCH  50  64
BRANCH  51  75
ATOM     75  C   UNL A   1      40.465  31.961  35.217  1.00  0.00     0.023 A 
ATOM     76  C   UNL A   1      41.239  33.122  35.410  1.00  0.00     0.012 A 
ATOM     77  C   UNL A   1      39.404  31.689  36.101  1.00  0.00     0.148 A 
ATOM     78  C   UNL A   1      40.977  33.983  36.477  1.00  0.00     0.002 A 
ATOM     79  C   UNL A   1      39.113  32.580  37.129  1.00  0.00     0.091 A 
ATOM     80  F   UNL A   1      38.693  30.567  35.916  1.00  0.00    -0.205 F 
ATOM     81  C   UNL A   1      39.907  33.719  37.328  1.00  0.00     0.022 A 
BRANCH  79  82
ATOM     82  S   UNL A   1      37.670  32.386  38.183  1.00  0.00     0.127 S 
ATOM     83  O   UNL A   1      37.981  33.291  39.286  1.00  0.00    -0.237 OA
ATOM     84  O   UNL A   1      36.589  32.834  37.304  1.00  0.00    -0.237 OA
ATOM     85  O   UNL A   1      37.619  30.969  38.515  1.00  0.00    -0.744 OA
ENDBRANCH  79  82
ENDBRANCH  51  75
BRANCH  63  86
ATOM     86  C   UNL A   1      45.651  27.486  33.840  1.00  0.00     0.023 A 
ATOM     87  C   UNL A   1      46.833  28.248  33.748  1.00  0.00     0.012 A 
ATOM     88  C   UNL A   1      45.603  26.389  34.721  1.00  0.00     0.148 A 
ATOM     89  C   UNL A   1      47.955  27.910  34.504  1.00  0.00     0.002 A 
ATOM     90  C   UNL A   1      46.712  26.082  35.502  1.00  0.00     0.091 A 
ATOM     91  F   UNL A   1      44.476  25.663  34.780  1.00  0.00    -0.205 F 
ATOM     92  C   UNL A   1      47.891  26.837  35.390  1.00  0.00     0.022 A 
BRANCH  90  93
ATOM     93  S   UNL A   1      46.682  24.770  36.731  1.00  0.00     0.127 S 
ATOM     94  O   UNL A   1      47.732  25.201  37.652  1.00  0.00    -0.237 OA
ATOM     95  O   UNL A   1      45.324  24.869  37.265  1.00  0.00    -0.237 OA
ATOM     96  O   UNL A   1      46.951  23.539  35.999  1.00  0.00    -0.744 OA
ENDBRANCH  90  93
ENDBRANCH  63  86
ENDBRANCH  37  38
ENDBRANCH  30  32
ENDBRANCH  29  30
ENDBRANCH  28  29
ENDBRANCH  27  28
ENDBRANCH   1  27
TORSDOF 22
ENDMDL
