MODEL 1
REMARK VINA RESULT:     -12.6      0.000      0.000
REMARK SMILES Cc1cccc(OC2(C(=O)OCCOCCOC(=O)c3ccc(-c4c5nc(c(-c6cccc(S(=O)(=O)[O-])c6F)c6ccc([nH]6)c(-c6cccc(S(=O)(=O)[O-])c6F)c6nc(c(-c7cccc(S(=O)(=O)[O-])c7F)c7ccc4[nH]7)C=C6)C=C5)cc3)CCN(C(=O)c3cnc[nH]c3=O)CC2)c1
REMARK SMILES IDX 15 1 14 2 13 3 12 4 11 5 9 6 10 7 8 8 83 9 96 10 84 11 95 12
REMARK SMILES IDX 85 13 86 14 87 15 7 16 6 17 1 18 2 19 3 20 97 21 4 22 5 23
REMARK SMILES IDX 88 24 89 25 93 26 90 27 92 28 94 29 91 30 16 32 17 33 18 34
REMARK SMILES IDX 19 35 20 36 21 37 82 38 22 39 81 40 23 41 24 42 25 43 75 44
REMARK SMILES IDX 26 45 80 46 74 47 76 48 27 49 79 50 73 51 72 52 28 54 60 55
REMARK SMILES IDX 40 56 59 57 41 58 44 59 58 60 77 61 42 62 43 63 57 65 78 66
REMARK SMILES IDX 45 67 29 68 30 69 38 70 31 71 33 72 39 73 32 74 34 75 35 76
REMARK SMILES IDX 36 77 37 78 61 79 62 80 70 81 63 82 65 83 71 84 64 85 66 86
REMARK SMILES IDX 67 87 68 88 69 89 46 90 47 91 55 92 48 93 50 94 56 95 49 96
REMARK SMILES IDX 51 97 52 98 53 99 54 100
REMARK H PARENT 92 31 76 53 44 64
REMARK Flexibility Score: inf
ROOT
ATOM      1  C   UNL A   1      33.345  31.607  27.258  1.00  0.00     0.202 C 
ENDROOT
BRANCH   1   2
ATOM      2  O   UNL A   1      32.369  30.585  27.234  1.00  0.00    -0.374 OA
BRANCH   2   3
ATOM      3  C   UNL A   1      31.717  30.388  25.998  1.00  0.00     0.202 C 
BRANCH   3   4
ATOM      4  C   UNL A   1      32.530  29.417  25.181  1.00  0.00     0.261 C 
BRANCH   4   5
ATOM      5  O   UNL A   1      32.818  28.108  25.765  1.00  0.00    -0.460 OA
BRANCH   5   6
ATOM      6  C   UNL A   1      31.887  27.126  25.996  1.00  0.00     0.350 C 
ATOM      7  O   UNL A   1      31.033  27.153  26.869  1.00  0.00    -0.247 OA
BRANCH   6   8
ATOM      8  C   UNL A   1      32.174  25.930  25.045  1.00  0.00     0.209 C 
ATOM      9  C   UNL A   1      33.727  25.853  24.966  1.00  0.00     0.082 C 
ATOM     10  C   UNL A   1      31.630  24.626  25.685  1.00  0.00     0.082 C 
ATOM     11  C   UNL A   1      34.296  24.585  24.411  1.00  0.00     0.124 C 
ATOM     12  C   UNL A   1      32.203  23.413  24.940  1.00  0.00     0.124 C 
ATOM     13  N   UNL A   1      33.658  23.456  25.034  1.00  0.00    -0.338 N 
ATOM     14  C   UNL A   1      34.401  22.587  25.803  1.00  0.00     0.261 C 
ATOM     15  O   UNL A   1      35.339  22.907  26.522  1.00  0.00    -0.269 OA
BRANCH   8  16
ATOM     16  O   UNL A   1      31.493  25.910  23.773  1.00  0.00    -0.475 OA
BRANCH  16  17
ATOM     17  C   UNL A   1      30.427  26.726  23.578  1.00  0.00     0.121 A 
ATOM     18  C   UNL A   1      29.701  30.031  21.917  1.00  0.00     0.044 C 
ATOM     19  C   UNL A   1      29.466  28.717  22.592  1.00  0.00    -0.047 A 
ATOM     20  C   UNL A   1      28.203  28.318  23.034  1.00  0.00     0.003 A 
ATOM     21  C   UNL A   1      30.553  27.869  22.803  1.00  0.00     0.050 A 
ATOM     22  C   UNL A   1      28.051  27.113  23.725  1.00  0.00     0.004 A 
ATOM     23  C   UNL A   1      29.167  26.321  24.009  1.00  0.00     0.046 A 
ENDBRANCH  16  17
ENDBRANCH   8  16
BRANCH  14  24
ATOM     24  C   UNL A   1      34.079  21.181  25.532  1.00  0.00     0.123 A 
ATOM     25  C   UNL A   1      32.843  20.699  25.704  1.00  0.00     0.132 A 
ATOM     26  C   UNL A   1      35.111  20.266  25.013  1.00  0.00     0.263 A 
ATOM     27  N   UNL A   1      32.458  19.415  25.388  1.00  0.00    -0.246 NA
ATOM     28  N   UNL A   1      34.659  19.026  24.671  1.00  0.00    -0.312 N 
ATOM     29  O   UNL A   1      36.297  20.564  24.895  1.00  0.00    -0.269 OA
ATOM     30  C   UNL A   1      33.366  18.652  24.880  1.00  0.00     0.199 A 
ATOM     31  H   UNL A   1      35.283  18.385  24.263  1.00  0.00     0.171 HD
ENDBRANCH  14  24
ENDBRANCH   6   8
ENDBRANCH   5   6
ENDBRANCH   4   5
ENDBRANCH   3   4
ENDBRANCH   2   3
ENDBRANCH   1   2
BRANCH   1  32
ATOM     32  C   UNL A   1      34.452  31.400  28.293  1.00  0.00     0.261 C 
BRANCH  32  33
ATOM     33  O   UNL A   1      35.695  31.119  27.632  1.00  0.00    -0.460 OA
BRANCH  33  34
ATOM     34  C   UNL A   1      36.029  29.797  27.631  1.00  0.00     0.338 C 
ATOM     35  O   UNL A   1      35.227  28.896  27.449  1.00  0.00    -0.246 OA
BRANCH  34  36
ATOM     36  C   UNL A   1      37.437  29.631  28.092  1.00  0.00     0.060 A 
ATOM     37  C   UNL A   1      38.477  29.599  27.149  1.00  0.00     0.016 A 
ATOM     38  C   UNL A   1      37.684  29.248  29.413  1.00  0.00     0.016 A 
ATOM     39  C   UNL A   1      39.728  29.068  27.494  1.00  0.00     0.010 A 
ATOM     40  C   UNL A   1      38.888  28.645  29.723  1.00  0.00     0.010 A 
ATOM     41  C   UNL A   1      39.908  28.525  28.762  1.00  0.00    -0.014 A 
BRANCH  41  42
ATOM     42  C   UNL A   1      41.108  27.833  29.227  1.00  0.00     0.031 A 
ATOM     43  C   UNL A   1      41.270  26.408  28.891  1.00  0.00     0.074 A 
ATOM     44  C   UNL A   1      42.185  28.487  29.719  1.00  0.00     0.049 A 
ATOM     45  N   UNL A   1      42.232  25.677  29.342  1.00  0.00    -0.248 NA
ATOM     46  C   UNL A   1      40.302  25.660  28.092  1.00  0.00     0.031 C 
ATOM     47  C   UNL A   1      43.591  28.150  29.499  1.00  0.00     0.029 A 
ATOM     48  N   UNL A   1      42.245  29.622  30.513  1.00  0.00    -0.354 N 
ATOM     49  C   UNL A   1      42.228  24.533  28.588  1.00  0.00     0.074 A 
ATOM     50  C   UNL A   1      40.908  24.473  28.022  1.00  0.00     0.031 C 
ATOM     51  C   UNL A   1      44.364  28.949  30.249  1.00  0.00     0.029 A 
ATOM     52  C   UNL A   1      43.493  29.705  31.129  1.00  0.00     0.049 A 
ATOM     53  H   UNL A   1      41.514  30.272  30.625  1.00  0.00     0.167 HD
ATOM     54  C   UNL A   1      43.414  23.906  28.368  1.00  0.00     0.034 A 
ATOM     55  C   UNL A   1      43.613  29.891  32.471  1.00  0.00     0.034 A 
ATOM     56  C   UNL A   1      44.478  24.432  29.258  1.00  0.00     0.049 A 
ATOM     57  C   UNL A   1      44.306  28.711  33.097  1.00  0.00     0.074 A 
ATOM     58  C   UNL A   1      45.638  25.156  29.041  1.00  0.00     0.029 A 
ATOM     59  N   UNL A   1      44.278  24.448  30.646  1.00  0.00    -0.354 N 
ATOM     60  N   UNL A   1      44.714  27.684  32.404  1.00  0.00    -0.248 NA
ATOM     61  C   UNL A   1      44.597  28.558  34.517  1.00  0.00     0.031 C 
ATOM     62  C   UNL A   1      46.083  25.672  30.296  1.00  0.00     0.029 A 
ATOM     63  C   UNL A   1      45.230  25.227  31.294  1.00  0.00     0.049 A 
ATOM     64  H   UNL A   1      43.553  23.966  31.106  1.00  0.00     0.167 HD
ATOM     65  C   UNL A   1      45.075  26.672  33.231  1.00  0.00     0.074 A 
ATOM     66  C   UNL A   1      45.110  27.312  34.540  1.00  0.00     0.031 C 
ATOM     67  C   UNL A   1      45.209  25.393  32.759  1.00  0.00     0.034 A 
BRANCH  54  68
ATOM     68  C   UNL A   1      43.677  22.964  27.191  1.00  0.00     0.023 A 
ATOM     69  C   UNL A   1      44.503  23.445  26.153  1.00  0.00     0.012 A 
ATOM     70  C   UNL A   1      43.116  21.674  26.972  1.00  0.00     0.148 A 
ATOM     71  C   UNL A   1      44.757  22.705  24.986  1.00  0.00     0.002 A 
ATOM     72  C   UNL A   1      43.435  20.902  25.851  1.00  0.00     0.091 A 
ATOM     73  F   UNL A   1      42.176  21.194  27.785  1.00  0.00    -0.205 F 
ATOM     74  C   UNL A   1      44.244  21.425  24.844  1.00  0.00     0.022 A 
BRANCH  72  75
ATOM     75  S   UNL A   1      42.841  19.208  25.635  1.00  0.00     0.127 S 
ATOM     76  O   UNL A   1      41.410  19.409  25.410  1.00  0.00    -0.237 OA
ATOM     77  O   UNL A   1      43.586  18.766  24.456  1.00  0.00    -0.237 OA
ATOM     78  O   UNL A   1      43.175  18.490  26.860  1.00  0.00    -0.744 OA
ENDBRANCH  72  75
ENDBRANCH  54  68
BRANCH  55  79
ATOM     79  C   UNL A   1      42.526  30.745  33.044  1.00  0.00     0.023 A 
ATOM     80  C   UNL A   1      42.495  32.101  32.626  1.00  0.00     0.012 A 
ATOM     81  C   UNL A   1      41.347  30.181  33.575  1.00  0.00     0.148 A 
ATOM     82  C   UNL A   1      41.313  32.848  32.661  1.00  0.00     0.002 A 
ATOM     83  C   UNL A   1      40.158  30.913  33.547  1.00  0.00     0.091 A 
ATOM     84  F   UNL A   1      41.388  28.918  34.015  1.00  0.00    -0.205 F 
ATOM     85  C   UNL A   1      40.137  32.241  33.085  1.00  0.00     0.022 A 
BRANCH  83  86
ATOM     86  S   UNL A   1      38.552  30.172  33.888  1.00  0.00     0.127 S 
ATOM     87  O   UNL A   1      38.599  30.020  35.341  1.00  0.00    -0.237 OA
ATOM     88  O   UNL A   1      37.634  31.209  33.410  1.00  0.00    -0.237 OA
ATOM     89  O   UNL A   1      38.514  28.937  33.123  1.00  0.00    -0.744 OA
ENDBRANCH  83  86
ENDBRANCH  55  79
BRANCH  67  90
ATOM     90  C   UNL A   1      45.303  24.179  33.657  1.00  0.00     0.023 A 
ATOM     91  C   UNL A   1      44.226  23.287  33.837  1.00  0.00     0.012 A 
ATOM     92  C   UNL A   1      46.535  23.811  34.248  1.00  0.00     0.148 A 
ATOM     93  C   UNL A   1      44.334  22.135  34.620  1.00  0.00     0.002 A 
ATOM     94  C   UNL A   1      46.672  22.599  34.916  1.00  0.00     0.091 A 
ATOM     95  F   UNL A   1      47.584  24.644  34.185  1.00  0.00    -0.205 F 
ATOM     96  C   UNL A   1      45.567  21.777  35.140  1.00  0.00     0.022 A 
BRANCH  94  97
ATOM     97  S   UNL A   1      48.298  21.975  35.357  1.00  0.00     0.127 S 
ATOM     98  O   UNL A   1      48.764  21.418  34.089  1.00  0.00    -0.237 OA
ATOM     99  O   UNL A   1      48.996  23.190  35.783  1.00  0.00    -0.237 OA
ATOM    100  O   UNL A   1      48.058  21.021  36.432  1.00  0.00    -0.744 OA
ENDBRANCH  94  97
ENDBRANCH  67  90
ENDBRANCH  41  42
ENDBRANCH  34  36
ENDBRANCH  33  34
ENDBRANCH  32  33
ENDBRANCH   1  32
TORSDOF 20
ENDMDL
MODEL 2
REMARK VINA RESULT:     -12.4      4.250     10.132
REMARK SMILES Cc1cccc(OC2(C(=O)OCCOCCOC(=O)c3ccc(-c4c5nc(c(-c6cccc(S(=O)(=O)[O-])c6F)c6ccc([nH]6)c(-c6cccc(S(=O)(=O)[O-])c6F)c6nc(c(-c7cccc(S(=O)(=O)[O-])c7F)c7ccc4[nH]7)C=C6)C=C5)cc3)CCN(C(=O)c3cnc[nH]c3=O)CC2)c1
REMARK SMILES IDX 15 1 14 2 13 3 12 4 11 5 9 6 10 7 8 8 83 9 96 10 84 11 95 12
REMARK SMILES IDX 85 13 86 14 87 15 7 16 6 17 1 18 2 19 3 20 97 21 4 22 5 23
REMARK SMILES IDX 88 24 89 25 93 26 90 27 92 28 94 29 91 30 16 32 17 33 18 34
REMARK SMILES IDX 19 35 20 36 21 37 82 38 22 39 81 40 23 41 24 42 25 43 75 44
REMARK SMILES IDX 26 45 80 46 74 47 76 48 27 49 79 50 73 51 72 52 28 54 60 55
REMARK SMILES IDX 40 56 59 57 41 58 44 59 58 60 77 61 42 62 43 63 57 65 78 66
REMARK SMILES IDX 45 67 29 68 30 69 38 70 31 71 33 72 39 73 32 74 34 75 35 76
REMARK SMILES IDX 36 77 37 78 61 79 62 80 70 81 63 82 65 83 71 84 64 85 66 86
REMARK SMILES IDX 67 87 68 88 69 89 46 90 47 91 55 92 48 93 50 94 56 95 49 96
REMARK SMILES IDX 51 97 52 98 53 99 54 100
REMARK H PARENT 92 31 76 53 44 64
REMARK Flexibility Score: inf
ROOT
ATOM      1  C   UNL A   1      38.746  20.935  25.650  1.00  0.00     0.202 C 
ENDROOT
BRANCH   1   2
ATOM      2  O   UNL A   1      38.934  22.225  26.196  1.00  0.00    -0.374 OA
BRANCH   2   3
ATOM      3  C   UNL A   1      38.235  23.270  25.556  1.00  0.00     0.202 C 
BRANCH   3   4
ATOM      4  C   UNL A   1      37.016  23.601  26.378  1.00  0.00     0.261 C 
BRANCH   4   5
ATOM      5  O   UNL A   1      35.836  22.753  26.222  1.00  0.00    -0.460 OA
BRANCH   5   6
ATOM      6  C   UNL A   1      34.572  23.074  26.650  1.00  0.00     0.350 C 
ATOM      7  O   UNL A   1      34.149  22.917  27.784  1.00  0.00    -0.247 OA
BRANCH   6   8
ATOM      8  C   UNL A   1      33.739  23.558  25.430  1.00  0.00     0.209 C 
ATOM      9  C   UNL A   1      32.256  23.356  25.860  1.00  0.00     0.082 C 
ATOM     10  C   UNL A   1      34.002  25.070  25.200  1.00  0.00     0.082 C 
ATOM     11  C   UNL A   1      31.228  24.063  25.032  1.00  0.00     0.124 C 
ATOM     12  C   UNL A   1      32.945  25.632  24.240  1.00  0.00     0.124 C 
ATOM     13  N   UNL A   1      31.627  25.431  24.833  1.00  0.00    -0.338 N 
ATOM     14  C   UNL A   1      30.852  26.451  25.340  1.00  0.00     0.261 C 
ATOM     15  O   UNL A   1      30.236  26.411  26.398  1.00  0.00    -0.269 OA
BRANCH   8  16
ATOM     16  O   UNL A   1      34.081  23.024  24.134  1.00  0.00    -0.475 OA
BRANCH  16  17
ATOM     17  C   UNL A   1      33.487  21.881  23.709  1.00  0.00     0.121 A 
ATOM     18  C   UNL A   1      33.281  18.272  24.779  1.00  0.00     0.044 C 
ATOM     19  C   UNL A   1      32.980  19.537  24.039  1.00  0.00    -0.047 A 
ATOM     20  C   UNL A   1      32.131  19.571  22.931  1.00  0.00     0.003 A 
ATOM     21  C   UNL A   1      33.586  20.720  24.461  1.00  0.00     0.050 A 
ATOM     22  C   UNL A   1      31.942  20.766  22.230  1.00  0.00     0.004 A 
ATOM     23  C   UNL A   1      32.631  21.920  22.613  1.00  0.00     0.046 A 
ENDBRANCH  16  17
ENDBRANCH   8  16
BRANCH  14  24
ATOM     24  C   UNL A   1      30.675  27.550  24.384  1.00  0.00     0.123 A 
ATOM     25  C   UNL A   1      30.001  27.384  23.240  1.00  0.00     0.132 A 
ATOM     26  C   UNL A   1      31.204  28.893  24.685  1.00  0.00     0.263 A 
ATOM     27  N   UNL A   1      29.729  28.394  22.344  1.00  0.00    -0.246 NA
ATOM     28  N   UNL A   1      30.859  29.859  23.788  1.00  0.00    -0.312 N 
ATOM     29  O   UNL A   1      31.911  29.151  25.656  1.00  0.00    -0.269 OA
ATOM     30  C   UNL A   1      30.151  29.572  22.660  1.00  0.00     0.199 A 
ATOM     31  H   UNL A   1      31.129  30.790  23.959  1.00  0.00     0.171 HD
ENDBRANCH  14  24
ENDBRANCH   6   8
ENDBRANCH   5   6
ENDBRANCH   4   5
ENDBRANCH   3   4
ENDBRANCH   2   3
ENDBRANCH   1   2
BRANCH   1  32
ATOM     32  C   UNL A   1      39.872  19.948  25.959  1.00  0.00     0.261 C 
BRANCH  32  33
ATOM     33  O   UNL A   1      40.835  20.558  26.831  1.00  0.00    -0.460 OA
BRANCH  33  34
ATOM     34  C   UNL A   1      42.036  20.805  26.236  1.00  0.00     0.338 C 
ATOM     35  O   UNL A   1      42.587  20.027  25.475  1.00  0.00    -0.246 OA
BRANCH  34  36
ATOM     36  C   UNL A   1      42.646  22.034  26.818  1.00  0.00     0.060 A 
ATOM     37  C   UNL A   1      42.509  22.293  28.192  1.00  0.00     0.016 A 
ATOM     38  C   UNL A   1      43.112  23.037  25.964  1.00  0.00     0.016 A 
ATOM     39  C   UNL A   1      42.718  23.586  28.692  1.00  0.00     0.010 A 
ATOM     40  C   UNL A   1      43.229  24.328  26.446  1.00  0.00     0.010 A 
ATOM     41  C   UNL A   1      43.008  24.617  27.805  1.00  0.00    -0.014 A 
BRANCH  41  42
ATOM     42  C   UNL A   1      43.134  26.030  28.157  1.00  0.00     0.031 A 
ATOM     43  C   UNL A   1      41.915  26.855  28.192  1.00  0.00     0.074 A 
ATOM     44  C   UNL A   1      44.259  26.551  28.698  1.00  0.00     0.049 A 
ATOM     45  N   UNL A   1      41.926  28.130  28.382  1.00  0.00    -0.248 NA
ATOM     46  C   UNL A   1      40.581  26.324  27.918  1.00  0.00     0.031 C 
ATOM     47  C   UNL A   1      44.338  27.571  29.744  1.00  0.00     0.029 A 
ATOM     48  N   UNL A   1      45.587  26.253  28.436  1.00  0.00    -0.354 N 
ATOM     49  C   UNL A   1      40.632  28.488  28.653  1.00  0.00     0.074 A 
ATOM     50  C   UNL A   1      39.837  27.412  28.125  1.00  0.00     0.031 C 
ATOM     51  C   UNL A   1      45.619  27.921  29.929  1.00  0.00     0.029 A 
ATOM     52  C   UNL A   1      46.403  27.292  28.885  1.00  0.00     0.049 A 
ATOM     53  H   UNL A   1      45.906  25.432  27.997  1.00  0.00     0.167 HD
ATOM     54  C   UNL A   1      40.417  29.542  29.485  1.00  0.00     0.034 A 
ATOM     55  C   UNL A   1      47.338  27.862  28.078  1.00  0.00     0.034 A 
ATOM     56  C   UNL A   1      41.664  30.313  29.713  1.00  0.00     0.049 A 
ATOM     57  C   UNL A   1      47.018  29.316  27.863  1.00  0.00     0.074 A 
ATOM     58  C   UNL A   1      42.472  30.524  30.818  1.00  0.00     0.029 A 
ATOM     59  N   UNL A   1      42.391  30.800  28.617  1.00  0.00    -0.354 N 
ATOM     60  N   UNL A   1      45.982  29.897  28.401  1.00  0.00    -0.248 NA
ATOM     61  C   UNL A   1      47.794  30.241  27.046  1.00  0.00     0.031 C 
ATOM     62  C   UNL A   1      43.714  31.065  30.366  1.00  0.00     0.029 A 
ATOM     63  C   UNL A   1      43.658  31.234  28.991  1.00  0.00     0.049 A 
ATOM     64  H   UNL A   1      42.046  30.832  27.696  1.00  0.00     0.167 HD
ATOM     65  C   UNL A   1      45.794  31.125  27.856  1.00  0.00     0.074 A 
ATOM     66  C   UNL A   1      47.027  31.346  27.112  1.00  0.00     0.031 C 
ATOM     67  C   UNL A   1      44.600  31.780  27.998  1.00  0.00     0.034 A 
BRANCH  54  68
ATOM     68  C   UNL A   1      39.126  29.758  30.277  1.00  0.00     0.023 A 
ATOM     69  C   UNL A   1      38.852  28.851  31.323  1.00  0.00     0.012 A 
ATOM     70  C   UNL A   1      38.110  30.725  30.031  1.00  0.00     0.148 A 
ATOM     71  C   UNL A   1      37.665  28.897  32.072  1.00  0.00     0.002 A 
ATOM     72  C   UNL A   1      36.967  30.826  30.830  1.00  0.00     0.091 A 
ATOM     73  F   UNL A   1      38.165  31.510  28.956  1.00  0.00    -0.205 F 
ATOM     74  C   UNL A   1      36.732  29.898  31.842  1.00  0.00     0.022 A 
BRANCH  72  75
ATOM     75  S   UNL A   1      35.744  32.139  30.615  1.00  0.00     0.127 S 
ATOM     76  O   UNL A   1      35.056  31.723  29.392  1.00  0.00    -0.237 OA
ATOM     77  O   UNL A   1      34.943  32.020  31.834  1.00  0.00    -0.237 OA
ATOM     78  O   UNL A   1      36.488  33.389  30.505  1.00  0.00    -0.744 OA
ENDBRANCH  72  75
ENDBRANCH  54  68
BRANCH  55  79
ATOM     79  C   UNL A   1      47.955  26.892  27.118  1.00  0.00     0.023 A 
ATOM     80  C   UNL A   1      47.269  26.687  25.893  1.00  0.00     0.012 A 
ATOM     81  C   UNL A   1      49.324  26.561  27.183  1.00  0.00     0.148 A 
ATOM     82  C   UNL A   1      47.938  26.241  24.748  1.00  0.00     0.002 A 
ATOM     83  C   UNL A   1      49.997  26.177  26.020  1.00  0.00     0.091 A 
ATOM     84  F   UNL A   1      49.961  26.707  28.351  1.00  0.00    -0.205 F 
ATOM     85  C   UNL A   1      49.310  26.024  24.804  1.00  0.00     0.022 A 
BRANCH  83  86
ATOM     86  S   UNL A   1      51.792  26.057  25.932  1.00  0.00     0.127 S 
ATOM     87  O   UNL A   1      52.201  27.368  26.432  1.00  0.00    -0.237 OA
ATOM     88  O   UNL A   1      52.064  24.942  26.843  1.00  0.00    -0.237 OA
ATOM     89  O   UNL A   1      52.104  25.784  24.539  1.00  0.00    -0.744 OA
ENDBRANCH  83  86
ENDBRANCH  55  79
BRANCH  67  90
ATOM     90  C   UNL A   1      44.212  32.991  27.176  1.00  0.00     0.023 A 
ATOM     91  C   UNL A   1      44.059  32.935  25.776  1.00  0.00     0.012 A 
ATOM     92  C   UNL A   1      43.846  34.204  27.806  1.00  0.00     0.148 A 
ATOM     93  C   UNL A   1      43.643  34.039  25.027  1.00  0.00     0.002 A 
ATOM     94  C   UNL A   1      43.309  35.256  27.070  1.00  0.00     0.091 A 
ATOM     95  F   UNL A   1      44.034  34.359  29.124  1.00  0.00    -0.205 F 
ATOM     96  C   UNL A   1      43.243  35.194  25.678  1.00  0.00     0.022 A 
BRANCH  94  97
ATOM     97  S   UNL A   1      42.527  36.646  27.897  1.00  0.00     0.127 S 
ATOM     98  O   UNL A   1      43.654  37.256  28.598  1.00  0.00    -0.237 OA
ATOM     99  O   UNL A   1      42.011  37.430  26.773  1.00  0.00    -0.237 OA
ATOM    100  O   UNL A   1      41.490  36.054  28.732  1.00  0.00    -0.744 OA
ENDBRANCH  94  97
ENDBRANCH  67  90
ENDBRANCH  41  42
ENDBRANCH  34  36
ENDBRANCH  33  34
ENDBRANCH  32  33
ENDBRANCH   1  32
TORSDOF 20
ENDMDL
MODEL 3
REMARK VINA RESULT:     -12.2      2.778      3.890
REMARK SMILES Cc1cccc(OC2(C(=O)OCCOCCOC(=O)c3ccc(-c4c5nc(c(-c6cccc(S(=O)(=O)[O-])c6F)c6ccc([nH]6)c(-c6cccc(S(=O)(=O)[O-])c6F)c6nc(c(-c7cccc(S(=O)(=O)[O-])c7F)c7ccc4[nH]7)C=C6)C=C5)cc3)CCN(C(=O)c3cnc[nH]c3=O)CC2)c1
REMARK SMILES IDX 15 1 14 2 13 3 12 4 11 5 9 6 10 7 8 8 83 9 96 10 84 11 95 12
REMARK SMILES IDX 85 13 86 14 87 15 7 16 6 17 1 18 2 19 3 20 97 21 4 22 5 23
REMARK SMILES IDX 88 24 89 25 93 26 90 27 92 28 94 29 91 30 16 32 17 33 18 34
REMARK SMILES IDX 19 35 20 36 21 37 82 38 22 39 81 40 23 41 24 42 25 43 75 44
REMARK SMILES IDX 26 45 80 46 74 47 76 48 27 49 79 50 73 51 72 52 28 54 60 55
REMARK SMILES IDX 40 56 59 57 41 58 44 59 58 60 77 61 42 62 43 63 57 65 78 66
REMARK SMILES IDX 45 67 29 68 30 69 38 70 31 71 33 72 39 73 32 74 34 75 35 76
REMARK SMILES IDX 36 77 37 78 61 79 62 80 70 81 63 82 65 83 71 84 64 85 66 86
REMARK SMILES IDX 67 87 68 88 69 89 46 90 47 91 55 92 48 93 50 94 56 95 49 96
REMARK SMILES IDX 51 97 52 98 53 99 54 100
REMARK H PARENT 92 31 76 53 44 64
REMARK Flexibility Score: inf
ROOT
ATOM      1  C   UNL A   1      34.007  30.140  27.369  1.00  0.00     0.202 C 
ENDROOT
BRANCH   1   2
ATOM      2  O   UNL A   1      32.603  30.278  27.277  1.00  0.00    -0.374 OA
BRANCH   2   3
ATOM      3  C   UNL A   1      31.948  29.340  26.450  1.00  0.00     0.202 C 
BRANCH   3   4
ATOM      4  C   UNL A   1      31.673  28.102  27.263  1.00  0.00     0.261 C 
BRANCH   4   5
ATOM      5  O   UNL A   1      32.054  26.812  26.691  1.00  0.00    -0.460 OA
BRANCH   5   6
ATOM      6  C   UNL A   1      31.183  25.905  26.139  1.00  0.00     0.350 C 
ATOM      7  O   UNL A   1      29.986  25.842  26.375  1.00  0.00    -0.247 OA
BRANCH   6   8
ATOM      8  C   UNL A   1      31.988  24.906  25.263  1.00  0.00     0.209 C 
ATOM      9  C   UNL A   1      33.351  24.747  25.997  1.00  0.00     0.082 C 
ATOM     10  C   UNL A   1      31.256  23.539  25.242  1.00  0.00     0.082 C 
ATOM     11  C   UNL A   1      34.192  23.580  25.581  1.00  0.00     0.124 C 
ATOM     12  C   UNL A   1      32.196  22.463  24.682  1.00  0.00     0.124 C 
ATOM     13  N   UNL A   1      33.380  22.393  25.533  1.00  0.00    -0.338 N 
ATOM     14  C   UNL A   1      33.650  21.343  26.383  1.00  0.00     0.261 C 
ATOM     15  O   UNL A   1      34.051  21.453  27.535  1.00  0.00    -0.269 OA
BRANCH   8  16
ATOM     16  O   UNL A   1      32.081  25.183  23.849  1.00  0.00    -0.475 OA
BRANCH  16  17
ATOM     17  C   UNL A   1      32.312  26.454  23.436  1.00  0.00     0.121 A 
ATOM     18  C   UNL A   1      30.309  29.409  22.227  1.00  0.00     0.044 C 
ATOM     19  C   UNL A   1      31.473  28.607  22.717  1.00  0.00    -0.047 A 
ATOM     20  C   UNL A   1      32.773  29.117  22.747  1.00  0.00     0.003 A 
ATOM     21  C   UNL A   1      31.252  27.298  23.142  1.00  0.00     0.050 A 
ATOM     22  C   UNL A   1      33.836  28.301  23.144  1.00  0.00     0.004 A 
ATOM     23  C   UNL A   1      33.607  26.963  23.477  1.00  0.00     0.046 A 
ENDBRANCH  16  17
ENDBRANCH   8  16
BRANCH  14  24
ATOM     24  C   UNL A   1      33.591  20.043  25.705  1.00  0.00     0.123 A 
ATOM     25  C   UNL A   1      32.486  19.289  25.728  1.00  0.00     0.132 A 
ATOM     26  C   UNL A   1      34.746  19.550  24.934  1.00  0.00     0.263 A 
ATOM     27  N   UNL A   1      32.339  18.103  25.044  1.00  0.00    -0.246 NA
ATOM     28  N   UNL A   1      34.523  18.399  24.239  1.00  0.00    -0.312 N 
ATOM     29  O   UNL A   1      35.842  20.106  24.908  1.00  0.00    -0.269 OA
ATOM     30  C   UNL A   1      33.344  17.723  24.330  1.00  0.00     0.199 A 
ATOM     31  H   UNL A   1      35.234  18.046  23.657  1.00  0.00     0.171 HD
ENDBRANCH  14  24
ENDBRANCH   6   8
ENDBRANCH   5   6
ENDBRANCH   4   5
ENDBRANCH   3   4
ENDBRANCH   2   3
ENDBRANCH   1   2
BRANCH   1  32
ATOM     32  C   UNL A   1      34.742  31.420  27.770  1.00  0.00     0.261 C 
BRANCH  32  33
ATOM     33  O   UNL A   1      33.821  32.519  27.827  1.00  0.00    -0.460 OA
BRANCH  33  34
ATOM     34  C   UNL A   1      33.980  33.312  28.924  1.00  0.00     0.338 C 
ATOM     35  O   UNL A   1      33.228  34.227  29.214  1.00  0.00    -0.246 OA
BRANCH  34  36
ATOM     36  C   UNL A   1      35.297  33.030  29.565  1.00  0.00     0.060 A 
ATOM     37  C   UNL A   1      36.483  33.378  28.896  1.00  0.00     0.016 A 
ATOM     38  C   UNL A   1      35.349  32.196  30.684  1.00  0.00     0.016 A 
ATOM     39  C   UNL A   1      37.701  32.795  29.270  1.00  0.00     0.010 A 
ATOM     40  C   UNL A   1      36.535  31.557  30.991  1.00  0.00     0.010 A 
ATOM     41  C   UNL A   1      37.713  31.830  30.271  1.00  0.00    -0.014 A 
BRANCH  41  42
ATOM     42  C   UNL A   1      38.878  31.051  30.687  1.00  0.00     0.031 A 
ATOM     43  C   UNL A   1      39.073  29.715  30.100  1.00  0.00     0.074 A 
ATOM     44  C   UNL A   1      39.909  31.590  31.376  1.00  0.00     0.049 A 
ATOM     45  N   UNL A   1      40.001  28.903  30.476  1.00  0.00    -0.248 NA
ATOM     46  C   UNL A   1      38.173  29.140  29.101  1.00  0.00     0.031 C 
ATOM     47  C   UNL A   1      41.330  31.288  31.205  1.00  0.00     0.029 A 
ATOM     48  N   UNL A   1      39.901  32.553  32.372  1.00  0.00    -0.354 N 
ATOM     49  C   UNL A   1      40.062  27.923  29.521  1.00  0.00     0.074 A 
ATOM     50  C   UNL A   1      38.790  27.983  28.854  1.00  0.00     0.031 C 
ATOM     51  C   UNL A   1      42.038  31.924  32.149  1.00  0.00     0.029 A 
ATOM     52  C   UNL A   1      41.098  32.506  33.088  1.00  0.00     0.049 A 
ATOM     53  H   UNL A   1      39.160  33.177  32.550  1.00  0.00     0.167 HD
ATOM     54  C   UNL A   1      41.265  27.338  29.277  1.00  0.00     0.034 A 
ATOM     55  C   UNL A   1      41.113  32.433  34.445  1.00  0.00     0.034 A 
ATOM     56  C   UNL A   1      42.255  27.675  30.330  1.00  0.00     0.049 A 
ATOM     57  C   UNL A   1      41.762  31.150  34.887  1.00  0.00     0.074 A 
ATOM     58  C   UNL A   1      43.423  28.418  30.345  1.00  0.00     0.029 A 
ATOM     59  N   UNL A   1      41.948  27.430  31.677  1.00  0.00    -0.354 N 
ATOM     60  N   UNL A   1      42.229  30.270  34.046  1.00  0.00    -0.248 NA
ATOM     61  C   UNL A   1      41.944  30.727  36.270  1.00  0.00     0.031 C 
ATOM     62  C   UNL A   1      43.768  28.682  31.705  1.00  0.00     0.029 A 
ATOM     63  C   UNL A   1      42.842  28.063  32.532  1.00  0.00     0.049 A 
ATOM     64  H   UNL A   1      41.193  26.876  31.979  1.00  0.00     0.167 HD
ATOM     65  C   UNL A   1      42.531  29.115  34.691  1.00  0.00     0.074 A 
ATOM     66  C   UNL A   1      42.461  29.495  36.095  1.00  0.00     0.031 C 
ATOM     67  C   UNL A   1      42.708  27.948  33.996  1.00  0.00     0.034 A 
BRANCH  54  68
ATOM     68  C   UNL A   1      41.623  26.634  27.967  1.00  0.00     0.023 A 
ATOM     69  C   UNL A   1      41.811  27.447  26.828  1.00  0.00     0.012 A 
ATOM     70  C   UNL A   1      41.711  25.232  27.732  1.00  0.00     0.148 A 
ATOM     71  C   UNL A   1      42.068  26.915  25.554  1.00  0.00     0.002 A 
ATOM     72  C   UNL A   1      42.050  24.705  26.482  1.00  0.00     0.091 A 
ATOM     73  F   UNL A   1      41.368  24.361  28.680  1.00  0.00    -0.205 F 
ATOM     74  C   UNL A   1      42.211  25.546  25.384  1.00  0.00     0.022 A 
BRANCH  72  75
ATOM     75  S   UNL A   1      42.303  22.936  26.210  1.00  0.00     0.127 S 
ATOM     76  O   UNL A   1      42.835  22.905  24.848  1.00  0.00    -0.237 OA
ATOM     77  O   UNL A   1      43.274  22.598  27.251  1.00  0.00    -0.237 OA
ATOM     78  O   UNL A   1      41.001  22.298  26.374  1.00  0.00    -0.744 OA
ENDBRANCH  72  75
ENDBRANCH  54  68
BRANCH  55  79
ATOM     79  C   UNL A   1      39.980  33.173  35.085  1.00  0.00     0.023 A 
ATOM     80  C   UNL A   1      38.721  32.518  35.100  1.00  0.00     0.012 A 
ATOM     81  C   UNL A   1      40.207  34.208  36.016  1.00  0.00     0.148 A 
ATOM     82  C   UNL A   1      37.749  32.827  36.057  1.00  0.00     0.002 A 
ATOM     83  C   UNL A   1      39.256  34.467  37.006  1.00  0.00     0.091 A 
ATOM     84  F   UNL A   1      41.375  34.860  35.971  1.00  0.00    -0.205 F 
ATOM     85  C   UNL A   1      38.033  33.775  37.033  1.00  0.00     0.022 A 
BRANCH  83  86
ATOM     86  S   UNL A   1      39.593  35.527  38.423  1.00  0.00     0.127 S 
ATOM     87  O   UNL A   1      38.622  35.036  39.398  1.00  0.00    -0.237 OA
ATOM     88  O   UNL A   1      40.987  35.192  38.724  1.00  0.00    -0.237 OA
ATOM     89  O   UNL A   1      39.391  36.889  37.958  1.00  0.00    -0.744 OA
ENDBRANCH  83  86
ENDBRANCH  55  79
BRANCH  67  90
ATOM     90  C   UNL A   1      42.739  26.585  34.651  1.00  0.00     0.023 A 
ATOM     91  C   UNL A   1      41.602  26.011  35.255  1.00  0.00     0.012 A 
ATOM     92  C   UNL A   1      43.889  25.765  34.559  1.00  0.00     0.148 A 
ATOM     93  C   UNL A   1      41.618  24.728  35.807  1.00  0.00     0.002 A 
ATOM     94  C   UNL A   1      43.860  24.443  34.992  1.00  0.00     0.091 A 
ATOM     95  F   UNL A   1      45.031  26.265  34.066  1.00  0.00    -0.205 F 
ATOM     96  C   UNL A   1      42.742  23.933  35.653  1.00  0.00     0.022 A 
BRANCH  94  97
ATOM     97  S   UNL A   1      45.185  23.309  34.563  1.00  0.00     0.127 S 
ATOM     98  O   UNL A   1      46.240  23.709  35.491  1.00  0.00    -0.237 OA
ATOM     99  O   UNL A   1      44.585  22.004  34.846  1.00  0.00    -0.237 OA
ATOM    100  O   UNL A   1      45.444  23.549  33.149  1.00  0.00    -0.744 OA
ENDBRANCH  94  97
ENDBRANCH  67  90
ENDBRANCH  41  42
ENDBRANCH  34  36
ENDBRANCH  33  34
ENDBRANCH  32  33
ENDBRANCH   1  32
TORSDOF 20
ENDMDL
