MODEL 1
REMARK VINA RESULT:     -10.4      0.000      0.000
REMARK SMILES O=C(CCC(=O)OCCOCCOC(=O)c1ccc(-c2c3nc(c(-c4cccc(S(=O)(=O)[O-])c4F)c4ccc([nH]4)c(-c4cccc(S(=O)(=O)[O-])c4F)c4nc(c(-c5cccc(S(=O)(=O)[O-])c5F)c5ccc2[nH]5)C=C4)C=C3)cc1)Nc1ccccc1C(=O)N1CCN(c2ccc(Cl)cc2)CC1
REMARK SMILES IDX 9 1 8 2 7 3 5 4 6 5 4 6 3 7 2 8 1 9 79 10 80 12 81 13 85 14
REMARK SMILES IDX 82 15 84 16 83 17 86 18 87 19 88 20 89 21 100 22 90 23 99 24
REMARK SMILES IDX 91 25 92 26 93 27 98 28 94 29 97 30 95 31 96 32 10 33 11 34
REMARK SMILES IDX 12 35 13 36 14 37 15 38 16 39 17 40 78 41 18 42 77 43 19 44
REMARK SMILES IDX 20 45 21 46 71 47 22 48 76 49 70 50 72 51 23 52 75 53 69 54
REMARK SMILES IDX 68 55 24 57 56 58 36 59 55 60 37 61 40 62 54 63 73 64 38 65
REMARK SMILES IDX 39 66 53 68 74 69 41 70 25 71 26 72 34 73 27 74 29 75 35 76
REMARK SMILES IDX 28 77 30 78 31 79 32 80 33 81 57 82 58 83 66 84 59 85 61 86
REMARK SMILES IDX 67 87 60 88 62 89 63 90 64 91 65 92 42 93 43 94 51 95 44 96
REMARK SMILES IDX 46 97 52 98 45 99 47 100 48 101 49 102 50 103
REMARK H PARENT 79 11 72 56 40 67
REMARK Flexibility Score: inf
ROOT
ATOM      1  C   UNL A   1      39.369  22.854  26.941  1.00  0.00     0.202 C 
ENDROOT
BRANCH   1   2
ATOM      2  C   UNL A   1      38.420  23.716  26.117  1.00  0.00     0.261 C 
BRANCH   2   3
ATOM      3  O   UNL A   1      37.629  22.889  25.243  1.00  0.00    -0.463 OA
BRANCH   3   4
ATOM      4  C   UNL A   1      36.427  22.487  25.733  1.00  0.00     0.306 C 
ATOM      5  O   UNL A   1      36.041  21.330  25.810  1.00  0.00    -0.252 OA
BRANCH   4   6
ATOM      6  C   UNL A   1      35.589  23.673  26.129  1.00  0.00     0.132 C 
BRANCH   6   7
ATOM      7  C   UNL A   1      34.126  23.324  26.325  1.00  0.00     0.112 C 
BRANCH   7   8
ATOM      8  C   UNL A   1      33.196  24.522  26.354  1.00  0.00     0.224 C 
ATOM      9  O   UNL A   1      32.080  24.425  26.854  1.00  0.00    -0.275 OA
ATOM     10  N   UNL A   1      33.727  25.679  25.803  1.00  0.00    -0.325 N 
ATOM     11  H   UNL A   1      34.677  25.719  25.547  1.00  0.00     0.169 HD
BRANCH  10  12
ATOM     12  C   UNL A   1      32.887  26.801  25.610  1.00  0.00     0.054 A 
ATOM     13  C   UNL A   1      32.728  27.601  26.748  1.00  0.00     0.027 A 
ATOM     14  C   UNL A   1      32.275  27.182  24.394  1.00  0.00     0.063 A 
ATOM     15  C   UNL A   1      32.049  28.808  26.666  1.00  0.00     0.002 A 
ATOM     16  C   UNL A   1      31.510  28.366  24.370  1.00  0.00     0.016 A 
ATOM     17  C   UNL A   1      31.408  29.180  25.494  1.00  0.00     0.001 A 
BRANCH  14  18
ATOM     18  C   UNL A   1      32.346  26.468  23.077  1.00  0.00     0.256 C 
ATOM     19  O   UNL A   1      32.431  27.079  22.014  1.00  0.00    -0.269 OA
ATOM     20  N   UNL A   1      32.348  25.093  23.092  1.00  0.00    -0.335 N 
ATOM     21  C   UNL A   1      33.491  24.419  22.501  1.00  0.00     0.141 C 
ATOM     22  C   UNL A   1      31.103  24.395  22.848  1.00  0.00     0.141 C 
ATOM     23  C   UNL A   1      33.669  23.038  23.131  1.00  0.00     0.138 C 
ATOM     24  C   UNL A   1      31.141  22.973  23.413  1.00  0.00     0.138 C 
ATOM     25  N   UNL A   1      32.411  22.248  23.159  1.00  0.00    -0.368 N 
BRANCH  25  26
ATOM     26  C   UNL A   1      32.468  20.919  23.587  1.00  0.00     0.037 A 
ATOM     27  C   UNL A   1      32.162  19.835  22.746  1.00  0.00     0.027 A 
ATOM     28  C   UNL A   1      32.830  20.613  24.908  1.00  0.00     0.027 A 
ATOM     29  C   UNL A   1      32.236  18.510  23.191  1.00  0.00     0.022 A 
ATOM     30  C   UNL A   1      32.885  19.294  25.371  1.00  0.00     0.022 A 
ATOM     31  C   UNL A   1      32.589  18.245  24.507  1.00  0.00     0.041 A 
ATOM     32  Cl  UNL A   1      32.640  16.624  25.075  1.00  0.00    -0.084 Cl
ENDBRANCH  25  26
ENDBRANCH  14  18
ENDBRANCH  10  12
ENDBRANCH   7   8
ENDBRANCH   6   7
ENDBRANCH   4   6
ENDBRANCH   3   4
ENDBRANCH   2   3
ENDBRANCH   1   2
BRANCH   1  33
ATOM     33  O   UNL A   1      39.948  21.779  26.203  1.00  0.00    -0.374 OA
BRANCH  33  34
ATOM     34  C   UNL A   1      41.322  21.507  26.491  1.00  0.00     0.202 C 
BRANCH  34  35
ATOM     35  C   UNL A   1      42.309  22.358  25.680  1.00  0.00     0.261 C 
BRANCH  35  36
ATOM     36  O   UNL A   1      43.645  22.250  26.223  1.00  0.00    -0.460 OA
BRANCH  36  37
ATOM     37  C   UNL A   1      44.532  23.173  25.761  1.00  0.00     0.338 C 
ATOM     38  O   UNL A   1      45.343  23.015  24.869  1.00  0.00    -0.246 OA
BRANCH  37  39
ATOM     39  C   UNL A   1      44.234  24.505  26.335  1.00  0.00     0.060 A 
ATOM     40  C   UNL A   1      44.032  25.563  25.436  1.00  0.00     0.016 A 
ATOM     41  C   UNL A   1      44.212  24.744  27.707  1.00  0.00     0.016 A 
ATOM     42  C   UNL A   1      43.842  26.867  25.903  1.00  0.00     0.010 A 
ATOM     43  C   UNL A   1      44.015  26.055  28.167  1.00  0.00     0.010 A 
ATOM     44  C   UNL A   1      43.855  27.137  27.274  1.00  0.00    -0.014 A 
BRANCH  44  45
ATOM     45  C   UNL A   1      43.794  28.539  27.793  1.00  0.00     0.031 A 
ATOM     46  C   UNL A   1      45.072  29.313  27.996  1.00  0.00     0.074 A 
ATOM     47  C   UNL A   1      42.629  29.130  28.131  1.00  0.00     0.049 A 
ATOM     48  N   UNL A   1      45.244  30.497  28.524  1.00  0.00    -0.248 NA
ATOM     49  C   UNL A   1      46.312  28.684  27.514  1.00  0.00     0.031 C 
ATOM     50  C   UNL A   1      41.297  28.573  27.925  1.00  0.00     0.029 A 
ATOM     51  N   UNL A   1      42.390  30.306  28.808  1.00  0.00    -0.354 N 
ATOM     52  C   UNL A   1      46.603  30.764  28.427  1.00  0.00     0.074 A 
ATOM     53  C   UNL A   1      47.221  29.588  27.851  1.00  0.00     0.031 C 
ATOM     54  C   UNL A   1      40.401  29.311  28.604  1.00  0.00     0.029 A 
ATOM     55  C   UNL A   1      41.095  30.408  29.266  1.00  0.00     0.049 A 
ATOM     56  H   UNL A   1      43.072  31.001  28.949  1.00  0.00     0.167 HD
ATOM     57  C   UNL A   1      47.273  31.901  28.734  1.00  0.00     0.034 A 
ATOM     58  C   UNL A   1      40.531  31.257  30.150  1.00  0.00     0.034 A 
ATOM     59  C   UNL A   1      46.664  33.076  29.298  1.00  0.00     0.049 A 
ATOM     60  C   UNL A   1      41.313  32.447  30.627  1.00  0.00     0.074 A 
ATOM     61  C   UNL A   1      47.241  34.308  29.550  1.00  0.00     0.029 A 
ATOM     62  N   UNL A   1      45.352  33.155  29.734  1.00  0.00    -0.354 N 
ATOM     63  N   UNL A   1      42.556  32.767  30.367  1.00  0.00    -0.248 NA
ATOM     64  C   UNL A   1      40.592  33.442  31.435  1.00  0.00     0.031 C 
ATOM     65  C   UNL A   1      46.291  35.115  30.186  1.00  0.00     0.029 A 
ATOM     66  C   UNL A   1      45.109  34.400  30.292  1.00  0.00     0.049 A 
ATOM     67  H   UNL A   1      44.688  32.432  29.660  1.00  0.00     0.167 HD
ATOM     68  C   UNL A   1      42.746  34.032  30.912  1.00  0.00     0.074 A 
ATOM     69  C   UNL A   1      41.493  34.413  31.531  1.00  0.00     0.031 C 
ATOM     70  C   UNL A   1      43.857  34.807  30.879  1.00  0.00     0.034 A 
BRANCH  57  71
ATOM     71  C   UNL A   1      48.746  31.939  28.423  1.00  0.00     0.023 A 
ATOM     72  C   UNL A   1      49.666  31.370  29.330  1.00  0.00     0.012 A 
ATOM     73  C   UNL A   1      49.220  32.502  27.223  1.00  0.00     0.148 A 
ATOM     74  C   UNL A   1      51.035  31.407  29.074  1.00  0.00     0.002 A 
ATOM     75  C   UNL A   1      50.583  32.493  26.952  1.00  0.00     0.091 A 
ATOM     76  F   UNL A   1      48.335  33.051  26.381  1.00  0.00    -0.205 F 
ATOM     77  C   UNL A   1      51.493  31.961  27.882  1.00  0.00     0.022 A 
BRANCH  75  78
ATOM     78  S   UNL A   1      51.265  33.110  25.410  1.00  0.00     0.127 S 
ATOM     79  O   UNL A   1      51.279  31.899  24.590  1.00  0.00    -0.237 OA
ATOM     80  O   UNL A   1      50.270  34.106  25.011  1.00  0.00    -0.237 OA
ATOM     81  O   UNL A   1      52.573  33.658  25.741  1.00  0.00    -0.744 OA
ENDBRANCH  75  78
ENDBRANCH  57  71
BRANCH  58  82
ATOM     82  C   UNL A   1      39.130  31.032  30.602  1.00  0.00     0.023 A 
ATOM     83  C   UNL A   1      38.866  30.134  31.651  1.00  0.00     0.012 A 
ATOM     84  C   UNL A   1      38.058  31.723  29.998  1.00  0.00     0.148 A 
ATOM     85  C   UNL A   1      37.557  29.903  32.075  1.00  0.00     0.002 A 
ATOM     86  C   UNL A   1      36.760  31.513  30.447  1.00  0.00     0.091 A 
ATOM     87  F   UNL A   1      38.338  32.581  29.006  1.00  0.00    -0.205 F 
ATOM     88  C   UNL A   1      36.505  30.594  31.476  1.00  0.00     0.022 A 
BRANCH  86  89
ATOM     89  S   UNL A   1      35.342  32.408  29.800  1.00  0.00     0.127 S 
ATOM     90  O   UNL A   1      34.953  31.572  28.666  1.00  0.00    -0.237 OA
ATOM     91  O   UNL A   1      34.426  32.365  30.940  1.00  0.00    -0.237 OA
ATOM     92  O   UNL A   1      35.835  33.733  29.458  1.00  0.00    -0.744 OA
ENDBRANCH  86  89
ENDBRANCH  58  82
BRANCH  70  93
ATOM     93  C   UNL A   1      43.779  36.184  31.489  1.00  0.00     0.023 A 
ATOM     94  C   UNL A   1      43.830  36.342  32.887  1.00  0.00     0.012 A 
ATOM     95  C   UNL A   1      43.730  37.328  30.666  1.00  0.00     0.148 A 
ATOM     96  C   UNL A   1      43.806  37.614  33.459  1.00  0.00     0.002 A 
ATOM     97  C   UNL A   1      43.760  38.594  31.240  1.00  0.00     0.091 A 
ATOM     98  F   UNL A   1      43.661  37.159  29.338  1.00  0.00    -0.205 F 
ATOM     99  C   UNL A   1      43.785  38.739  32.636  1.00  0.00     0.022 A 
BRANCH  97 100
ATOM    100  S   UNL A   1      43.831  40.100  30.263  1.00  0.00     0.127 S 
ATOM    101  O   UNL A   1      45.061  39.902  29.498  1.00  0.00    -0.237 OA
ATOM    102  O   UNL A   1      42.602  40.014  29.474  1.00  0.00    -0.237 OA
ATOM    103  O   UNL A   1      43.865  41.200  31.217  1.00  0.00    -0.744 OA
ENDBRANCH  97 100
ENDBRANCH  70  93
ENDBRANCH  44  45
ENDBRANCH  37  39
ENDBRANCH  36  37
ENDBRANCH  35  36
ENDBRANCH  34  35
ENDBRANCH  33  34
ENDBRANCH   1  33
TORSDOF 22
ENDMDL
MODEL 2
REMARK VINA RESULT:      -9.9      3.862      9.096
REMARK SMILES O=C(CCC(=O)OCCOCCOC(=O)c1ccc(-c2c3nc(c(-c4cccc(S(=O)(=O)[O-])c4F)c4ccc([nH]4)c(-c4cccc(S(=O)(=O)[O-])c4F)c4nc(c(-c5cccc(S(=O)(=O)[O-])c5F)c5ccc2[nH]5)C=C4)C=C3)cc1)Nc1ccccc1C(=O)N1CCN(c2ccc(Cl)cc2)CC1
REMARK SMILES IDX 9 1 8 2 7 3 5 4 6 5 4 6 3 7 2 8 1 9 79 10 80 12 81 13 85 14
REMARK SMILES IDX 82 15 84 16 83 17 86 18 87 19 88 20 89 21 100 22 90 23 99 24
REMARK SMILES IDX 91 25 92 26 93 27 98 28 94 29 97 30 95 31 96 32 10 33 11 34
REMARK SMILES IDX 12 35 13 36 14 37 15 38 16 39 17 40 78 41 18 42 77 43 19 44
REMARK SMILES IDX 20 45 21 46 71 47 22 48 76 49 70 50 72 51 23 52 75 53 69 54
REMARK SMILES IDX 68 55 24 57 56 58 36 59 55 60 37 61 40 62 54 63 73 64 38 65
REMARK SMILES IDX 39 66 53 68 74 69 41 70 25 71 26 72 34 73 27 74 29 75 35 76
REMARK SMILES IDX 28 77 30 78 31 79 32 80 33 81 57 82 58 83 66 84 59 85 61 86
REMARK SMILES IDX 67 87 60 88 62 89 63 90 64 91 65 92 42 93 43 94 51 95 44 96
REMARK SMILES IDX 46 97 52 98 45 99 47 100 48 101 49 102 50 103
REMARK H PARENT 79 11 72 56 40 67
REMARK Flexibility Score: inf
ROOT
ATOM      1  C   UNL A   1      39.936  21.448  26.402  1.00  0.00     0.202 C 
ENDROOT
BRANCH   1   2
ATOM      2  C   UNL A   1      38.899  22.561  26.499  1.00  0.00     0.261 C 
BRANCH   2   3
ATOM      3  O   UNL A   1      38.263  22.760  25.223  1.00  0.00    -0.463 OA
BRANCH   3   4
ATOM      4  C   UNL A   1      37.059  22.152  25.059  1.00  0.00     0.306 C 
ATOM      5  O   UNL A   1      36.887  20.997  24.698  1.00  0.00    -0.252 OA
BRANCH   4   6
ATOM      6  C   UNL A   1      35.934  23.115  25.330  1.00  0.00     0.132 C 
BRANCH   6   7
ATOM      7  C   UNL A   1      35.120  23.437  24.091  1.00  0.00     0.112 C 
BRANCH   7   8
ATOM      8  C   UNL A   1      34.321  24.723  24.185  1.00  0.00     0.224 C 
ATOM      9  O   UNL A   1      34.182  25.437  23.197  1.00  0.00    -0.275 OA
ATOM     10  N   UNL A   1      33.780  24.977  25.437  1.00  0.00    -0.325 N 
ATOM     11  H   UNL A   1      33.817  24.293  26.144  1.00  0.00     0.169 HD
BRANCH  10  12
ATOM     12  C   UNL A   1      33.175  26.232  25.687  1.00  0.00     0.054 A 
ATOM     13  C   UNL A   1      34.065  27.223  26.116  1.00  0.00     0.027 A 
ATOM     14  C   UNL A   1      31.812  26.552  25.487  1.00  0.00     0.063 A 
ATOM     15  C   UNL A   1      33.636  28.534  26.260  1.00  0.00     0.002 A 
ATOM     16  C   UNL A   1      31.390  27.873  25.736  1.00  0.00     0.016 A 
ATOM     17  C   UNL A   1      32.297  28.861  26.108  1.00  0.00     0.001 A 
BRANCH  14  18
ATOM     18  C   UNL A   1      30.722  25.636  25.017  1.00  0.00     0.256 C 
ATOM     19  O   UNL A   1      29.589  26.048  24.776  1.00  0.00    -0.269 OA
ATOM     20  N   UNL A   1      31.036  24.310  24.825  1.00  0.00    -0.335 N 
ATOM     21  C   UNL A   1      30.841  23.761  23.495  1.00  0.00     0.141 C 
ATOM     22  C   UNL A   1      30.710  23.363  25.872  1.00  0.00     0.141 C 
ATOM     23  C   UNL A   1      31.778  22.575  23.275  1.00  0.00     0.138 C 
ATOM     24  C   UNL A   1      31.567  22.099  25.766  1.00  0.00     0.138 C 
ATOM     25  N   UNL A   1      31.730  21.586  24.382  1.00  0.00    -0.368 N 
BRANCH  25  26
ATOM     26  C   UNL A   1      32.440  20.390  24.239  1.00  0.00     0.037 A 
ATOM     27  C   UNL A   1      33.497  20.026  25.091  1.00  0.00     0.027 A 
ATOM     28  C   UNL A   1      32.121  19.495  23.207  1.00  0.00     0.027 A 
ATOM     29  C   UNL A   1      34.187  18.818  24.938  1.00  0.00     0.022 A 
ATOM     30  C   UNL A   1      32.820  18.296  23.029  1.00  0.00     0.022 A 
ATOM     31  C   UNL A   1      33.850  17.960  23.899  1.00  0.00     0.041 A 
ATOM     32  Cl  UNL A   1      34.721  16.495  23.676  1.00  0.00    -0.084 Cl
ENDBRANCH  25  26
ENDBRANCH  14  18
ENDBRANCH  10  12
ENDBRANCH   7   8
ENDBRANCH   6   7
ENDBRANCH   4   6
ENDBRANCH   3   4
ENDBRANCH   2   3
ENDBRANCH   1   2
BRANCH   1  33
ATOM     33  O   UNL A   1      41.172  21.869  25.826  1.00  0.00    -0.374 OA
BRANCH  33  34
ATOM     34  C   UNL A   1      42.293  21.871  26.713  1.00  0.00     0.202 C 
BRANCH  34  35
ATOM     35  C   UNL A   1      42.927  23.254  26.913  1.00  0.00     0.261 C 
BRANCH  35  36
ATOM     36  O   UNL A   1      44.134  23.155  27.705  1.00  0.00    -0.460 OA
BRANCH  36  37
ATOM     37  C   UNL A   1      45.293  23.189  26.995  1.00  0.00     0.338 C 
ATOM     38  O   UNL A   1      45.750  22.294  26.309  1.00  0.00    -0.246 OA
BRANCH  37  39
ATOM     39  C   UNL A   1      45.843  24.564  26.973  1.00  0.00     0.060 A 
ATOM     40  C   UNL A   1      46.067  25.147  25.717  1.00  0.00     0.016 A 
ATOM     41  C   UNL A   1      46.193  25.252  28.132  1.00  0.00     0.016 A 
ATOM     42  C   UNL A   1      46.674  26.402  25.613  1.00  0.00     0.010 A 
ATOM     43  C   UNL A   1      46.796  26.514  28.019  1.00  0.00     0.010 A 
ATOM     44  C   UNL A   1      47.069  27.095  26.762  1.00  0.00    -0.014 A 
BRANCH  44  45
ATOM     45  C   UNL A   1      47.843  28.372  26.673  1.00  0.00     0.031 A 
ATOM     46  C   UNL A   1      47.105  29.684  26.592  1.00  0.00     0.074 A 
ATOM     47  C   UNL A   1      49.190  28.394  26.618  1.00  0.00     0.049 A 
ATOM     48  N   UNL A   1      47.581  30.889  26.412  1.00  0.00    -0.248 NA
ATOM     49  C   UNL A   1      45.644  29.637  26.766  1.00  0.00     0.031 C 
ATOM     50  C   UNL A   1      50.070  27.240  26.769  1.00  0.00     0.029 A 
ATOM     51  N   UNL A   1      50.055  29.427  26.329  1.00  0.00    -0.354 N 
ATOM     52  C   UNL A   1      46.487  31.744  26.466  1.00  0.00     0.074 A 
ATOM     53  C   UNL A   1      45.314  30.912  26.626  1.00  0.00     0.031 C 
ATOM     54  C   UNL A   1      51.318  27.587  26.408  1.00  0.00     0.029 A 
ATOM     55  C   UNL A   1      51.327  28.995  26.031  1.00  0.00     0.049 A 
ATOM     56  H   UNL A   1      49.790  30.376  26.336  1.00  0.00     0.167 HD
ATOM     57  C   UNL A   1      46.462  33.098  26.441  1.00  0.00     0.034 A 
ATOM     58  C   UNL A   1      52.376  29.639  25.478  1.00  0.00     0.034 A 
ATOM     59  C   UNL A   1      47.625  33.930  26.291  1.00  0.00     0.049 A 
ATOM     60  C   UNL A   1      52.311  31.128  25.297  1.00  0.00     0.074 A 
ATOM     61  C   UNL A   1      47.712  35.310  26.353  1.00  0.00     0.029 A 
ATOM     62  N   UNL A   1      48.899  33.466  26.008  1.00  0.00    -0.354 N 
ATOM     63  N   UNL A   1      51.309  31.938  25.531  1.00  0.00    -0.248 NA
ATOM     64  C   UNL A   1      53.545  31.806  24.872  1.00  0.00     0.031 C 
ATOM     65  C   UNL A   1      49.028  35.682  26.058  1.00  0.00     0.029 A 
ATOM     66  C   UNL A   1      49.772  34.531  25.853  1.00  0.00     0.049 A 
ATOM     67  H   UNL A   1      49.150  32.517  25.929  1.00  0.00     0.167 HD
ATOM     68  C   UNL A   1      51.809  33.223  25.356  1.00  0.00     0.074 A 
ATOM     69  C   UNL A   1      53.201  33.084  24.981  1.00  0.00     0.031 C 
ATOM     70  C   UNL A   1      51.168  34.407  25.516  1.00  0.00     0.034 A 
BRANCH  57  71
ATOM     71  C   UNL A   1      45.124  33.766  26.624  1.00  0.00     0.023 A 
ATOM     72  C   UNL A   1      44.369  34.137  25.490  1.00  0.00     0.012 A 
ATOM     73  C   UNL A   1      44.597  33.995  27.909  1.00  0.00     0.148 A 
ATOM     74  C   UNL A   1      43.137  34.771  25.632  1.00  0.00     0.002 A 
ATOM     75  C   UNL A   1      43.346  34.586  28.042  1.00  0.00     0.091 A 
ATOM     76  F   UNL A   1      45.334  33.651  28.973  1.00  0.00    -0.205 F 
ATOM     77  C   UNL A   1      42.622  34.988  26.907  1.00  0.00     0.022 A 
BRANCH  75  78
ATOM     78  S   UNL A   1      42.561  34.835  29.637  1.00  0.00     0.127 S 
ATOM     79  O   UNL A   1      43.439  35.835  30.244  1.00  0.00    -0.237 OA
ATOM     80  O   UNL A   1      41.240  35.335  29.255  1.00  0.00    -0.237 OA
ATOM     81  O   UNL A   1      42.551  33.532  30.286  1.00  0.00    -0.744 OA
ENDBRANCH  75  78
ENDBRANCH  57  71
BRANCH  58  82
ATOM     82  C   UNL A   1      53.599  28.876  25.102  1.00  0.00     0.023 A 
ATOM     83  C   UNL A   1      53.740  28.377  23.795  1.00  0.00     0.012 A 
ATOM     84  C   UNL A   1      54.630  28.659  26.040  1.00  0.00     0.148 A 
ATOM     85  C   UNL A   1      54.874  27.648  23.432  1.00  0.00     0.002 A 
ATOM     86  C   UNL A   1      55.771  27.960  25.662  1.00  0.00     0.091 A 
ATOM     87  F   UNL A   1      54.475  29.154  27.276  1.00  0.00    -0.205 F 
ATOM     88  C   UNL A   1      55.889  27.443  24.363  1.00  0.00     0.022 A 
BRANCH  86  89
ATOM     89  S   UNL A   1      57.172  27.707  26.759  1.00  0.00     0.127 S 
ATOM     90  O   UNL A   1      57.556  29.081  27.075  1.00  0.00    -0.237 OA
ATOM     91  O   UNL A   1      56.551  26.972  27.861  1.00  0.00    -0.237 OA
ATOM     92  O   UNL A   1      58.145  26.949  25.987  1.00  0.00    -0.744 OA
ENDBRANCH  86  89
ENDBRANCH  58  82
BRANCH  70  93
ATOM     93  C   UNL A   1      51.965  35.674  25.334  1.00  0.00     0.023 A 
ATOM     94  C   UNL A   1      52.285  36.129  24.040  1.00  0.00     0.012 A 
ATOM     95  C   UNL A   1      52.332  36.454  26.450  1.00  0.00     0.148 A 
ATOM     96  C   UNL A   1      52.980  37.325  23.860  1.00  0.00     0.002 A 
ATOM     97  C   UNL A   1      52.978  37.670  26.261  1.00  0.00     0.091 A 
ATOM     98  F   UNL A   1      52.037  35.996  27.675  1.00  0.00    -0.205 F 
ATOM     99  C   UNL A   1      53.315  38.101  24.969  1.00  0.00     0.022 A 
BRANCH  97 100
ATOM    100  S   UNL A   1      53.364  38.784  27.618  1.00  0.00     0.127 S 
ATOM    101  O   UNL A   1      53.945  39.924  26.912  1.00  0.00    -0.237 OA
ATOM    102  O   UNL A   1      52.043  39.033  28.197  1.00  0.00    -0.237 OA
ATOM    103  O   UNL A   1      54.281  38.060  28.487  1.00  0.00    -0.744 OA
ENDBRANCH  97 100
ENDBRANCH  70  93
ENDBRANCH  44  45
ENDBRANCH  37  39
ENDBRANCH  36  37
ENDBRANCH  35  36
ENDBRANCH  34  35
ENDBRANCH  33  34
ENDBRANCH   1  33
TORSDOF 22
ENDMDL
MODEL 3
REMARK VINA RESULT:      -9.9      2.117      7.462
REMARK SMILES O=C(CCC(=O)OCCOCCOC(=O)c1ccc(-c2c3nc(c(-c4cccc(S(=O)(=O)[O-])c4F)c4ccc([nH]4)c(-c4cccc(S(=O)(=O)[O-])c4F)c4nc(c(-c5cccc(S(=O)(=O)[O-])c5F)c5ccc2[nH]5)C=C4)C=C3)cc1)Nc1ccccc1C(=O)N1CCN(c2ccc(Cl)cc2)CC1
REMARK SMILES IDX 9 1 8 2 7 3 5 4 6 5 4 6 3 7 2 8 1 9 79 10 80 12 81 13 85 14
REMARK SMILES IDX 82 15 84 16 83 17 86 18 87 19 88 20 89 21 100 22 90 23 99 24
REMARK SMILES IDX 91 25 92 26 93 27 98 28 94 29 97 30 95 31 96 32 10 33 11 34
REMARK SMILES IDX 12 35 13 36 14 37 15 38 16 39 17 40 78 41 18 42 77 43 19 44
REMARK SMILES IDX 20 45 21 46 71 47 22 48 76 49 70 50 72 51 23 52 75 53 69 54
REMARK SMILES IDX 68 55 24 57 56 58 36 59 55 60 37 61 40 62 54 63 73 64 38 65
REMARK SMILES IDX 39 66 53 68 74 69 41 70 25 71 26 72 34 73 27 74 29 75 35 76
REMARK SMILES IDX 28 77 30 78 31 79 32 80 33 81 57 82 58 83 66 84 59 85 61 86
REMARK SMILES IDX 67 87 60 88 62 89 63 90 64 91 65 92 42 93 43 94 51 95 44 96
REMARK SMILES IDX 46 97 52 98 45 99 47 100 48 101 49 102 50 103
REMARK H PARENT 79 11 72 56 40 67
REMARK Flexibility Score: inf
ROOT
ATOM      1  C   UNL A   1      40.671  21.389  26.105  1.00  0.00     0.202 C 
ENDROOT
BRANCH   1   2
ATOM      2  C   UNL A   1      39.602  22.327  26.653  1.00  0.00     0.261 C 
BRANCH   2   3
ATOM      3  O   UNL A   1      38.664  22.671  25.617  1.00  0.00    -0.463 OA
BRANCH   3   4
ATOM      4  C   UNL A   1      37.679  21.764  25.383  1.00  0.00     0.306 C 
ATOM      5  O   UNL A   1      37.847  20.586  25.103  1.00  0.00    -0.252 OA
BRANCH   4   6
ATOM      6  C   UNL A   1      36.325  22.417  25.459  1.00  0.00     0.132 C 
BRANCH   6   7
ATOM      7  C   UNL A   1      35.727  22.701  24.095  1.00  0.00     0.112 C 
BRANCH   7   8
ATOM      8  C   UNL A   1      34.851  23.938  24.040  1.00  0.00     0.224 C 
ATOM      9  O   UNL A   1      34.795  24.611  23.016  1.00  0.00    -0.275 OA
ATOM     10  N   UNL A   1      34.144  24.197  25.206  1.00  0.00    -0.325 N 
ATOM     11  H   UNL A   1      34.132  23.538  25.937  1.00  0.00     0.169 HD
BRANCH  10  12
ATOM     12  C   UNL A   1      33.442  25.419  25.331  1.00  0.00     0.054 A 
ATOM     13  C   UNL A   1      34.215  26.477  25.823  1.00  0.00     0.027 A 
ATOM     14  C   UNL A   1      32.097  25.646  24.959  1.00  0.00     0.063 A 
ATOM     15  C   UNL A   1      33.697  27.763  25.862  1.00  0.00     0.002 A 
ATOM     16  C   UNL A   1      31.572  26.947  25.103  1.00  0.00     0.016 A 
ATOM     17  C   UNL A   1      32.369  28.001  25.539  1.00  0.00     0.001 A 
BRANCH  14  18
ATOM     18  C   UNL A   1      31.126  24.649  24.401  1.00  0.00     0.256 C 
ATOM     19  O   UNL A   1      30.072  24.997  23.874  1.00  0.00    -0.269 OA
ATOM     20  N   UNL A   1      31.466  23.317  24.464  1.00  0.00    -0.335 N 
ATOM     21  C   UNL A   1      31.554  22.589  23.211  1.00  0.00     0.141 C 
ATOM     22  C   UNL A   1      30.922  22.514  25.539  1.00  0.00     0.141 C 
ATOM     23  C   UNL A   1      32.511  21.407  23.358  1.00  0.00     0.138 C 
ATOM     24  C   UNL A   1      31.776  21.267  25.790  1.00  0.00     0.138 C 
ATOM     25  N   UNL A   1      32.225  20.576  24.555  1.00  0.00    -0.368 N 
BRANCH  25  26
ATOM     26  C   UNL A   1      32.942  19.389  24.731  1.00  0.00     0.037 A 
ATOM     27  C   UNL A   1      32.384  18.243  25.323  1.00  0.00     0.027 A 
ATOM     28  C   UNL A   1      34.282  19.303  24.323  1.00  0.00     0.027 A 
ATOM     29  C   UNL A   1      33.116  17.060  25.479  1.00  0.00     0.022 A 
ATOM     30  C   UNL A   1      35.031  18.133  24.495  1.00  0.00     0.022 A 
ATOM     31  C   UNL A   1      34.443  17.014  25.071  1.00  0.00     0.041 A 
ATOM     32  Cl  UNL A   1      35.363  15.580  25.299  1.00  0.00    -0.084 Cl
ENDBRANCH  25  26
ENDBRANCH  14  18
ENDBRANCH  10  12
ENDBRANCH   7   8
ENDBRANCH   6   7
ENDBRANCH   4   6
ENDBRANCH   3   4
ENDBRANCH   2   3
ENDBRANCH   1   2
BRANCH   1  33
ATOM     33  O   UNL A   1      41.830  22.066  25.621  1.00  0.00    -0.374 OA
BRANCH  33  34
ATOM     34  C   UNL A   1      43.007  21.915  26.417  1.00  0.00     0.202 C 
BRANCH  34  35
ATOM     35  C   UNL A   1      43.747  23.231  26.691  1.00  0.00     0.261 C 
BRANCH  35  36
ATOM     36  O   UNL A   1      45.140  23.123  26.319  1.00  0.00    -0.460 OA
BRANCH  36  37
ATOM     37  C   UNL A   1      45.542  23.973  25.335  1.00  0.00     0.338 C 
ATOM     38  O   UNL A   1      45.652  23.713  24.153  1.00  0.00    -0.246 OA
BRANCH  37  39
ATOM     39  C   UNL A   1      45.617  25.359  25.853  1.00  0.00     0.060 A 
ATOM     40  C   UNL A   1      46.043  25.527  27.179  1.00  0.00     0.016 A 
ATOM     41  C   UNL A   1      45.229  26.464  25.102  1.00  0.00     0.016 A 
ATOM     42  C   UNL A   1      46.048  26.795  27.770  1.00  0.00     0.010 A 
ATOM     43  C   UNL A   1      45.243  27.734  25.699  1.00  0.00     0.010 A 
ATOM     44  C   UNL A   1      45.625  27.914  27.047  1.00  0.00    -0.014 A 
BRANCH  44  45
ATOM     45  C   UNL A   1      45.490  29.255  27.696  1.00  0.00     0.031 A 
ATOM     46  C   UNL A   1      44.157  29.675  28.263  1.00  0.00     0.074 A 
ATOM     47  C   UNL A   1      46.513  30.132  27.755  1.00  0.00     0.049 A 
ATOM     48  N   UNL A   1      43.804  30.825  28.776  1.00  0.00    -0.248 NA
ATOM     49  C   UNL A   1      43.094  28.658  28.283  1.00  0.00     0.031 C 
ATOM     50  C   UNL A   1      47.887  29.871  27.340  1.00  0.00     0.029 A 
ATOM     51  N   UNL A   1      46.528  31.463  28.113  1.00  0.00    -0.354 N 
ATOM     52  C   UNL A   1      42.489  30.670  29.192  1.00  0.00     0.074 A 
ATOM     53  C   UNL A   1      42.084  29.334  28.810  1.00  0.00     0.031 C 
ATOM     54  C   UNL A   1      48.565  31.031  27.303  1.00  0.00     0.029 A 
ATOM     55  C   UNL A   1      47.679  32.110  27.722  1.00  0.00     0.049 A 
ATOM     56  H   UNL A   1      45.794  31.904  28.597  1.00  0.00     0.167 HD
ATOM     57  C   UNL A   1      41.704  31.535  29.879  1.00  0.00     0.034 A 
ATOM     58  C   UNL A   1      47.982  33.423  27.664  1.00  0.00     0.034 A 
ATOM     59  C   UNL A   1      42.104  32.860  30.271  1.00  0.00     0.049 A 
ATOM     60  C   UNL A   1      47.047  34.421  28.287  1.00  0.00     0.074 A 
ATOM     61  C   UNL A   1      41.418  33.772  31.053  1.00  0.00     0.029 A 
ATOM     62  N   UNL A   1      43.278  33.481  29.877  1.00  0.00    -0.354 N 
ATOM     63  N   UNL A   1      45.878  34.212  28.840  1.00  0.00    -0.248 NA
ATOM     64  C   UNL A   1      47.511  35.814  28.369  1.00  0.00     0.031 C 
ATOM     65  C   UNL A   1      42.153  34.961  31.090  1.00  0.00     0.029 A 
ATOM     66  C   UNL A   1      43.320  34.777  30.365  1.00  0.00     0.049 A 
ATOM     67  H   UNL A   1      43.982  33.063  29.330  1.00  0.00     0.167 HD
ATOM     68  C   UNL A   1      45.500  35.427  29.401  1.00  0.00     0.074 A 
ATOM     69  C   UNL A   1      46.559  36.371  29.107  1.00  0.00     0.031 C 
ATOM     70  C   UNL A   1      44.383  35.717  30.112  1.00  0.00     0.034 A 
BRANCH  57  71
ATOM     71  C   UNL A   1      40.339  31.049  30.291  1.00  0.00     0.023 A 
ATOM     72  C   UNL A   1      39.235  31.271  29.440  1.00  0.00     0.012 A 
ATOM     73  C   UNL A   1      40.151  30.347  31.496  1.00  0.00     0.148 A 
ATOM     74  C   UNL A   1      37.959  30.847  29.805  1.00  0.00     0.002 A 
ATOM     75  C   UNL A   1      38.884  29.886  31.831  1.00  0.00     0.091 A 
ATOM     76  F   UNL A   1      41.208  30.160  32.299  1.00  0.00    -0.205 F 
ATOM     77  C   UNL A   1      37.784  30.148  30.996  1.00  0.00     0.022 A 
BRANCH  75  78
ATOM     78  S   UNL A   1      38.570  28.907  33.303  1.00  0.00     0.127 S 
ATOM     79  O   UNL A   1      37.187  28.485  33.086  1.00  0.00    -0.237 OA
ATOM     80  O   UNL A   1      39.561  27.837  33.177  1.00  0.00    -0.237 OA
ATOM     81  O   UNL A   1      38.784  29.801  34.432  1.00  0.00    -0.744 OA
ENDBRANCH  75  78
ENDBRANCH  57  71
BRANCH  58  82
ATOM     82  C   UNL A   1      49.256  33.863  27.031  1.00  0.00     0.023 A 
ATOM     83  C   UNL A   1      49.271  34.248  25.679  1.00  0.00     0.012 A 
ATOM     84  C   UNL A   1      50.453  33.912  27.777  1.00  0.00     0.148 A 
ATOM     85  C   UNL A   1      50.461  34.649  25.069  1.00  0.00     0.002 A 
ATOM     86  C   UNL A   1      51.627  34.342  27.172  1.00  0.00     0.091 A 
ATOM     87  F   UNL A   1      50.409  33.548  29.067  1.00  0.00    -0.205 F 
ATOM     88  C   UNL A   1      51.636  34.699  25.815  1.00  0.00     0.022 A 
BRANCH  86  89
ATOM     89  S   UNL A   1      53.179  34.519  28.060  1.00  0.00     0.127 S 
ATOM     90  O   UNL A   1      53.130  33.384  28.977  1.00  0.00    -0.237 OA
ATOM     91  O   UNL A   1      54.152  34.393  26.974  1.00  0.00    -0.237 OA
ATOM     92  O   UNL A   1      53.127  35.831  28.687  1.00  0.00    -0.744 OA
ENDBRANCH  86  89
ENDBRANCH  58  82
BRANCH  70  93
ATOM     93  C   UNL A   1      44.245  37.107  30.678  1.00  0.00     0.023 A 
ATOM     94  C   UNL A   1      44.759  37.405  31.955  1.00  0.00     0.012 A 
ATOM     95  C   UNL A   1      43.670  38.139  29.907  1.00  0.00     0.148 A 
ATOM     96  C   UNL A   1      44.680  38.700  32.468  1.00  0.00     0.002 A 
ATOM     97  C   UNL A   1      43.641  39.438  30.403  1.00  0.00     0.091 A 
ATOM     98  F   UNL A   1      43.167  37.833  28.703  1.00  0.00    -0.205 F 
ATOM     99  C   UNL A   1      44.133  39.718  31.687  1.00  0.00     0.022 A 
BRANCH  97 100
ATOM    100  S   UNL A   1      43.046  40.831  29.436  1.00  0.00     0.127 S 
ATOM    101  O   UNL A   1      43.313  41.953  30.335  1.00  0.00    -0.237 OA
ATOM    102  O   UNL A   1      43.909  40.777  28.255  1.00  0.00    -0.237 OA
ATOM    103  O   UNL A   1      41.638  40.568  29.173  1.00  0.00    -0.744 OA
ENDBRANCH  97 100
ENDBRANCH  70  93
ENDBRANCH  44  45
ENDBRANCH  37  39
ENDBRANCH  36  37
ENDBRANCH  35  36
ENDBRANCH  34  35
ENDBRANCH  33  34
ENDBRANCH   1  33
TORSDOF 22
ENDMDL
