MODEL 1
REMARK VINA RESULT:     -11.0      0.000      0.000
REMARK SMILES COC(=O)c1nc(C)cc(N[C@@H]2C=C[C@H](C(=O)OCCOCCOC(=O)c3ccc(-c4c5nc(c(-c6cccc(S(=O)(=O)[O-])c6F)c6ccc([nH]6)c(-c6cccc(S(=O)(=O)[O-])c6F)c6nc(c(-c7cccc(S(=O)(=O)[O-])c7F)c7ccc4[nH]7)C=C6)C=C5)cc3)C2)n1
REMARK SMILES IDX 20 1 19 2 18 3 16 4 17 5 15 6 12 7 13 8 90 9 14 10 11 11
REMARK SMILES IDX 10 13 5 14 6 15 91 16 7 17 8 18 9 19 3 20 4 21 2 22 1 23
REMARK SMILES IDX 21 24 22 25 23 26 24 27 25 28 26 29 27 30 28 31 89 32 29 33
REMARK SMILES IDX 88 34 30 35 31 36 32 37 82 38 33 39 87 40 81 41 83 42 34 43
REMARK SMILES IDX 86 44 80 45 79 46 35 48 67 49 47 50 66 51 48 52 51 53 65 54
REMARK SMILES IDX 84 55 49 56 50 57 64 59 85 60 52 61 36 62 37 63 45 64 38 65
REMARK SMILES IDX 40 66 46 67 39 68 41 69 42 70 43 71 44 72 68 73 69 74 77 75
REMARK SMILES IDX 70 76 72 77 78 78 71 79 73 80 74 81 75 82 76 83 53 84 54 85
REMARK SMILES IDX 62 86 55 87 57 88 63 89 56 90 58 91 59 92 60 93 61 94
REMARK H PARENT 11 12 83 47 51 58
REMARK Flexibility Score: inf
ROOT
ATOM      1  C   UNL A   1      35.097  23.997  24.396  1.00  0.00     0.202 C 
ENDROOT
BRANCH   1   2
ATOM      2  C   UNL A   1      34.595  23.613  25.965  1.00  0.00     0.261 C 
BRANCH   2   3
ATOM      3  O   UNL A   1      33.778  22.377  26.310  1.00  0.00    -0.463 OA
BRANCH   3   4
ATOM      4  C   UNL A   1      32.764  21.926  25.494  1.00  0.00     0.312 C 
ATOM      5  O   UNL A   1      32.856  20.844  24.910  1.00  0.00    -0.252 OA
BRANCH   4   6
ATOM      6  C   UNL A   1      31.366  22.752  25.407  1.00  0.00     0.124 C 
ATOM      7  C   UNL A   1      30.222  24.990  25.139  1.00  0.00     0.104 C 
ATOM      8  C   UNL A   1      30.065  24.433  26.513  1.00  0.00    -0.006 C 
ATOM      9  C   UNL A   1      31.191  23.964  24.456  1.00  0.00     0.048 C 
ATOM     10  C   UNL A   1      30.630  23.224  26.640  1.00  0.00    -0.014 C 
BRANCH   7  11
ATOM     11  N   UNL A   1      30.652  26.390  25.120  1.00  0.00    -0.364 N 
ATOM     12  H   UNL A   1      30.648  26.938  25.937  1.00  0.00     0.162 HD
BRANCH  11  13
ATOM     13  C   UNL A   1      31.063  26.909  23.909  1.00  0.00     0.131 A 
ATOM     14  C   UNL A   1      30.518  28.624  22.618  1.00  0.00     0.241 A 
ATOM     15  N   UNL A   1      31.808  29.006  22.434  1.00  0.00    -0.227 NA
ATOM     16  N   UNL A   1      30.109  27.549  23.252  1.00  0.00    -0.205 NA
ATOM     17  C   UNL A   1      32.756  28.222  22.952  1.00  0.00     0.044 A 
ATOM     18  C   UNL A   1      34.170  28.697  22.836  1.00  0.00     0.067 C 
ATOM     19  C   UNL A   1      32.418  27.108  23.682  1.00  0.00     0.070 A 
BRANCH  14  20
ATOM     20  C   UNL A   1      29.515  29.663  22.400  1.00  0.00     0.376 C 
ATOM     21  O   UNL A   1      29.389  29.947  21.225  1.00  0.00    -0.242 OA
BRANCH  20  22
ATOM     22  O   UNL A   1      28.910  30.285  23.456  1.00  0.00    -0.463 OA
ATOM     23  C   UNL A   1      28.713  31.729  23.532  1.00  0.00     0.282 C 
ENDBRANCH  20  22
ENDBRANCH  14  20
ENDBRANCH  11  13
ENDBRANCH   7  11
ENDBRANCH   4   6
ENDBRANCH   3   4
ENDBRANCH   2   3
ENDBRANCH   1   2
BRANCH   1  24
ATOM     24  O   UNL A   1      36.437  23.594  23.995  1.00  0.00    -0.374 OA
BRANCH  24  25
ATOM     25  C   UNL A   1      37.014  22.270  23.767  1.00  0.00     0.202 C 
BRANCH  25  26
ATOM     26  C   UNL A   1      37.623  21.124  24.709  1.00  0.00     0.261 C 
BRANCH  26  27
ATOM     27  O   UNL A   1      38.052  21.410  26.057  1.00  0.00    -0.460 OA
BRANCH  27  28
ATOM     28  C   UNL A   1      39.374  21.405  26.278  1.00  0.00     0.338 C 
ATOM     29  O   UNL A   1      40.160  20.559  25.864  1.00  0.00    -0.246 OA
BRANCH  28  30
ATOM     30  C   UNL A   1      39.789  22.676  26.921  1.00  0.00     0.060 A 
ATOM     31  C   UNL A   1      39.057  23.816  26.575  1.00  0.00     0.016 A 
ATOM     32  C   UNL A   1      40.872  22.795  27.797  1.00  0.00     0.016 A 
ATOM     33  C   UNL A   1      39.426  25.083  27.044  1.00  0.00     0.010 A 
ATOM     34  C   UNL A   1      41.232  24.071  28.276  1.00  0.00     0.010 A 
ATOM     35  C   UNL A   1      40.539  25.239  27.878  1.00  0.00    -0.014 A 
BRANCH  35  36
ATOM     36  C   UNL A   1      41.072  26.607  28.203  1.00  0.00     0.031 A 
ATOM     37  C   UNL A   1      42.509  26.926  27.850  1.00  0.00     0.074 A 
ATOM     38  C   UNL A   1      40.338  27.575  28.801  1.00  0.00     0.049 A 
ATOM     39  N   UNL A   1      43.212  28.002  28.098  1.00  0.00    -0.248 NA
ATOM     40  C   UNL A   1      43.255  25.878  27.136  1.00  0.00     0.031 C 
ATOM     41  C   UNL A   1      38.932  27.470  29.187  1.00  0.00     0.029 A 
ATOM     42  N   UNL A   1      40.693  28.841  29.219  1.00  0.00    -0.354 N 
ATOM     43  C   UNL A   1      44.489  27.741  27.612  1.00  0.00     0.074 A 
ATOM     44  C   UNL A   1      44.479  26.380  27.121  1.00  0.00     0.031 C 
ATOM     45  C   UNL A   1      38.564  28.588  29.841  1.00  0.00     0.029 A 
ATOM     46  C   UNL A   1      39.697  29.509  29.901  1.00  0.00     0.049 A 
ATOM     47  H   UNL A   1      41.579  29.233  29.047  1.00  0.00     0.167 HD
ATOM     48  C   UNL A   1      45.564  28.560  27.520  1.00  0.00     0.034 A 
ATOM     49  C   UNL A   1      39.686  30.722  30.496  1.00  0.00     0.034 A 
ATOM     50  C   UNL A   1      45.576  29.938  27.923  1.00  0.00     0.049 A 
ATOM     51  C   UNL A   1      40.897  31.622  30.389  1.00  0.00     0.074 A 
ATOM     52  C   UNL A   1      46.595  30.864  27.786  1.00  0.00     0.029 A 
ATOM     53  N   UNL A   1      44.523  30.590  28.539  1.00  0.00    -0.354 N 
ATOM     54  N   UNL A   1      42.044  31.399  29.796  1.00  0.00    -0.248 NA
ATOM     55  C   UNL A   1      40.788  32.969  30.978  1.00  0.00     0.031 C 
ATOM     56  C   UNL A   1      46.165  32.072  28.342  1.00  0.00     0.029 A 
ATOM     57  C   UNL A   1      44.866  31.907  28.793  1.00  0.00     0.049 A 
ATOM     58  H   UNL A   1      43.657  30.179  28.763  1.00  0.00     0.167 HD
ATOM     59  C   UNL A   1      42.759  32.591  29.881  1.00  0.00     0.074 A 
ATOM     60  C   UNL A   1      41.918  33.538  30.580  1.00  0.00     0.031 C 
ATOM     61  C   UNL A   1      44.002  32.874  29.419  1.00  0.00     0.034 A 
BRANCH  48  62
ATOM     62  C   UNL A   1      46.811  27.983  26.902  1.00  0.00     0.023 A 
ATOM     63  C   UNL A   1      47.826  27.462  27.732  1.00  0.00     0.012 A 
ATOM     64  C   UNL A   1      46.981  27.961  25.505  1.00  0.00     0.148 A 
ATOM     65  C   UNL A   1      49.021  26.999  27.188  1.00  0.00     0.002 A 
ATOM     66  C   UNL A   1      48.152  27.442  24.966  1.00  0.00     0.091 A 
ATOM     67  F   UNL A   1      46.008  28.465  24.732  1.00  0.00    -0.205 F 
ATOM     68  C   UNL A   1      49.182  26.984  25.805  1.00  0.00     0.022 A 
BRANCH  66  69
ATOM     69  S   UNL A   1      48.425  27.298  23.198  1.00  0.00     0.127 S 
ATOM     70  O   UNL A   1      47.411  28.208  22.667  1.00  0.00    -0.237 OA
ATOM     71  O   UNL A   1      49.802  27.772  23.063  1.00  0.00    -0.237 OA
ATOM     72  O   UNL A   1      48.229  25.892  22.873  1.00  0.00    -0.744 OA
ENDBRANCH  66  69
ENDBRANCH  48  62
BRANCH  49  73
ATOM     73  C   UNL A   1      38.459  31.228  31.188  1.00  0.00     0.023 A 
ATOM     74  C   UNL A   1      38.309  31.007  32.573  1.00  0.00     0.012 A 
ATOM     75  C   UNL A   1      37.421  31.866  30.482  1.00  0.00     0.148 A 
ATOM     76  C   UNL A   1      37.127  31.358  33.229  1.00  0.00     0.002 A 
ATOM     77  C   UNL A   1      36.263  32.255  31.152  1.00  0.00     0.091 A 
ATOM     78  F   UNL A   1      37.578  32.065  29.165  1.00  0.00    -0.205 F 
ATOM     79  C   UNL A   1      36.106  31.983  32.520  1.00  0.00     0.022 A 
BRANCH  77  80
ATOM     80  S   UNL A   1      34.924  33.146  30.350  1.00  0.00     0.127 S 
ATOM     81  O   UNL A   1      35.636  34.249  29.711  1.00  0.00    -0.237 OA
ATOM     82  O   UNL A   1      34.402  32.135  29.430  1.00  0.00    -0.237 OA
ATOM     83  O   UNL A   1      34.006  33.524  31.416  1.00  0.00    -0.744 OA
ENDBRANCH  77  80
ENDBRANCH  49  73
BRANCH  61  84
ATOM     84  C   UNL A   1      44.532  34.277  29.577  1.00  0.00     0.023 A 
ATOM     85  C   UNL A   1      45.295  34.627  30.708  1.00  0.00     0.012 A 
ATOM     86  C   UNL A   1      44.367  35.218  28.539  1.00  0.00     0.148 A 
ATOM     87  C   UNL A   1      45.864  35.897  30.815  1.00  0.00     0.002 A 
ATOM     88  C   UNL A   1      44.983  36.461  28.627  1.00  0.00     0.091 A 
ATOM     89  F   UNL A   1      43.623  34.875  27.478  1.00  0.00    -0.205 F 
ATOM     90  C   UNL A   1      45.722  36.807  29.769  1.00  0.00     0.022 A 
BRANCH  88  91
ATOM     91  S   UNL A   1      44.947  37.655  27.284  1.00  0.00     0.127 S 
ATOM     92  O   UNL A   1      45.488  38.848  27.931  1.00  0.00    -0.237 OA
ATOM     93  O   UNL A   1      45.837  37.038  26.299  1.00  0.00    -0.237 OA
ATOM     94  O   UNL A   1      43.555  37.750  26.866  1.00  0.00    -0.744 OA
ENDBRANCH  88  91
ENDBRANCH  61  84
ENDBRANCH  35  36
ENDBRANCH  28  30
ENDBRANCH  27  28
ENDBRANCH  26  27
ENDBRANCH  25  26
ENDBRANCH  24  25
ENDBRANCH   1  24
TORSDOF 21
ENDMDL
MODEL 2
REMARK VINA RESULT:     -10.7      1.538      2.099
REMARK SMILES COC(=O)c1nc(C)cc(N[C@@H]2C=C[C@H](C(=O)OCCOCCOC(=O)c3ccc(-c4c5nc(c(-c6cccc(S(=O)(=O)[O-])c6F)c6ccc([nH]6)c(-c6cccc(S(=O)(=O)[O-])c6F)c6nc(c(-c7cccc(S(=O)(=O)[O-])c7F)c7ccc4[nH]7)C=C6)C=C5)cc3)C2)n1
REMARK SMILES IDX 20 1 19 2 18 3 16 4 17 5 15 6 12 7 13 8 90 9 14 10 11 11
REMARK SMILES IDX 10 13 5 14 6 15 91 16 7 17 8 18 9 19 3 20 4 21 2 22 1 23
REMARK SMILES IDX 21 24 22 25 23 26 24 27 25 28 26 29 27 30 28 31 89 32 29 33
REMARK SMILES IDX 88 34 30 35 31 36 32 37 82 38 33 39 87 40 81 41 83 42 34 43
REMARK SMILES IDX 86 44 80 45 79 46 35 48 67 49 47 50 66 51 48 52 51 53 65 54
REMARK SMILES IDX 84 55 49 56 50 57 64 59 85 60 52 61 36 62 37 63 45 64 38 65
REMARK SMILES IDX 40 66 46 67 39 68 41 69 42 70 43 71 44 72 68 73 69 74 77 75
REMARK SMILES IDX 70 76 72 77 78 78 71 79 73 80 74 81 75 82 76 83 53 84 54 85
REMARK SMILES IDX 62 86 55 87 57 88 63 89 56 90 58 91 59 92 60 93 61 94
REMARK H PARENT 11 12 83 47 51 58
REMARK Flexibility Score: inf
ROOT
ATOM      1  C   UNL A   1      35.483  23.896  24.246  1.00  0.00     0.202 C 
ENDROOT
BRANCH   1   2
ATOM      2  C   UNL A   1      35.314  23.630  25.908  1.00  0.00     0.261 C 
BRANCH   2   3
ATOM      3  O   UNL A   1      34.461  22.519  26.502  1.00  0.00    -0.463 OA
BRANCH   3   4
ATOM      4  C   UNL A   1      33.531  21.836  25.749  1.00  0.00     0.312 C 
ATOM      5  O   UNL A   1      33.706  20.653  25.449  1.00  0.00    -0.252 OA
BRANCH   4   6
ATOM      6  C   UNL A   1      32.117  22.545  25.370  1.00  0.00     0.124 C 
ATOM      7  C   UNL A   1      30.930  24.473  24.248  1.00  0.00     0.104 C 
ATOM      8  C   UNL A   1      30.808  24.519  25.734  1.00  0.00    -0.006 C 
ATOM      9  C   UNL A   1      31.903  23.268  24.015  1.00  0.00     0.048 C 
ATOM     10  C   UNL A   1      31.397  23.469  26.324  1.00  0.00    -0.014 C 
BRANCH   7  11
ATOM     11  N   UNL A   1      31.334  25.750  23.655  1.00  0.00    -0.364 N 
ATOM     12  H   UNL A   1      32.056  25.799  22.988  1.00  0.00     0.162 HD
BRANCH  11  13
ATOM     13  C   UNL A   1      30.660  26.881  24.068  1.00  0.00     0.131 A 
ATOM     14  C   UNL A   1      31.188  28.848  24.940  1.00  0.00     0.241 A 
ATOM     15  N   UNL A   1      30.404  29.538  24.072  1.00  0.00    -0.227 NA
ATOM     16  N   UNL A   1      31.272  27.541  25.038  1.00  0.00    -0.205 NA
ATOM     17  C   UNL A   1      29.650  28.827  23.232  1.00  0.00     0.044 A 
ATOM     18  C   UNL A   1      28.865  29.588  22.211  1.00  0.00     0.067 C 
ATOM     19  C   UNL A   1      29.718  27.454  23.225  1.00  0.00     0.070 A 
BRANCH  14  20
ATOM     20  C   UNL A   1      32.269  29.611  25.558  1.00  0.00     0.376 C 
ATOM     21  O   UNL A   1      31.912  30.719  25.908  1.00  0.00    -0.242 OA
BRANCH  20  22
ATOM     22  O   UNL A   1      33.541  29.116  25.599  1.00  0.00    -0.463 OA
ATOM     23  C   UNL A   1      34.283  28.908  26.839  1.00  0.00     0.282 C 
ENDBRANCH  20  22
ENDBRANCH  14  20
ENDBRANCH  11  13
ENDBRANCH   7  11
ENDBRANCH   4   6
ENDBRANCH   3   4
ENDBRANCH   2   3
ENDBRANCH   1   2
BRANCH   1  24
ATOM     24  O   UNL A   1      36.624  23.292  23.574  1.00  0.00    -0.374 OA
BRANCH  24  25
ATOM     25  C   UNL A   1      37.128  21.919  23.584  1.00  0.00     0.202 C 
BRANCH  25  26
ATOM     26  C   UNL A   1      37.476  20.849  24.727  1.00  0.00     0.261 C 
BRANCH  26  27
ATOM     27  O   UNL A   1      37.952  21.265  26.024  1.00  0.00    -0.460 OA
BRANCH  27  28
ATOM     28  C   UNL A   1      39.279  21.256  26.206  1.00  0.00     0.338 C 
ATOM     29  O   UNL A   1      40.051  20.412  25.762  1.00  0.00    -0.246 OA
BRANCH  28  30
ATOM     30  C   UNL A   1      39.716  22.522  26.845  1.00  0.00     0.060 A 
ATOM     31  C   UNL A   1      39.045  23.683  26.447  1.00  0.00     0.016 A 
ATOM     32  C   UNL A   1      40.762  22.616  27.766  1.00  0.00     0.016 A 
ATOM     33  C   UNL A   1      39.444  24.944  26.911  1.00  0.00     0.010 A 
ATOM     34  C   UNL A   1      41.152  23.885  28.240  1.00  0.00     0.010 A 
ATOM     35  C   UNL A   1      40.524  25.072  27.791  1.00  0.00    -0.014 A 
BRANCH  35  36
ATOM     36  C   UNL A   1      41.096  26.424  28.116  1.00  0.00     0.031 A 
ATOM     37  C   UNL A   1      42.503  26.743  27.656  1.00  0.00     0.074 A 
ATOM     38  C   UNL A   1      40.424  27.376  28.804  1.00  0.00     0.049 A 
ATOM     39  N   UNL A   1      43.235  27.805  27.881  1.00  0.00    -0.248 NA
ATOM     40  C   UNL A   1      43.177  25.715  26.848  1.00  0.00     0.031 C 
ATOM     41  C   UNL A   1      39.054  27.269  29.302  1.00  0.00     0.029 A 
ATOM     42  N   UNL A   1      40.825  28.625  29.234  1.00  0.00    -0.354 N 
ATOM     43  C   UNL A   1      44.464  27.551  27.283  1.00  0.00     0.074 A 
ATOM     44  C   UNL A   1      44.400  26.208  26.749  1.00  0.00     0.031 C 
ATOM     45  C   UNL A   1      38.752  28.367  30.020  1.00  0.00     0.029 A 
ATOM     46  C   UNL A   1      39.896  29.277  30.018  1.00  0.00     0.049 A 
ATOM     47  H   UNL A   1      41.698  29.016  29.002  1.00  0.00     0.167 HD
ATOM     48  C   UNL A   1      45.537  28.365  27.129  1.00  0.00     0.034 A 
ATOM     49  C   UNL A   1      39.946  30.469  30.652  1.00  0.00     0.034 A 
ATOM     50  C   UNL A   1      45.596  29.728  27.576  1.00  0.00     0.049 A 
ATOM     51  C   UNL A   1      41.154  31.363  30.474  1.00  0.00     0.074 A 
ATOM     52  C   UNL A   1      46.610  30.650  27.386  1.00  0.00     0.029 A 
ATOM     53  N   UNL A   1      44.604  30.367  28.298  1.00  0.00    -0.354 N 
ATOM     54  N   UNL A   1      42.246  31.151  29.782  1.00  0.00    -0.248 NA
ATOM     55  C   UNL A   1      41.108  32.690  31.115  1.00  0.00     0.031 C 
ATOM     56  C   UNL A   1      46.240  31.842  28.015  1.00  0.00     0.029 A 
ATOM     57  C   UNL A   1      44.981  31.671  28.567  1.00  0.00     0.049 A 
ATOM     58  H   UNL A   1      43.755  29.955  28.579  1.00  0.00     0.167 HD
ATOM     59  C   UNL A   1      42.978  32.334  29.847  1.00  0.00     0.074 A 
ATOM     60  C   UNL A   1      42.207  33.263  30.644  1.00  0.00     0.031 C 
ATOM     61  C   UNL A   1      44.182  32.623  29.294  1.00  0.00     0.034 A 
BRANCH  48  62
ATOM     62  C   UNL A   1      46.722  27.799  26.391  1.00  0.00     0.023 A 
ATOM     63  C   UNL A   1      46.843  28.003  25.000  1.00  0.00     0.012 A 
ATOM     64  C   UNL A   1      47.711  27.064  27.071  1.00  0.00     0.148 A 
ATOM     65  C   UNL A   1      47.886  27.421  24.285  1.00  0.00     0.002 A 
ATOM     66  C   UNL A   1      48.782  26.535  26.359  1.00  0.00     0.091 A 
ATOM     67  F   UNL A   1      47.578  26.876  28.391  1.00  0.00    -0.205 F 
ATOM     68  C   UNL A   1      48.858  26.692  24.964  1.00  0.00     0.022 A 
BRANCH  66  69
ATOM     69  S   UNL A   1      50.131  25.654  27.148  1.00  0.00     0.127 S 
ATOM     70  O   UNL A   1      50.499  26.577  28.221  1.00  0.00    -0.237 OA
ATOM     71  O   UNL A   1      49.472  24.428  27.597  1.00  0.00    -0.237 OA
ATOM     72  O   UNL A   1      51.143  25.461  26.120  1.00  0.00    -0.744 OA
ENDBRANCH  66  69
ENDBRANCH  48  62
BRANCH  49  73
ATOM     73  C   UNL A   1      38.786  30.961  31.459  1.00  0.00     0.023 A 
ATOM     74  C   UNL A   1      38.788  30.766  32.856  1.00  0.00     0.012 A 
ATOM     75  C   UNL A   1      37.664  31.557  30.854  1.00  0.00     0.148 A 
ATOM     76  C   UNL A   1      37.673  31.103  33.626  1.00  0.00     0.002 A 
ATOM     77  C   UNL A   1      36.573  31.933  31.634  1.00  0.00     0.091 A 
ATOM     78  F   UNL A   1      37.676  31.731  29.524  1.00  0.00    -0.205 F 
ATOM     79  C   UNL A   1      36.567  31.688  33.016  1.00  0.00     0.022 A 
BRANCH  77  80
ATOM     80  S   UNL A   1      35.134  32.773  30.960  1.00  0.00     0.127 S 
ATOM     81  O   UNL A   1      34.872  31.999  29.750  1.00  0.00    -0.237 OA
ATOM     82  O   UNL A   1      34.154  32.592  32.032  1.00  0.00    -0.237 OA
ATOM     83  O   UNL A   1      35.546  34.154  30.746  1.00  0.00    -0.744 OA
ENDBRANCH  77  80
ENDBRANCH  49  73
BRANCH  61  84
ATOM     84  C   UNL A   1      44.737  34.016  29.453  1.00  0.00     0.023 A 
ATOM     85  C   UNL A   1      45.596  34.321  30.528  1.00  0.00     0.012 A 
ATOM     86  C   UNL A   1      44.496  34.994  28.466  1.00  0.00     0.148 A 
ATOM     87  C   UNL A   1      46.186  35.582  30.629  1.00  0.00     0.002 A 
ATOM     88  C   UNL A   1      45.129  36.228  28.544  1.00  0.00     0.091 A 
ATOM     89  F   UNL A   1      43.661  34.693  27.461  1.00  0.00    -0.205 F 
ATOM     90  C   UNL A   1      45.965  36.529  29.631  1.00  0.00     0.022 A 
BRANCH  88  91
ATOM     91  S   UNL A   1      44.993  37.468  27.250  1.00  0.00     0.127 S 
ATOM     92  O   UNL A   1      43.570  37.402  26.922  1.00  0.00    -0.237 OA
ATOM     93  O   UNL A   1      45.401  38.688  27.948  1.00  0.00    -0.237 OA
ATOM     94  O   UNL A   1      45.898  37.046  26.190  1.00  0.00    -0.744 OA
ENDBRANCH  88  91
ENDBRANCH  61  84
ENDBRANCH  35  36
ENDBRANCH  28  30
ENDBRANCH  27  28
ENDBRANCH  26  27
ENDBRANCH  25  26
ENDBRANCH  24  25
ENDBRANCH   1  24
TORSDOF 21
ENDMDL
MODEL 3
REMARK VINA RESULT:     -10.6      5.536      8.395
REMARK SMILES COC(=O)c1nc(C)cc(N[C@@H]2C=C[C@H](C(=O)OCCOCCOC(=O)c3ccc(-c4c5nc(c(-c6cccc(S(=O)(=O)[O-])c6F)c6ccc([nH]6)c(-c6cccc(S(=O)(=O)[O-])c6F)c6nc(c(-c7cccc(S(=O)(=O)[O-])c7F)c7ccc4[nH]7)C=C6)C=C5)cc3)C2)n1
REMARK SMILES IDX 20 1 19 2 18 3 16 4 17 5 15 6 12 7 13 8 90 9 14 10 11 11
REMARK SMILES IDX 10 13 5 14 6 15 91 16 7 17 8 18 9 19 3 20 4 21 2 22 1 23
REMARK SMILES IDX 21 24 22 25 23 26 24 27 25 28 26 29 27 30 28 31 89 32 29 33
REMARK SMILES IDX 88 34 30 35 31 36 32 37 82 38 33 39 87 40 81 41 83 42 34 43
REMARK SMILES IDX 86 44 80 45 79 46 35 48 67 49 47 50 66 51 48 52 51 53 65 54
REMARK SMILES IDX 84 55 49 56 50 57 64 59 85 60 52 61 36 62 37 63 45 64 38 65
REMARK SMILES IDX 40 66 46 67 39 68 41 69 42 70 43 71 44 72 68 73 69 74 77 75
REMARK SMILES IDX 70 76 72 77 78 78 71 79 73 80 74 81 75 82 76 83 53 84 54 85
REMARK SMILES IDX 62 86 55 87 57 88 63 89 56 90 58 91 59 92 60 93 61 94
REMARK H PARENT 11 12 83 47 51 58
REMARK Flexibility Score: inf
ROOT
ATOM      1  C   UNL A   1      33.309  30.152  27.649  1.00  0.00     0.202 C 
ENDROOT
BRANCH   1   2
ATOM      2  C   UNL A   1      34.485  29.358  26.727  1.00  0.00     0.261 C 
BRANCH   2   3
ATOM      3  O   UNL A   1      34.420  27.881  26.368  1.00  0.00    -0.463 OA
BRANCH   3   4
ATOM      4  C   UNL A   1      33.438  27.376  25.545  1.00  0.00     0.312 C 
ATOM      5  O   UNL A   1      33.511  27.505  24.321  1.00  0.00    -0.252 OA
BRANCH   4   6
ATOM      6  C   UNL A   1      32.240  26.473  26.172  1.00  0.00     0.124 C 
ATOM      7  C   UNL A   1      30.848  24.369  26.016  1.00  0.00     0.104 C 
ATOM      8  C   UNL A   1      30.060  25.596  25.703  1.00  0.00    -0.006 C 
ATOM      9  C   UNL A   1      32.304  24.923  26.181  1.00  0.00     0.048 C 
ATOM     10  C   UNL A   1      30.787  26.714  25.834  1.00  0.00    -0.014 C 
BRANCH   7  11
ATOM     11  N   UNL A   1      30.676  23.297  25.032  1.00  0.00    -0.364 N 
ATOM     12  H   UNL A   1      29.892  22.704  25.053  1.00  0.00     0.162 HD
BRANCH  11  13
ATOM     13  C   UNL A   1      31.659  23.155  24.074  1.00  0.00     0.131 A 
ATOM     14  C   UNL A   1      32.543  24.398  22.468  1.00  0.00     0.241 A 
ATOM     15  N   UNL A   1      33.820  24.107  22.829  1.00  0.00    -0.227 NA
ATOM     16  N   UNL A   1      31.454  23.880  22.987  1.00  0.00    -0.205 NA
ATOM     17  C   UNL A   1      33.989  23.218  23.809  1.00  0.00     0.044 A 
ATOM     18  C   UNL A   1      35.391  22.975  24.273  1.00  0.00     0.067 C 
ATOM     19  C   UNL A   1      32.905  22.668  24.449  1.00  0.00     0.070 A 
BRANCH  14  20
ATOM     20  C   UNL A   1      32.369  25.627  21.698  1.00  0.00     0.376 C 
ATOM     21  O   UNL A   1      31.518  26.353  22.172  1.00  0.00    -0.242 OA
BRANCH  20  22
ATOM     22  O   UNL A   1      33.039  25.817  20.523  1.00  0.00    -0.463 OA
ATOM     23  C   UNL A   1      32.507  25.419  19.223  1.00  0.00     0.282 C 
ENDBRANCH  20  22
ENDBRANCH  14  20
ENDBRANCH  11  13
ENDBRANCH   7  11
ENDBRANCH   4   6
ENDBRANCH   3   4
ENDBRANCH   2   3
ENDBRANCH   1   2
BRANCH   1  24
ATOM     24  O   UNL A   1      32.083  30.559  26.980  1.00  0.00    -0.374 OA
BRANCH  24  25
ATOM     25  C   UNL A   1      31.627  31.872  26.525  1.00  0.00     0.202 C 
BRANCH  25  26
ATOM     26  C   UNL A   1      32.049  33.387  26.840  1.00  0.00     0.261 C 
BRANCH  26  27
ATOM     27  O   UNL A   1      32.084  33.891  28.192  1.00  0.00    -0.460 OA
BRANCH  27  28
ATOM     28  C   UNL A   1      33.059  34.763  28.480  1.00  0.00     0.338 C 
ATOM     29  O   UNL A   1      32.936  35.984  28.505  1.00  0.00    -0.246 OA
BRANCH  28  30
ATOM     30  C   UNL A   1      34.261  34.044  28.968  1.00  0.00     0.060 A 
ATOM     31  C   UNL A   1      34.033  32.951  29.810  1.00  0.00     0.016 A 
ATOM     32  C   UNL A   1      35.574  34.418  28.671  1.00  0.00     0.016 A 
ATOM     33  C   UNL A   1      35.097  32.264  30.409  1.00  0.00     0.010 A 
ATOM     34  C   UNL A   1      36.642  33.715  29.266  1.00  0.00     0.010 A 
ATOM     35  C   UNL A   1      36.420  32.652  30.173  1.00  0.00    -0.014 A 
BRANCH  35  36
ATOM     36  C   UNL A   1      37.548  32.069  30.978  1.00  0.00     0.031 A 
ATOM     37  C   UNL A   1      38.337  30.918  30.389  1.00  0.00     0.074 A 
ATOM     38  C   UNL A   1      37.899  32.512  32.208  1.00  0.00     0.049 A 
ATOM     39  N   UNL A   1      39.298  30.205  30.920  1.00  0.00    -0.248 NA
ATOM     40  C   UNL A   1      37.977  30.510  29.022  1.00  0.00     0.031 C 
ATOM     41  C   UNL A   1      37.282  33.625  32.927  1.00  0.00     0.029 A 
ATOM     42  N   UNL A   1      38.854  32.048  33.090  1.00  0.00    -0.354 N 
ATOM     43  C   UNL A   1      39.621  29.241  29.971  1.00  0.00     0.074 A 
ATOM     44  C   UNL A   1      38.706  29.418  28.865  1.00  0.00     0.031 C 
ATOM     45  C   UNL A   1      37.823  33.716  34.157  1.00  0.00     0.029 A 
ATOM     46  C   UNL A   1      38.848  32.686  34.314  1.00  0.00     0.049 A 
ATOM     47  H   UNL A   1      39.483  31.325  32.867  1.00  0.00     0.167 HD
ATOM     48  C   UNL A   1      40.620  28.324  29.975  1.00  0.00     0.034 A 
ATOM     49  C   UNL A   1      39.583  32.481  35.428  1.00  0.00     0.034 A 
ATOM     50  C   UNL A   1      41.591  28.181  31.022  1.00  0.00     0.049 A 
ATOM     51  C   UNL A   1      40.690  31.449  35.417  1.00  0.00     0.074 A 
ATOM     52  C   UNL A   1      42.687  27.338  31.067  1.00  0.00     0.029 A 
ATOM     53  N   UNL A   1      41.590  28.899  32.205  1.00  0.00    -0.354 N 
ATOM     54  N   UNL A   1      41.065  30.648  34.450  1.00  0.00    -0.248 NA
ATOM     55  C   UNL A   1      41.517  31.338  36.632  1.00  0.00     0.031 C 
ATOM     56  C   UNL A   1      43.335  27.528  32.291  1.00  0.00     0.029 A 
ATOM     57  C   UNL A   1      42.662  28.516  32.991  1.00  0.00     0.049 A 
ATOM     58  H   UNL A   1      40.924  29.581  32.451  1.00  0.00     0.167 HD
ATOM     59  C   UNL A   1      42.205  29.995  34.913  1.00  0.00     0.074 A 
ATOM     60  C   UNL A   1      42.464  30.492  36.246  1.00  0.00     0.031 C 
ATOM     61  C   UNL A   1      42.967  29.065  34.286  1.00  0.00     0.034 A 
BRANCH  48  62
ATOM     62  C   UNL A   1      40.733  27.434  28.765  1.00  0.00     0.023 A 
ATOM     63  C   UNL A   1      39.857  26.337  28.619  1.00  0.00     0.012 A 
ATOM     64  C   UNL A   1      41.706  27.677  27.778  1.00  0.00     0.148 A 
ATOM     65  C   UNL A   1      39.996  25.453  27.552  1.00  0.00     0.002 A 
ATOM     66  C   UNL A   1      41.800  26.825  26.684  1.00  0.00     0.091 A 
ATOM     67  F   UNL A   1      42.532  28.721  27.935  1.00  0.00    -0.205 F 
ATOM     68  C   UNL A   1      40.963  25.699  26.582  1.00  0.00     0.022 A 
BRANCH  66  69
ATOM     69  S   UNL A   1      42.953  27.099  25.337  1.00  0.00     0.127 S 
ATOM     70  O   UNL A   1      44.216  27.261  26.056  1.00  0.00    -0.237 OA
ATOM     71  O   UNL A   1      42.837  25.854  24.578  1.00  0.00    -0.237 OA
ATOM     72  O   UNL A   1      42.480  28.286  24.637  1.00  0.00    -0.744 OA
ENDBRANCH  66  69
ENDBRANCH  48  62
BRANCH  49  73
ATOM     73  C   UNL A   1      39.380  33.320  36.650  1.00  0.00     0.023 A 
ATOM     74  C   UNL A   1      39.976  34.596  36.715  1.00  0.00     0.012 A 
ATOM     75  C   UNL A   1      38.661  32.844  37.763  1.00  0.00     0.148 A 
ATOM     76  C   UNL A   1      39.908  35.359  37.883  1.00  0.00     0.002 A 
ATOM     77  C   UNL A   1      38.558  33.628  38.910  1.00  0.00     0.091 A 
ATOM     78  F   UNL A   1      38.104  31.626  37.687  1.00  0.00    -0.205 F 
ATOM     79  C   UNL A   1      39.198  34.876  38.979  1.00  0.00     0.022 A 
BRANCH  77  80
ATOM     80  S   UNL A   1      37.594  33.138  40.345  1.00  0.00     0.127 S 
ATOM     81  O   UNL A   1      38.290  31.929  40.776  1.00  0.00    -0.237 OA
ATOM     82  O   UNL A   1      37.763  34.293  41.226  1.00  0.00    -0.237 OA
ATOM     83  O   UNL A   1      36.234  32.941  39.860  1.00  0.00    -0.744 OA
ENDBRANCH  77  80
ENDBRANCH  49  73
BRANCH  61  84
ATOM     84  C   UNL A   1      44.205  28.555  34.981  1.00  0.00     0.023 A 
ATOM     85  C   UNL A   1      45.465  29.116  34.692  1.00  0.00     0.012 A 
ATOM     86  C   UNL A   1      44.098  27.596  36.009  1.00  0.00     0.148 A 
ATOM     87  C   UNL A   1      46.600  28.712  35.397  1.00  0.00     0.002 A 
ATOM     88  C   UNL A   1      45.222  27.239  36.744  1.00  0.00     0.091 A 
ATOM     89  F   UNL A   1      42.895  27.059  36.259  1.00  0.00    -0.205 F 
ATOM     90  C   UNL A   1      46.477  27.788  36.432  1.00  0.00     0.022 A 
BRANCH  88  91
ATOM     91  S   UNL A   1      45.141  26.141  38.165  1.00  0.00     0.127 S 
ATOM     92  O   UNL A   1      44.946  24.841  37.526  1.00  0.00    -0.237 OA
ATOM     93  O   UNL A   1      46.457  26.329  38.776  1.00  0.00    -0.237 OA
ATOM     94  O   UNL A   1      44.025  26.611  38.975  1.00  0.00    -0.744 OA
ENDBRANCH  88  91
ENDBRANCH  61  84
ENDBRANCH  35  36
ENDBRANCH  28  30
ENDBRANCH  27  28
ENDBRANCH  26  27
ENDBRANCH  25  26
ENDBRANCH  24  25
ENDBRANCH   1  24
TORSDOF 21
ENDMDL
