MODEL 1
REMARK VINA RESULT:     -10.6      0.000      0.000
REMARK SMILES C[C@@](NC(=O)CCOC1CC[NH2+]CC1)(C(=O)OCCOCCOC(=O)c1ccc(-c2c3nc(c(-c4cccc(S(=O)(=O)[O-])c4F)c4ccc([nH]4)c(-c4cccc(S(=O)(=O)[O-])c4F)c4nc(c(-c5cccc(S(=O)(=O)[O-])c5F)c5ccc2[nH]5)C=C4)C=C3)cc1)C(F)(F)F
REMARK SMILES IDX 19 1 18 2 17 3 15 4 16 5 2 6 1 7 3 8 4 9 5 11 6 12 7 13 8 14
REMARK SMILES IDX 9 15 10 16 14 17 11 18 13 19 12 20 89 23 90 24 91 25 92 26
REMARK SMILES IDX 20 27 21 28 22 29 23 30 24 31 25 32 26 33 27 34 88 35 28 36
REMARK SMILES IDX 87 37 29 38 30 39 31 40 81 41 32 42 86 43 80 44 82 45 33 46
REMARK SMILES IDX 85 47 79 48 78 49 34 51 66 52 46 53 65 54 47 55 50 56 64 57
REMARK SMILES IDX 83 58 48 59 49 60 63 62 84 63 51 64 35 65 36 66 44 67 37 68
REMARK SMILES IDX 39 69 45 70 38 71 40 72 41 73 42 74 43 75 67 76 68 77 76 78
REMARK SMILES IDX 69 79 71 80 77 81 70 82 72 83 73 84 74 85 75 86 52 87 53 88
REMARK SMILES IDX 61 89 54 90 56 91 62 92 55 93 57 94 58 95 59 96 60 97
REMARK H PARENT 3 10 12 21 12 22 82 50 50 61
REMARK Flexibility Score: inf
ROOT
ATOM      1  C   UNL A   1      32.824  29.979  26.613  1.00  0.00     0.202 C 
ENDROOT
BRANCH   1   2
ATOM      2  C   UNL A   1      32.471  28.590  27.155  1.00  0.00     0.261 C 
BRANCH   2   3
ATOM      3  O   UNL A   1      32.499  27.679  26.047  1.00  0.00    -0.461 OA
BRANCH   3   4
ATOM      4  C   UNL A   1      31.425  26.887  25.793  1.00  0.00     0.341 C 
ATOM      5  O   UNL A   1      30.641  26.498  26.650  1.00  0.00    -0.249 OA
BRANCH   4   6
ATOM      6  C   UNL A   1      31.398  26.505  24.314  1.00  0.00     0.231 C 
ATOM      7  C   UNL A   1      32.656  26.973  23.580  1.00  0.00     0.058 C 
BRANCH   6   8
ATOM      8  N   UNL A   1      31.115  25.046  24.100  1.00  0.00    -0.333 N 
ATOM      9  C   UNL A   1      31.632  24.090  23.285  1.00  0.00     0.223 C 
ATOM     10  H   UNL A   1      30.393  24.706  24.679  1.00  0.00     0.164 HD
ATOM     11  O   UNL A   1      31.034  23.012  23.238  1.00  0.00    -0.275 OA
BRANCH   9  12
ATOM     12  C   UNL A   1      32.877  24.323  22.467  1.00  0.00     0.128 C 
BRANCH  12  13
ATOM     13  C   UNL A   1      34.102  23.692  23.117  1.00  0.00     0.170 C 
BRANCH  13  14
ATOM     14  O   UNL A   1      33.770  23.259  24.434  1.00  0.00    -0.377 OA
BRANCH  14  15
ATOM     15  C   UNL A   1      34.804  22.593  25.163  1.00  0.00     0.129 C 
ATOM     16  C   UNL A   1      34.693  21.103  24.881  1.00  0.00     0.093 C 
ATOM     17  C   UNL A   1      34.667  22.884  26.671  1.00  0.00     0.093 C 
ATOM     18  C   UNL A   1      33.462  20.511  25.558  1.00  0.00     0.263 C 
ATOM     19  C   UNL A   1      33.677  22.006  27.456  1.00  0.00     0.263 C 
ATOM     20  N   UNL A   1      33.579  20.621  27.010  1.00  0.00    -0.346 N 
ATOM     21  H   UNL A   1      34.414  20.119  27.310  1.00  0.00     0.346 HD
ATOM     22  H   UNL A   1      32.735  20.220  27.422  1.00  0.00     0.346 HD
ENDBRANCH  14  15
ENDBRANCH  13  14
ENDBRANCH  12  13
ENDBRANCH   9  12
ENDBRANCH   6   8
BRANCH   6  23
ATOM     23  C   UNL A   1      30.257  27.353  23.712  1.00  0.00     0.422 C 
ATOM     24  F   UNL A   1      30.277  27.370  22.359  1.00  0.00    -0.168 F 
ATOM     25  F   UNL A   1      29.052  26.827  24.071  1.00  0.00    -0.168 F 
ATOM     26  F   UNL A   1      30.252  28.629  24.152  1.00  0.00    -0.168 F 
ENDBRANCH   6  23
ENDBRANCH   4   6
ENDBRANCH   3   4
ENDBRANCH   2   3
ENDBRANCH   1   2
BRANCH   1  27
ATOM     27  O   UNL A   1      31.816  30.605  25.810  1.00  0.00    -0.374 OA
BRANCH  27  28
ATOM     28  C   UNL A   1      31.113  31.697  26.398  1.00  0.00     0.202 C 
BRANCH  28  29
ATOM     29  C   UNL A   1      31.901  32.996  26.638  1.00  0.00     0.261 C 
BRANCH  29  30
ATOM     30  O   UNL A   1      32.329  33.172  28.000  1.00  0.00    -0.460 OA
BRANCH  30  31
ATOM     31  C   UNL A   1      33.437  33.936  28.132  1.00  0.00     0.338 C 
ATOM     32  O   UNL A   1      33.478  35.163  28.241  1.00  0.00    -0.246 OA
BRANCH  31  33
ATOM     33  C   UNL A   1      34.644  33.117  28.292  1.00  0.00     0.060 A 
ATOM     34  C   UNL A   1      34.507  31.908  28.981  1.00  0.00     0.016 A 
ATOM     35  C   UNL A   1      35.910  33.603  27.955  1.00  0.00     0.016 A 
ATOM     36  C   UNL A   1      35.636  31.210  29.396  1.00  0.00     0.010 A 
ATOM     37  C   UNL A   1      37.047  32.899  28.377  1.00  0.00     0.010 A 
ATOM     38  C   UNL A   1      36.914  31.727  29.144  1.00  0.00    -0.014 A 
BRANCH  38  39
ATOM     39  C   UNL A   1      38.077  31.104  29.828  1.00  0.00     0.031 A 
ATOM     40  C   UNL A   1      38.383  31.472  31.258  1.00  0.00     0.074 A 
ATOM     41  C   UNL A   1      38.806  30.158  29.209  1.00  0.00     0.049 A 
ATOM     42  N   UNL A   1      39.317  31.010  32.049  1.00  0.00    -0.248 NA
ATOM     43  C   UNL A   1      37.520  32.489  31.881  1.00  0.00     0.031 C 
ATOM     44  C   UNL A   1      38.599  29.700  27.836  1.00  0.00     0.029 A 
ATOM     45  N   UNL A   1      39.872  29.417  29.655  1.00  0.00    -0.354 N 
ATOM     46  C   UNL A   1      39.167  31.688  33.254  1.00  0.00     0.074 A 
ATOM     47  C   UNL A   1      38.066  32.612  33.082  1.00  0.00     0.031 C 
ATOM     48  C   UNL A   1      39.522  28.768  27.544  1.00  0.00     0.029 A 
ATOM     49  C   UNL A   1      40.400  28.582  28.698  1.00  0.00     0.049 A 
ATOM     50  H   UNL A   1      40.224  29.477  30.572  1.00  0.00     0.167 HD
ATOM     51  C   UNL A   1      39.864  31.542  34.406  1.00  0.00     0.034 A 
ATOM     52  C   UNL A   1      41.480  27.778  28.741  1.00  0.00     0.034 A 
ATOM     53  C   UNL A   1      40.950  30.615  34.584  1.00  0.00     0.049 A 
ATOM     54  C   UNL A   1      42.265  27.666  30.022  1.00  0.00     0.074 A 
ATOM     55  C   UNL A   1      41.704  30.379  35.720  1.00  0.00     0.029 A 
ATOM     56  N   UNL A   1      41.443  29.775  33.598  1.00  0.00    -0.354 N 
ATOM     57  N   UNL A   1      42.048  28.243  31.178  1.00  0.00    -0.248 NA
ATOM     58  C   UNL A   1      43.424  26.759  30.012  1.00  0.00     0.031 C 
ATOM     59  C   UNL A   1      42.673  29.417  35.412  1.00  0.00     0.029 A 
ATOM     60  C   UNL A   1      42.497  29.026  34.096  1.00  0.00     0.049 A 
ATOM     61  H   UNL A   1      41.096  29.718  32.678  1.00  0.00     0.167 HD
ATOM     62  C   UNL A   1      43.017  27.743  32.043  1.00  0.00     0.074 A 
ATOM     63  C   UNL A   1      43.804  26.795  31.282  1.00  0.00     0.031 C 
ATOM     64  C   UNL A   1      43.242  28.049  33.345  1.00  0.00     0.034 A 
BRANCH  51  65
ATOM     65  C   UNL A   1      39.458  32.392  35.584  1.00  0.00     0.023 A 
ATOM     66  C   UNL A   1      38.671  31.832  36.611  1.00  0.00     0.012 A 
ATOM     67  C   UNL A   1      39.908  33.722  35.709  1.00  0.00     0.148 A 
ATOM     68  C   UNL A   1      38.310  32.590  37.725  1.00  0.00     0.002 A 
ATOM     69  C   UNL A   1      39.584  34.457  36.844  1.00  0.00     0.091 A 
ATOM     70  F   UNL A   1      40.642  34.243  34.716  1.00  0.00    -0.205 F 
ATOM     71  C   UNL A   1      38.775  33.896  37.846  1.00  0.00     0.022 A 
BRANCH  69  72
ATOM     72  S   UNL A   1      40.197  36.120  37.132  1.00  0.00     0.127 S 
ATOM     73  O   UNL A   1      39.448  36.506  38.328  1.00  0.00    -0.237 OA
ATOM     74  O   UNL A   1      41.624  35.886  37.356  1.00  0.00    -0.237 OA
ATOM     75  O   UNL A   1      39.885  36.879  35.930  1.00  0.00    -0.744 OA
ENDBRANCH  69  72
ENDBRANCH  51  65
BRANCH  52  76
ATOM     76  C   UNL A   1      41.883  27.004  27.533  1.00  0.00     0.023 A 
ATOM     77  C   UNL A   1      42.457  27.666  26.430  1.00  0.00     0.012 A 
ATOM     78  C   UNL A   1      41.691  25.610  27.472  1.00  0.00     0.148 A 
ATOM     79  C   UNL A   1      42.794  26.960  25.274  1.00  0.00     0.002 A 
ATOM     80  C   UNL A   1      42.086  24.904  26.342  1.00  0.00     0.091 A 
ATOM     81  F   UNL A   1      41.126  25.000  28.523  1.00  0.00    -0.205 F 
ATOM     82  C   UNL A   1      42.618  25.580  25.234  1.00  0.00     0.022 A 
BRANCH  80  83
ATOM     83  S   UNL A   1      42.021  23.112  26.263  1.00  0.00     0.127 S 
ATOM     84  O   UNL A   1      42.825  22.732  27.421  1.00  0.00    -0.237 OA
ATOM     85  O   UNL A   1      40.585  22.858  26.397  1.00  0.00    -0.237 OA
ATOM     86  O   UNL A   1      42.571  22.757  24.962  1.00  0.00    -0.744 OA
ENDBRANCH  80  83
ENDBRANCH  52  76
BRANCH  64  87
ATOM     87  C   UNL A   1      44.356  27.317  34.051  1.00  0.00     0.023 A 
ATOM     88  C   UNL A   1      45.676  27.808  33.987  1.00  0.00     0.012 A 
ATOM     89  C   UNL A   1      44.084  26.170  34.822  1.00  0.00     0.148 A 
ATOM     90  C   UNL A   1      46.712  27.143  34.642  1.00  0.00     0.002 A 
ATOM     91  C   UNL A   1      45.112  25.544  35.517  1.00  0.00     0.091 A 
ATOM     92  F   UNL A   1      42.826  25.706  34.859  1.00  0.00    -0.205 F 
ATOM     93  C   UNL A   1      46.430  26.020  35.415  1.00  0.00     0.022 A 
BRANCH  91  94
ATOM     94  S   UNL A   1      44.828  24.149  36.612  1.00  0.00     0.127 S 
ATOM     95  O   UNL A   1      46.163  23.927  37.165  1.00  0.00    -0.237 OA
ATOM     96  O   UNL A   1      43.858  24.695  37.562  1.00  0.00    -0.237 OA
ATOM     97  O   UNL A   1      44.313  23.076  35.772  1.00  0.00    -0.744 OA
ENDBRANCH  91  94
ENDBRANCH  64  87
ENDBRANCH  38  39
ENDBRANCH  31  33
ENDBRANCH  30  31
ENDBRANCH  29  30
ENDBRANCH  28  29
ENDBRANCH  27  28
ENDBRANCH   1  27
TORSDOF 23
ENDMDL
MODEL 2
REMARK VINA RESULT:     -10.5      2.460      3.485
REMARK SMILES C[C@@](NC(=O)CCOC1CC[NH2+]CC1)(C(=O)OCCOCCOC(=O)c1ccc(-c2c3nc(c(-c4cccc(S(=O)(=O)[O-])c4F)c4ccc([nH]4)c(-c4cccc(S(=O)(=O)[O-])c4F)c4nc(c(-c5cccc(S(=O)(=O)[O-])c5F)c5ccc2[nH]5)C=C4)C=C3)cc1)C(F)(F)F
REMARK SMILES IDX 19 1 18 2 17 3 15 4 16 5 2 6 1 7 3 8 4 9 5 11 6 12 7 13 8 14
REMARK SMILES IDX 9 15 10 16 14 17 11 18 13 19 12 20 89 23 90 24 91 25 92 26
REMARK SMILES IDX 20 27 21 28 22 29 23 30 24 31 25 32 26 33 27 34 88 35 28 36
REMARK SMILES IDX 87 37 29 38 30 39 31 40 81 41 32 42 86 43 80 44 82 45 33 46
REMARK SMILES IDX 85 47 79 48 78 49 34 51 66 52 46 53 65 54 47 55 50 56 64 57
REMARK SMILES IDX 83 58 48 59 49 60 63 62 84 63 51 64 35 65 36 66 44 67 37 68
REMARK SMILES IDX 39 69 45 70 38 71 40 72 41 73 42 74 43 75 67 76 68 77 76 78
REMARK SMILES IDX 69 79 71 80 77 81 70 82 72 83 73 84 74 85 75 86 52 87 53 88
REMARK SMILES IDX 61 89 54 90 56 91 62 92 55 93 57 94 58 95 59 96 60 97
REMARK H PARENT 3 10 12 21 12 22 82 50 50 61
REMARK Flexibility Score: inf
ROOT
ATOM      1  C   UNL A   1      33.578  27.180  25.352  1.00  0.00     0.202 C 
ENDROOT
BRANCH   1   2
ATOM      2  C   UNL A   1      33.506  25.705  24.944  1.00  0.00     0.261 C 
BRANCH   2   3
ATOM      3  O   UNL A   1      34.789  25.124  25.212  1.00  0.00    -0.461 OA
BRANCH   3   4
ATOM      4  C   UNL A   1      35.167  23.987  24.571  1.00  0.00     0.341 C 
ATOM      5  O   UNL A   1      34.888  23.732  23.406  1.00  0.00    -0.249 OA
BRANCH   4   6
ATOM      6  C   UNL A   1      35.909  23.066  25.538  1.00  0.00     0.231 C 
ATOM      7  C   UNL A   1      37.214  23.689  26.033  1.00  0.00     0.058 C 
BRANCH   6   8
ATOM      8  N   UNL A   1      35.036  22.585  26.661  1.00  0.00    -0.333 N 
ATOM      9  C   UNL A   1      33.763  22.117  26.737  1.00  0.00     0.223 C 
ATOM     10  H   UNL A   1      35.485  22.617  27.537  1.00  0.00     0.164 HD
ATOM     11  O   UNL A   1      33.286  21.975  27.866  1.00  0.00    -0.275 OA
BRANCH   9  12
ATOM     12  C   UNL A   1      32.957  21.784  25.507  1.00  0.00     0.128 C 
BRANCH  12  13
ATOM     13  C   UNL A   1      32.531  20.321  25.494  1.00  0.00     0.170 C 
BRANCH  13  14
ATOM     14  O   UNL A   1      33.681  19.494  25.333  1.00  0.00    -0.377 OA
BRANCH  14  15
ATOM     15  C   UNL A   1      33.652  18.571  24.242  1.00  0.00     0.129 C 
ATOM     16  C   UNL A   1      32.397  17.722  24.378  1.00  0.00     0.093 C 
ATOM     17  C   UNL A   1      34.920  17.693  24.250  1.00  0.00     0.093 C 
ATOM     18  C   UNL A   1      32.521  16.752  25.548  1.00  0.00     0.263 C 
ATOM     19  C   UNL A   1      34.900  16.460  25.171  1.00  0.00     0.263 C 
ATOM     20  N   UNL A   1      33.606  15.802  25.307  1.00  0.00    -0.346 N 
ATOM     21  H   UNL A   1      33.407  15.287  24.450  1.00  0.00     0.346 HD
ATOM     22  H   UNL A   1      33.657  15.178  26.113  1.00  0.00     0.346 HD
ENDBRANCH  14  15
ENDBRANCH  13  14
ENDBRANCH  12  13
ENDBRANCH   9  12
ENDBRANCH   6   8
BRANCH   6  23
ATOM     23  C   UNL A   1      36.354  21.867  24.671  1.00  0.00     0.422 C 
ATOM     24  F   UNL A   1      36.664  20.776  25.409  1.00  0.00    -0.168 F 
ATOM     25  F   UNL A   1      35.337  21.494  23.843  1.00  0.00    -0.168 F 
ATOM     26  F   UNL A   1      37.402  22.149  23.870  1.00  0.00    -0.168 F 
ENDBRANCH   6  23
ENDBRANCH   4   6
ENDBRANCH   3   4
ENDBRANCH   2   3
ENDBRANCH   1   2
BRANCH   1  27
ATOM     27  O   UNL A   1      32.370  27.930  25.180  1.00  0.00    -0.374 OA
BRANCH  27  28
ATOM     28  C   UNL A   1      32.508  29.335  24.984  1.00  0.00     0.202 C 
BRANCH  28  29
ATOM     29  C   UNL A   1      31.825  30.260  26.006  1.00  0.00     0.261 C 
BRANCH  29  30
ATOM     30  O   UNL A   1      32.515  30.342  27.266  1.00  0.00    -0.460 OA
BRANCH  30  31
ATOM     31  C   UNL A   1      33.290  31.442  27.396  1.00  0.00     0.338 C 
ATOM     32  O   UNL A   1      32.908  32.613  27.437  1.00  0.00    -0.246 OA
BRANCH  31  33
ATOM     33  C   UNL A   1      34.693  31.090  27.649  1.00  0.00     0.060 A 
ATOM     34  C   UNL A   1      34.997  29.730  27.764  1.00  0.00     0.016 A 
ATOM     35  C   UNL A   1      35.647  32.061  27.961  1.00  0.00     0.016 A 
ATOM     36  C   UNL A   1      36.236  29.333  28.255  1.00  0.00     0.010 A 
ATOM     37  C   UNL A   1      36.894  31.658  28.458  1.00  0.00     0.010 A 
ATOM     38  C   UNL A   1      37.175  30.293  28.656  1.00  0.00    -0.014 A 
BRANCH  38  39
ATOM     39  C   UNL A   1      38.367  29.842  29.420  1.00  0.00     0.031 A 
ATOM     40  C   UNL A   1      38.618  30.393  30.801  1.00  0.00     0.074 A 
ATOM     41  C   UNL A   1      39.174  28.888  28.922  1.00  0.00     0.049 A 
ATOM     42  N   UNL A   1      39.568  30.095  31.650  1.00  0.00    -0.248 NA
ATOM     43  C   UNL A   1      37.671  31.407  31.293  1.00  0.00     0.031 C 
ATOM     44  C   UNL A   1      39.028  28.262  27.609  1.00  0.00     0.029 A 
ATOM     45  N   UNL A   1      40.283  28.285  29.462  1.00  0.00    -0.354 N 
ATOM     46  C   UNL A   1      39.346  30.894  32.766  1.00  0.00     0.074 A 
ATOM     47  C   UNL A   1      38.184  31.708  32.477  1.00  0.00     0.031 C 
ATOM     48  C   UNL A   1      40.022  27.374  27.436  1.00  0.00     0.029 A 
ATOM     49  C   UNL A   1      40.889  27.388  28.613  1.00  0.00     0.049 A 
ATOM     50  H   UNL A   1      40.613  28.476  30.369  1.00  0.00     0.167 HD
ATOM     51  C   UNL A   1      40.030  30.934  33.935  1.00  0.00     0.034 A 
ATOM     52  C   UNL A   1      42.024  26.677  28.760  1.00  0.00     0.034 A 
ATOM     53  C   UNL A   1      41.177  30.117  34.230  1.00  0.00     0.049 A 
ATOM     54  C   UNL A   1      42.791  26.772  30.053  1.00  0.00     0.074 A 
ATOM     55  C   UNL A   1      41.924  30.070  35.394  1.00  0.00     0.029 A 
ATOM     56  N   UNL A   1      41.749  29.208  33.353  1.00  0.00    -0.354 N 
ATOM     57  N   UNL A   1      42.511  27.459  31.133  1.00  0.00    -0.248 NA
ATOM     58  C   UNL A   1      44.012  25.959  30.161  1.00  0.00     0.031 C 
ATOM     59  C   UNL A   1      42.967  29.154  35.209  1.00  0.00     0.029 A 
ATOM     60  C   UNL A   1      42.845  28.603  33.945  1.00  0.00     0.049 A 
ATOM     61  H   UNL A   1      41.425  29.021  32.442  1.00  0.00     0.167 HD
ATOM     62  C   UNL A   1      43.496  27.136  32.060  1.00  0.00     0.074 A 
ATOM     63  C   UNL A   1      44.365  26.169  31.422  1.00  0.00     0.031 C 
ATOM     64  C   UNL A   1      43.673  27.605  33.320  1.00  0.00     0.034 A 
BRANCH  51  65
ATOM     65  C   UNL A   1      39.540  31.880  35.003  1.00  0.00     0.023 A 
ATOM     66  C   UNL A   1      39.733  33.268  34.847  1.00  0.00     0.012 A 
ATOM     67  C   UNL A   1      38.834  31.405  36.125  1.00  0.00     0.148 A 
ATOM     68  C   UNL A   1      39.261  34.165  35.806  1.00  0.00     0.002 A 
ATOM     69  C   UNL A   1      38.325  32.307  37.053  1.00  0.00     0.091 A 
ATOM     70  F   UNL A   1      38.674  30.081  36.265  1.00  0.00    -0.205 F 
ATOM     71  C   UNL A   1      38.549  33.685  36.901  1.00  0.00     0.022 A 
BRANCH  69  72
ATOM     72  S   UNL A   1      37.328  31.798  38.457  1.00  0.00     0.127 S 
ATOM     73  O   UNL A   1      37.030  30.407  38.118  1.00  0.00    -0.237 OA
ATOM     74  O   UNL A   1      38.260  31.966  39.573  1.00  0.00    -0.237 OA
ATOM     75  O   UNL A   1      36.179  32.692  38.482  1.00  0.00    -0.744 OA
ENDBRANCH  69  72
ENDBRANCH  51  65
BRANCH  52  76
ATOM     76  C   UNL A   1      42.505  25.802  27.654  1.00  0.00     0.023 A 
ATOM     77  C   UNL A   1      43.433  26.297  26.716  1.00  0.00     0.012 A 
ATOM     78  C   UNL A   1      42.039  24.480  27.525  1.00  0.00     0.148 A 
ATOM     79  C   UNL A   1      43.854  25.504  25.648  1.00  0.00     0.002 A 
ATOM     80  C   UNL A   1      42.511  23.675  26.495  1.00  0.00     0.091 A 
ATOM     81  F   UNL A   1      41.143  24.033  28.416  1.00  0.00    -0.205 F 
ATOM     82  C   UNL A   1      43.401  24.192  25.543  1.00  0.00     0.022 A 
BRANCH  80  83
ATOM     83  S   UNL A   1      42.084  21.936  26.369  1.00  0.00     0.127 S 
ATOM     84  O   UNL A   1      40.659  21.999  26.059  1.00  0.00    -0.237 OA
ATOM     85  O   UNL A   1      42.938  21.497  25.264  1.00  0.00    -0.237 OA
ATOM     86  O   UNL A   1      42.430  21.353  27.658  1.00  0.00    -0.744 OA
ENDBRANCH  80  83
ENDBRANCH  52  76
BRANCH  64  87
ATOM     87  C   UNL A   1      44.825  27.044  34.117  1.00  0.00     0.023 A 
ATOM     88  C   UNL A   1      46.079  27.688  34.097  1.00  0.00     0.012 A 
ATOM     89  C   UNL A   1      44.647  25.907  34.930  1.00  0.00     0.148 A 
ATOM     90  C   UNL A   1      47.148  27.182  34.837  1.00  0.00     0.002 A 
ATOM     91  C   UNL A   1      45.701  25.440  35.706  1.00  0.00     0.091 A 
ATOM     92  F   UNL A   1      43.452  25.297  34.925  1.00  0.00    -0.205 F 
ATOM     93  C   UNL A   1      46.956  26.067  35.649  1.00  0.00     0.022 A 
BRANCH  91  94
ATOM     94  S   UNL A   1      45.522  24.070  36.854  1.00  0.00     0.127 S 
ATOM     95  O   UNL A   1      44.522  24.591  37.785  1.00  0.00    -0.237 OA
ATOM     96  O   UNL A   1      45.042  22.997  35.982  1.00  0.00    -0.237 OA
ATOM     97  O   UNL A   1      46.844  23.844  37.420  1.00  0.00    -0.744 OA
ENDBRANCH  91  94
ENDBRANCH  64  87
ENDBRANCH  38  39
ENDBRANCH  31  33
ENDBRANCH  30  31
ENDBRANCH  29  30
ENDBRANCH  28  29
ENDBRANCH  27  28
ENDBRANCH   1  27
TORSDOF 23
ENDMDL
MODEL 3
REMARK VINA RESULT:     -10.5      4.864     10.363
REMARK SMILES C[C@@](NC(=O)CCOC1CC[NH2+]CC1)(C(=O)OCCOCCOC(=O)c1ccc(-c2c3nc(c(-c4cccc(S(=O)(=O)[O-])c4F)c4ccc([nH]4)c(-c4cccc(S(=O)(=O)[O-])c4F)c4nc(c(-c5cccc(S(=O)(=O)[O-])c5F)c5ccc2[nH]5)C=C4)C=C3)cc1)C(F)(F)F
REMARK SMILES IDX 19 1 18 2 17 3 15 4 16 5 2 6 1 7 3 8 4 9 5 11 6 12 7 13 8 14
REMARK SMILES IDX 9 15 10 16 14 17 11 18 13 19 12 20 89 23 90 24 91 25 92 26
REMARK SMILES IDX 20 27 21 28 22 29 23 30 24 31 25 32 26 33 27 34 88 35 28 36
REMARK SMILES IDX 87 37 29 38 30 39 31 40 81 41 32 42 86 43 80 44 82 45 33 46
REMARK SMILES IDX 85 47 79 48 78 49 34 51 66 52 46 53 65 54 47 55 50 56 64 57
REMARK SMILES IDX 83 58 48 59 49 60 63 62 84 63 51 64 35 65 36 66 44 67 37 68
REMARK SMILES IDX 39 69 45 70 38 71 40 72 41 73 42 74 43 75 67 76 68 77 76 78
REMARK SMILES IDX 69 79 71 80 77 81 70 82 72 83 73 84 74 85 75 86 52 87 53 88
REMARK SMILES IDX 61 89 54 90 56 91 62 92 55 93 57 94 58 95 59 96 60 97
REMARK H PARENT 3 10 12 21 12 22 82 50 50 61
REMARK Flexibility Score: inf
ROOT
ATOM      1  C   UNL A   1      34.757  22.491  26.595  1.00  0.00     0.202 C 
ENDROOT
BRANCH   1   2
ATOM      2  C   UNL A   1      33.520  23.382  26.752  1.00  0.00     0.261 C 
BRANCH   2   3
ATOM      3  O   UNL A   1      33.328  24.071  25.509  1.00  0.00    -0.461 OA
BRANCH   3   4
ATOM      4  C   UNL A   1      32.205  24.809  25.309  1.00  0.00     0.341 C 
ATOM      5  O   UNL A   1      31.771  25.629  26.109  1.00  0.00    -0.249 OA
BRANCH   4   6
ATOM      6  C   UNL A   1      31.544  24.404  23.992  1.00  0.00     0.231 C 
ATOM      7  C   UNL A   1      31.552  22.888  23.791  1.00  0.00     0.058 C 
BRANCH   6   8
ATOM      8  N   UNL A   1      30.176  25.001  23.827  1.00  0.00    -0.333 N 
ATOM      9  C   UNL A   1      29.690  26.270  23.823  1.00  0.00     0.223 C 
ATOM     10  H   UNL A   1      29.474  24.322  23.692  1.00  0.00     0.164 HD
ATOM     11  O   UNL A   1      28.463  26.399  23.840  1.00  0.00    -0.275 OA
BRANCH   9  12
ATOM     12  C   UNL A   1      30.597  27.474  23.803  1.00  0.00     0.128 C 
BRANCH  12  13
ATOM     13  C   UNL A   1      30.532  28.203  22.466  1.00  0.00     0.170 C 
BRANCH  13  14
ATOM     14  O   UNL A   1      30.288  29.589  22.693  1.00  0.00    -0.377 OA
BRANCH  14  15
ATOM     15  C   UNL A   1      28.980  29.936  23.152  1.00  0.00     0.129 C 
ATOM     16  C   UNL A   1      28.029  29.855  21.967  1.00  0.00     0.093 C 
ATOM     17  C   UNL A   1      28.985  31.352  23.763  1.00  0.00     0.093 C 
ATOM     18  C   UNL A   1      28.282  30.995  20.988  1.00  0.00     0.263 C 
ATOM     19  C   UNL A   1      28.850  32.528  22.779  1.00  0.00     0.263 C 
ATOM     20  N   UNL A   1      27.999  32.281  21.621  1.00  0.00    -0.346 N 
ATOM     21  H   UNL A   1      27.025  32.292  21.922  1.00  0.00     0.346 HD
ATOM     22  H   UNL A   1      28.186  33.014  20.935  1.00  0.00     0.346 HD
ENDBRANCH  14  15
ENDBRANCH  13  14
ENDBRANCH  12  13
ENDBRANCH   9  12
ENDBRANCH   6   8
BRANCH   6  23
ATOM     23  C   UNL A   1      32.487  24.948  22.897  1.00  0.00     0.422 C 
ATOM     24  F   UNL A   1      31.837  25.251  21.751  1.00  0.00    -0.168 F 
ATOM     25  F   UNL A   1      33.071  26.104  23.325  1.00  0.00    -0.168 F 
ATOM     26  F   UNL A   1      33.501  24.108  22.602  1.00  0.00    -0.168 F 
ENDBRANCH   6  23
ENDBRANCH   4   6
ENDBRANCH   3   4
ENDBRANCH   2   3
ENDBRANCH   1   2
BRANCH   1  27
ATOM     27  O   UNL A   1      35.227  22.315  25.253  1.00  0.00    -0.374 OA
BRANCH  27  28
ATOM     28  C   UNL A   1      35.547  20.984  24.855  1.00  0.00     0.202 C 
BRANCH  28  29
ATOM     29  C   UNL A   1      37.030  20.575  24.892  1.00  0.00     0.261 C 
BRANCH  29  30
ATOM     30  O   UNL A   1      37.932  21.677  25.098  1.00  0.00    -0.460 OA
BRANCH  30  31
ATOM     31  C   UNL A   1      38.994  21.377  25.879  1.00  0.00     0.338 C 
ATOM     32  O   UNL A   1      39.648  20.333  25.865  1.00  0.00    -0.246 OA
BRANCH  31  33
ATOM     33  C   UNL A   1      39.414  22.528  26.688  1.00  0.00     0.060 A 
ATOM     34  C   UNL A   1      38.787  23.751  26.428  1.00  0.00     0.016 A 
ATOM     35  C   UNL A   1      40.523  22.463  27.534  1.00  0.00     0.016 A 
ATOM     36  C   UNL A   1      39.305  24.926  26.962  1.00  0.00     0.010 A 
ATOM     37  C   UNL A   1      41.045  23.650  28.069  1.00  0.00     0.010 A 
ATOM     38  C   UNL A   1      40.469  24.892  27.743  1.00  0.00    -0.014 A 
BRANCH  38  39
ATOM     39  C   UNL A   1      41.142  26.176  28.067  1.00  0.00     0.031 A 
ATOM     40  C   UNL A   1      42.557  26.412  27.603  1.00  0.00     0.074 A 
ATOM     41  C   UNL A   1      40.471  27.156  28.699  1.00  0.00     0.049 A 
ATOM     42  N   UNL A   1      43.305  27.477  27.739  1.00  0.00    -0.248 NA
ATOM     43  C   UNL A   1      43.214  25.307  26.887  1.00  0.00     0.031 C 
ATOM     44  C   UNL A   1      39.094  27.059  29.181  1.00  0.00     0.029 A 
ATOM     45  N   UNL A   1      40.863  28.424  29.049  1.00  0.00    -0.354 N 
ATOM     46  C   UNL A   1      44.523  27.167  27.143  1.00  0.00     0.074 A 
ATOM     47  C   UNL A   1      44.422  25.804  26.665  1.00  0.00     0.031 C 
ATOM     48  C   UNL A   1      38.760  28.214  29.782  1.00  0.00     0.029 A 
ATOM     49  C   UNL A   1      39.907  29.121  29.750  1.00  0.00     0.049 A 
ATOM     50  H   UNL A   1      41.743  28.799  28.820  1.00  0.00     0.167 HD
ATOM     51  C   UNL A   1      45.618  27.949  26.985  1.00  0.00     0.034 A 
ATOM     52  C   UNL A   1      39.958  30.341  30.321  1.00  0.00     0.034 A 
ATOM     53  C   UNL A   1      45.715  29.308  27.447  1.00  0.00     0.049 A 
ATOM     54  C   UNL A   1      41.204  31.174  30.168  1.00  0.00     0.074 A 
ATOM     55  C   UNL A   1      46.775  30.188  27.316  1.00  0.00     0.029 A 
ATOM     56  N   UNL A   1      44.720  29.984  28.136  1.00  0.00    -0.354 N 
ATOM     57  N   UNL A   1      42.308  30.900  29.518  1.00  0.00    -0.248 NA
ATOM     58  C   UNL A   1      41.194  32.504  30.797  1.00  0.00     0.031 C 
ATOM     59  C   UNL A   1      46.432  31.387  27.952  1.00  0.00     0.029 A 
ATOM     60  C   UNL A   1      45.144  31.266  28.445  1.00  0.00     0.049 A 
ATOM     61  H   UNL A   1      43.841  29.608  28.372  1.00  0.00     0.167 HD
ATOM     62  C   UNL A   1      43.108  32.033  29.627  1.00  0.00     0.074 A 
ATOM     63  C   UNL A   1      42.348  33.007  30.384  1.00  0.00     0.031 C 
ATOM     64  C   UNL A   1      44.361  32.245  29.155  1.00  0.00     0.034 A 
BRANCH  51  65
ATOM     65  C   UNL A   1      46.801  27.361  26.258  1.00  0.00     0.023 A 
ATOM     66  C   UNL A   1      46.894  27.490  24.857  1.00  0.00     0.012 A 
ATOM     67  C   UNL A   1      47.851  26.740  26.963  1.00  0.00     0.148 A 
ATOM     68  C   UNL A   1      47.994  26.982  24.166  1.00  0.00     0.002 A 
ATOM     69  C   UNL A   1      48.966  26.277  26.274  1.00  0.00     0.091 A 
ATOM     70  F   UNL A   1      47.738  26.612  28.293  1.00  0.00    -0.205 F 
ATOM     71  C   UNL A   1      49.033  26.387  24.875  1.00  0.00     0.022 A 
BRANCH  69  72
ATOM     72  S   UNL A   1      50.392  25.565  27.101  1.00  0.00     0.127 S 
ATOM     73  O   UNL A   1      49.820  24.353  27.686  1.00  0.00    -0.237 OA
ATOM     74  O   UNL A   1      51.308  25.328  25.984  1.00  0.00    -0.237 OA
ATOM     75  O   UNL A   1      50.845  26.564  28.058  1.00  0.00    -0.744 OA
ENDBRANCH  69  72
ENDBRANCH  51  65
BRANCH  52  76
ATOM     76  C   UNL A   1      38.788  30.857  31.085  1.00  0.00     0.023 A 
ATOM     77  C   UNL A   1      38.772  30.776  32.492  1.00  0.00     0.012 A 
ATOM     78  C   UNL A   1      37.683  31.423  30.419  1.00  0.00     0.148 A 
ATOM     79  C   UNL A   1      37.662  31.212  33.216  1.00  0.00     0.002 A 
ATOM     80  C   UNL A   1      36.608  31.912  31.150  1.00  0.00     0.091 A 
ATOM     81  F   UNL A   1      37.708  31.475  29.080  1.00  0.00    -0.205 F 
ATOM     82  C   UNL A   1      36.585  31.787  32.547  1.00  0.00     0.022 A 
BRANCH  80  83
ATOM     83  S   UNL A   1      35.246  32.790  30.377  1.00  0.00     0.127 S 
ATOM     84  O   UNL A   1      34.360  33.027  31.512  1.00  0.00    -0.237 OA
ATOM     85  O   UNL A   1      35.916  33.982  29.855  1.00  0.00    -0.237 OA
ATOM     86  O   UNL A   1      34.736  31.893  29.348  1.00  0.00    -0.744 OA
ENDBRANCH  80  83
ENDBRANCH  52  76
BRANCH  64  87
ATOM     87  C   UNL A   1      44.979  33.600  29.398  1.00  0.00     0.023 A 
ATOM     88  C   UNL A   1      45.575  33.892  30.641  1.00  0.00     0.012 A 
ATOM     89  C   UNL A   1      45.014  34.565  28.372  1.00  0.00     0.148 A 
ATOM     90  C   UNL A   1      46.155  35.139  30.874  1.00  0.00     0.002 A 
ATOM     91  C   UNL A   1      45.642  35.785  28.593  1.00  0.00     0.091 A 
ATOM     92  F   UNL A   1      44.428  34.277  27.201  1.00  0.00    -0.205 F 
ATOM     93  C   UNL A   1      46.199  36.079  29.848  1.00  0.00     0.022 A 
BRANCH  91  94
ATOM     94  S   UNL A   1      45.832  37.020  27.302  1.00  0.00     0.127 S 
ATOM     95  O   UNL A   1      45.938  36.187  26.106  1.00  0.00    -0.237 OA
ATOM     96  O   UNL A   1      44.583  37.775  27.411  1.00  0.00    -0.237 OA
ATOM     97  O   UNL A   1      47.028  37.778  27.644  1.00  0.00    -0.744 OA
ENDBRANCH  91  94
ENDBRANCH  64  87
ENDBRANCH  38  39
ENDBRANCH  31  33
ENDBRANCH  30  31
ENDBRANCH  29  30
ENDBRANCH  28  29
ENDBRANCH  27  28
ENDBRANCH   1  27
TORSDOF 23
ENDMDL
