MODEL 1
REMARK VINA RESULT:      -9.0      0.000      0.000
REMARK SMILES CC[NH+](CC)C[C@H](F)C(=O)OCCOCCOC(=O)c1ccc(-c2c3nc(c(-c4cccc(S(=O)(=O)[O-])c4F)c4ccc([nH]4)c(-c4cccc(S(=O)(=O)[O-])c4F)c4nc(c(-c5cccc(S(=O)(=O)[O-])c5F)c5ccc2[nH]5)C=C4)C=C3)cc1
REMARK SMILES IDX 14 1 13 2 12 3 11 4 9 5 10 6 7 7 8 8 6 9 3 10 2 12 1 13 4 14
REMARK SMILES IDX 5 15 15 16 16 17 17 18 18 19 19 20 20 21 21 22 82 23 22 24
REMARK SMILES IDX 81 25 23 26 24 27 25 28 75 29 26 30 80 31 74 32 76 33 27 34
REMARK SMILES IDX 79 35 73 36 72 37 28 39 60 40 40 41 59 42 41 43 44 44 58 45
REMARK SMILES IDX 77 46 42 47 43 48 57 50 78 51 45 52 29 53 30 54 38 55 31 56
REMARK SMILES IDX 33 57 39 58 32 59 34 60 35 61 36 62 37 63 61 64 62 65 70 66
REMARK SMILES IDX 63 67 65 68 71 69 64 70 66 71 67 72 68 73 69 74 46 75 47 76
REMARK SMILES IDX 55 77 48 78 50 79 56 80 49 81 51 82 52 83 53 84 54 85
REMARK H PARENT 3 11 76 38 44 49
REMARK Flexibility Score: inf
ROOT
ATOM      1  O   UNL A   1      32.996  34.886  29.127  1.00  0.00    -0.374 OA
ENDROOT
BRANCH   1   2
ATOM      2  C   UNL A   1      32.891  36.301  29.004  1.00  0.00     0.202 C 
BRANCH   2   3
ATOM      3  C   UNL A   1      33.239  37.174  30.214  1.00  0.00     0.261 C 
BRANCH   3   4
ATOM      4  O   UNL A   1      32.338  37.043  31.321  1.00  0.00    -0.461 OA
BRANCH   4   5
ATOM      5  C   UNL A   1      32.776  36.204  32.301  1.00  0.00     0.346 C 
ATOM      6  O   UNL A   1      32.243  35.132  32.567  1.00  0.00    -0.248 OA
BRANCH   5   7
ATOM      7  C   UNL A   1      34.045  36.693  32.961  1.00  0.00     0.330 C 
ATOM      8  F   UNL A   1      33.845  37.048  34.273  1.00  0.00    -0.228 F 
BRANCH   7   9
ATOM      9  C   UNL A   1      35.204  35.685  32.929  1.00  0.00     0.312 C 
BRANCH   9  10
ATOM     10  N   UNL A   1      35.012  34.230  32.885  1.00  0.00    -0.332 N 
ATOM     11  H   UNL A   1      34.017  34.228  32.664  1.00  0.00     0.348 HD
BRANCH  10  12
ATOM     12  C   UNL A   1      35.576  33.491  31.753  1.00  0.00     0.258 C 
ATOM     13  C   UNL A   1      35.825  32.003  32.000  1.00  0.00     0.071 C 
ENDBRANCH  10  12
BRANCH  10  14
ATOM     14  C   UNL A   1      35.099  33.520  34.164  1.00  0.00     0.258 C 
ATOM     15  C   UNL A   1      36.189  33.931  35.146  1.00  0.00     0.071 C 
ENDBRANCH  10  14
ENDBRANCH   9  10
ENDBRANCH   7   9
ENDBRANCH   5   7
ENDBRANCH   4   5
ENDBRANCH   3   4
ENDBRANCH   2   3
ENDBRANCH   1   2
BRANCH   1  16
ATOM     16  C   UNL A   1      33.404  34.120  27.995  1.00  0.00     0.202 C 
BRANCH  16  17
ATOM     17  C   UNL A   1      34.739  33.374  28.057  1.00  0.00     0.261 C 
BRANCH  17  18
ATOM     18  O   UNL A   1      34.654  32.143  28.793  1.00  0.00    -0.460 OA
BRANCH  18  19
ATOM     19  C   UNL A   1      34.624  31.032  28.020  1.00  0.00     0.338 C 
ATOM     20  O   UNL A   1      33.794  30.754  27.161  1.00  0.00    -0.246 OA
BRANCH  19  21
ATOM     21  C   UNL A   1      35.851  30.241  28.199  1.00  0.00     0.060 A 
ATOM     22  C   UNL A   1      35.952  29.467  29.363  1.00  0.00     0.016 A 
ATOM     23  C   UNL A   1      36.925  30.344  27.315  1.00  0.00     0.016 A 
ATOM     24  C   UNL A   1      37.154  28.844  29.680  1.00  0.00     0.010 A 
ATOM     25  C   UNL A   1      38.137  29.725  27.643  1.00  0.00     0.010 A 
ATOM     26  C   UNL A   1      38.268  29.010  28.847  1.00  0.00    -0.014 A 
BRANCH  26  27
ATOM     27  C   UNL A   1      39.593  28.555  29.325  1.00  0.00     0.031 A 
ATOM     28  C   UNL A   1      40.238  29.269  30.483  1.00  0.00     0.074 A 
ATOM     29  C   UNL A   1      40.191  27.490  28.763  1.00  0.00     0.049 A 
ATOM     30  N   UNL A   1      41.363  29.004  31.093  1.00  0.00    -0.248 NA
ATOM     31  C   UNL A   1      39.517  30.431  31.030  1.00  0.00     0.031 C 
ATOM     32  C   UNL A   1      39.662  26.724  27.636  1.00  0.00     0.029 A 
ATOM     33  N   UNL A   1      41.383  26.880  29.058  1.00  0.00    -0.354 N 
ATOM     34  C   UNL A   1      41.493  29.968  32.085  1.00  0.00     0.074 A 
ATOM     35  C   UNL A   1      40.341  30.838  31.985  1.00  0.00     0.031 C 
ATOM     36  C   UNL A   1      40.542  25.758  27.317  1.00  0.00     0.029 A 
ATOM     37  C   UNL A   1      41.695  25.844  28.210  1.00  0.00     0.049 A 
ATOM     38  H   UNL A   1      41.960  27.156  29.806  1.00  0.00     0.167 HD
ATOM     39  C   UNL A   1      42.471  30.104  33.012  1.00  0.00     0.034 A 
ATOM     40  C   UNL A   1      42.792  25.064  28.157  1.00  0.00     0.034 A 
ATOM     41  C   UNL A   1      43.607  29.229  33.120  1.00  0.00     0.049 A 
ATOM     42  C   UNL A   1      43.871  25.247  29.192  1.00  0.00     0.074 A 
ATOM     43  C   UNL A   1      44.637  29.266  34.044  1.00  0.00     0.029 A 
ATOM     44  N   UNL A   1      43.868  28.165  32.271  1.00  0.00    -0.354 N 
ATOM     45  N   UNL A   1      43.915  26.081  30.203  1.00  0.00    -0.248 NA
ATOM     46  C   UNL A   1      45.035  24.352  29.103  1.00  0.00     0.031 C 
ATOM     47  C   UNL A   1      45.529  28.228  33.745  1.00  0.00     0.029 A 
ATOM     48  C   UNL A   1      45.045  27.539  32.645  1.00  0.00     0.049 A 
ATOM     49  H   UNL A   1      43.300  27.893  31.515  1.00  0.00     0.167 HD
ATOM     50  C   UNL A   1      45.093  25.795  30.884  1.00  0.00     0.074 A 
ATOM     51  C   UNL A   1      45.717  24.687  30.190  1.00  0.00     0.031 C 
ATOM     52  C   UNL A   1      45.624  26.404  31.973  1.00  0.00     0.034 A 
BRANCH  39  53
ATOM     53  C   UNL A   1      42.332  31.213  34.020  1.00  0.00     0.023 A 
ATOM     54  C   UNL A   1      41.764  30.933  35.278  1.00  0.00     0.012 A 
ATOM     55  C   UNL A   1      42.822  32.507  33.754  1.00  0.00     0.148 A 
ATOM     56  C   UNL A   1      41.668  31.926  36.252  1.00  0.00     0.002 A 
ATOM     57  C   UNL A   1      42.755  33.483  34.742  1.00  0.00     0.091 A 
ATOM     58  F   UNL A   1      43.337  32.757  32.542  1.00  0.00    -0.205 F 
ATOM     59  C   UNL A   1      42.172  33.196  35.988  1.00  0.00     0.022 A 
BRANCH  57  60
ATOM     60  S   UNL A   1      43.436  35.131  34.526  1.00  0.00     0.127 S 
ATOM     61  O   UNL A   1      42.742  35.581  33.319  1.00  0.00    -0.237 OA
ATOM     62  O   UNL A   1      43.016  35.801  35.757  1.00  0.00    -0.237 OA
ATOM     63  O   UNL A   1      44.875  34.957  34.388  1.00  0.00    -0.744 OA
ENDBRANCH  57  60
ENDBRANCH  39  53
BRANCH  40  64
ATOM     64  C   UNL A   1      42.908  24.011  27.109  1.00  0.00     0.023 A 
ATOM     65  C   UNL A   1      43.694  24.250  25.965  1.00  0.00     0.012 A 
ATOM     66  C   UNL A   1      42.251  22.773  27.244  1.00  0.00     0.148 A 
ATOM     67  C   UNL A   1      43.795  23.287  24.959  1.00  0.00     0.002 A 
ATOM     68  C   UNL A   1      42.402  21.798  26.265  1.00  0.00     0.091 A 
ATOM     69  F   UNL A   1      41.487  22.571  28.327  1.00  0.00    -0.205 F 
ATOM     70  C   UNL A   1      43.159  22.059  25.113  1.00  0.00     0.022 A 
BRANCH  68  71
ATOM     71  S   UNL A   1      41.724  20.146  26.460  1.00  0.00     0.127 S 
ATOM     72  O   UNL A   1      40.288  20.402  26.407  1.00  0.00    -0.237 OA
ATOM     73  O   UNL A   1      42.270  19.448  25.296  1.00  0.00    -0.237 OA
ATOM     74  O   UNL A   1      42.243  19.668  27.736  1.00  0.00    -0.744 OA
ENDBRANCH  68  71
ENDBRANCH  40  64
BRANCH  52  75
ATOM     75  C   UNL A   1      46.937  25.879  32.491  1.00  0.00     0.023 A 
ATOM     76  C   UNL A   1      48.143  26.405  31.986  1.00  0.00     0.012 A 
ATOM     77  C   UNL A   1      46.980  24.912  33.515  1.00  0.00     0.148 A 
ATOM     78  C   UNL A   1      49.371  25.950  32.465  1.00  0.00     0.002 A 
ATOM     79  C   UNL A   1      48.207  24.496  34.018  1.00  0.00     0.091 A 
ATOM     80  F   UNL A   1      45.824  24.408  33.970  1.00  0.00    -0.205 F 
ATOM     81  C   UNL A   1      49.403  25.005  33.487  1.00  0.00     0.022 A 
BRANCH  79  82
ATOM     82  S   UNL A   1      48.333  23.350  35.396  1.00  0.00     0.127 S 
ATOM     83  O   UNL A   1      47.777  22.127  34.819  1.00  0.00    -0.237 OA
ATOM     84  O   UNL A   1      49.776  23.306  35.639  1.00  0.00    -0.237 OA
ATOM     85  O   UNL A   1      47.561  23.947  36.477  1.00  0.00    -0.744 OA
ENDBRANCH  79  82
ENDBRANCH  52  75
ENDBRANCH  26  27
ENDBRANCH  19  21
ENDBRANCH  18  19
ENDBRANCH  17  18
ENDBRANCH  16  17
ENDBRANCH   1  16
TORSDOF 21
ENDMDL
MODEL 2
REMARK VINA RESULT:      -9.0      1.378      7.987
REMARK SMILES CC[NH+](CC)C[C@H](F)C(=O)OCCOCCOC(=O)c1ccc(-c2c3nc(c(-c4cccc(S(=O)(=O)[O-])c4F)c4ccc([nH]4)c(-c4cccc(S(=O)(=O)[O-])c4F)c4nc(c(-c5cccc(S(=O)(=O)[O-])c5F)c5ccc2[nH]5)C=C4)C=C3)cc1
REMARK SMILES IDX 14 1 13 2 12 3 11 4 9 5 10 6 7 7 8 8 6 9 3 10 2 12 1 13 4 14
REMARK SMILES IDX 5 15 15 16 16 17 17 18 18 19 19 20 20 21 21 22 82 23 22 24
REMARK SMILES IDX 81 25 23 26 24 27 25 28 75 29 26 30 80 31 74 32 76 33 27 34
REMARK SMILES IDX 79 35 73 36 72 37 28 39 60 40 40 41 59 42 41 43 44 44 58 45
REMARK SMILES IDX 77 46 42 47 43 48 57 50 78 51 45 52 29 53 30 54 38 55 31 56
REMARK SMILES IDX 33 57 39 58 32 59 34 60 35 61 36 62 37 63 61 64 62 65 70 66
REMARK SMILES IDX 63 67 65 68 71 69 64 70 66 71 67 72 68 73 69 74 46 75 47 76
REMARK SMILES IDX 55 77 48 78 50 79 56 80 49 81 51 82 52 83 53 84 54 85
REMARK H PARENT 3 11 76 38 44 49
REMARK Flexibility Score: inf
ROOT
ATOM      1  O   UNL A   1      33.209  34.722  29.184  1.00  0.00    -0.374 OA
ENDROOT
BRANCH   1   2
ATOM      2  C   UNL A   1      32.967  36.114  28.999  1.00  0.00     0.202 C 
BRANCH   2   3
ATOM      3  C   UNL A   1      33.194  37.064  30.180  1.00  0.00     0.261 C 
BRANCH   3   4
ATOM      4  O   UNL A   1      32.286  36.880  31.274  1.00  0.00    -0.461 OA
BRANCH   4   5
ATOM      5  C   UNL A   1      32.764  36.079  32.266  1.00  0.00     0.346 C 
ATOM      6  O   UNL A   1      32.271  34.995  32.564  1.00  0.00    -0.248 OA
BRANCH   5   7
ATOM      7  C   UNL A   1      34.024  36.624  32.899  1.00  0.00     0.330 C 
ATOM      8  F   UNL A   1      33.819  37.040  34.192  1.00  0.00    -0.228 F 
BRANCH   7   9
ATOM      9  C   UNL A   1      35.202  35.639  32.914  1.00  0.00     0.312 C 
BRANCH   9  10
ATOM     10  N   UNL A   1      35.040  34.180  32.915  1.00  0.00    -0.332 N 
ATOM     11  H   UNL A   1      34.043  34.151  32.696  1.00  0.00     0.348 HD
BRANCH  10  12
ATOM     12  C   UNL A   1      35.615  33.418  31.803  1.00  0.00     0.258 C 
ATOM     13  C   UNL A   1      35.650  31.903  31.996  1.00  0.00     0.071 C 
ENDBRANCH  10  12
BRANCH  10  14
ATOM     14  C   UNL A   1      35.144  33.509  34.213  1.00  0.00     0.258 C 
ATOM     15  C   UNL A   1      36.295  33.894  35.135  1.00  0.00     0.071 C 
ENDBRANCH  10  14
ENDBRANCH   9  10
ENDBRANCH   7   9
ENDBRANCH   5   7
ENDBRANCH   4   5
ENDBRANCH   3   4
ENDBRANCH   2   3
ENDBRANCH   1   2
BRANCH   1  16
ATOM     16  C   UNL A   1      33.542  33.921  28.051  1.00  0.00     0.202 C 
BRANCH  16  17
ATOM     17  C   UNL A   1      34.838  33.107  28.084  1.00  0.00     0.261 C 
BRANCH  17  18
ATOM     18  O   UNL A   1      34.686  31.847  28.758  1.00  0.00    -0.460 OA
BRANCH  18  19
ATOM     19  C   UNL A   1      34.778  30.766  27.948  1.00  0.00     0.338 C 
ATOM     20  O   UNL A   1      34.014  30.460  27.038  1.00  0.00    -0.246 OA
BRANCH  19  21
ATOM     21  C   UNL A   1      36.050  30.061  28.164  1.00  0.00     0.060 A 
ATOM     22  C   UNL A   1      36.235  29.435  29.404  1.00  0.00     0.016 A 
ATOM     23  C   UNL A   1      37.084  30.112  27.229  1.00  0.00     0.016 A 
ATOM     24  C   UNL A   1      37.479  28.912  29.739  1.00  0.00     0.010 A 
ATOM     25  C   UNL A   1      38.339  29.595  27.574  1.00  0.00     0.010 A 
ATOM     26  C   UNL A   1      38.551  29.033  28.845  1.00  0.00    -0.014 A 
BRANCH  26  27
ATOM     27  C   UNL A   1      39.915  28.700  29.315  1.00  0.00     0.031 A 
ATOM     28  C   UNL A   1      40.637  27.532  28.698  1.00  0.00     0.074 A 
ATOM     29  C   UNL A   1      40.518  29.457  30.249  1.00  0.00     0.049 A 
ATOM     30  N   UNL A   1      41.850  27.100  28.923  1.00  0.00    -0.248 NA
ATOM     31  C   UNL A   1      39.897  26.751  27.692  1.00  0.00     0.031 C 
ATOM     32  C   UNL A   1      39.914  30.609  30.917  1.00  0.00     0.029 A 
ATOM     33  N   UNL A   1      41.767  29.360  30.804  1.00  0.00    -0.354 N 
ATOM     34  C   UNL A   1      42.018  25.995  28.097  1.00  0.00     0.074 A 
ATOM     35  C   UNL A   1      40.775  25.809  27.380  1.00  0.00     0.031 C 
ATOM     36  C   UNL A   1      40.788  31.097  31.815  1.00  0.00     0.029 A 
ATOM     37  C   UNL A   1      42.005  30.289  31.788  1.00  0.00     0.049 A 
ATOM     38  H   UNL A   1      42.431  28.689  30.523  1.00  0.00     0.167 HD
ATOM     39  C   UNL A   1      43.115  25.218  27.932  1.00  0.00     0.034 A 
ATOM     40  C   UNL A   1      43.080  30.458  32.583  1.00  0.00     0.034 A 
ATOM     41  C   UNL A   1      44.355  25.414  28.635  1.00  0.00     0.049 A 
ATOM     42  C   UNL A   1      44.282  29.570  32.388  1.00  0.00     0.074 A 
ATOM     43  C   UNL A   1      45.533  24.700  28.516  1.00  0.00     0.029 A 
ATOM     44  N   UNL A   1      44.574  26.392  29.592  1.00  0.00    -0.354 N 
ATOM     45  N   UNL A   1      44.469  28.611  31.512  1.00  0.00    -0.248 NA
ATOM     46  C   UNL A   1      45.437  29.814  33.265  1.00  0.00     0.031 C 
ATOM     47  C   UNL A   1      46.464  25.238  29.413  1.00  0.00     0.029 A 
ATOM     48  C   UNL A   1      45.867  26.298  30.078  1.00  0.00     0.049 A 
ATOM     49  H   UNL A   1      43.908  27.056  29.884  1.00  0.00     0.167 HD
ATOM     50  C   UNL A   1      45.768  28.158  31.714  1.00  0.00     0.074 A 
ATOM     51  C   UNL A   1      46.333  28.970  32.772  1.00  0.00     0.031 C 
ATOM     52  C   UNL A   1      46.429  27.148  31.095  1.00  0.00     0.034 A 
BRANCH  39  53
ATOM     53  C   UNL A   1      43.043  24.110  26.916  1.00  0.00     0.023 A 
ATOM     54  C   UNL A   1      43.697  24.268  25.678  1.00  0.00     0.012 A 
ATOM     55  C   UNL A   1      42.396  22.894  27.207  1.00  0.00     0.148 A 
ATOM     56  C   UNL A   1      43.693  23.241  24.736  1.00  0.00     0.002 A 
ATOM     57  C   UNL A   1      42.426  21.861  26.277  1.00  0.00     0.091 A 
ATOM     58  F   UNL A   1      41.761  22.774  28.382  1.00  0.00    -0.205 F 
ATOM     59  C   UNL A   1      43.067  22.035  25.039  1.00  0.00     0.022 A 
BRANCH  57  60
ATOM     60  S   UNL A   1      41.708  20.245  26.597  1.00  0.00     0.127 S 
ATOM     61  O   UNL A   1      40.286  20.571  26.704  1.00  0.00    -0.237 OA
ATOM     62  O   UNL A   1      42.074  19.502  25.392  1.00  0.00    -0.237 OA
ATOM     63  O   UNL A   1      42.330  19.763  27.822  1.00  0.00    -0.744 OA
ENDBRANCH  57  60
ENDBRANCH  39  53
BRANCH  40  64
ATOM     64  C   UNL A   1      43.086  31.537  33.610  1.00  0.00     0.023 A 
ATOM     65  C   UNL A   1      43.618  32.801  33.290  1.00  0.00     0.012 A 
ATOM     66  C   UNL A   1      42.562  31.320  34.898  1.00  0.00     0.148 A 
ATOM     67  C   UNL A   1      43.658  33.818  34.245  1.00  0.00     0.002 A 
ATOM     68  C   UNL A   1      42.553  32.354  35.827  1.00  0.00     0.091 A 
ATOM     69  F   UNL A   1      42.082  30.103  35.195  1.00  0.00    -0.205 F 
ATOM     70  C   UNL A   1      43.116  33.599  35.508  1.00  0.00     0.022 A 
BRANCH  68  71
ATOM     71  S   UNL A   1      41.751  32.186  37.425  1.00  0.00     0.127 S 
ATOM     72  O   UNL A   1      41.844  33.544  37.953  1.00  0.00    -0.237 OA
ATOM     73  O   UNL A   1      40.401  31.762  37.051  1.00  0.00    -0.237 OA
ATOM     74  O   UNL A   1      42.518  31.169  38.133  1.00  0.00    -0.744 OA
ENDBRANCH  68  71
ENDBRANCH  40  64
BRANCH  52  75
ATOM     75  C   UNL A   1      47.842  26.872  31.536  1.00  0.00     0.023 A 
ATOM     76  C   UNL A   1      48.902  27.617  30.980  1.00  0.00     0.012 A 
ATOM     77  C   UNL A   1      48.118  25.921  32.538  1.00  0.00     0.148 A 
ATOM     78  C   UNL A   1      50.216  27.394  31.388  1.00  0.00     0.002 A 
ATOM     79  C   UNL A   1      49.426  25.736  32.971  1.00  0.00     0.091 A 
ATOM     80  F   UNL A   1      47.101  25.207  33.042  1.00  0.00    -0.205 F 
ATOM     81  C   UNL A   1      50.477  26.463  32.390  1.00  0.00     0.022 A 
BRANCH  79  82
ATOM     82  S   UNL A   1      49.834  24.621  34.320  1.00  0.00     0.127 S 
ATOM     83  O   UNL A   1      49.689  23.314  33.682  1.00  0.00    -0.237 OA
ATOM     84  O   UNL A   1      51.214  24.996  34.633  1.00  0.00    -0.237 OA
ATOM     85  O   UNL A   1      48.879  24.917  35.379  1.00  0.00    -0.744 OA
ENDBRANCH  79  82
ENDBRANCH  52  75
ENDBRANCH  26  27
ENDBRANCH  19  21
ENDBRANCH  18  19
ENDBRANCH  17  18
ENDBRANCH  16  17
ENDBRANCH   1  16
TORSDOF 21
ENDMDL
MODEL 3
REMARK VINA RESULT:      -8.8      3.822      6.444
REMARK SMILES CC[NH+](CC)C[C@H](F)C(=O)OCCOCCOC(=O)c1ccc(-c2c3nc(c(-c4cccc(S(=O)(=O)[O-])c4F)c4ccc([nH]4)c(-c4cccc(S(=O)(=O)[O-])c4F)c4nc(c(-c5cccc(S(=O)(=O)[O-])c5F)c5ccc2[nH]5)C=C4)C=C3)cc1
REMARK SMILES IDX 14 1 13 2 12 3 11 4 9 5 10 6 7 7 8 8 6 9 3 10 2 12 1 13 4 14
REMARK SMILES IDX 5 15 15 16 16 17 17 18 18 19 19 20 20 21 21 22 82 23 22 24
REMARK SMILES IDX 81 25 23 26 24 27 25 28 75 29 26 30 80 31 74 32 76 33 27 34
REMARK SMILES IDX 79 35 73 36 72 37 28 39 60 40 40 41 59 42 41 43 44 44 58 45
REMARK SMILES IDX 77 46 42 47 43 48 57 50 78 51 45 52 29 53 30 54 38 55 31 56
REMARK SMILES IDX 33 57 39 58 32 59 34 60 35 61 36 62 37 63 61 64 62 65 70 66
REMARK SMILES IDX 63 67 65 68 71 69 64 70 66 71 67 72 68 73 69 74 46 75 47 76
REMARK SMILES IDX 55 77 48 78 50 79 56 80 49 81 51 82 52 83 53 84 54 85
REMARK H PARENT 3 11 76 38 44 49
REMARK Flexibility Score: inf
ROOT
ATOM      1  O   UNL A   1      31.980  28.867  24.018  1.00  0.00    -0.374 OA
ENDROOT
BRANCH   1   2
ATOM      2  C   UNL A   1      32.709  28.331  22.918  1.00  0.00     0.202 C 
BRANCH   2   3
ATOM      3  C   UNL A   1      33.133  26.859  22.962  1.00  0.00     0.261 C 
BRANCH   3   4
ATOM      4  O   UNL A   1      32.059  25.925  22.791  1.00  0.00    -0.461 OA
BRANCH   4   5
ATOM      5  C   UNL A   1      32.462  24.635  22.626  1.00  0.00     0.346 C 
ATOM      6  O   UNL A   1      33.412  24.302  21.926  1.00  0.00    -0.248 OA
BRANCH   5   7
ATOM      7  C   UNL A   1      31.671  23.665  23.474  1.00  0.00     0.330 C 
ATOM      8  F   UNL A   1      31.292  22.548  22.770  1.00  0.00    -0.228 F 
BRANCH   7   9
ATOM      9  C   UNL A   1      32.401  23.187  24.738  1.00  0.00     0.312 C 
BRANCH   9  10
ATOM     10  N   UNL A   1      33.790  22.714  24.741  1.00  0.00    -0.332 N 
ATOM     11  H   UNL A   1      34.048  23.031  23.807  1.00  0.00     0.348 HD
BRANCH  10  12
ATOM     12  C   UNL A   1      34.762  23.423  25.579  1.00  0.00     0.258 C 
ATOM     13  C   UNL A   1      34.573  24.937  25.662  1.00  0.00     0.071 C 
ENDBRANCH  10  12
BRANCH  10  14
ATOM     14  C   UNL A   1      33.988  21.263  24.697  1.00  0.00     0.258 C 
ATOM     15  C   UNL A   1      35.400  20.720  24.881  1.00  0.00     0.071 C 
ENDBRANCH  10  14
ENDBRANCH   9  10
ENDBRANCH   7   9
ENDBRANCH   5   7
ENDBRANCH   4   5
ENDBRANCH   3   4
ENDBRANCH   2   3
ENDBRANCH   1   2
BRANCH   1  16
ATOM     16  C   UNL A   1      32.658  29.695  24.962  1.00  0.00     0.202 C 
BRANCH  16  17
ATOM     17  C   UNL A   1      31.828  30.470  25.988  1.00  0.00     0.261 C 
BRANCH  17  18
ATOM     18  O   UNL A   1      32.475  30.564  27.268  1.00  0.00    -0.460 OA
BRANCH  18  19
ATOM     19  C   UNL A   1      33.250  31.663  27.421  1.00  0.00     0.338 C 
ATOM     20  O   UNL A   1      32.878  32.831  27.444  1.00  0.00    -0.246 OA
BRANCH  19  21
ATOM     21  C   UNL A   1      34.631  31.282  27.754  1.00  0.00     0.060 A 
ATOM     22  C   UNL A   1      34.901  29.916  27.909  1.00  0.00     0.016 A 
ATOM     23  C   UNL A   1      35.610  32.238  28.026  1.00  0.00     0.016 A 
ATOM     24  C   UNL A   1      36.135  29.504  28.401  1.00  0.00     0.010 A 
ATOM     25  C   UNL A   1      36.847  31.821  28.532  1.00  0.00     0.010 A 
ATOM     26  C   UNL A   1      37.097  30.457  28.761  1.00  0.00    -0.014 A 
BRANCH  26  27
ATOM     27  C   UNL A   1      38.294  30.015  29.512  1.00  0.00     0.031 A 
ATOM     28  C   UNL A   1      38.511  30.526  30.911  1.00  0.00     0.074 A 
ATOM     29  C   UNL A   1      39.153  29.134  28.968  1.00  0.00     0.049 A 
ATOM     30  N   UNL A   1      39.458  30.229  31.761  1.00  0.00    -0.248 NA
ATOM     31  C   UNL A   1      37.527  31.496  31.422  1.00  0.00     0.031 C 
ATOM     32  C   UNL A   1      39.046  28.575  27.622  1.00  0.00     0.029 A 
ATOM     33  N   UNL A   1      40.292  28.569  29.480  1.00  0.00    -0.354 N 
ATOM     34  C   UNL A   1      39.194  30.979  32.901  1.00  0.00     0.074 A 
ATOM     35  C   UNL A   1      38.008  31.761  32.628  1.00  0.00     0.031 C 
ATOM     36  C   UNL A   1      40.096  27.764  27.404  1.00  0.00     0.029 A 
ATOM     37  C   UNL A   1      40.949  27.753  28.590  1.00  0.00     0.049 A 
ATOM     38  H   UNL A   1      40.609  28.731  30.399  1.00  0.00     0.167 HD
ATOM     39  C   UNL A   1      39.864  30.997  34.078  1.00  0.00     0.034 A 
ATOM     40  C   UNL A   1      42.112  27.085  28.718  1.00  0.00     0.034 A 
ATOM     41  C   UNL A   1      41.034  30.208  34.352  1.00  0.00     0.049 A 
ATOM     42  C   UNL A   1      42.844  27.136  30.034  1.00  0.00     0.074 A 
ATOM     43  C   UNL A   1      41.768  30.133  35.523  1.00  0.00     0.029 A 
ATOM     44  N   UNL A   1      41.646  29.360  33.442  1.00  0.00    -0.354 N 
ATOM     45  N   UNL A   1      42.510  27.748  31.144  1.00  0.00    -0.248 NA
ATOM     46  C   UNL A   1      44.096  26.368  30.127  1.00  0.00     0.031 C 
ATOM     47  C   UNL A   1      42.833  29.249  35.316  1.00  0.00     0.029 A 
ATOM     48  C   UNL A   1      42.752  28.762  34.022  1.00  0.00     0.049 A 
ATOM     49  H   UNL A   1      41.340  29.205  32.519  1.00  0.00     0.167 HD
ATOM     50  C   UNL A   1      43.491  27.420  32.073  1.00  0.00     0.074 A 
ATOM     51  C   UNL A   1      44.415  26.526  31.404  1.00  0.00     0.031 C 
ATOM     52  C   UNL A   1      43.630  27.834  33.357  1.00  0.00     0.034 A 
BRANCH  39  53
ATOM     53  C   UNL A   1      39.320  31.866  35.180  1.00  0.00     0.023 A 
ATOM     54  C   UNL A   1      38.363  31.334  36.066  1.00  0.00     0.012 A 
ATOM     55  C   UNL A   1      39.803  33.173  35.384  1.00  0.00     0.148 A 
ATOM     56  C   UNL A   1      37.878  32.095  37.128  1.00  0.00     0.002 A 
ATOM     57  C   UNL A   1      39.340  33.914  36.466  1.00  0.00     0.091 A 
ATOM     58  F   UNL A   1      40.697  33.667  34.516  1.00  0.00    -0.205 F 
ATOM     59  C   UNL A   1      38.373  33.380  37.334  1.00  0.00     0.022 A 
BRANCH  57  60
ATOM     60  S   UNL A   1      39.964  35.553  36.859  1.00  0.00     0.127 S 
ATOM     61  O   UNL A   1      39.255  35.846  38.106  1.00  0.00    -0.237 OA
ATOM     62  O   UNL A   1      41.397  35.308  37.015  1.00  0.00    -0.237 OA
ATOM     63  O   UNL A   1      39.609  36.400  35.729  1.00  0.00    -0.744 OA
ENDBRANCH  57  60
ENDBRANCH  39  53
BRANCH  40  64
ATOM     64  C   UNL A   1      42.637  26.278  27.581  1.00  0.00     0.023 A 
ATOM     65  C   UNL A   1      43.543  26.860  26.674  1.00  0.00     0.012 A 
ATOM     66  C   UNL A   1      42.250  24.937  27.399  1.00  0.00     0.148 A 
ATOM     67  C   UNL A   1      44.027  26.130  25.586  1.00  0.00     0.002 A 
ATOM     68  C   UNL A   1      42.779  24.199  26.346  1.00  0.00     0.091 A 
ATOM     69  F   UNL A   1      41.367  24.406  28.257  1.00  0.00    -0.205 F 
ATOM     70  C   UNL A   1      43.655  24.799  25.429  1.00  0.00     0.022 A 
BRANCH  68  71
ATOM     71  S   UNL A   1      42.450  22.443  26.160  1.00  0.00     0.127 S 
ATOM     72  O   UNL A   1      42.994  21.902  27.403  1.00  0.00    -0.237 OA
ATOM     73  O   UNL A   1      40.991  22.410  26.060  1.00  0.00    -0.237 OA
ATOM     74  O   UNL A   1      43.138  22.053  24.936  1.00  0.00    -0.744 OA
ENDBRANCH  68  71
ENDBRANCH  40  64
BRANCH  52  75
ATOM     75  C   UNL A   1      44.815  27.316  34.129  1.00  0.00     0.023 A 
ATOM     76  C   UNL A   1      46.041  28.009  34.069  1.00  0.00     0.012 A 
ATOM     77  C   UNL A   1      44.703  26.181  34.956  1.00  0.00     0.148 A 
ATOM     78  C   UNL A   1      47.145  27.561  34.792  1.00  0.00     0.002 A 
ATOM     79  C   UNL A   1      45.796  25.765  35.707  1.00  0.00     0.091 A 
ATOM     80  F   UNL A   1      43.536  25.520  34.985  1.00  0.00    -0.205 F 
ATOM     81  C   UNL A   1      47.021  26.447  35.618  1.00  0.00     0.022 A 
BRANCH  79  82
ATOM     82  S   UNL A   1      45.692  24.395  36.864  1.00  0.00     0.127 S 
ATOM     83  O   UNL A   1      45.138  23.336  36.023  1.00  0.00    -0.237 OA
ATOM     84  O   UNL A   1      47.092  24.198  37.247  1.00  0.00    -0.237 OA
ATOM     85  O   UNL A   1      44.834  24.857  37.947  1.00  0.00    -0.744 OA
ENDBRANCH  79  82
ENDBRANCH  52  75
ENDBRANCH  26  27
ENDBRANCH  19  21
ENDBRANCH  18  19
ENDBRANCH  17  18
ENDBRANCH  16  17
ENDBRANCH   1  16
TORSDOF 21
ENDMDL
