MODEL 1
REMARK VINA RESULT:     -11.1      0.000      0.000
REMARK SMILES Cc1[nH]ncc1S(=O)(=O)N1CC[C@@H](C(=O)OCCOCCOC(=O)c2ccc(-c3c4nc(c(-c5cccc(S(=O)(=O)[O-])c5F)c5ccc([nH]5)c(-c5cccc(S(=O)(=O)[O-])c5F)c5nc(c(-c6cccc(S(=O)(=O)[O-])c6F)c6ccc3[nH]6)C=C5)C=C4)cc2)[C@@H]1C
REMARK SMILES IDX 20 1 19 2 18 3 17 4 16 5 14 6 15 7 13 8 10 9 11 10 88 11
REMARK SMILES IDX 12 12 89 13 7 14 8 15 9 16 6 17 1 18 2 19 3 20 4 21 5 23
REMARK SMILES IDX 21 24 22 25 23 26 24 27 25 28 26 29 87 30 27 31 86 32 28 33
REMARK SMILES IDX 29 34 30 35 80 36 31 37 85 38 79 39 81 40 32 41 84 42 78 43
REMARK SMILES IDX 77 44 33 46 65 47 45 48 64 49 46 50 49 51 63 52 82 53 47 54
REMARK SMILES IDX 48 55 62 57 83 58 50 59 34 60 35 61 43 62 36 63 38 64 44 65
REMARK SMILES IDX 37 66 39 67 40 68 41 69 42 70 66 71 67 72 75 73 68 74 70 75
REMARK SMILES IDX 76 76 69 77 71 78 72 79 73 80 74 81 51 82 52 83 60 84 53 85
REMARK SMILES IDX 55 86 61 87 54 88 56 89 57 90 58 91 59 92
REMARK H PARENT 3 22 81 45 49 56
REMARK Flexibility Score: inf
ROOT
ATOM      1  C   UNL A   1      31.442  31.055  26.338  1.00  0.00     0.202 C 
ENDROOT
BRANCH   1   2
ATOM      2  O   UNL A   1      32.577  30.240  26.624  1.00  0.00    -0.374 OA
BRANCH   2   3
ATOM      3  C   UNL A   1      32.512  28.855  26.276  1.00  0.00     0.202 C 
BRANCH   3   4
ATOM      4  C   UNL A   1      33.843  28.096  26.277  1.00  0.00     0.261 C 
BRANCH   4   5
ATOM      5  O   UNL A   1      33.619  26.681  26.187  1.00  0.00    -0.463 OA
BRANCH   5   6
ATOM      6  C   UNL A   1      34.062  26.063  25.065  1.00  0.00     0.310 C 
ATOM      7  O   UNL A   1      34.038  26.558  23.944  1.00  0.00    -0.252 OA
BRANCH   6   8
ATOM      8  C   UNL A   1      34.716  24.722  25.354  1.00  0.00     0.118 C 
ATOM      9  N   UNL A   1      33.387  22.819  24.898  1.00  0.00    -0.194 NA
ATOM     10  C   UNL A   1      34.265  22.930  23.740  1.00  0.00     0.104 C 
ATOM     11  C   UNL A   1      33.821  23.670  26.010  1.00  0.00     0.084 C 
ATOM     12  C   UNL A   1      35.237  24.058  24.076  1.00  0.00     0.034 C 
ATOM     13  C   UNL A   1      34.613  22.801  26.992  1.00  0.00     0.027 C 
BRANCH   9  14
ATOM     14  S   UNL A   1      31.805  22.302  24.759  1.00  0.00     0.246 S 
ATOM     15  O   UNL A   1      31.763  20.953  25.263  1.00  0.00    -0.207 OA
ATOM     16  O   UNL A   1      31.351  22.637  23.420  1.00  0.00    -0.207 OA
BRANCH  14  17
ATOM     17  C   UNL A   1      30.735  23.165  25.793  1.00  0.00     0.123 A 
ATOM     18  C   UNL A   1      30.458  25.683  24.988  1.00  0.00     0.067 C 
ATOM     19  C   UNL A   1      30.264  24.470  25.803  1.00  0.00     0.052 A 
ATOM     20  N   UNL A   1      29.348  24.501  26.826  1.00  0.00    -0.281 N 
ATOM     21  N   UNL A   1      29.303  23.378  27.544  1.00  0.00    -0.183 NA
ATOM     22  H   UNL A   1      28.776  25.281  27.012  1.00  0.00     0.190 HD
ATOM     23  C   UNL A   1      30.070  22.532  26.859  1.00  0.00     0.157 A 
ENDBRANCH  14  17
ENDBRANCH   9  14
ENDBRANCH   6   8
ENDBRANCH   5   6
ENDBRANCH   4   5
ENDBRANCH   3   4
ENDBRANCH   2   3
ENDBRANCH   1   2
BRANCH   1  24
ATOM     24  C   UNL A   1      31.430  32.491  26.886  1.00  0.00     0.261 C 
BRANCH  24  25
ATOM     25  O   UNL A   1      32.666  33.203  26.708  1.00  0.00    -0.460 OA
BRANCH  25  26
ATOM     26  C   UNL A   1      33.197  33.684  27.863  1.00  0.00     0.338 C 
ATOM     27  O   UNL A   1      32.681  34.491  28.620  1.00  0.00    -0.246 OA
BRANCH  26  28
ATOM     28  C   UNL A   1      34.464  33.013  28.203  1.00  0.00     0.060 A 
ATOM     29  C   UNL A   1      34.385  31.717  28.729  1.00  0.00     0.016 A 
ATOM     30  C   UNL A   1      35.683  33.693  28.175  1.00  0.00     0.016 A 
ATOM     31  C   UNL A   1      35.515  31.116  29.283  1.00  0.00     0.010 A 
ATOM     32  C   UNL A   1      36.815  33.087  28.738  1.00  0.00     0.010 A 
ATOM     33  C   UNL A   1      36.728  31.813  29.330  1.00  0.00    -0.014 A 
BRANCH  33  34
ATOM     34  C   UNL A   1      37.867  31.261  30.111  1.00  0.00     0.031 A 
ATOM     35  C   UNL A   1      38.744  30.205  29.494  1.00  0.00     0.074 A 
ATOM     36  C   UNL A   1      38.123  31.693  31.359  1.00  0.00     0.049 A 
ATOM     37  N   UNL A   1      39.785  29.597  30.002  1.00  0.00    -0.248 NA
ATOM     38  C   UNL A   1      38.409  29.785  28.124  1.00  0.00     0.031 C 
ATOM     39  C   UNL A   1      37.355  32.711  32.064  1.00  0.00     0.029 A 
ATOM     40  N   UNL A   1      39.079  31.304  32.266  1.00  0.00    -0.354 N 
ATOM     41  C   UNL A   1      40.221  28.713  29.024  1.00  0.00     0.074 A 
ATOM     42  C   UNL A   1      39.319  28.847  27.900  1.00  0.00     0.031 C 
ATOM     43  C   UNL A   1      37.826  32.830  33.316  1.00  0.00     0.029 A 
ATOM     44  C   UNL A   1      38.934  31.896  33.498  1.00  0.00     0.049 A 
ATOM     45  H   UNL A   1      39.797  30.666  32.053  1.00  0.00     0.167 HD
ATOM     46  C   UNL A   1      41.291  27.883  29.048  1.00  0.00     0.034 A 
ATOM     47  C   UNL A   1      39.607  31.701  34.648  1.00  0.00     0.034 A 
ATOM     48  C   UNL A   1      42.198  27.762  30.157  1.00  0.00     0.049 A 
ATOM     49  C   UNL A   1      40.775  30.753  34.662  1.00  0.00     0.074 A 
ATOM     50  C   UNL A   1      43.346  26.994  30.253  1.00  0.00     0.029 A 
ATOM     51  N   UNL A   1      42.053  28.414  31.373  1.00  0.00    -0.354 N 
ATOM     52  N   UNL A   1      41.266  30.037  33.680  1.00  0.00    -0.248 NA
ATOM     53  C   UNL A   1      41.513  30.623  35.927  1.00  0.00     0.031 C 
ATOM     54  C   UNL A   1      43.884  27.167  31.533  1.00  0.00     0.029 A 
ATOM     55  C   UNL A   1      43.080  28.054  32.230  1.00  0.00     0.049 A 
ATOM     56  H   UNL A   1      41.327  29.039  31.594  1.00  0.00     0.167 HD
ATOM     57  C   UNL A   1      42.386  29.395  34.197  1.00  0.00     0.074 A 
ATOM     58  C   UNL A   1      42.513  29.823  35.575  1.00  0.00     0.031 C 
ATOM     59  C   UNL A   1      43.225  28.522  33.586  1.00  0.00     0.034 A 
BRANCH  46  60
ATOM     60  C   UNL A   1      41.563  27.069  27.809  1.00  0.00     0.023 A 
ATOM     61  C   UNL A   1      42.061  27.711  26.657  1.00  0.00     0.012 A 
ATOM     62  C   UNL A   1      41.362  25.676  27.793  1.00  0.00     0.148 A 
ATOM     63  C   UNL A   1      42.324  26.985  25.496  1.00  0.00     0.002 A 
ATOM     64  C   UNL A   1      41.663  24.953  26.643  1.00  0.00     0.091 A 
ATOM     65  F   UNL A   1      40.862  25.087  28.887  1.00  0.00    -0.205 F 
ATOM     66  C   UNL A   1      42.135  25.606  25.493  1.00  0.00     0.022 A 
BRANCH  64  67
ATOM     67  S   UNL A   1      41.515  23.163  26.573  1.00  0.00     0.127 S 
ATOM     68  O   UNL A   1      40.069  22.991  26.452  1.00  0.00    -0.237 OA
ATOM     69  O   UNL A   1      42.270  22.834  25.363  1.00  0.00    -0.237 OA
ATOM     70  O   UNL A   1      42.111  22.669  27.806  1.00  0.00    -0.744 OA
ENDBRANCH  64  67
ENDBRANCH  46  60
BRANCH  47  71
ATOM     71  C   UNL A   1      39.222  32.474  35.863  1.00  0.00     0.023 A 
ATOM     72  C   UNL A   1      39.628  33.817  35.984  1.00  0.00     0.012 A 
ATOM     73  C   UNL A   1      38.410  31.906  36.864  1.00  0.00     0.148 A 
ATOM     74  C   UNL A   1      39.247  34.576  37.092  1.00  0.00     0.002 A 
ATOM     75  C   UNL A   1      37.991  32.683  37.938  1.00  0.00     0.091 A 
ATOM     76  F   UNL A   1      38.046  30.622  36.733  1.00  0.00    -0.205 F 
ATOM     77  C   UNL A   1      38.421  34.013  38.062  1.00  0.00     0.022 A 
BRANCH  75  78
ATOM     78  S   UNL A   1      36.824  32.092  39.170  1.00  0.00     0.127 S 
ATOM     79  O   UNL A   1      37.019  30.645  39.099  1.00  0.00    -0.237 OA
ATOM     80  O   UNL A   1      37.332  32.724  40.388  1.00  0.00    -0.237 OA
ATOM     81  O   UNL A   1      35.517  32.571  38.743  1.00  0.00    -0.744 OA
ENDBRANCH  75  78
ENDBRANCH  47  71
BRANCH  59  82
ATOM     82  C   UNL A   1      44.373  27.974  34.394  1.00  0.00     0.023 A 
ATOM     83  C   UNL A   1      45.579  28.698  34.467  1.00  0.00     0.012 A 
ATOM     84  C   UNL A   1      44.233  26.787  35.140  1.00  0.00     0.148 A 
ATOM     85  C   UNL A   1      46.638  28.235  35.248  1.00  0.00     0.002 A 
ATOM     86  C   UNL A   1      45.277  26.354  35.950  1.00  0.00     0.091 A 
ATOM     87  F   UNL A   1      43.085  26.100  35.042  1.00  0.00    -0.205 F 
ATOM     88  C   UNL A   1      46.483  27.071  35.998  1.00  0.00     0.022 A 
BRANCH  86  89
ATOM     89  S   UNL A   1      45.130  24.916  37.018  1.00  0.00     0.127 S 
ATOM     90  O   UNL A   1      44.054  25.322  37.921  1.00  0.00    -0.237 OA
ATOM     91  O   UNL A   1      44.766  23.860  36.073  1.00  0.00    -0.237 OA
ATOM     92  O   UNL A   1      46.438  24.744  37.635  1.00  0.00    -0.744 OA
ENDBRANCH  86  89
ENDBRANCH  59  82
ENDBRANCH  33  34
ENDBRANCH  26  28
ENDBRANCH  25  26
ENDBRANCH  24  25
ENDBRANCH   1  24
TORSDOF 19
ENDMDL
MODEL 2
REMARK VINA RESULT:     -11.0      5.311     10.301
REMARK SMILES Cc1[nH]ncc1S(=O)(=O)N1CC[C@@H](C(=O)OCCOCCOC(=O)c2ccc(-c3c4nc(c(-c5cccc(S(=O)(=O)[O-])c5F)c5ccc([nH]5)c(-c5cccc(S(=O)(=O)[O-])c5F)c5nc(c(-c6cccc(S(=O)(=O)[O-])c6F)c6ccc3[nH]6)C=C5)C=C4)cc2)[C@@H]1C
REMARK SMILES IDX 20 1 19 2 18 3 17 4 16 5 14 6 15 7 13 8 10 9 11 10 88 11
REMARK SMILES IDX 12 12 89 13 7 14 8 15 9 16 6 17 1 18 2 19 3 20 4 21 5 23
REMARK SMILES IDX 21 24 22 25 23 26 24 27 25 28 26 29 87 30 27 31 86 32 28 33
REMARK SMILES IDX 29 34 30 35 80 36 31 37 85 38 79 39 81 40 32 41 84 42 78 43
REMARK SMILES IDX 77 44 33 46 65 47 45 48 64 49 46 50 49 51 63 52 82 53 47 54
REMARK SMILES IDX 48 55 62 57 83 58 50 59 34 60 35 61 43 62 36 63 38 64 44 65
REMARK SMILES IDX 37 66 39 67 40 68 41 69 42 70 66 71 67 72 75 73 68 74 70 75
REMARK SMILES IDX 76 76 69 77 71 78 72 79 73 80 74 81 51 82 52 83 60 84 53 85
REMARK SMILES IDX 55 86 61 87 54 88 56 89 57 90 58 91 59 92
REMARK H PARENT 3 22 81 45 49 56
REMARK Flexibility Score: inf
ROOT
ATOM      1  C   UNL A   1      35.824  19.690  24.793  1.00  0.00     0.202 C 
ENDROOT
BRANCH   1   2
ATOM      2  O   UNL A   1      34.447  19.331  24.691  1.00  0.00    -0.374 OA
BRANCH   2   3
ATOM      3  C   UNL A   1      33.505  20.053  25.487  1.00  0.00     0.202 C 
BRANCH   3   4
ATOM      4  C   UNL A   1      32.279  20.602  24.751  1.00  0.00     0.261 C 
BRANCH   4   5
ATOM      5  O   UNL A   1      32.506  21.955  24.326  1.00  0.00    -0.463 OA
BRANCH   5   6
ATOM      6  C   UNL A   1      31.815  22.922  24.977  1.00  0.00     0.310 C 
ATOM      7  O   UNL A   1      31.640  22.955  26.190  1.00  0.00    -0.252 OA
BRANCH   6   8
ATOM      8  C   UNL A   1      31.376  24.048  24.055  1.00  0.00     0.118 C 
ATOM      9  N   UNL A   1      31.990  26.227  24.743  1.00  0.00    -0.194 NA
ATOM     10  C   UNL A   1      32.985  25.873  23.739  1.00  0.00     0.104 C 
ATOM     11  C   UNL A   1      30.848  25.308  24.745  1.00  0.00     0.084 C 
ATOM     12  C   UNL A   1      32.526  24.534  23.167  1.00  0.00     0.034 C 
ATOM     13  C   UNL A   1      29.719  25.952  23.934  1.00  0.00     0.027 C 
BRANCH   9  14
ATOM     14  S   UNL A   1      32.378  27.139  26.088  1.00  0.00     0.246 S 
ATOM     15  O   UNL A   1      33.816  27.138  26.189  1.00  0.00    -0.207 OA
ATOM     16  O   UNL A   1      31.530  26.691  27.179  1.00  0.00    -0.207 OA
BRANCH  14  17
ATOM     17  C   UNL A   1      31.976  28.800  25.898  1.00  0.00     0.123 A 
ATOM     18  C   UNL A   1      30.852  29.243  23.530  1.00  0.00     0.067 C 
ATOM     19  C   UNL A   1      31.381  29.526  24.877  1.00  0.00     0.052 A 
ATOM     20  N   UNL A   1      31.240  30.793  25.389  1.00  0.00    -0.281 N 
ATOM     21  N   UNL A   1      31.815  30.961  26.580  1.00  0.00    -0.183 NA
ATOM     22  H   UNL A   1      30.757  31.512  24.919  1.00  0.00     0.190 HD
ATOM     23  C   UNL A   1      32.176  29.729  26.935  1.00  0.00     0.157 A 
ENDBRANCH  14  17
ENDBRANCH   9  14
ENDBRANCH   6   8
ENDBRANCH   5   6
ENDBRANCH   4   5
ENDBRANCH   3   4
ENDBRANCH   2   3
ENDBRANCH   1   2
BRANCH   1  24
ATOM     24  C   UNL A   1      36.172  21.027  25.464  1.00  0.00     0.261 C 
BRANCH  24  25
ATOM     25  O   UNL A   1      37.382  21.635  24.982  1.00  0.00    -0.460 OA
BRANCH  25  26
ATOM     26  C   UNL A   1      38.488  21.313  25.704  1.00  0.00     0.338 C 
ATOM     27  O   UNL A   1      39.070  20.239  25.704  1.00  0.00    -0.246 OA
BRANCH  26  28
ATOM     28  C   UNL A   1      39.025  22.478  26.430  1.00  0.00     0.060 A 
ATOM     29  C   UNL A   1      38.457  23.728  26.150  1.00  0.00     0.016 A 
ATOM     30  C   UNL A   1      40.166  22.381  27.228  1.00  0.00     0.016 A 
ATOM     31  C   UNL A   1      39.062  24.892  26.620  1.00  0.00     0.010 A 
ATOM     32  C   UNL A   1      40.775  23.554  27.693  1.00  0.00     0.010 A 
ATOM     33  C   UNL A   1      40.249  24.817  27.360  1.00  0.00    -0.014 A 
BRANCH  33  34
ATOM     34  C   UNL A   1      41.004  26.059  27.671  1.00  0.00     0.031 A 
ATOM     35  C   UNL A   1      40.308  27.192  28.375  1.00  0.00     0.074 A 
ATOM     36  C   UNL A   1      42.301  26.182  27.334  1.00  0.00     0.049 A 
ATOM     37  N   UNL A   1      40.784  28.354  28.740  1.00  0.00    -0.248 NA
ATOM     38  C   UNL A   1      38.893  26.985  28.720  1.00  0.00     0.031 C 
ATOM     39  C   UNL A   1      43.088  25.159  26.657  1.00  0.00     0.029 A 
ATOM     40  N   UNL A   1      43.172  27.233  27.483  1.00  0.00    -0.354 N 
ATOM     41  C   UNL A   1      39.727  29.025  29.342  1.00  0.00     0.074 A 
ATOM     42  C   UNL A   1      38.578  28.148  29.275  1.00  0.00     0.031 C 
ATOM     43  C   UNL A   1      44.310  25.648  26.392  1.00  0.00     0.029 A 
ATOM     44  C   UNL A   1      44.392  27.020  26.886  1.00  0.00     0.049 A 
ATOM     45  H   UNL A   1      42.946  28.058  27.970  1.00  0.00     0.167 HD
ATOM     46  C   UNL A   1      39.720  30.248  29.922  1.00  0.00     0.034 A 
ATOM     47  C   UNL A   1      45.451  27.838  26.740  1.00  0.00     0.034 A 
ATOM     48  C   UNL A   1      40.866  31.113  30.005  1.00  0.00     0.049 A 
ATOM     49  C   UNL A   1      45.414  29.205  27.368  1.00  0.00     0.074 A 
ATOM     50  C   UNL A   1      40.974  32.345  30.627  1.00  0.00     0.029 A 
ATOM     51  N   UNL A   1      42.103  30.846  29.434  1.00  0.00    -0.354 N 
ATOM     52  N   UNL A   1      44.455  29.765  28.066  1.00  0.00    -0.248 NA
ATOM     53  C   UNL A   1      46.619  30.036  27.231  1.00  0.00     0.031 C 
ATOM     54  C   UNL A   1      42.269  32.831  30.416  1.00  0.00     0.029 A 
ATOM     55  C   UNL A   1      42.974  31.894  29.675  1.00  0.00     0.049 A 
ATOM     56  H   UNL A   1      42.327  30.030  28.932  1.00  0.00     0.167 HD
ATOM     57  C   UNL A   1      44.950  30.997  28.477  1.00  0.00     0.074 A 
ATOM     58  C   UNL A   1      46.302  31.094  27.967  1.00  0.00     0.031 C 
ATOM     59  C   UNL A   1      44.335  31.963  29.203  1.00  0.00     0.034 A 
BRANCH  46  60
ATOM     60  C   UNL A   1      38.432  30.705  30.555  1.00  0.00     0.023 A 
ATOM     61  C   UNL A   1      38.196  30.429  31.918  1.00  0.00     0.012 A 
ATOM     62  C   UNL A   1      37.476  31.433  29.822  1.00  0.00     0.148 A 
ATOM     63  C   UNL A   1      37.014  30.841  32.533  1.00  0.00     0.002 A 
ATOM     64  C   UNL A   1      36.317  31.874  30.452  1.00  0.00     0.091 A 
ATOM     65  F   UNL A   1      37.703  31.663  28.521  1.00  0.00    -0.205 F 
ATOM     66  C   UNL A   1      36.080  31.571  31.803  1.00  0.00     0.022 A 
BRANCH  64  67
ATOM     67  S   UNL A   1      35.091  32.880  29.607  1.00  0.00     0.127 S 
ATOM     68  O   UNL A   1      34.528  31.924  28.656  1.00  0.00    -0.237 OA
ATOM     69  O   UNL A   1      34.190  33.256  30.697  1.00  0.00    -0.237 OA
ATOM     70  O   UNL A   1      35.828  33.993  29.025  1.00  0.00    -0.744 OA
ENDBRANCH  64  67
ENDBRANCH  46  60
BRANCH  47  71
ATOM     71  C   UNL A   1      46.660  27.351  26.018  1.00  0.00     0.023 A 
ATOM     72  C   UNL A   1      46.782  27.588  24.636  1.00  0.00     0.012 A 
ATOM     73  C   UNL A   1      47.713  26.711  26.703  1.00  0.00     0.148 A 
ATOM     74  C   UNL A   1      47.923  27.179  23.943  1.00  0.00     0.002 A 
ATOM     75  C   UNL A   1      48.867  26.353  26.017  1.00  0.00     0.091 A 
ATOM     76  F   UNL A   1      47.569  26.484  28.017  1.00  0.00    -0.205 F 
ATOM     77  C   UNL A   1      48.968  26.572  24.635  1.00  0.00     0.022 A 
BRANCH  75  78
ATOM     78  S   UNL A   1      50.319  25.686  26.838  1.00  0.00     0.127 S 
ATOM     79  O   UNL A   1      51.245  25.517  25.720  1.00  0.00    -0.237 OA
ATOM     80  O   UNL A   1      50.662  26.766  27.763  1.00  0.00    -0.237 OA
ATOM     81  O   UNL A   1      49.883  24.455  27.483  1.00  0.00    -0.744 OA
ENDBRANCH  75  78
ENDBRANCH  47  71
BRANCH  59  82
ATOM     82  C   UNL A   1      45.117  33.213  29.509  1.00  0.00     0.023 A 
ATOM     83  C   UNL A   1      45.920  33.265  30.665  1.00  0.00     0.012 A 
ATOM     84  C   UNL A   1      45.118  34.304  28.616  1.00  0.00     0.148 A 
ATOM     85  C   UNL A   1      46.691  34.394  30.943  1.00  0.00     0.002 A 
ATOM     86  C   UNL A   1      45.923  35.408  28.878  1.00  0.00     0.091 A 
ATOM     87  F   UNL A   1      44.331  34.246  27.532  1.00  0.00    -0.205 F 
ATOM     88  C   UNL A   1      46.702  35.458  30.045  1.00  0.00     0.022 A 
BRANCH  86  89
ATOM     89  S   UNL A   1      46.066  36.784  27.731  1.00  0.00     0.127 S 
ATOM     90  O   UNL A   1      47.154  37.558  28.327  1.00  0.00    -0.237 OA
ATOM     91  O   UNL A   1      46.411  36.113  26.477  1.00  0.00    -0.237 OA
ATOM     92  O   UNL A   1      44.762  37.434  27.725  1.00  0.00    -0.744 OA
ENDBRANCH  86  89
ENDBRANCH  59  82
ENDBRANCH  33  34
ENDBRANCH  26  28
ENDBRANCH  25  26
ENDBRANCH  24  25
ENDBRANCH   1  24
TORSDOF 19
ENDMDL
MODEL 3
REMARK VINA RESULT:     -10.9      1.236      2.359
REMARK SMILES Cc1[nH]ncc1S(=O)(=O)N1CC[C@@H](C(=O)OCCOCCOC(=O)c2ccc(-c3c4nc(c(-c5cccc(S(=O)(=O)[O-])c5F)c5ccc([nH]5)c(-c5cccc(S(=O)(=O)[O-])c5F)c5nc(c(-c6cccc(S(=O)(=O)[O-])c6F)c6ccc3[nH]6)C=C5)C=C4)cc2)[C@@H]1C
REMARK SMILES IDX 20 1 19 2 18 3 17 4 16 5 14 6 15 7 13 8 10 9 11 10 88 11
REMARK SMILES IDX 12 12 89 13 7 14 8 15 9 16 6 17 1 18 2 19 3 20 4 21 5 23
REMARK SMILES IDX 21 24 22 25 23 26 24 27 25 28 26 29 87 30 27 31 86 32 28 33
REMARK SMILES IDX 29 34 30 35 80 36 31 37 85 38 79 39 81 40 32 41 84 42 78 43
REMARK SMILES IDX 77 44 33 46 65 47 45 48 64 49 46 50 49 51 63 52 82 53 47 54
REMARK SMILES IDX 48 55 62 57 83 58 50 59 34 60 35 61 43 62 36 63 38 64 44 65
REMARK SMILES IDX 37 66 39 67 40 68 41 69 42 70 66 71 67 72 75 73 68 74 70 75
REMARK SMILES IDX 76 76 69 77 71 78 72 79 73 80 74 81 51 82 52 83 60 84 53 85
REMARK SMILES IDX 55 86 61 87 54 88 56 89 57 90 58 91 59 92
REMARK H PARENT 3 22 81 45 49 56
REMARK Flexibility Score: inf
ROOT
ATOM      1  C   UNL A   1      31.787  30.697  26.554  1.00  0.00     0.202 C 
ENDROOT
BRANCH   1   2
ATOM      2  O   UNL A   1      31.955  30.362  25.177  1.00  0.00    -0.374 OA
BRANCH   2   3
ATOM      3  C   UNL A   1      31.795  28.994  24.796  1.00  0.00     0.202 C 
BRANCH   3   4
ATOM      4  C   UNL A   1      31.431  28.740  23.330  1.00  0.00     0.261 C 
BRANCH   4   5
ATOM      5  O   UNL A   1      31.137  27.351  23.114  1.00  0.00    -0.463 OA
BRANCH   5   6
ATOM      6  C   UNL A   1      29.936  26.907  23.560  1.00  0.00     0.310 C 
ATOM      7  O   UNL A   1      28.864  27.456  23.335  1.00  0.00    -0.252 OA
BRANCH   6   8
ATOM      8  C   UNL A   1      30.036  25.568  24.273  1.00  0.00     0.118 C 
ATOM      9  N   UNL A   1      32.158  25.056  25.187  1.00  0.00    -0.194 NA
ATOM     10  C   UNL A   1      31.384  25.537  26.324  1.00  0.00     0.104 C 
ATOM     11  C   UNL A   1      31.318  24.771  24.021  1.00  0.00     0.084 C 
ATOM     12  C   UNL A   1      29.965  25.731  25.795  1.00  0.00     0.034 C 
ATOM     13  C   UNL A   1      31.037  23.265  23.994  1.00  0.00     0.027 C 
BRANCH   9  14
ATOM     14  S   UNL A   1      33.789  25.381  25.029  1.00  0.00     0.246 S 
ATOM     15  O   UNL A   1      34.074  26.504  25.885  1.00  0.00    -0.207 OA
ATOM     16  O   UNL A   1      34.095  25.400  23.608  1.00  0.00    -0.207 OA
BRANCH  14  17
ATOM     17  C   UNL A   1      34.777  24.120  25.655  1.00  0.00     0.123 A 
ATOM     18  C   UNL A   1      33.472  22.712  27.493  1.00  0.00     0.067 C 
ATOM     19  C   UNL A   1      34.571  23.128  26.602  1.00  0.00     0.052 A 
ATOM     20  N   UNL A   1      35.715  22.369  26.565  1.00  0.00    -0.281 N 
ATOM     21  N   UNL A   1      36.671  22.872  25.784  1.00  0.00    -0.183 NA
ATOM     22  H   UNL A   1      35.819  21.529  27.068  1.00  0.00     0.190 HD
ATOM     23  C   UNL A   1      36.070  23.880  25.154  1.00  0.00     0.157 A 
ENDBRANCH  14  17
ENDBRANCH   9  14
ENDBRANCH   6   8
ENDBRANCH   5   6
ENDBRANCH   4   5
ENDBRANCH   3   4
ENDBRANCH   2   3
ENDBRANCH   1   2
BRANCH   1  24
ATOM     24  C   UNL A   1      31.543  32.171  26.912  1.00  0.00     0.261 C 
BRANCH  24  25
ATOM     25  O   UNL A   1      32.676  33.028  26.697  1.00  0.00    -0.460 OA
BRANCH  25  26
ATOM     26  C   UNL A   1      33.212  33.531  27.840  1.00  0.00     0.338 C 
ATOM     27  O   UNL A   1      32.693  34.341  28.593  1.00  0.00    -0.246 OA
BRANCH  26  28
ATOM     28  C   UNL A   1      34.492  32.881  28.176  1.00  0.00     0.060 A 
ATOM     29  C   UNL A   1      34.439  31.564  28.651  1.00  0.00     0.016 A 
ATOM     30  C   UNL A   1      35.692  33.593  28.194  1.00  0.00     0.016 A 
ATOM     31  C   UNL A   1      35.576  30.972  29.200  1.00  0.00     0.010 A 
ATOM     32  C   UNL A   1      36.831  32.997  28.753  1.00  0.00     0.010 A 
ATOM     33  C   UNL A   1      36.769  31.699  29.295  1.00  0.00    -0.014 A 
BRANCH  33  34
ATOM     34  C   UNL A   1      37.910  31.148  30.073  1.00  0.00     0.031 A 
ATOM     35  C   UNL A   1      38.790  30.096  29.452  1.00  0.00     0.074 A 
ATOM     36  C   UNL A   1      38.165  31.577  31.321  1.00  0.00     0.049 A 
ATOM     37  N   UNL A   1      39.832  29.489  29.957  1.00  0.00    -0.248 NA
ATOM     38  C   UNL A   1      38.454  29.679  28.082  1.00  0.00     0.031 C 
ATOM     39  C   UNL A   1      37.396  32.591  32.030  1.00  0.00     0.029 A 
ATOM     40  N   UNL A   1      39.123  31.188  32.227  1.00  0.00    -0.354 N 
ATOM     41  C   UNL A   1      40.270  28.609  28.976  1.00  0.00     0.074 A 
ATOM     42  C   UNL A   1      39.367  28.745  27.854  1.00  0.00     0.031 C 
ATOM     43  C   UNL A   1      37.867  32.707  33.282  1.00  0.00     0.029 A 
ATOM     44  C   UNL A   1      38.978  31.775  33.461  1.00  0.00     0.049 A 
ATOM     45  H   UNL A   1      39.843  30.552  32.012  1.00  0.00     0.167 HD
ATOM     46  C   UNL A   1      41.342  27.782  28.997  1.00  0.00     0.034 A 
ATOM     47  C   UNL A   1      39.652  31.579  34.610  1.00  0.00     0.034 A 
ATOM     48  C   UNL A   1      42.250  27.660  30.105  1.00  0.00     0.049 A 
ATOM     49  C   UNL A   1      40.823  30.634  34.620  1.00  0.00     0.074 A 
ATOM     50  C   UNL A   1      43.401  26.895  30.197  1.00  0.00     0.029 A 
ATOM     51  N   UNL A   1      42.105  28.308  31.323  1.00  0.00    -0.354 N 
ATOM     52  N   UNL A   1      41.315  29.922  33.636  1.00  0.00    -0.248 NA
ATOM     53  C   UNL A   1      41.562  30.502  35.884  1.00  0.00     0.031 C 
ATOM     54  C   UNL A   1      43.939  27.065  31.478  1.00  0.00     0.029 A 
ATOM     55  C   UNL A   1      43.133  27.949  32.179  1.00  0.00     0.049 A 
ATOM     56  H   UNL A   1      41.377  28.931  31.546  1.00  0.00     0.167 HD
ATOM     57  C   UNL A   1      42.437  29.282  34.150  1.00  0.00     0.074 A 
ATOM     58  C   UNL A   1      42.564  29.706  35.529  1.00  0.00     0.031 C 
ATOM     59  C   UNL A   1      43.278  28.413  33.536  1.00  0.00     0.034 A 
BRANCH  46  60
ATOM     60  C   UNL A   1      41.615  26.973  27.756  1.00  0.00     0.023 A 
ATOM     61  C   UNL A   1      42.140  27.614  26.615  1.00  0.00     0.012 A 
ATOM     62  C   UNL A   1      41.388  25.584  27.726  1.00  0.00     0.148 A 
ATOM     63  C   UNL A   1      42.405  26.891  25.452  1.00  0.00     0.002 A 
ATOM     64  C   UNL A   1      41.691  24.864  26.575  1.00  0.00     0.091 A 
ATOM     65  F   UNL A   1      40.863  24.996  28.809  1.00  0.00    -0.205 F 
ATOM     66  C   UNL A   1      42.190  25.516  25.436  1.00  0.00     0.022 A 
BRANCH  64  67
ATOM     67  S   UNL A   1      41.510  23.078  26.488  1.00  0.00     0.127 S 
ATOM     68  O   UNL A   1      42.400  22.744  25.378  1.00  0.00    -0.237 OA
ATOM     69  O   UNL A   1      41.991  22.650  27.803  1.00  0.00    -0.237 OA
ATOM     70  O   UNL A   1      40.093  22.836  26.259  1.00  0.00    -0.744 OA
ENDBRANCH  64  67
ENDBRANCH  46  60
BRANCH  47  71
ATOM     71  C   UNL A   1      39.267  32.347  35.827  1.00  0.00     0.023 A 
ATOM     72  C   UNL A   1      39.692  33.682  35.965  1.00  0.00     0.012 A 
ATOM     73  C   UNL A   1      38.433  31.784  36.814  1.00  0.00     0.148 A 
ATOM     74  C   UNL A   1      39.312  34.438  37.076  1.00  0.00     0.002 A 
ATOM     75  C   UNL A   1      38.016  32.558  37.890  1.00  0.00     0.091 A 
ATOM     76  F   UNL A   1      38.051  30.508  36.667  1.00  0.00    -0.205 F 
ATOM     77  C   UNL A   1      38.465  33.880  38.031  1.00  0.00     0.022 A 
BRANCH  75  78
ATOM     78  S   UNL A   1      36.825  31.976  39.103  1.00  0.00     0.127 S 
ATOM     79  O   UNL A   1      36.848  30.532  38.878  1.00  0.00    -0.237 OA
ATOM     80  O   UNL A   1      37.439  32.414  40.357  1.00  0.00    -0.237 OA
ATOM     81  O   UNL A   1      35.570  32.641  38.782  1.00  0.00    -0.744 OA
ENDBRANCH  75  78
ENDBRANCH  47  71
BRANCH  59  82
ATOM     82  C   UNL A   1      44.428  27.866  34.341  1.00  0.00     0.023 A 
ATOM     83  C   UNL A   1      45.633  28.591  34.413  1.00  0.00     0.012 A 
ATOM     84  C   UNL A   1      44.291  26.677  35.086  1.00  0.00     0.148 A 
ATOM     85  C   UNL A   1      46.694  28.129  35.192  1.00  0.00     0.002 A 
ATOM     86  C   UNL A   1      45.337  26.245  35.894  1.00  0.00     0.091 A 
ATOM     87  F   UNL A   1      43.144  25.988  34.988  1.00  0.00    -0.205 F 
ATOM     88  C   UNL A   1      46.542  26.964  35.940  1.00  0.00     0.022 A 
BRANCH  86  89
ATOM     89  S   UNL A   1      45.194  24.804  36.959  1.00  0.00     0.127 S 
ATOM     90  O   UNL A   1      44.058  25.169  37.804  1.00  0.00    -0.237 OA
ATOM     91  O   UNL A   1      44.922  23.732  36.002  1.00  0.00    -0.237 OA
ATOM     92  O   UNL A   1      46.475  24.688  37.643  1.00  0.00    -0.744 OA
ENDBRANCH  86  89
ENDBRANCH  59  82
ENDBRANCH  33  34
ENDBRANCH  26  28
ENDBRANCH  25  26
ENDBRANCH  24  25
ENDBRANCH   1  24
TORSDOF 19
ENDMDL
