MODEL 1
REMARK VINA RESULT:     -11.4      0.000      0.000
REMARK SMILES CC1=C2C(=O)N(C[C@H]3CCCO3)C(=O)N=C2S[C@@H]1C(=O)OCCOCCOC(=O)c1ccc(-c2c3nc(c(-c4cccc(S(=O)(=O)[O-])c4F)c4ccc([nH]4)c(-c4cccc(S(=O)(=O)[O-])c4F)c4nc(c(-c5cccc(S(=O)(=O)[O-])c5F)c5ccc2[nH]5)C=C4)C=C3)cc1
REMARK SMILES IDX 25 1 24 2 23 3 22 4 21 5 19 6 20 7 18 8 1 9 2 10 3 11 4 12
REMARK SMILES IDX 16 13 17 14 5 15 6 16 15 17 13 18 14 19 7 20 8 21 9 22 12 23
REMARK SMILES IDX 10 24 11 25 26 26 27 27 28 28 29 29 30 30 31 31 92 32 32 33
REMARK SMILES IDX 91 34 33 35 34 36 35 37 85 38 36 39 90 40 84 41 86 42 37 43
REMARK SMILES IDX 89 44 83 45 82 46 38 48 70 49 50 50 69 51 51 52 54 53 68 54
REMARK SMILES IDX 87 55 52 56 53 57 67 59 88 60 55 61 39 62 40 63 48 64 41 65
REMARK SMILES IDX 43 66 49 67 42 68 44 69 45 70 46 71 47 72 71 73 72 74 80 75
REMARK SMILES IDX 73 76 75 77 81 78 74 79 76 80 77 81 78 82 79 83 56 84 57 85
REMARK SMILES IDX 65 86 58 87 60 88 66 89 59 90 61 91 62 92 63 93 64 94
REMARK H PARENT 86 47 54 58
REMARK Flexibility Score: inf
ROOT
ATOM      1  C   UNL A   1      35.853  21.756  25.201  1.00  0.00     0.202 C 
ENDROOT
BRANCH   1   2
ATOM      2  O   UNL A   1      35.040  22.006  26.349  1.00  0.00    -0.374 OA
BRANCH   2   3
ATOM      3  C   UNL A   1      33.977  21.099  26.634  1.00  0.00     0.202 C 
BRANCH   3   4
ATOM      4  C   UNL A   1      33.449  20.249  25.478  1.00  0.00     0.261 C 
BRANCH   4   5
ATOM      5  O   UNL A   1      32.100  20.590  25.139  1.00  0.00    -0.462 OA
BRANCH   5   6
ATOM      6  C   UNL A   1      31.952  21.291  23.987  1.00  0.00     0.323 C 
ATOM      7  O   UNL A   1      32.175  20.853  22.861  1.00  0.00    -0.251 OA
BRANCH   6   8
ATOM      8  C   UNL A   1      31.532  22.732  24.210  1.00  0.00     0.189 C 
ATOM      9  C   UNL A   1      33.704  23.575  23.101  1.00  0.00     0.042 C 
ATOM     10  C   UNL A   1      32.725  23.640  24.230  1.00  0.00    -0.033 C 
ATOM     11  C   UNL A   1      32.749  24.519  25.240  1.00  0.00     0.073 C 
ATOM     12  C   UNL A   1      33.676  25.612  25.488  1.00  0.00     0.264 C 
ATOM     13  C   UNL A   1      31.565  24.492  26.071  1.00  0.00     0.116 C 
ATOM     14  S   UNL A   1      30.643  23.051  25.781  1.00  0.00    -0.086 SA
ATOM     15  O   UNL A   1      34.873  25.506  25.276  1.00  0.00    -0.268 OA
ATOM     16  N   UNL A   1      32.993  26.728  25.907  1.00  0.00    -0.256 N 
ATOM     17  N   UNL A   1      31.190  25.441  26.843  1.00  0.00    -0.186 NA
ATOM     18  C   UNL A   1      31.891  26.629  26.772  1.00  0.00     0.351 C 
ATOM     19  O   UNL A   1      31.493  27.609  27.399  1.00  0.00    -0.246 OA
BRANCH  16  20
ATOM     20  C   UNL A   1      33.297  28.045  25.353  1.00  0.00     0.163 C 
BRANCH  20  21
ATOM     21  C   UNL A   1      32.748  28.487  23.982  1.00  0.00     0.138 C 
ATOM     22  C   UNL A   1      33.711  28.463  22.796  1.00  0.00     0.036 C 
ATOM     23  O   UNL A   1      31.706  27.532  23.638  1.00  0.00    -0.376 OA
ATOM     24  C   UNL A   1      33.484  27.131  22.142  1.00  0.00     0.031 C 
ATOM     25  C   UNL A   1      32.015  26.915  22.383  1.00  0.00     0.160 C 
ENDBRANCH  20  21
ENDBRANCH  16  20
ENDBRANCH   6   8
ENDBRANCH   5   6
ENDBRANCH   4   5
ENDBRANCH   3   4
ENDBRANCH   2   3
ENDBRANCH   1   2
BRANCH   1  26
ATOM     26  C   UNL A   1      36.998  20.744  25.330  1.00  0.00     0.261 C 
BRANCH  26  27
ATOM     27  O   UNL A   1      38.283  21.315  25.031  1.00  0.00    -0.460 OA
BRANCH  27  28
ATOM     28  C   UNL A   1      39.232  21.089  25.972  1.00  0.00     0.338 C 
ATOM     29  O   UNL A   1      39.833  20.046  26.174  1.00  0.00    -0.246 OA
BRANCH  28  30
ATOM     30  C   UNL A   1      39.617  22.354  26.624  1.00  0.00     0.060 A 
ATOM     31  C   UNL A   1      38.994  23.524  26.173  1.00  0.00     0.016 A 
ATOM     32  C   UNL A   1      40.630  22.412  27.582  1.00  0.00     0.016 A 
ATOM     33  C   UNL A   1      39.421  24.767  26.635  1.00  0.00     0.010 A 
ATOM     34  C   UNL A   1      41.065  23.661  28.038  1.00  0.00     0.010 A 
ATOM     35  C   UNL A   1      40.492  24.844  27.535  1.00  0.00    -0.014 A 
BRANCH  35  36
ATOM     36  C   UNL A   1      41.097  26.165  27.829  1.00  0.00     0.031 A 
ATOM     37  C   UNL A   1      42.500  26.445  27.363  1.00  0.00     0.074 A 
ATOM     38  C   UNL A   1      40.400  27.107  28.489  1.00  0.00     0.049 A 
ATOM     39  N   UNL A   1      43.223  27.523  27.519  1.00  0.00    -0.248 NA
ATOM     40  C   UNL A   1      43.179  25.369  26.620  1.00  0.00     0.031 C 
ATOM     41  C   UNL A   1      39.034  26.955  28.986  1.00  0.00     0.029 A 
ATOM     42  N   UNL A   1      40.761  28.375  28.876  1.00  0.00    -0.354 N 
ATOM     43  C   UNL A   1      44.449  27.247  26.925  1.00  0.00     0.074 A 
ATOM     44  C   UNL A   1      44.376  25.898  26.408  1.00  0.00     0.031 C 
ATOM     45  C   UNL A   1      38.681  28.075  29.641  1.00  0.00     0.029 A 
ATOM     46  C   UNL A   1      39.802  29.012  29.628  1.00  0.00     0.049 A 
ATOM     47  H   UNL A   1      41.623  28.787  28.637  1.00  0.00     0.167 HD
ATOM     48  C   UNL A   1      45.533  28.050  26.806  1.00  0.00     0.034 A 
ATOM     49  C   UNL A   1      39.837  30.206  30.252  1.00  0.00     0.034 A 
ATOM     50  C   UNL A   1      45.594  29.401  27.295  1.00  0.00     0.049 A 
ATOM     51  C   UNL A   1      41.065  31.072  30.118  1.00  0.00     0.074 A 
ATOM     52  C   UNL A   1      46.628  30.313  27.172  1.00  0.00     0.029 A 
ATOM     53  N   UNL A   1      44.588  30.030  28.010  1.00  0.00    -0.354 N 
ATOM     54  N   UNL A   1      42.163  30.848  29.438  1.00  0.00    -0.248 NA
ATOM     55  C   UNL A   1      41.042  32.371  30.808  1.00  0.00     0.031 C 
ATOM     56  C   UNL A   1      46.256  31.486  27.836  1.00  0.00     0.029 A 
ATOM     57  C   UNL A   1      44.979  31.313  28.348  1.00  0.00     0.049 A 
ATOM     58  H   UNL A   1      43.722  29.624  28.243  1.00  0.00     0.167 HD
ATOM     59  C   UNL A   1      42.945  31.989  29.588  1.00  0.00     0.074 A 
ATOM     60  C   UNL A   1      42.184  32.911  30.404  1.00  0.00     0.031 C 
ATOM     61  C   UNL A   1      44.187  32.246  29.107  1.00  0.00     0.034 A 
BRANCH  48  62
ATOM     62  C   UNL A   1      46.741  27.505  26.092  1.00  0.00     0.023 A 
ATOM     63  C   UNL A   1      46.915  27.767  24.719  1.00  0.00     0.012 A 
ATOM     64  C   UNL A   1      47.740  26.807  26.798  1.00  0.00     0.148 A 
ATOM     65  C   UNL A   1      48.058  27.326  24.053  1.00  0.00     0.002 A 
ATOM     66  C   UNL A   1      48.895  26.405  26.137  1.00  0.00     0.091 A 
ATOM     67  F   UNL A   1      47.543  26.550  28.100  1.00  0.00    -0.205 F 
ATOM     68  C   UNL A   1      49.052  26.656  24.764  1.00  0.00     0.022 A 
BRANCH  66  69
ATOM     69  S   UNL A   1      50.267  25.606  26.977  1.00  0.00     0.127 S 
ATOM     70  O   UNL A   1      51.223  25.437  25.884  1.00  0.00    -0.237 OA
ATOM     71  O   UNL A   1      50.646  26.612  27.970  1.00  0.00    -0.237 OA
ATOM     72  O   UNL A   1      49.734  24.370  27.535  1.00  0.00    -0.744 OA
ENDBRANCH  66  69
ENDBRANCH  48  62
BRANCH  49  73
ATOM     73  C   UNL A   1      38.664  30.672  31.044  1.00  0.00     0.023 A 
ATOM     74  C   UNL A   1      38.617  30.429  32.431  1.00  0.00     0.012 A 
ATOM     75  C   UNL A   1      37.593  31.351  30.430  1.00  0.00     0.148 A 
ATOM     76  C   UNL A   1      37.510  30.821  33.184  1.00  0.00     0.002 A 
ATOM     77  C   UNL A   1      36.520  31.790  31.196  1.00  0.00     0.091 A 
ATOM     78  F   UNL A   1      37.644  31.553  29.106  1.00  0.00    -0.205 F 
ATOM     79  C   UNL A   1      36.467  31.509  32.570  1.00  0.00     0.022 A 
BRANCH  77  80
ATOM     80  S   UNL A   1      35.202  32.795  30.508  1.00  0.00     0.127 S 
ATOM     81  O   UNL A   1      35.917  34.009  30.128  1.00  0.00    -0.237 OA
ATOM     82  O   UNL A   1      34.743  31.972  29.388  1.00  0.00    -0.237 OA
ATOM     83  O   UNL A   1      34.225  32.939  31.581  1.00  0.00    -0.744 OA
ENDBRANCH  77  80
ENDBRANCH  49  73
BRANCH  61  84
ATOM     84  C   UNL A   1      44.794  33.590  29.410  1.00  0.00     0.023 A 
ATOM     85  C   UNL A   1      45.505  33.784  30.611  1.00  0.00     0.012 A 
ATOM     86  C   UNL A   1      44.729  34.637  28.470  1.00  0.00     0.148 A 
ATOM     87  C   UNL A   1      46.114  35.008  30.885  1.00  0.00     0.002 A 
ATOM     88  C   UNL A   1      45.379  35.838  28.727  1.00  0.00     0.091 A 
ATOM     89  F   UNL A   1      44.033  34.439  27.340  1.00  0.00    -0.205 F 
ATOM     90  C   UNL A   1      46.062  36.029  29.939  1.00  0.00     0.022 A 
BRANCH  88  91
ATOM     91  S   UNL A   1      45.447  37.172  27.526  1.00  0.00     0.127 S 
ATOM     92  O   UNL A   1      46.417  38.077  28.141  1.00  0.00    -0.237 OA
ATOM     93  O   UNL A   1      45.928  36.488  26.326  1.00  0.00    -0.237 OA
ATOM     94  O   UNL A   1      44.089  37.687  27.422  1.00  0.00    -0.744 OA
ENDBRANCH  88  91
ENDBRANCH  61  84
ENDBRANCH  35  36
ENDBRANCH  28  30
ENDBRANCH  27  28
ENDBRANCH  26  27
ENDBRANCH   1  26
TORSDOF 19
ENDMDL
MODEL 2
REMARK VINA RESULT:     -11.3      4.614     10.036
REMARK SMILES CC1=C2C(=O)N(C[C@H]3CCCO3)C(=O)N=C2S[C@@H]1C(=O)OCCOCCOC(=O)c1ccc(-c2c3nc(c(-c4cccc(S(=O)(=O)[O-])c4F)c4ccc([nH]4)c(-c4cccc(S(=O)(=O)[O-])c4F)c4nc(c(-c5cccc(S(=O)(=O)[O-])c5F)c5ccc2[nH]5)C=C4)C=C3)cc1
REMARK SMILES IDX 25 1 24 2 23 3 22 4 21 5 19 6 20 7 18 8 1 9 2 10 3 11 4 12
REMARK SMILES IDX 16 13 17 14 5 15 6 16 15 17 13 18 14 19 7 20 8 21 9 22 12 23
REMARK SMILES IDX 10 24 11 25 26 26 27 27 28 28 29 29 30 30 31 31 92 32 32 33
REMARK SMILES IDX 91 34 33 35 34 36 35 37 85 38 36 39 90 40 84 41 86 42 37 43
REMARK SMILES IDX 89 44 83 45 82 46 38 48 70 49 50 50 69 51 51 52 54 53 68 54
REMARK SMILES IDX 87 55 52 56 53 57 67 59 88 60 55 61 39 62 40 63 48 64 41 65
REMARK SMILES IDX 43 66 49 67 42 68 44 69 45 70 46 71 47 72 71 73 72 74 80 75
REMARK SMILES IDX 73 76 75 77 81 78 74 79 76 80 77 81 78 82 79 83 56 84 57 85
REMARK SMILES IDX 65 86 58 87 60 88 66 89 59 90 61 91 62 92 63 93 64 94
REMARK H PARENT 86 47 54 58
REMARK Flexibility Score: inf
ROOT
ATOM      1  C   UNL A   1      31.027  30.833  25.503  1.00  0.00     0.202 C 
ENDROOT
BRANCH   1   2
ATOM      2  O   UNL A   1      31.803  29.633  25.499  1.00  0.00    -0.374 OA
BRANCH   2   3
ATOM      3  C   UNL A   1      32.502  29.285  24.306  1.00  0.00     0.202 C 
BRANCH   3   4
ATOM      4  C   UNL A   1      31.666  28.842  23.105  1.00  0.00     0.261 C 
BRANCH   4   5
ATOM      5  O   UNL A   1      32.066  27.554  22.623  1.00  0.00    -0.462 OA
BRANCH   5   6
ATOM      6  C   UNL A   1      31.590  26.498  23.328  1.00  0.00     0.323 C 
ATOM      7  O   UNL A   1      30.407  26.172  23.396  1.00  0.00    -0.251 OA
BRANCH   6   8
ATOM      8  C   UNL A   1      32.664  25.759  24.104  1.00  0.00     0.189 C 
ATOM      9  C   UNL A   1      33.068  24.174  22.109  1.00  0.00     0.042 C 
ATOM     10  C   UNL A   1      32.846  24.368  23.575  1.00  0.00    -0.033 C 
ATOM     11  C   UNL A   1      32.889  23.410  24.509  1.00  0.00     0.073 C 
ATOM     12  C   UNL A   1      33.178  21.992  24.361  1.00  0.00     0.264 C 
ATOM     13  C   UNL A   1      32.851  23.909  25.866  1.00  0.00     0.116 C 
ATOM     14  S   UNL A   1      32.336  25.566  25.898  1.00  0.00    -0.086 SA
ATOM     15  O   UNL A   1      32.760  21.342  23.416  1.00  0.00    -0.268 OA
ATOM     16  N   UNL A   1      34.006  21.567  25.371  1.00  0.00    -0.256 N 
ATOM     17  N   UNL A   1      33.238  23.259  26.898  1.00  0.00    -0.186 NA
ATOM     18  C   UNL A   1      33.864  22.046  26.684  1.00  0.00     0.351 C 
ATOM     19  O   UNL A   1      34.365  21.443  27.630  1.00  0.00    -0.246 OA
BRANCH  16  20
ATOM     20  C   UNL A   1      35.156  20.712  25.088  1.00  0.00     0.163 C 
BRANCH  20  21
ATOM     21  C   UNL A   1      36.524  21.307  24.698  1.00  0.00     0.138 C 
ATOM     22  C   UNL A   1      36.530  22.476  23.714  1.00  0.00     0.036 C 
ATOM     23  O   UNL A   1      37.092  21.847  25.924  1.00  0.00    -0.376 OA
ATOM     24  C   UNL A   1      36.556  23.705  24.575  1.00  0.00     0.031 C 
ATOM     25  C   UNL A   1      37.371  23.241  25.751  1.00  0.00     0.160 C 
ENDBRANCH  20  21
ENDBRANCH  16  20
ENDBRANCH   6   8
ENDBRANCH   5   6
ENDBRANCH   4   5
ENDBRANCH   3   4
ENDBRANCH   2   3
ENDBRANCH   1   2
BRANCH   1  26
ATOM     26  C   UNL A   1      31.470  31.981  26.419  1.00  0.00     0.261 C 
BRANCH  26  27
ATOM     27  O   UNL A   1      32.551  31.611  27.292  1.00  0.00    -0.460 OA
BRANCH  27  28
ATOM     28  C   UNL A   1      33.435  32.607  27.547  1.00  0.00     0.338 C 
ATOM     29  O   UNL A   1      33.193  33.800  27.632  1.00  0.00    -0.246 OA
BRANCH  28  30
ATOM     30  C   UNL A   1      34.745  32.043  27.921  1.00  0.00     0.060 A 
ATOM     31  C   UNL A   1      34.805  30.666  28.167  1.00  0.00     0.016 A 
ATOM     32  C   UNL A   1      35.865  32.851  28.123  1.00  0.00     0.016 A 
ATOM     33  C   UNL A   1      35.971  30.097  28.674  1.00  0.00     0.010 A 
ATOM     34  C   UNL A   1      37.032  32.280  28.641  1.00  0.00     0.010 A 
ATOM     35  C   UNL A   1      37.076  30.910  28.958  1.00  0.00    -0.014 A 
BRANCH  35  36
ATOM     36  C   UNL A   1      38.215  30.344  29.720  1.00  0.00     0.031 A 
ATOM     37  C   UNL A   1      38.424  30.773  31.147  1.00  0.00     0.074 A 
ATOM     38  C   UNL A   1      39.042  29.447  29.153  1.00  0.00     0.049 A 
ATOM     39  N   UNL A   1      39.356  30.413  31.991  1.00  0.00    -0.248 NA
ATOM     40  C   UNL A   1      37.453  31.733  31.699  1.00  0.00     0.031 C 
ATOM     41  C   UNL A   1      38.939  28.951  27.782  1.00  0.00     0.029 A 
ATOM     42  N   UNL A   1      40.150  28.813  29.658  1.00  0.00    -0.354 N 
ATOM     43  C   UNL A   1      39.106  31.123  33.159  1.00  0.00     0.074 A 
ATOM     44  C   UNL A   1      37.936  31.940  32.917  1.00  0.00     0.031 C 
ATOM     45  C   UNL A   1      39.962  28.113  27.543  1.00  0.00     0.029 A 
ATOM     46  C   UNL A   1      40.803  28.030  28.736  1.00  0.00     0.049 A 
ATOM     47  H   UNL A   1      40.449  28.910  30.592  1.00  0.00     0.167 HD
ATOM     48  C   UNL A   1      39.779  31.088  34.333  1.00  0.00     0.034 A 
ATOM     49  C   UNL A   1      41.959  27.345  28.837  1.00  0.00     0.034 A 
ATOM     50  C   UNL A   1      40.924  30.254  34.582  1.00  0.00     0.049 A 
ATOM     51  C   UNL A   1      42.698  27.338  30.152  1.00  0.00     0.074 A 
ATOM     52  C   UNL A   1      41.639  30.106  35.757  1.00  0.00     0.029 A 
ATOM     53  N   UNL A   1      41.529  29.439  33.639  1.00  0.00    -0.354 N 
ATOM     54  N   UNL A   1      42.372  27.909  31.286  1.00  0.00    -0.248 NA
ATOM     55  C   UNL A   1      43.946  26.561  30.210  1.00  0.00     0.031 C 
ATOM     56  C   UNL A   1      42.694  29.219  35.517  1.00  0.00     0.029 A 
ATOM     57  C   UNL A   1      42.617  28.794  34.200  1.00  0.00     0.049 A 
ATOM     58  H   UNL A   1      41.228  29.333  32.707  1.00  0.00     0.167 HD
ATOM     59  C   UNL A   1      43.351  27.532  32.199  1.00  0.00     0.074 A 
ATOM     60  C   UNL A   1      44.270  26.665  31.493  1.00  0.00     0.031 C 
ATOM     61  C   UNL A   1      43.487  27.884  33.502  1.00  0.00     0.034 A 
BRANCH  48  62
ATOM     62  C   UNL A   1      39.281  31.954  35.459  1.00  0.00     0.023 A 
ATOM     63  C   UNL A   1      38.394  31.415  36.412  1.00  0.00     0.012 A 
ATOM     64  C   UNL A   1      39.755  33.271  35.618  1.00  0.00     0.148 A 
ATOM     65  C   UNL A   1      37.972  32.180  37.499  1.00  0.00     0.002 A 
ATOM     66  C   UNL A   1      39.361  34.014  36.725  1.00  0.00     0.091 A 
ATOM     67  F   UNL A   1      40.581  33.770  34.687  1.00  0.00    -0.205 F 
ATOM     68  C   UNL A   1      38.463  33.473  37.661  1.00  0.00     0.022 A 
BRANCH  66  69
ATOM     69  S   UNL A   1      39.997  35.658  37.067  1.00  0.00     0.127 S 
ATOM     70  O   UNL A   1      41.434  35.405  37.165  1.00  0.00    -0.237 OA
ATOM     71  O   UNL A   1      39.589  36.399  35.873  1.00  0.00    -0.237 OA
ATOM     72  O   UNL A   1      39.355  36.091  38.301  1.00  0.00    -0.744 OA
ENDBRANCH  66  69
ENDBRANCH  48  62
BRANCH  49  73
ATOM     73  C   UNL A   1      42.484  26.583  27.669  1.00  0.00     0.023 A 
ATOM     74  C   UNL A   1      43.335  27.222  26.745  1.00  0.00     0.012 A 
ATOM     75  C   UNL A   1      42.142  25.233  27.465  1.00  0.00     0.148 A 
ATOM     76  C   UNL A   1      43.806  26.540  25.623  1.00  0.00     0.002 A 
ATOM     77  C   UNL A   1      42.660  24.542  26.376  1.00  0.00     0.091 A 
ATOM     78  F   UNL A   1      41.312  24.648  28.340  1.00  0.00    -0.205 F 
ATOM     79  C   UNL A   1      43.477  25.199  25.443  1.00  0.00     0.022 A 
BRANCH  77  80
ATOM     80  S   UNL A   1      42.392  22.782  26.144  1.00  0.00     0.127 S 
ATOM     81  O   UNL A   1      40.941  22.681  26.258  1.00  0.00    -0.237 OA
ATOM     82  O   UNL A   1      42.923  22.569  24.796  1.00  0.00    -0.237 OA
ATOM     83  O   UNL A   1      43.162  22.132  27.197  1.00  0.00    -0.744 OA
ENDBRANCH  77  80
ENDBRANCH  49  73
BRANCH  61  84
ATOM     84  C   UNL A   1      44.647  27.304  34.269  1.00  0.00     0.023 A 
ATOM     85  C   UNL A   1      45.876  27.991  34.308  1.00  0.00     0.012 A 
ATOM     86  C   UNL A   1      44.494  26.120  35.017  1.00  0.00     0.148 A 
ATOM     87  C   UNL A   1      46.944  27.491  35.052  1.00  0.00     0.002 A 
ATOM     88  C   UNL A   1      45.547  25.654  35.795  1.00  0.00     0.091 A 
ATOM     89  F   UNL A   1      43.321  25.471  34.954  1.00  0.00    -0.205 F 
ATOM     90  C   UNL A   1      46.776  26.332  35.805  1.00  0.00     0.022 A 
BRANCH  88  91
ATOM     91  S   UNL A   1      45.388  24.224  36.871  1.00  0.00     0.127 S 
ATOM     92  O   UNL A   1      46.755  24.073  37.369  1.00  0.00    -0.237 OA
ATOM     93  O   UNL A   1      44.424  24.689  37.869  1.00  0.00    -0.237 OA
ATOM     94  O   UNL A   1      44.906  23.139  36.028  1.00  0.00    -0.744 OA
ENDBRANCH  88  91
ENDBRANCH  61  84
ENDBRANCH  35  36
ENDBRANCH  28  30
ENDBRANCH  27  28
ENDBRANCH  26  27
ENDBRANCH   1  26
TORSDOF 19
ENDMDL
MODEL 3
REMARK VINA RESULT:     -11.1      1.679      7.700
REMARK SMILES CC1=C2C(=O)N(C[C@H]3CCCO3)C(=O)N=C2S[C@@H]1C(=O)OCCOCCOC(=O)c1ccc(-c2c3nc(c(-c4cccc(S(=O)(=O)[O-])c4F)c4ccc([nH]4)c(-c4cccc(S(=O)(=O)[O-])c4F)c4nc(c(-c5cccc(S(=O)(=O)[O-])c5F)c5ccc2[nH]5)C=C4)C=C3)cc1
REMARK SMILES IDX 25 1 24 2 23 3 22 4 21 5 19 6 20 7 18 8 1 9 2 10 3 11 4 12
REMARK SMILES IDX 16 13 17 14 5 15 6 16 15 17 13 18 14 19 7 20 8 21 9 22 12 23
REMARK SMILES IDX 10 24 11 25 26 26 27 27 28 28 29 29 30 30 31 31 92 32 32 33
REMARK SMILES IDX 91 34 33 35 34 36 35 37 85 38 36 39 90 40 84 41 86 42 37 43
REMARK SMILES IDX 89 44 83 45 82 46 38 48 70 49 50 50 69 51 51 52 54 53 68 54
REMARK SMILES IDX 87 55 52 56 53 57 67 59 88 60 55 61 39 62 40 63 48 64 41 65
REMARK SMILES IDX 43 66 49 67 42 68 44 69 45 70 46 71 47 72 71 73 72 74 80 75
REMARK SMILES IDX 73 76 75 77 81 78 74 79 76 80 77 81 78 82 79 83 56 84 57 85
REMARK SMILES IDX 65 86 58 87 60 88 66 89 59 90 61 91 62 92 63 93 64 94
REMARK H PARENT 86 47 54 58
REMARK Flexibility Score: inf
ROOT
ATOM      1  C   UNL A   1      35.736  21.794  25.682  1.00  0.00     0.202 C 
ENDROOT
BRANCH   1   2
ATOM      2  O   UNL A   1      34.883  21.464  26.779  1.00  0.00    -0.374 OA
BRANCH   2   3
ATOM      3  C   UNL A   1      33.574  20.973  26.494  1.00  0.00     0.202 C 
BRANCH   3   4
ATOM      4  C   UNL A   1      33.362  20.280  25.148  1.00  0.00     0.261 C 
BRANCH   4   5
ATOM      5  O   UNL A   1      32.108  20.639  24.555  1.00  0.00    -0.462 OA
BRANCH   5   6
ATOM      6  C   UNL A   1      32.194  21.390  23.429  1.00  0.00     0.323 C 
ATOM      7  O   UNL A   1      31.843  21.024  22.309  1.00  0.00    -0.251 OA
BRANCH   6   8
ATOM      8  C   UNL A   1      32.837  22.745  23.656  1.00  0.00     0.189 C 
ATOM      9  C   UNL A   1      30.729  23.581  24.885  1.00  0.00     0.042 C 
ATOM     10  C   UNL A   1      31.796  23.804  23.861  1.00  0.00    -0.033 C 
ATOM     11  C   UNL A   1      31.984  24.926  23.155  1.00  0.00     0.073 C 
ATOM     12  C   UNL A   1      31.251  26.181  23.207  1.00  0.00     0.264 C 
ATOM     13  C   UNL A   1      33.216  24.943  22.396  1.00  0.00     0.116 C 
ATOM     14  S   UNL A   1      33.890  23.349  22.282  1.00  0.00    -0.086 SA
ATOM     15  O   UNL A   1      30.038  26.217  23.335  1.00  0.00    -0.268 OA
ATOM     16  N   UNL A   1      32.122  27.242  23.161  1.00  0.00    -0.256 N 
ATOM     17  N   UNL A   1      33.788  25.998  21.953  1.00  0.00    -0.186 NA
ATOM     18  C   UNL A   1      33.266  27.215  22.345  1.00  0.00     0.351 C 
ATOM     19  O   UNL A   1      33.852  28.254  22.050  1.00  0.00    -0.246 OA
BRANCH  16  20
ATOM     20  C   UNL A   1      31.970  28.378  24.067  1.00  0.00     0.163 C 
BRANCH  20  21
ATOM     21  C   UNL A   1      31.760  28.177  25.580  1.00  0.00     0.138 C 
ATOM     22  C   UNL A   1      32.831  27.401  26.344  1.00  0.00     0.036 C 
ATOM     23  O   UNL A   1      31.771  29.507  26.169  1.00  0.00    -0.376 OA
ATOM     24  C   UNL A   1      33.750  28.452  26.896  1.00  0.00     0.031 C 
ATOM     25  C   UNL A   1      32.797  29.584  27.166  1.00  0.00     0.160 C 
ENDBRANCH  20  21
ENDBRANCH  16  20
ENDBRANCH   6   8
ENDBRANCH   5   6
ENDBRANCH   4   5
ENDBRANCH   3   4
ENDBRANCH   2   3
ENDBRANCH   1   2
BRANCH   1  26
ATOM     26  C   UNL A   1      36.800  20.773  25.258  1.00  0.00     0.261 C 
BRANCH  26  27
ATOM     27  O   UNL A   1      38.075  21.378  24.986  1.00  0.00    -0.460 OA
BRANCH  27  28
ATOM     28  C   UNL A   1      39.055  21.045  25.862  1.00  0.00     0.338 C 
ATOM     29  O   UNL A   1      39.595  19.957  25.981  1.00  0.00    -0.246 OA
BRANCH  28  30
ATOM     30  C   UNL A   1      39.556  22.249  26.551  1.00  0.00     0.060 A 
ATOM     31  C   UNL A   1      39.006  23.480  26.173  1.00  0.00     0.016 A 
ATOM     32  C   UNL A   1      40.605  22.190  27.470  1.00  0.00     0.016 A 
ATOM     33  C   UNL A   1      39.542  24.666  26.669  1.00  0.00     0.010 A 
ATOM     34  C   UNL A   1      41.148  23.383  27.959  1.00  0.00     0.010 A 
ATOM     35  C   UNL A   1      40.647  24.625  27.529  1.00  0.00    -0.014 A 
BRANCH  35  36
ATOM     36  C   UNL A   1      41.359  25.884  27.854  1.00  0.00     0.031 A 
ATOM     37  C   UNL A   1      40.629  26.962  28.609  1.00  0.00     0.074 A 
ATOM     38  C   UNL A   1      42.644  26.057  27.496  1.00  0.00     0.049 A 
ATOM     39  N   UNL A   1      41.054  28.139  28.988  1.00  0.00    -0.248 NA
ATOM     40  C   UNL A   1      39.235  26.676  28.989  1.00  0.00     0.031 C 
ATOM     41  C   UNL A   1      43.457  25.085  26.768  1.00  0.00     0.029 A 
ATOM     42  N   UNL A   1      43.483  27.129  27.679  1.00  0.00    -0.354 N 
ATOM     43  C   UNL A   1      39.977  28.746  29.622  1.00  0.00     0.074 A 
ATOM     44  C   UNL A   1      38.874  27.811  29.573  1.00  0.00     0.031 C 
ATOM     45  C   UNL A   1      44.670  25.617  26.536  1.00  0.00     0.029 A 
ATOM     46  C   UNL A   1      44.711  26.973  27.081  1.00  0.00     0.049 A 
ATOM     47  H   UNL A   1      43.230  27.932  28.189  1.00  0.00     0.167 HD
ATOM     48  C   UNL A   1      39.915  29.966  30.205  1.00  0.00     0.034 A 
ATOM     49  C   UNL A   1      45.740  27.836  26.966  1.00  0.00     0.034 A 
ATOM     50  C   UNL A   1      41.020  30.884  30.278  1.00  0.00     0.049 A 
ATOM     51  C   UNL A   1      45.636  29.195  27.610  1.00  0.00     0.074 A 
ATOM     52  C   UNL A   1      41.071  32.119  30.898  1.00  0.00     0.029 A 
ATOM     53  N   UNL A   1      42.263  30.672  29.702  1.00  0.00    -0.354 N 
ATOM     54  N   UNL A   1      44.658  29.700  28.321  1.00  0.00    -0.248 NA
ATOM     55  C   UNL A   1      46.795  30.090  27.467  1.00  0.00     0.031 C 
ATOM     56  C   UNL A   1      42.338  32.667  30.675  1.00  0.00     0.029 A 
ATOM     57  C   UNL A   1      43.085  31.760  29.940  1.00  0.00     0.049 A 
ATOM     58  H   UNL A   1      42.523  29.867  29.199  1.00  0.00     0.167 HD
ATOM     59  C   UNL A   1      45.095  30.953  28.739  1.00  0.00     0.074 A 
ATOM     60  C   UNL A   1      46.436  31.121  28.221  1.00  0.00     0.031 C 
ATOM     61  C   UNL A   1      44.441  31.887  29.472  1.00  0.00     0.034 A 
BRANCH  48  62
ATOM     62  C   UNL A   1      38.616  30.379  30.843  1.00  0.00     0.023 A 
ATOM     63  C   UNL A   1      38.372  30.064  32.194  1.00  0.00     0.012 A 
ATOM     64  C   UNL A   1      37.675  31.148  30.130  1.00  0.00     0.148 A 
ATOM     65  C   UNL A   1      37.204  30.492  32.823  1.00  0.00     0.002 A 
ATOM     66  C   UNL A   1      36.531  31.605  30.774  1.00  0.00     0.091 A 
ATOM     67  F   UNL A   1      37.917  31.417  28.838  1.00  0.00    -0.205 F 
ATOM     68  C   UNL A   1      36.290  31.271  32.117  1.00  0.00     0.022 A 
BRANCH  66  69
ATOM     69  S   UNL A   1      35.332  32.678  29.977  1.00  0.00     0.127 S 
ATOM     70  O   UNL A   1      34.383  32.918  31.064  1.00  0.00    -0.237 OA
ATOM     71  O   UNL A   1      36.149  33.836  29.614  1.00  0.00    -0.237 OA
ATOM     72  O   UNL A   1      34.805  31.926  28.846  1.00  0.00    -0.744 OA
ENDBRANCH  66  69
ENDBRANCH  48  62
BRANCH  49  73
ATOM     73  C   UNL A   1      46.975  27.436  26.233  1.00  0.00     0.023 A 
ATOM     74  C   UNL A   1      47.996  26.744  26.911  1.00  0.00     0.012 A 
ATOM     75  C   UNL A   1      47.143  27.742  24.868  1.00  0.00     0.148 A 
ATOM     76  C   UNL A   1      49.177  26.396  26.254  1.00  0.00     0.002 A 
ATOM     77  C   UNL A   1      48.297  27.342  24.205  1.00  0.00     0.091 A 
ATOM     78  F   UNL A   1      46.171  28.421  24.244  1.00  0.00    -0.205 F 
ATOM     79  C   UNL A   1      49.324  26.686  24.901  1.00  0.00     0.022 A 
BRANCH  77  80
ATOM     80  S   UNL A   1      48.508  27.559  22.436  1.00  0.00     0.127 S 
ATOM     81  O   UNL A   1      47.331  28.350  22.088  1.00  0.00    -0.237 OA
ATOM     82  O   UNL A   1      49.780  28.281  22.366  1.00  0.00    -0.237 OA
ATOM     83  O   UNL A   1      48.556  26.211  21.884  1.00  0.00    -0.744 OA
ENDBRANCH  77  80
ENDBRANCH  49  73
BRANCH  61  84
ATOM     84  C   UNL A   1      45.171  33.163  29.799  1.00  0.00     0.023 A 
ATOM     85  C   UNL A   1      45.985  33.231  30.946  1.00  0.00     0.012 A 
ATOM     86  C   UNL A   1      45.114  34.268  28.926  1.00  0.00     0.148 A 
ATOM     87  C   UNL A   1      46.705  34.390  31.237  1.00  0.00     0.002 A 
ATOM     88  C   UNL A   1      45.873  35.401  29.196  1.00  0.00     0.091 A 
ATOM     89  F   UNL A   1      44.320  34.190  27.847  1.00  0.00    -0.205 F 
ATOM     90  C   UNL A   1      46.659  35.468  30.357  1.00  0.00     0.022 A 
BRANCH  88  91
ATOM     91  S   UNL A   1      45.950  36.797  28.069  1.00  0.00     0.127 S 
ATOM     92  O   UNL A   1      47.014  37.603  28.666  1.00  0.00    -0.237 OA
ATOM     93  O   UNL A   1      46.309  36.158  26.802  1.00  0.00    -0.237 OA
ATOM     94  O   UNL A   1      44.625  37.400  28.085  1.00  0.00    -0.744 OA
ENDBRANCH  88  91
ENDBRANCH  61  84
ENDBRANCH  35  36
ENDBRANCH  28  30
ENDBRANCH  27  28
ENDBRANCH  26  27
ENDBRANCH   1  26
TORSDOF 19
ENDMDL
