MODEL 1
REMARK VINA RESULT:     -11.1      0.000      0.000
REMARK SMILES COc1ccc([C@H]2CC(c3ccc(S(C)(=O)=O)cc3)=NN2c2ccc(C(=O)OCCOCCOC(=O)c3ccc(-c4c5nc(c(-c6cccc(S(=O)(=O)[O-])c6F)c6ccc([nH]6)c(-c6cccc(S(=O)(=O)[O-])c6F)c6nc(c(-c7cccc(S(=O)(=O)[O-])c7F)c7ccc4[nH]7)C=C6)C=C5)cc3)cc2)cc1
REMARK SMILES IDX 31 1 30 2 29 3 28 4 26 5 27 6 25 7 22 8 23 9 101 10 24 11
REMARK SMILES IDX 100 12 21 13 7 14 8 15 9 16 20 17 6 18 3 19 4 20 103 21 5 22
REMARK SMILES IDX 102 23 2 24 1 25 10 26 11 27 19 28 12 29 18 30 13 31 14 32
REMARK SMILES IDX 15 33 16 34 17 35 32 36 33 37 34 38 35 39 36 40 37 41 38 42
REMARK SMILES IDX 99 43 39 44 98 45 40 46 41 47 42 48 92 49 43 50 97 51 91 52
REMARK SMILES IDX 93 53 44 54 96 55 90 56 89 57 45 59 77 60 57 61 76 62 58 63
REMARK SMILES IDX 61 64 75 65 94 66 59 67 60 68 74 70 95 71 62 72 46 73 47 74
REMARK SMILES IDX 55 75 48 76 50 77 56 78 49 79 51 80 52 81 53 82 54 83 78 84
REMARK SMILES IDX 79 85 87 86 80 87 82 88 88 89 81 90 83 91 84 92 85 93 86 94
REMARK SMILES IDX 63 95 64 96 72 97 65 98 67 99 73 100 66 101 68 102 69 103
REMARK SMILES IDX 70 104 71 105
REMARK H PARENT 93 58 61 69
REMARK Flexibility Score: inf
ROOT
ATOM      1  O   UNL A   1      41.199  23.729  26.810  1.00  0.00    -0.374 OA
ENDROOT
BRANCH   1   2
ATOM      2  C   UNL A   1      40.631  22.571  27.428  1.00  0.00     0.202 C 
BRANCH   2   3
ATOM      3  C   UNL A   1      39.726  21.713  26.539  1.00  0.00     0.261 C 
BRANCH   3   4
ATOM      4  O   UNL A   1      38.520  22.417  26.204  1.00  0.00    -0.460 OA
BRANCH   4   5
ATOM      5  C   UNL A   1      37.650  21.734  25.426  1.00  0.00     0.338 C 
ATOM      6  O   UNL A   1      37.518  20.517  25.365  1.00  0.00    -0.246 OA
BRANCH   5   7
ATOM      7  C   UNL A   1      36.723  22.673  24.756  1.00  0.00     0.060 A 
ATOM      8  C   UNL A   1      34.772  24.348  23.635  1.00  0.00     0.060 A 
ATOM      9  C   UNL A   1      35.051  24.406  25.006  1.00  0.00     0.029 A 
ATOM     10  C   UNL A   1      35.572  23.531  22.820  1.00  0.00     0.029 A 
ATOM     11  C   UNL A   1      35.996  23.551  25.569  1.00  0.00     0.018 A 
ATOM     12  C   UNL A   1      36.553  22.702  23.371  1.00  0.00     0.018 A 
BRANCH   8  13
ATOM     13  N   UNL A   1      33.618  24.944  23.124  1.00  0.00    -0.257 N 
ATOM     14  C   UNL A   1      32.536  24.108  22.572  1.00  0.00     0.144 C 
ATOM     15  C   UNL A   1      31.331  25.053  22.599  1.00  0.00     0.091 C 
ATOM     16  C   UNL A   1      31.974  26.290  23.163  1.00  0.00     0.071 C 
ATOM     17  N   UNL A   1      33.221  26.187  23.503  1.00  0.00    -0.176 NA
BRANCH  14  18
ATOM     18  C   UNL A   1      32.326  22.817  23.358  1.00  0.00    -0.023 A 
ATOM     19  C   UNL A   1      32.224  20.393  24.806  1.00  0.00     0.118 A 
ATOM     20  C   UNL A   1      32.470  20.388  23.433  1.00  0.00     0.047 A 
ATOM     21  C   UNL A   1      32.037  21.608  25.462  1.00  0.00     0.047 A 
ATOM     22  C   UNL A   1      32.510  21.583  22.713  1.00  0.00     0.010 A 
ATOM     23  C   UNL A   1      32.088  22.810  24.743  1.00  0.00     0.010 A 
BRANCH  19  24
ATOM     24  O   UNL A   1      32.249  19.162  25.401  1.00  0.00    -0.497 OA
ATOM     25  C   UNL A   1      33.371  18.345  25.094  1.00  0.00     0.278 C 
ENDBRANCH  19  24
ENDBRANCH  14  18
BRANCH  16  26
ATOM     26  C   UNL A   1      31.222  27.551  23.253  1.00  0.00    -0.002 A 
ATOM     27  C   UNL A   1      30.072  27.691  22.467  1.00  0.00     0.011 A 
ATOM     28  C   UNL A   1      31.611  28.566  24.131  1.00  0.00     0.011 A 
ATOM     29  C   UNL A   1      29.292  28.843  22.571  1.00  0.00     0.021 A 
ATOM     30  C   UNL A   1      30.846  29.734  24.217  1.00  0.00     0.021 A 
ATOM     31  C   UNL A   1      29.692  29.865  23.437  1.00  0.00     0.067 A 
BRANCH  31  32
ATOM     32  S   UNL A   1      28.699  31.335  23.558  1.00  0.00     0.175 S 
ATOM     33  C   UNL A   1      28.712  32.010  21.918  1.00  0.00     0.163 C 
ATOM     34  O   UNL A   1      27.349  30.910  23.870  1.00  0.00    -0.224 OA
ATOM     35  O   UNL A   1      29.403  32.271  24.417  1.00  0.00    -0.224 OA
ENDBRANCH  31  32
ENDBRANCH  16  26
ENDBRANCH   8  13
ENDBRANCH   5   7
ENDBRANCH   4   5
ENDBRANCH   3   4
ENDBRANCH   2   3
ENDBRANCH   1   2
BRANCH   1  36
ATOM     36  C   UNL A   1      40.905  24.988  27.420  1.00  0.00     0.202 C 
BRANCH  36  37
ATOM     37  C   UNL A   1      40.742  26.177  26.467  1.00  0.00     0.261 C 
BRANCH  37  38
ATOM     38  O   UNL A   1      41.661  26.104  25.362  1.00  0.00    -0.460 OA
BRANCH  38  39
ATOM     39  C   UNL A   1      42.393  27.220  25.153  1.00  0.00     0.338 C 
ATOM     40  O   UNL A   1      41.985  28.311  24.773  1.00  0.00    -0.246 OA
BRANCH  39  41
ATOM     41  C   UNL A   1      43.775  27.010  25.621  1.00  0.00     0.060 A 
ATOM     42  C   UNL A   1      44.447  28.114  26.166  1.00  0.00     0.016 A 
ATOM     43  C   UNL A   1      44.425  25.782  25.484  1.00  0.00     0.016 A 
ATOM     44  C   UNL A   1      45.788  28.006  26.528  1.00  0.00     0.010 A 
ATOM     45  C   UNL A   1      45.774  25.679  25.843  1.00  0.00     0.010 A 
ATOM     46  C   UNL A   1      46.471  26.799  26.332  1.00  0.00    -0.014 A 
BRANCH  46  47
ATOM     47  C   UNL A   1      47.940  26.745  26.522  1.00  0.00     0.031 A 
ATOM     48  C   UNL A   1      48.491  26.547  27.908  1.00  0.00     0.074 A 
ATOM     49  C   UNL A   1      48.772  26.878  25.475  1.00  0.00     0.049 A 
ATOM     50  N   UNL A   1      49.737  26.499  28.302  1.00  0.00    -0.248 NA
ATOM     51  C   UNL A   1      47.510  26.384  28.993  1.00  0.00     0.031 C 
ATOM     52  C   UNL A   1      48.358  27.079  24.088  1.00  0.00     0.029 A 
ATOM     53  N   UNL A   1      50.144  26.893  25.422  1.00  0.00    -0.354 N 
ATOM     54  C   UNL A   1      49.691  26.330  29.681  1.00  0.00     0.074 A 
ATOM     55  C   UNL A   1      48.295  26.293  30.057  1.00  0.00     0.031 C 
ATOM     56  C   UNL A   1      49.454  27.229  23.323  1.00  0.00     0.029 A 
ATOM     57  C   UNL A   1      50.644  27.156  24.169  1.00  0.00     0.049 A 
ATOM     58  H   UNL A   1      50.715  26.729  26.207  1.00  0.00     0.167 HD
ATOM     59  C   UNL A   1      50.719  26.200  30.553  1.00  0.00     0.034 A 
ATOM     60  C   UNL A   1      51.914  27.341  23.757  1.00  0.00     0.034 A 
ATOM     61  C   UNL A   1      52.106  26.211  30.174  1.00  0.00     0.049 A 
ATOM     62  C   UNL A   1      53.038  27.206  24.752  1.00  0.00     0.074 A 
ATOM     63  C   UNL A   1      53.217  26.028  30.979  1.00  0.00     0.029 A 
ATOM     64  N   UNL A   1      52.574  26.427  28.889  1.00  0.00    -0.354 N 
ATOM     65  N   UNL A   1      52.981  26.912  26.028  1.00  0.00    -0.248 NA
ATOM     66  C   UNL A   1      54.405  27.396  24.242  1.00  0.00     0.031 C 
ATOM     67  C   UNL A   1      54.359  26.159  30.182  1.00  0.00     0.029 A 
ATOM     68  C   UNL A   1      53.957  26.398  28.877  1.00  0.00     0.049 A 
ATOM     69  H   UNL A   1      52.006  26.580  28.099  1.00  0.00     0.167 HD
ATOM     70  C   UNL A   1      54.300  26.846  26.465  1.00  0.00     0.074 A 
ATOM     71  C   UNL A   1      55.136  27.111  25.312  1.00  0.00     0.031 C 
ATOM     72  C   UNL A   1      54.777  26.604  27.712  1.00  0.00     0.034 A 
BRANCH  59  73
ATOM     73  C   UNL A   1      50.385  26.001  32.007  1.00  0.00     0.023 A 
ATOM     74  C   UNL A   1      49.943  27.098  32.775  1.00  0.00     0.012 A 
ATOM     75  C   UNL A   1      50.440  24.723  32.594  1.00  0.00     0.148 A 
ATOM     76  C   UNL A   1      49.584  26.928  34.112  1.00  0.00     0.002 A 
ATOM     77  C   UNL A   1      50.043  24.555  33.915  1.00  0.00     0.091 A 
ATOM     78  F   UNL A   1      50.886  23.698  31.852  1.00  0.00    -0.205 F 
ATOM     79  C   UNL A   1      49.625  25.657  34.678  1.00  0.00     0.022 A 
BRANCH  77  80
ATOM     80  S   UNL A   1      49.987  22.945  34.713  1.00  0.00     0.127 S 
ATOM     81  O   UNL A   1      51.410  22.665  34.910  1.00  0.00    -0.237 OA
ATOM     82  O   UNL A   1      49.248  23.235  35.941  1.00  0.00    -0.237 OA
ATOM     83  O   UNL A   1      49.300  22.060  33.783  1.00  0.00    -0.744 OA
ENDBRANCH  77  80
ENDBRANCH  59  73
BRANCH  60  84
ATOM     84  C   UNL A   1      52.196  27.643  22.325  1.00  0.00     0.023 A 
ATOM     85  C   UNL A   1      52.501  26.592  21.440  1.00  0.00     0.012 A 
ATOM     86  C   UNL A   1      52.154  28.963  21.836  1.00  0.00     0.148 A 
ATOM     87  C   UNL A   1      52.790  26.852  20.100  1.00  0.00     0.002 A 
ATOM     88  C   UNL A   1      52.387  29.210  20.488  1.00  0.00     0.091 A 
ATOM     89  F   UNL A   1      51.882  29.953  22.698  1.00  0.00    -0.205 F 
ATOM     90  C   UNL A   1      52.723  28.159  19.622  1.00  0.00     0.022 A 
BRANCH  88  91
ATOM     91  S   UNL A   1      52.194  30.844  19.766  1.00  0.00     0.127 S 
ATOM     92  O   UNL A   1      53.302  31.574  20.375  1.00  0.00    -0.237 OA
ATOM     93  O   UNL A   1      52.350  30.566  18.337  1.00  0.00    -0.237 OA
ATOM     94  O   UNL A   1      50.857  31.283  20.146  1.00  0.00    -0.744 OA
ENDBRANCH  88  91
ENDBRANCH  60  84
BRANCH  72  95
ATOM     95  C   UNL A   1      56.273  26.579  27.899  1.00  0.00     0.023 A 
ATOM     96  C   UNL A   1      56.974  27.785  28.093  1.00  0.00     0.012 A 
ATOM     97  C   UNL A   1      56.968  25.355  27.968  1.00  0.00     0.148 A 
ATOM     98  C   UNL A   1      58.349  27.776  28.323  1.00  0.00     0.002 A 
ATOM     99  C   UNL A   1      58.331  25.352  28.244  1.00  0.00     0.091 A 
ATOM    100  F   UNL A   1      56.288  24.219  27.764  1.00  0.00    -0.205 F 
ATOM    101  C   UNL A   1      59.025  26.562  28.409  1.00  0.00     0.022 A 
BRANCH  99 102
ATOM    102  S   UNL A   1      59.263  23.833  28.469  1.00  0.00     0.127 S 
ATOM    103  O   UNL A   1      59.910  24.068  29.758  1.00  0.00    -0.237 OA
ATOM    104  O   UNL A   1      58.207  22.820  28.494  1.00  0.00    -0.237 OA
ATOM    105  O   UNL A   1      60.160  23.740  27.326  1.00  0.00    -0.744 OA
ENDBRANCH  99 102
ENDBRANCH  72  95
ENDBRANCH  46  47
ENDBRANCH  39  41
ENDBRANCH  38  39
ENDBRANCH  37  38
ENDBRANCH  36  37
ENDBRANCH   1  36
TORSDOF 22
ENDMDL
MODEL 2
REMARK VINA RESULT:     -10.7      6.904     12.734
REMARK SMILES COc1ccc([C@H]2CC(c3ccc(S(C)(=O)=O)cc3)=NN2c2ccc(C(=O)OCCOCCOC(=O)c3ccc(-c4c5nc(c(-c6cccc(S(=O)(=O)[O-])c6F)c6ccc([nH]6)c(-c6cccc(S(=O)(=O)[O-])c6F)c6nc(c(-c7cccc(S(=O)(=O)[O-])c7F)c7ccc4[nH]7)C=C6)C=C5)cc3)cc2)cc1
REMARK SMILES IDX 31 1 30 2 29 3 28 4 26 5 27 6 25 7 22 8 23 9 101 10 24 11
REMARK SMILES IDX 100 12 21 13 7 14 8 15 9 16 20 17 6 18 3 19 4 20 103 21 5 22
REMARK SMILES IDX 102 23 2 24 1 25 10 26 11 27 19 28 12 29 18 30 13 31 14 32
REMARK SMILES IDX 15 33 16 34 17 35 32 36 33 37 34 38 35 39 36 40 37 41 38 42
REMARK SMILES IDX 99 43 39 44 98 45 40 46 41 47 42 48 92 49 43 50 97 51 91 52
REMARK SMILES IDX 93 53 44 54 96 55 90 56 89 57 45 59 77 60 57 61 76 62 58 63
REMARK SMILES IDX 61 64 75 65 94 66 59 67 60 68 74 70 95 71 62 72 46 73 47 74
REMARK SMILES IDX 55 75 48 76 50 77 56 78 49 79 51 80 52 81 53 82 54 83 78 84
REMARK SMILES IDX 79 85 87 86 80 87 82 88 88 89 81 90 83 91 84 92 85 93 86 94
REMARK SMILES IDX 63 95 64 96 72 97 65 98 67 99 73 100 66 101 68 102 69 103
REMARK SMILES IDX 70 104 71 105
REMARK H PARENT 93 58 61 69
REMARK Flexibility Score: inf
ROOT
ATOM      1  O   UNL A   1      52.478  26.355  23.900  1.00  0.00    -0.374 OA
ENDROOT
BRANCH   1   2
ATOM      2  C   UNL A   1      53.109  25.375  24.728  1.00  0.00     0.202 C 
BRANCH   2   3
ATOM      3  C   UNL A   1      52.368  25.013  26.020  1.00  0.00     0.261 C 
BRANCH   3   4
ATOM      4  O   UNL A   1      50.973  25.337  25.919  1.00  0.00    -0.460 OA
BRANCH   4   5
ATOM      5  C   UNL A   1      50.279  25.269  27.078  1.00  0.00     0.338 C 
ATOM      6  O   UNL A   1      50.734  25.361  28.212  1.00  0.00    -0.246 OA
BRANCH   5   7
ATOM      7  C   UNL A   1      48.827  25.240  26.799  1.00  0.00     0.060 A 
ATOM      8  C   UNL A   1      46.096  25.437  26.190  1.00  0.00     0.060 A 
ATOM      9  C   UNL A   1      47.057  25.599  25.186  1.00  0.00     0.029 A 
ATOM     10  C   UNL A   1      46.520  25.051  27.471  1.00  0.00     0.029 A 
ATOM     11  C   UNL A   1      48.415  25.535  25.493  1.00  0.00     0.018 A 
ATOM     12  C   UNL A   1      47.879  24.940  27.779  1.00  0.00     0.018 A 
BRANCH   8  13
ATOM     13  N   UNL A   1      44.773  25.825  25.969  1.00  0.00    -0.257 N 
ATOM     14  C   UNL A   1      43.939  25.092  25.001  1.00  0.00     0.144 C 
ATOM     15  C   UNL A   1      42.517  25.480  25.415  1.00  0.00     0.091 C 
ATOM     16  C   UNL A   1      42.816  26.402  26.565  1.00  0.00     0.071 C 
ATOM     17  N   UNL A   1      44.065  26.528  26.892  1.00  0.00    -0.176 NA
BRANCH  14  18
ATOM     18  C   UNL A   1      44.197  23.588  25.016  1.00  0.00    -0.023 A 
ATOM     19  C   UNL A   1      44.413  20.771  24.935  1.00  0.00     0.118 A 
ATOM     20  C   UNL A   1      43.630  21.394  25.907  1.00  0.00     0.047 A 
ATOM     21  C   UNL A   1      45.083  21.552  23.995  1.00  0.00     0.047 A 
ATOM     22  C   UNL A   1      43.531  22.786  25.957  1.00  0.00     0.010 A 
ATOM     23  C   UNL A   1      44.976  22.949  24.036  1.00  0.00     0.010 A 
BRANCH  19  24
ATOM     24  O   UNL A   1      44.396  19.405  24.969  1.00  0.00    -0.497 OA
ATOM     25  C   UNL A   1      43.367  18.814  25.751  1.00  0.00     0.278 C 
ENDBRANCH  19  24
ENDBRANCH  14  18
BRANCH  16  26
ATOM     26  C   UNL A   1      41.737  27.154  27.224  1.00  0.00    -0.002 A 
ATOM     27  C   UNL A   1      41.174  28.237  26.538  1.00  0.00     0.011 A 
ATOM     28  C   UNL A   1      41.249  26.775  28.477  1.00  0.00     0.011 A 
ATOM     29  C   UNL A   1      40.104  28.936  27.096  1.00  0.00     0.021 A 
ATOM     30  C   UNL A   1      40.194  27.491  29.052  1.00  0.00     0.021 A 
ATOM     31  C   UNL A   1      39.628  28.566  28.358  1.00  0.00     0.067 A 
BRANCH  31  32
ATOM     32  S   UNL A   1      38.270  29.468  29.069  1.00  0.00     0.175 S 
ATOM     33  C   UNL A   1      36.974  29.331  27.867  1.00  0.00     0.163 C 
ATOM     34  O   UNL A   1      37.867  28.751  30.263  1.00  0.00    -0.224 OA
ATOM     35  O   UNL A   1      38.656  30.866  29.133  1.00  0.00    -0.224 OA
ENDBRANCH  31  32
ENDBRANCH  16  26
ENDBRANCH   8  13
ENDBRANCH   5   7
ENDBRANCH   4   5
ENDBRANCH   3   4
ENDBRANCH   2   3
ENDBRANCH   1   2
BRANCH   1  36
ATOM     36  C   UNL A   1      53.249  27.516  23.584  1.00  0.00     0.202 C 
BRANCH  36  37
ATOM     37  C   UNL A   1      52.943  28.773  24.404  1.00  0.00     0.261 C 
BRANCH  37  38
ATOM     38  O   UNL A   1      51.634  28.714  25.000  1.00  0.00    -0.460 OA
BRANCH  38  39
ATOM     39  C   UNL A   1      51.622  28.672  26.350  1.00  0.00     0.338 C 
ATOM     40  O   UNL A   1      52.559  28.392  27.090  1.00  0.00    -0.246 OA
BRANCH  39  41
ATOM     41  C   UNL A   1      50.339  29.192  26.859  1.00  0.00     0.060 A 
ATOM     42  C   UNL A   1      50.377  29.989  28.012  1.00  0.00     0.016 A 
ATOM     43  C   UNL A   1      49.120  28.867  26.262  1.00  0.00     0.016 A 
ATOM     44  C   UNL A   1      49.191  30.422  28.600  1.00  0.00     0.010 A 
ATOM     45  C   UNL A   1      47.929  29.299  26.859  1.00  0.00     0.010 A 
ATOM     46  C   UNL A   1      47.959  30.047  28.050  1.00  0.00    -0.014 A 
BRANCH  46  47
ATOM     47  C   UNL A   1      46.705  30.332  28.789  1.00  0.00     0.031 A 
ATOM     48  C   UNL A   1      46.122  29.267  29.677  1.00  0.00     0.074 A 
ATOM     49  C   UNL A   1      46.092  31.522  28.665  1.00  0.00     0.049 A 
ATOM     50  N   UNL A   1      45.026  29.294  30.389  1.00  0.00    -0.248 NA
ATOM     51  C   UNL A   1      46.873  28.004  29.776  1.00  0.00     0.031 C 
ATOM     52  C   UNL A   1      46.558  32.629  27.834  1.00  0.00     0.029 A 
ATOM     53  N   UNL A   1      44.925  31.985  29.221  1.00  0.00    -0.354 N 
ATOM     54  C   UNL A   1      44.937  28.046  30.995  1.00  0.00     0.074 A 
ATOM     55  C   UNL A   1      46.086  27.282  30.561  1.00  0.00     0.031 C 
ATOM     56  C   UNL A   1      45.668  33.634  27.907  1.00  0.00     0.029 A 
ATOM     57  C   UNL A   1      44.561  33.233  28.774  1.00  0.00     0.049 A 
ATOM     58  H   UNL A   1      44.400  31.472  29.878  1.00  0.00     0.167 HD
ATOM     59  C   UNL A   1      43.993  27.584  31.849  1.00  0.00     0.034 A 
ATOM     60  C   UNL A   1      43.450  33.957  29.018  1.00  0.00     0.034 A 
ATOM     61  C   UNL A   1      42.865  28.355  32.299  1.00  0.00     0.049 A 
ATOM     62  C   UNL A   1      42.408  33.413  29.961  1.00  0.00     0.074 A 
ATOM     63  C   UNL A   1      41.887  27.993  33.210  1.00  0.00     0.029 A 
ATOM     64  N   UNL A   1      42.556  29.634  31.867  1.00  0.00    -0.354 N 
ATOM     65  N   UNL A   1      42.407  32.286  30.631  1.00  0.00    -0.248 NA
ATOM     66  C   UNL A   1      41.228  34.256  30.207  1.00  0.00     0.031 C 
ATOM     67  C   UNL A   1      40.972  29.046  33.308  1.00  0.00     0.029 A 
ATOM     68  C   UNL A   1      41.395  30.073  32.478  1.00  0.00     0.049 A 
ATOM     69  H   UNL A   1      43.085  30.154  31.219  1.00  0.00     0.167 HD
ATOM     70  C   UNL A   1      41.250  32.300  31.403  1.00  0.00     0.074 A 
ATOM     71  C   UNL A   1      40.584  33.557  31.134  1.00  0.00     0.031 C 
ATOM     72  C   UNL A   1      40.774  31.351  32.247  1.00  0.00     0.034 A 
BRANCH  59  73
ATOM     73  C   UNL A   1      44.153  26.187  32.383  1.00  0.00     0.023 A 
ATOM     74  C   UNL A   1      43.965  25.087  31.521  1.00  0.00     0.012 A 
ATOM     75  C   UNL A   1      44.556  25.962  33.714  1.00  0.00     0.148 A 
ATOM     76  C   UNL A   1      44.153  23.785  31.983  1.00  0.00     0.002 A 
ATOM     77  C   UNL A   1      44.780  24.664  34.155  1.00  0.00     0.091 A 
ATOM     78  F   UNL A   1      44.707  27.021  34.523  1.00  0.00    -0.205 F 
ATOM     79  C   UNL A   1      44.569  23.574  33.295  1.00  0.00     0.022 A 
BRANCH  77  80
ATOM     80  S   UNL A   1      45.390  24.292  35.804  1.00  0.00     0.127 S 
ATOM     81  O   UNL A   1      46.808  24.631  35.676  1.00  0.00    -0.237 OA
ATOM     82  O   UNL A   1      44.616  25.214  36.634  1.00  0.00    -0.237 OA
ATOM     83  O   UNL A   1      45.104  22.882  36.030  1.00  0.00    -0.744 OA
ENDBRANCH  77  80
ENDBRANCH  59  73
BRANCH  60  84
ATOM     84  C   UNL A   1      43.279  35.295  28.383  1.00  0.00     0.023 A 
ATOM     85  C   UNL A   1      42.650  35.393  27.128  1.00  0.00     0.012 A 
ATOM     86  C   UNL A   1      43.727  36.468  29.022  1.00  0.00     0.148 A 
ATOM     87  C   UNL A   1      42.498  36.633  26.505  1.00  0.00     0.002 A 
ATOM     88  C   UNL A   1      43.523  37.705  28.421  1.00  0.00     0.091 A 
ATOM     89  F   UNL A   1      44.343  36.351  30.207  1.00  0.00    -0.205 F 
ATOM     90  C   UNL A   1      42.925  37.788  27.155  1.00  0.00     0.022 A 
BRANCH  88  91
ATOM     91  S   UNL A   1      43.924  39.248  29.248  1.00  0.00     0.127 S 
ATOM     92  O   UNL A   1      43.062  40.196  28.549  1.00  0.00    -0.237 OA
ATOM     93  O   UNL A   1      43.534  38.964  30.630  1.00  0.00    -0.237 OA
ATOM     94  O   UNL A   1      45.357  39.431  29.059  1.00  0.00    -0.744 OA
ENDBRANCH  88  91
ENDBRANCH  60  84
BRANCH  72  95
ATOM     95  C   UNL A   1      39.484  31.640  32.973  1.00  0.00     0.023 A 
ATOM     96  C   UNL A   1      38.256  31.269  32.391  1.00  0.00     0.012 A 
ATOM     97  C   UNL A   1      39.497  32.200  34.266  1.00  0.00     0.148 A 
ATOM     98  C   UNL A   1      37.058  31.479  33.073  1.00  0.00     0.002 A 
ATOM     99  C   UNL A   1      38.302  32.362  34.958  1.00  0.00     0.091 A 
ATOM    100  F   UNL A   1      40.674  32.562  34.795  1.00  0.00    -0.205 F 
ATOM    101  C   UNL A   1      37.081  32.014  34.358  1.00  0.00     0.022 A 
BRANCH  99 102
ATOM    102  S   UNL A   1      38.246  32.953  36.654  1.00  0.00     0.127 S 
ATOM    103  O   UNL A   1      36.814  32.896  36.942  1.00  0.00    -0.237 OA
ATOM    104  O   UNL A   1      39.049  31.954  37.359  1.00  0.00    -0.237 OA
ATOM    105  O   UNL A   1      38.827  34.288  36.633  1.00  0.00    -0.744 OA
ENDBRANCH  99 102
ENDBRANCH  72  95
ENDBRANCH  46  47
ENDBRANCH  39  41
ENDBRANCH  38  39
ENDBRANCH  37  38
ENDBRANCH  36  37
ENDBRANCH   1  36
TORSDOF 22
ENDMDL
MODEL 3
REMARK VINA RESULT:     -10.2      6.957     10.837
REMARK SMILES COc1ccc([C@H]2CC(c3ccc(S(C)(=O)=O)cc3)=NN2c2ccc(C(=O)OCCOCCOC(=O)c3ccc(-c4c5nc(c(-c6cccc(S(=O)(=O)[O-])c6F)c6ccc([nH]6)c(-c6cccc(S(=O)(=O)[O-])c6F)c6nc(c(-c7cccc(S(=O)(=O)[O-])c7F)c7ccc4[nH]7)C=C6)C=C5)cc3)cc2)cc1
REMARK SMILES IDX 31 1 30 2 29 3 28 4 26 5 27 6 25 7 22 8 23 9 101 10 24 11
REMARK SMILES IDX 100 12 21 13 7 14 8 15 9 16 20 17 6 18 3 19 4 20 103 21 5 22
REMARK SMILES IDX 102 23 2 24 1 25 10 26 11 27 19 28 12 29 18 30 13 31 14 32
REMARK SMILES IDX 15 33 16 34 17 35 32 36 33 37 34 38 35 39 36 40 37 41 38 42
REMARK SMILES IDX 99 43 39 44 98 45 40 46 41 47 42 48 92 49 43 50 97 51 91 52
REMARK SMILES IDX 93 53 44 54 96 55 90 56 89 57 45 59 77 60 57 61 76 62 58 63
REMARK SMILES IDX 61 64 75 65 94 66 59 67 60 68 74 70 95 71 62 72 46 73 47 74
REMARK SMILES IDX 55 75 48 76 50 77 56 78 49 79 51 80 52 81 53 82 54 83 78 84
REMARK SMILES IDX 79 85 87 86 80 87 82 88 88 89 81 90 83 91 84 92 85 93 86 94
REMARK SMILES IDX 63 95 64 96 72 97 65 98 67 99 73 100 66 101 68 102 69 103
REMARK SMILES IDX 70 104 71 105
REMARK H PARENT 93 58 61 69
REMARK Flexibility Score: inf
ROOT
ATOM      1  O   UNL A   1      41.031  24.390  26.118  1.00  0.00    -0.374 OA
ENDROOT
BRANCH   1   2
ATOM      2  C   UNL A   1      41.104  23.203  26.912  1.00  0.00     0.202 C 
BRANCH   2   3
ATOM      3  C   UNL A   1      39.969  22.194  26.711  1.00  0.00     0.261 C 
BRANCH   3   4
ATOM      4  O   UNL A   1      38.826  22.820  26.110  1.00  0.00    -0.460 OA
BRANCH   4   5
ATOM      5  C   UNL A   1      37.991  21.985  25.450  1.00  0.00     0.338 C 
ATOM      6  O   UNL A   1      37.986  20.760  25.500  1.00  0.00    -0.246 OA
BRANCH   5   7
ATOM      7  C   UNL A   1      36.934  22.761  24.766  1.00  0.00     0.060 A 
ATOM      8  C   UNL A   1      34.757  24.128  23.642  1.00  0.00     0.060 A 
ATOM      9  C   UNL A   1      35.124  24.357  24.973  1.00  0.00     0.029 A 
ATOM     10  C   UNL A   1      35.572  23.302  22.852  1.00  0.00     0.029 A 
ATOM     11  C   UNL A   1      36.185  23.654  25.543  1.00  0.00     0.018 A 
ATOM     12  C   UNL A   1      36.664  22.627  23.403  1.00  0.00     0.018 A 
BRANCH   8  13
ATOM     13  N   UNL A   1      33.517  24.561  23.168  1.00  0.00    -0.257 N 
ATOM     14  C   UNL A   1      32.482  23.580  22.798  1.00  0.00     0.144 C 
ATOM     15  C   UNL A   1      31.199  24.414  22.824  1.00  0.00     0.091 C 
ATOM     16  C   UNL A   1      31.761  25.758  23.201  1.00  0.00     0.071 C 
ATOM     17  N   UNL A   1      33.034  25.801  23.446  1.00  0.00    -0.176 NA
BRANCH  14  18
ATOM     18  C   UNL A   1      32.452  22.371  23.729  1.00  0.00    -0.023 A 
ATOM     19  C   UNL A   1      32.684  20.124  25.427  1.00  0.00     0.118 A 
ATOM     20  C   UNL A   1      32.831  19.987  24.047  1.00  0.00     0.047 A 
ATOM     21  C   UNL A   1      32.431  21.385  25.965  1.00  0.00     0.047 A 
ATOM     22  C   UNL A   1      32.705  21.093  23.204  1.00  0.00     0.010 A 
ATOM     23  C   UNL A   1      32.316  22.499  25.123  1.00  0.00     0.010 A 
BRANCH  19  24
ATOM     24  O   UNL A   1      32.869  18.975  26.144  1.00  0.00    -0.497 OA
ATOM     25  C   UNL A   1      32.691  17.760  25.428  1.00  0.00     0.278 C 
ENDBRANCH  19  24
ENDBRANCH  14  18
BRANCH  16  26
ATOM     26  C   UNL A   1      30.902  26.952  23.219  1.00  0.00    -0.002 A 
ATOM     27  C   UNL A   1      31.475  28.183  22.881  1.00  0.00     0.011 A 
ATOM     28  C   UNL A   1      29.539  26.860  23.517  1.00  0.00     0.011 A 
ATOM     29  C   UNL A   1      30.683  29.329  22.821  1.00  0.00     0.021 A 
ATOM     30  C   UNL A   1      28.747  28.012  23.485  1.00  0.00     0.021 A 
ATOM     31  C   UNL A   1      29.323  29.239  23.136  1.00  0.00     0.067 A 
BRANCH  31  32
ATOM     32  S   UNL A   1      28.319  30.705  23.067  1.00  0.00     0.175 S 
ATOM     33  C   UNL A   1      28.454  31.250  21.385  1.00  0.00     0.163 C 
ATOM     34  O   UNL A   1      26.951  30.292  23.308  1.00  0.00    -0.224 OA
ATOM     35  O   UNL A   1      28.953  31.711  23.900  1.00  0.00    -0.224 OA
ENDBRANCH  31  32
ENDBRANCH  16  26
ENDBRANCH   8  13
ENDBRANCH   5   7
ENDBRANCH   4   5
ENDBRANCH   3   4
ENDBRANCH   2   3
ENDBRANCH   1   2
BRANCH   1  36
ATOM     36  C   UNL A   1      40.482  25.549  26.750  1.00  0.00     0.202 C 
BRANCH  36  37
ATOM     37  C   UNL A   1      40.830  26.896  26.108  1.00  0.00     0.261 C 
BRANCH  37  38
ATOM     38  O   UNL A   1      42.250  27.127  26.091  1.00  0.00    -0.460 OA
BRANCH  38  39
ATOM     39  C   UNL A   1      42.650  28.272  26.685  1.00  0.00     0.338 C 
ATOM     40  O   UNL A   1      42.570  29.408  26.231  1.00  0.00    -0.246 OA
BRANCH  39  41
ATOM     41  C   UNL A   1      43.056  28.003  28.077  1.00  0.00     0.060 A 
ATOM     42  C   UNL A   1      42.037  27.841  29.027  1.00  0.00     0.016 A 
ATOM     43  C   UNL A   1      44.397  27.963  28.463  1.00  0.00     0.016 A 
ATOM     44  C   UNL A   1      42.357  27.690  30.374  1.00  0.00     0.010 A 
ATOM     45  C   UNL A   1      44.715  27.817  29.818  1.00  0.00     0.010 A 
ATOM     46  C   UNL A   1      43.696  27.716  30.783  1.00  0.00    -0.014 A 
BRANCH  46  47
ATOM     47  C   UNL A   1      44.024  27.763  32.229  1.00  0.00     0.031 A 
ATOM     48  C   UNL A   1      43.824  29.050  32.981  1.00  0.00     0.074 A 
ATOM     49  C   UNL A   1      44.498  26.675  32.860  1.00  0.00     0.049 A 
ATOM     50  N   UNL A   1      44.072  29.319  34.237  1.00  0.00    -0.248 NA
ATOM     51  C   UNL A   1      43.276  30.184  32.219  1.00  0.00     0.031 C 
ATOM     52  C   UNL A   1      44.737  25.375  32.237  1.00  0.00     0.029 A 
ATOM     53  N   UNL A   1      44.892  26.502  34.164  1.00  0.00    -0.354 N 
ATOM     54  C   UNL A   1      43.739  30.658  34.409  1.00  0.00     0.074 A 
ATOM     55  C   UNL A   1      43.279  31.149  33.128  1.00  0.00     0.031 C 
ATOM     56  C   UNL A   1      45.267  24.545  33.152  1.00  0.00     0.029 A 
ATOM     57  C   UNL A   1      45.424  25.260  34.417  1.00  0.00     0.049 A 
ATOM     58  H   UNL A   1      44.801  27.200  34.852  1.00  0.00     0.167 HD
ATOM     59  C   UNL A   1      43.794  31.406  35.537  1.00  0.00     0.034 A 
ATOM     60  C   UNL A   1      45.995  24.767  35.535  1.00  0.00     0.034 A 
ATOM     61  C   UNL A   1      44.226  30.909  36.815  1.00  0.00     0.049 A 
ATOM     62  C   UNL A   1      46.056  25.626  36.771  1.00  0.00     0.074 A 
ATOM     63  C   UNL A   1      44.261  31.575  38.028  1.00  0.00     0.029 A 
ATOM     64  N   UNL A   1      44.708  29.631  37.047  1.00  0.00    -0.354 N 
ATOM     65  N   UNL A   1      45.613  26.846  36.953  1.00  0.00    -0.248 NA
ATOM     66  C   UNL A   1      46.669  25.028  37.967  1.00  0.00     0.031 C 
ATOM     67  C   UNL A   1      44.789  30.707  38.988  1.00  0.00     0.029 A 
ATOM     68  C   UNL A   1      45.058  29.491  38.378  1.00  0.00     0.049 A 
ATOM     69  H   UNL A   1      44.791  28.927  36.364  1.00  0.00     0.167 HD
ATOM     70  C   UNL A   1      45.859  27.149  38.288  1.00  0.00     0.074 A 
ATOM     71  C   UNL A   1      46.472  25.976  38.875  1.00  0.00     0.031 C 
ATOM     72  C   UNL A   1      45.613  28.299  38.964  1.00  0.00     0.034 A 
BRANCH  59  73
ATOM     73  C   UNL A   1      43.345  32.840  35.450  1.00  0.00     0.023 A 
ATOM     74  C   UNL A   1      44.282  33.844  35.133  1.00  0.00     0.012 A 
ATOM     75  C   UNL A   1      41.989  33.185  35.613  1.00  0.00     0.148 A 
ATOM     76  C   UNL A   1      43.880  35.173  35.003  1.00  0.00     0.002 A 
ATOM     77  C   UNL A   1      41.590  34.504  35.443  1.00  0.00     0.091 A 
ATOM     78  F   UNL A   1      41.119  32.217  35.938  1.00  0.00    -0.205 F 
ATOM     79  C   UNL A   1      42.535  35.501  35.147  1.00  0.00     0.022 A 
BRANCH  77  80
ATOM     80  S   UNL A   1      39.870  35.016  35.534  1.00  0.00     0.127 S 
ATOM     81  O   UNL A   1      39.326  34.439  34.305  1.00  0.00    -0.237 OA
ATOM     82  O   UNL A   1      39.420  34.366  36.764  1.00  0.00    -0.237 OA
ATOM     83  O   UNL A   1      39.886  36.472  35.585  1.00  0.00    -0.744 OA
ENDBRANCH  77  80
ENDBRANCH  59  73
BRANCH  60  84
ATOM     84  C   UNL A   1      46.525  23.374  35.547  1.00  0.00     0.023 A 
ATOM     85  C   UNL A   1      45.682  22.312  35.927  1.00  0.00     0.012 A 
ATOM     86  C   UNL A   1      47.856  23.097  35.176  1.00  0.00     0.148 A 
ATOM     87  C   UNL A   1      46.163  21.003  35.967  1.00  0.00     0.002 A 
ATOM     88  C   UNL A   1      48.312  21.784  35.164  1.00  0.00     0.091 A 
ATOM     89  F   UNL A   1      48.649  24.124  34.839  1.00  0.00    -0.205 F 
ATOM     90  C   UNL A   1      47.474  20.738  35.577  1.00  0.00     0.022 A 
BRANCH  88  91
ATOM     91  S   UNL A   1      49.943  21.343  34.552  1.00  0.00     0.127 S 
ATOM     92  O   UNL A   1      50.802  21.768  35.654  1.00  0.00    -0.237 OA
ATOM     93  O   UNL A   1      49.824  19.893  34.388  1.00  0.00    -0.237 OA
ATOM     94  O   UNL A   1      50.102  22.074  33.302  1.00  0.00    -0.744 OA
ENDBRANCH  88  91
ENDBRANCH  60  84
BRANCH  72  95
ATOM     95  C   UNL A   1      45.975  28.345  40.427  1.00  0.00     0.023 A 
ATOM     96  C   UNL A   1      45.044  27.912  41.391  1.00  0.00     0.012 A 
ATOM     97  C   UNL A   1      47.265  28.736  40.836  1.00  0.00     0.148 A 
ATOM     98  C   UNL A   1      45.381  27.897  42.744  1.00  0.00     0.002 A 
ATOM     99  C   UNL A   1      47.609  28.673  42.182  1.00  0.00     0.091 A 
ATOM    100  F   UNL A   1      48.132  29.160  39.906  1.00  0.00    -0.205 F 
ATOM    101  C   UNL A   1      46.665  28.265  43.138  1.00  0.00     0.022 A 
BRANCH  99 102
ATOM    102  S   UNL A   1      49.268  29.035  42.768  1.00  0.00     0.127 S 
ATOM    103  O   UNL A   1      50.064  28.049  42.040  1.00  0.00    -0.237 OA
ATOM    104  O   UNL A   1      49.460  30.418  42.327  1.00  0.00    -0.237 OA
ATOM    105  O   UNL A   1      49.229  28.864  44.214  1.00  0.00    -0.744 OA
ENDBRANCH  99 102
ENDBRANCH  72  95
ENDBRANCH  46  47
ENDBRANCH  39  41
ENDBRANCH  38  39
ENDBRANCH  37  38
ENDBRANCH  36  37
ENDBRANCH   1  36
TORSDOF 22
ENDMDL
