MODEL 1
REMARK VINA RESULT:     -10.8      0.000      0.000
REMARK SMILES Cc1nc(CC(=O)N2Cc3nc[nH]c3C[C@H]2C(=O)OCCOCCOC(=O)c2ccc(-c3c4nc(c(-c5cccc(S(=O)(=O)[O-])c5F)c5ccc([nH]5)c(-c5cccc(S(=O)(=O)[O-])c5F)c5nc(c(-c6cccc(S(=O)(=O)[O-])c6F)c6ccc3[nH]6)C=C5)C=C4)cc2)cs1
REMARK SMILES IDX 22 1 21 2 20 3 19 4 17 5 18 6 16 7 8 8 9 9 10 10 15 11 11 12
REMARK SMILES IDX 14 13 12 14 13 15 6 17 7 18 5 19 4 20 1 21 2 22 3 23 92 24
REMARK SMILES IDX 91 25 23 26 24 27 25 28 26 29 27 30 28 31 29 32 90 33 30 34
REMARK SMILES IDX 89 35 31 36 32 37 33 38 83 39 34 40 88 41 82 42 84 43 35 44
REMARK SMILES IDX 87 45 81 46 80 47 36 49 68 50 48 51 67 52 49 53 52 54 66 55
REMARK SMILES IDX 85 56 50 57 51 58 65 60 86 61 53 62 37 63 38 64 46 65 39 66
REMARK SMILES IDX 41 67 47 68 40 69 42 70 43 71 44 72 45 73 69 74 70 75 78 76
REMARK SMILES IDX 71 77 73 78 79 79 72 80 74 81 75 82 76 83 77 84 54 85 55 86
REMARK SMILES IDX 63 87 56 88 58 89 64 90 57 91 59 92 60 93 61 94 62 95
REMARK H PARENT 13 16 84 48 52 59
REMARK Flexibility Score: inf
ROOT
ATOM      1  O   UNL A   1      31.767  30.992  27.120  1.00  0.00    -0.374 OA
ENDROOT
BRANCH   1   2
ATOM      2  C   UNL A   1      32.978  30.339  26.731  1.00  0.00     0.202 C 
BRANCH   2   3
ATOM      3  C   UNL A   1      32.810  29.110  25.845  1.00  0.00     0.261 C 
BRANCH   3   4
ATOM      4  O   UNL A   1      32.566  27.960  26.664  1.00  0.00    -0.462 OA
BRANCH   4   5
ATOM      5  C   UNL A   1      31.770  27.003  26.134  1.00  0.00     0.329 C 
ATOM      6  O   UNL A   1      30.613  27.182  25.758  1.00  0.00    -0.250 OA
BRANCH   5   7
ATOM      7  C   UNL A   1      32.434  25.615  26.111  1.00  0.00     0.201 C 
ATOM      8  N   UNL A   1      31.654  24.383  25.720  1.00  0.00    -0.322 N 
ATOM      9  C   UNL A   1      31.106  24.340  24.338  1.00  0.00     0.178 C 
ATOM     10  C   UNL A   1      32.026  25.052  23.405  1.00  0.00     0.081 A 
ATOM     11  C   UNL A   1      33.677  25.766  25.186  1.00  0.00     0.093 C 
ATOM     12  N   UNL A   1      31.767  25.292  22.085  1.00  0.00    -0.240 NA
ATOM     13  C   UNL A   1      33.182  25.693  23.790  1.00  0.00     0.042 A 
ATOM     14  C   UNL A   1      32.761  26.047  21.671  1.00  0.00     0.197 A 
ATOM     15  N   UNL A   1      33.650  26.323  22.677  1.00  0.00    -0.348 N 
ATOM     16  H   UNL A   1      34.467  26.868  22.608  1.00  0.00     0.167 HD
BRANCH   8  17
ATOM     17  C   UNL A   1      31.855  23.151  26.341  1.00  0.00     0.229 C 
ATOM     18  O   UNL A   1      31.594  22.985  27.536  1.00  0.00    -0.274 OA
BRANCH  17  19
ATOM     19  C   UNL A   1      32.584  22.038  25.602  1.00  0.00     0.157 C 
BRANCH  19  20
ATOM     20  C   UNL A   1      34.050  22.208  25.448  1.00  0.00     0.061 A 
ATOM     21  C   UNL A   1      36.674  22.776  22.975  1.00  0.00     0.079 C 
ATOM     22  C   UNL A   1      35.845  22.548  24.188  1.00  0.00     0.090 A 
ATOM     23  N   UNL A   1      34.533  22.477  24.175  1.00  0.00    -0.246 NA
ATOM     24  S   UNL A   1      36.576  22.315  25.724  1.00  0.00    -0.127 S 
ATOM     25  C   UNL A   1      35.024  22.110  26.424  1.00  0.00     0.091 A 
ENDBRANCH  19  20
ENDBRANCH  17  19
ENDBRANCH   8  17
ENDBRANCH   5   7
ENDBRANCH   4   5
ENDBRANCH   3   4
ENDBRANCH   2   3
ENDBRANCH   1   2
BRANCH   1  26
ATOM     26  C   UNL A   1      31.420  32.228  26.497  1.00  0.00     0.202 C 
BRANCH  26  27
ATOM     27  C   UNL A   1      32.061  33.494  27.041  1.00  0.00     0.261 C 
BRANCH  27  28
ATOM     28  O   UNL A   1      32.419  33.392  28.414  1.00  0.00    -0.460 OA
BRANCH  28  29
ATOM     29  C   UNL A   1      33.023  34.495  28.898  1.00  0.00     0.338 C 
ATOM     30  O   UNL A   1      32.561  35.639  28.917  1.00  0.00    -0.246 OA
BRANCH  29  31
ATOM     31  C   UNL A   1      34.408  34.186  29.241  1.00  0.00     0.060 A 
ATOM     32  C   UNL A   1      35.365  34.389  28.245  1.00  0.00     0.016 A 
ATOM     33  C   UNL A   1      34.698  33.474  30.415  1.00  0.00     0.016 A 
ATOM     34  C   UNL A   1      36.572  33.738  28.351  1.00  0.00     0.010 A 
ATOM     35  C   UNL A   1      35.897  32.808  30.512  1.00  0.00     0.010 A 
ATOM     36  C   UNL A   1      36.795  32.900  29.451  1.00  0.00    -0.014 A 
BRANCH  36  37
ATOM     37  C   UNL A   1      38.102  32.287  29.575  1.00  0.00     0.031 A 
ATOM     38  C   UNL A   1      38.064  30.878  29.121  1.00  0.00     0.074 A 
ATOM     39  C   UNL A   1      39.196  32.966  29.971  1.00  0.00     0.049 A 
ATOM     40  N   UNL A   1      38.112  29.821  29.862  1.00  0.00    -0.248 NA
ATOM     41  C   UNL A   1      37.664  30.610  27.728  1.00  0.00     0.031 C 
ATOM     42  C   UNL A   1      39.313  34.415  30.162  1.00  0.00     0.029 A 
ATOM     43  N   UNL A   1      40.473  32.528  30.162  1.00  0.00    -0.354 N 
ATOM     44  C   UNL A   1      38.050  28.756  28.966  1.00  0.00     0.074 A 
ATOM     45  C   UNL A   1      37.501  29.287  27.754  1.00  0.00     0.031 C 
ATOM     46  C   UNL A   1      40.623  34.754  30.190  1.00  0.00     0.029 A 
ATOM     47  C   UNL A   1      41.426  33.546  30.145  1.00  0.00     0.049 A 
ATOM     48  H   UNL A   1      40.700  31.580  30.299  1.00  0.00     0.167 HD
ATOM     49  C   UNL A   1      38.802  27.644  29.188  1.00  0.00     0.034 A 
ATOM     50  C   UNL A   1      42.770  33.395  30.023  1.00  0.00     0.034 A 
ATOM     51  C   UNL A   1      39.245  27.614  30.563  1.00  0.00     0.049 A 
ATOM     52  C   UNL A   1      43.085  31.998  30.384  1.00  0.00     0.074 A 
ATOM     53  C   UNL A   1      38.650  27.514  31.801  1.00  0.00     0.029 A 
ATOM     54  N   UNL A   1      40.496  28.144  30.750  1.00  0.00    -0.354 N 
ATOM     55  N   UNL A   1      42.978  31.527  31.594  1.00  0.00    -0.248 NA
ATOM     56  C   UNL A   1      43.165  31.001  29.326  1.00  0.00     0.031 C 
ATOM     57  C   UNL A   1      39.488  28.251  32.688  1.00  0.00     0.029 A 
ATOM     58  C   UNL A   1      40.597  28.718  31.982  1.00  0.00     0.049 A 
ATOM     59  H   UNL A   1      41.221  28.115  30.085  1.00  0.00     0.167 HD
ATOM     60  C   UNL A   1      42.491  30.245  31.406  1.00  0.00     0.074 A 
ATOM     61  C   UNL A   1      42.800  29.918  30.016  1.00  0.00     0.031 C 
ATOM     62  C   UNL A   1      41.600  29.714  32.293  1.00  0.00     0.034 A 
BRANCH  49  63
ATOM     63  C   UNL A   1      39.595  26.902  28.112  1.00  0.00     0.023 A 
ATOM     64  C   UNL A   1      39.433  25.495  28.080  1.00  0.00     0.012 A 
ATOM     65  C   UNL A   1      40.682  27.424  27.369  1.00  0.00     0.148 A 
ATOM     66  C   UNL A   1      40.351  24.656  27.439  1.00  0.00     0.002 A 
ATOM     67  C   UNL A   1      41.562  26.589  26.686  1.00  0.00     0.091 A 
ATOM     68  F   UNL A   1      40.953  28.725  27.380  1.00  0.00    -0.205 F 
ATOM     69  C   UNL A   1      41.422  25.203  26.747  1.00  0.00     0.022 A 
BRANCH  67  70
ATOM     70  S   UNL A   1      42.954  27.239  25.746  1.00  0.00     0.127 S 
ATOM     71  O   UNL A   1      43.578  26.011  25.262  1.00  0.00    -0.237 OA
ATOM     72  O   UNL A   1      42.270  28.033  24.725  1.00  0.00    -0.237 OA
ATOM     73  O   UNL A   1      43.746  28.021  26.685  1.00  0.00    -0.744 OA
ENDBRANCH  67  70
ENDBRANCH  49  63
BRANCH  50  74
ATOM     74  C   UNL A   1      43.807  34.269  29.419  1.00  0.00     0.023 A 
ATOM     75  C   UNL A   1      44.630  35.055  30.255  1.00  0.00     0.012 A 
ATOM     76  C   UNL A   1      44.197  34.105  28.074  1.00  0.00     0.148 A 
ATOM     77  C   UNL A   1      45.825  35.613  29.783  1.00  0.00     0.002 A 
ATOM     78  C   UNL A   1      45.384  34.664  27.607  1.00  0.00     0.091 A 
ATOM     79  F   UNL A   1      43.457  33.321  27.279  1.00  0.00    -0.205 F 
ATOM     80  C   UNL A   1      46.208  35.407  28.463  1.00  0.00     0.022 A 
BRANCH  78  81
ATOM     81  S   UNL A   1      45.967  34.407  25.925  1.00  0.00     0.127 S 
ATOM     82  O   UNL A   1      46.964  35.471  25.787  1.00  0.00    -0.237 OA
ATOM     83  O   UNL A   1      46.519  33.058  26.002  1.00  0.00    -0.237 OA
ATOM     84  O   UNL A   1      44.798  34.566  25.071  1.00  0.00    -0.744 OA
ENDBRANCH  78  81
ENDBRANCH  50  74
BRANCH  62  85
ATOM     85  C   UNL A   1      41.539  30.323  33.664  1.00  0.00     0.023 A 
ATOM     86  C   UNL A   1      42.452  30.021  34.694  1.00  0.00     0.012 A 
ATOM     87  C   UNL A   1      40.596  31.344  33.860  1.00  0.00     0.148 A 
ATOM     88  C   UNL A   1      42.409  30.724  35.903  1.00  0.00     0.002 A 
ATOM     89  C   UNL A   1      40.596  32.076  35.035  1.00  0.00     0.091 A 
ATOM     90  F   UNL A   1      39.726  31.600  32.870  1.00  0.00    -0.205 F 
ATOM     91  C   UNL A   1      41.494  31.764  36.067  1.00  0.00     0.022 A 
BRANCH  89  92
ATOM     92  S   UNL A   1      39.530  33.505  35.231  1.00  0.00     0.127 S 
ATOM     93  O   UNL A   1      38.275  32.893  35.659  1.00  0.00    -0.237 OA
ATOM     94  O   UNL A   1      40.224  34.273  36.267  1.00  0.00    -0.237 OA
ATOM     95  O   UNL A   1      39.498  34.161  33.930  1.00  0.00    -0.744 OA
ENDBRANCH  89  92
ENDBRANCH  62  85
ENDBRANCH  36  37
ENDBRANCH  29  31
ENDBRANCH  28  29
ENDBRANCH  27  28
ENDBRANCH  26  27
ENDBRANCH   1  26
TORSDOF 20
ENDMDL
MODEL 2
REMARK VINA RESULT:     -10.4      3.341      7.490
REMARK SMILES Cc1nc(CC(=O)N2Cc3nc[nH]c3C[C@H]2C(=O)OCCOCCOC(=O)c2ccc(-c3c4nc(c(-c5cccc(S(=O)(=O)[O-])c5F)c5ccc([nH]5)c(-c5cccc(S(=O)(=O)[O-])c5F)c5nc(c(-c6cccc(S(=O)(=O)[O-])c6F)c6ccc3[nH]6)C=C5)C=C4)cc2)cs1
REMARK SMILES IDX 22 1 21 2 20 3 19 4 17 5 18 6 16 7 8 8 9 9 10 10 15 11 11 12
REMARK SMILES IDX 14 13 12 14 13 15 6 17 7 18 5 19 4 20 1 21 2 22 3 23 92 24
REMARK SMILES IDX 91 25 23 26 24 27 25 28 26 29 27 30 28 31 29 32 90 33 30 34
REMARK SMILES IDX 89 35 31 36 32 37 33 38 83 39 34 40 88 41 82 42 84 43 35 44
REMARK SMILES IDX 87 45 81 46 80 47 36 49 68 50 48 51 67 52 49 53 52 54 66 55
REMARK SMILES IDX 85 56 50 57 51 58 65 60 86 61 53 62 37 63 38 64 46 65 39 66
REMARK SMILES IDX 41 67 47 68 40 69 42 70 43 71 44 72 45 73 69 74 70 75 78 76
REMARK SMILES IDX 71 77 73 78 79 79 72 80 74 81 75 82 76 83 77 84 54 85 55 86
REMARK SMILES IDX 63 87 56 88 58 89 64 90 57 91 59 92 60 93 61 94 62 95
REMARK H PARENT 13 16 84 48 52 59
REMARK Flexibility Score: inf
ROOT
ATOM      1  O   UNL A   1      32.486  29.511  25.610  1.00  0.00    -0.374 OA
ENDROOT
BRANCH   1   2
ATOM      2  C   UNL A   1      31.423  29.160  24.721  1.00  0.00     0.202 C 
BRANCH   2   3
ATOM      3  C   UNL A   1      30.788  27.795  24.955  1.00  0.00     0.261 C 
BRANCH   3   4
ATOM      4  O   UNL A   1      31.512  27.101  25.980  1.00  0.00    -0.462 OA
BRANCH   4   5
ATOM      5  C   UNL A   1      31.456  25.749  25.945  1.00  0.00     0.329 C 
ATOM      6  O   UNL A   1      30.418  25.091  25.924  1.00  0.00    -0.250 OA
BRANCH   5   7
ATOM      7  C   UNL A   1      32.844  25.090  26.010  1.00  0.00     0.201 C 
ATOM      8  N   UNL A   1      33.083  23.714  25.438  1.00  0.00    -0.322 N 
ATOM      9  C   UNL A   1      32.875  23.545  23.974  1.00  0.00     0.178 C 
ATOM     10  C   UNL A   1      33.247  24.801  23.261  1.00  0.00     0.081 A 
ATOM     11  C   UNL A   1      33.819  26.110  25.351  1.00  0.00     0.093 C 
ATOM     12  N   UNL A   1      33.073  25.020  21.924  1.00  0.00    -0.240 NA
ATOM     13  C   UNL A   1      33.672  25.954  23.884  1.00  0.00     0.042 A 
ATOM     14  C   UNL A   1      33.407  26.278  21.735  1.00  0.00     0.197 A 
ATOM     15  N   UNL A   1      33.777  26.892  22.903  1.00  0.00    -0.348 N 
ATOM     16  H   UNL A   1      34.062  27.828  23.011  1.00  0.00     0.167 HD
BRANCH   8  17
ATOM     17  C   UNL A   1      33.935  22.795  26.048  1.00  0.00     0.229 C 
ATOM     18  O   UNL A   1      33.902  22.600  27.267  1.00  0.00    -0.274 OA
BRANCH  17  19
ATOM     19  C   UNL A   1      35.058  22.153  25.247  1.00  0.00     0.157 C 
BRANCH  19  20
ATOM     20  C   UNL A   1      34.919  20.700  24.973  1.00  0.00     0.061 A 
ATOM     21  C   UNL A   1      32.459  18.057  24.441  1.00  0.00     0.079 C 
ATOM     22  C   UNL A   1      33.670  18.902  24.613  1.00  0.00     0.090 A 
ATOM     23  N   UNL A   1      33.636  20.203  24.794  1.00  0.00    -0.246 NA
ATOM     24  S   UNL A   1      35.237  18.201  24.630  1.00  0.00    -0.127 S 
ATOM     25  C   UNL A   1      35.922  19.752  24.891  1.00  0.00     0.091 A 
ENDBRANCH  19  20
ENDBRANCH  17  19
ENDBRANCH   8  17
ENDBRANCH   5   7
ENDBRANCH   4   5
ENDBRANCH   3   4
ENDBRANCH   2   3
ENDBRANCH   1   2
BRANCH   1  26
ATOM     26  C   UNL A   1      32.187  30.293  26.766  1.00  0.00     0.202 C 
BRANCH  26  27
ATOM     27  C   UNL A   1      33.212  31.330  27.196  1.00  0.00     0.261 C 
BRANCH  27  28
ATOM     28  O   UNL A   1      34.306  30.769  27.912  1.00  0.00    -0.460 OA
BRANCH  28  29
ATOM     29  C   UNL A   1      35.366  31.596  28.011  1.00  0.00     0.338 C 
ATOM     30  O   UNL A   1      35.437  32.755  27.595  1.00  0.00    -0.246 OA
BRANCH  29  31
ATOM     31  C   UNL A   1      36.515  30.860  28.529  1.00  0.00     0.060 A 
ATOM     32  C   UNL A   1      37.596  31.618  28.985  1.00  0.00     0.016 A 
ATOM     33  C   UNL A   1      36.615  29.475  28.320  1.00  0.00     0.016 A 
ATOM     34  C   UNL A   1      38.829  31.015  29.078  1.00  0.00     0.010 A 
ATOM     35  C   UNL A   1      37.851  28.877  28.395  1.00  0.00     0.010 A 
ATOM     36  C   UNL A   1      38.953  29.667  28.715  1.00  0.00    -0.014 A 
BRANCH  36  37
ATOM     37  C   UNL A   1      40.246  29.039  28.894  1.00  0.00     0.031 A 
ATOM     38  C   UNL A   1      40.599  28.967  30.331  1.00  0.00     0.074 A 
ATOM     39  C   UNL A   1      40.958  28.524  27.873  1.00  0.00     0.049 A 
ATOM     40  N   UNL A   1      41.480  29.679  30.950  1.00  0.00    -0.248 NA
ATOM     41  C   UNL A   1      39.700  28.220  31.228  1.00  0.00     0.031 C 
ATOM     42  C   UNL A   1      40.510  28.339  26.489  1.00  0.00     0.029 A 
ATOM     43  N   UNL A   1      42.187  27.933  27.877  1.00  0.00    -0.354 N 
ATOM     44  C   UNL A   1      41.436  29.231  32.269  1.00  0.00     0.074 A 
ATOM     45  C   UNL A   1      40.172  28.574  32.423  1.00  0.00     0.031 C 
ATOM     46  C   UNL A   1      41.339  27.470  25.866  1.00  0.00     0.029 A 
ATOM     47  C   UNL A   1      42.434  27.137  26.759  1.00  0.00     0.049 A 
ATOM     48  H   UNL A   1      42.840  28.059  28.604  1.00  0.00     0.167 HD
ATOM     49  C   UNL A   1      42.591  29.114  32.980  1.00  0.00     0.034 A 
ATOM     50  C   UNL A   1      43.424  26.219  26.621  1.00  0.00     0.034 A 
ATOM     51  C   UNL A   1      43.641  29.874  32.342  1.00  0.00     0.049 A 
ATOM     52  C   UNL A   1      44.454  26.535  27.632  1.00  0.00     0.074 A 
ATOM     53  C   UNL A   1      43.890  31.201  32.070  1.00  0.00     0.029 A 
ATOM     54  N   UNL A   1      44.426  29.128  31.500  1.00  0.00    -0.354 N 
ATOM     55  N   UNL A   1      45.208  27.595  27.581  1.00  0.00    -0.248 NA
ATOM     56  C   UNL A   1      44.400  25.862  28.921  1.00  0.00     0.031 C 
ATOM     57  C   UNL A   1      44.643  31.208  30.859  1.00  0.00     0.029 A 
ATOM     58  C   UNL A   1      44.888  29.890  30.469  1.00  0.00     0.049 A 
ATOM     59  H   UNL A   1      44.627  28.172  31.623  1.00  0.00     0.167 HD
ATOM     60  C   UNL A   1      45.313  27.988  28.905  1.00  0.00     0.074 A 
ATOM     61  C   UNL A   1      44.963  26.803  29.683  1.00  0.00     0.031 C 
ATOM     62  C   UNL A   1      45.350  29.313  29.225  1.00  0.00     0.034 A 
BRANCH  49  63
ATOM     63  C   UNL A   1      42.940  27.931  33.881  1.00  0.00     0.023 A 
ATOM     64  C   UNL A   1      43.669  26.880  33.273  1.00  0.00     0.012 A 
ATOM     65  C   UNL A   1      42.360  27.642  35.141  1.00  0.00     0.148 A 
ATOM     66  C   UNL A   1      43.728  25.598  33.828  1.00  0.00     0.002 A 
ATOM     67  C   UNL A   1      42.468  26.380  35.718  1.00  0.00     0.091 A 
ATOM     68  F   UNL A   1      41.610  28.543  35.768  1.00  0.00    -0.205 F 
ATOM     69  C   UNL A   1      43.120  25.344  35.048  1.00  0.00     0.022 A 
BRANCH  67  70
ATOM     70  S   UNL A   1      41.726  25.996  37.313  1.00  0.00     0.127 S 
ATOM     71  O   UNL A   1      41.430  24.574  37.164  1.00  0.00    -0.237 OA
ATOM     72  O   UNL A   1      42.824  26.310  38.227  1.00  0.00    -0.237 OA
ATOM     73  O   UNL A   1      40.568  26.871  37.442  1.00  0.00    -0.744 OA
ENDBRANCH  67  70
ENDBRANCH  49  63
BRANCH  50  74
ATOM     74  C   UNL A   1      43.491  24.953  25.848  1.00  0.00     0.023 A 
ATOM     75  C   UNL A   1      44.558  24.742  24.946  1.00  0.00     0.012 A 
ATOM     76  C   UNL A   1      42.704  23.841  26.212  1.00  0.00     0.148 A 
ATOM     77  C   UNL A   1      44.861  23.462  24.466  1.00  0.00     0.002 A 
ATOM     78  C   UNL A   1      43.007  22.570  25.729  1.00  0.00     0.091 A 
ATOM     79  F   UNL A   1      41.721  24.012  27.105  1.00  0.00    -0.205 F 
ATOM     80  C   UNL A   1      44.094  22.374  24.867  1.00  0.00     0.022 A 
BRANCH  78  81
ATOM     81  S   UNL A   1      42.088  21.110  26.235  1.00  0.00     0.127 S 
ATOM     82  O   UNL A   1      42.699  20.068  25.407  1.00  0.00    -0.237 OA
ATOM     83  O   UNL A   1      42.411  21.029  27.657  1.00  0.00    -0.237 OA
ATOM     84  O   UNL A   1      40.694  21.388  25.918  1.00  0.00    -0.744 OA
ENDBRANCH  78  81
ENDBRANCH  50  74
BRANCH  62  85
ATOM     85  C   UNL A   1      45.750  30.278  28.146  1.00  0.00     0.023 A 
ATOM     86  C   UNL A   1      44.828  31.031  27.392  1.00  0.00     0.012 A 
ATOM     87  C   UNL A   1      47.123  30.525  27.996  1.00  0.00     0.148 A 
ATOM     88  C   UNL A   1      45.279  32.005  26.494  1.00  0.00     0.002 A 
ATOM     89  C   UNL A   1      47.562  31.530  27.150  1.00  0.00     0.091 A 
ATOM     90  F   UNL A   1      47.981  29.782  28.713  1.00  0.00    -0.205 F 
ATOM     91  C   UNL A   1      46.645  32.267  26.387  1.00  0.00     0.022 A 
BRANCH  89  92
ATOM     92  S   UNL A   1      49.294  31.990  27.087  1.00  0.00     0.127 S 
ATOM     93  O   UNL A   1      49.566  32.350  28.476  1.00  0.00    -0.237 OA
ATOM     94  O   UNL A   1      49.931  30.751  26.637  1.00  0.00    -0.237 OA
ATOM     95  O   UNL A   1      49.382  33.083  26.125  1.00  0.00    -0.744 OA
ENDBRANCH  89  92
ENDBRANCH  62  85
ENDBRANCH  36  37
ENDBRANCH  29  31
ENDBRANCH  28  29
ENDBRANCH  27  28
ENDBRANCH  26  27
ENDBRANCH   1  26
TORSDOF 20
ENDMDL
MODEL 3
REMARK VINA RESULT:     -10.3      2.933      7.860
REMARK SMILES Cc1nc(CC(=O)N2Cc3nc[nH]c3C[C@H]2C(=O)OCCOCCOC(=O)c2ccc(-c3c4nc(c(-c5cccc(S(=O)(=O)[O-])c5F)c5ccc([nH]5)c(-c5cccc(S(=O)(=O)[O-])c5F)c5nc(c(-c6cccc(S(=O)(=O)[O-])c6F)c6ccc3[nH]6)C=C5)C=C4)cc2)cs1
REMARK SMILES IDX 22 1 21 2 20 3 19 4 17 5 18 6 16 7 8 8 9 9 10 10 15 11 11 12
REMARK SMILES IDX 14 13 12 14 13 15 6 17 7 18 5 19 4 20 1 21 2 22 3 23 92 24
REMARK SMILES IDX 91 25 23 26 24 27 25 28 26 29 27 30 28 31 29 32 90 33 30 34
REMARK SMILES IDX 89 35 31 36 32 37 33 38 83 39 34 40 88 41 82 42 84 43 35 44
REMARK SMILES IDX 87 45 81 46 80 47 36 49 68 50 48 51 67 52 49 53 52 54 66 55
REMARK SMILES IDX 85 56 50 57 51 58 65 60 86 61 53 62 37 63 38 64 46 65 39 66
REMARK SMILES IDX 41 67 47 68 40 69 42 70 43 71 44 72 45 73 69 74 70 75 78 76
REMARK SMILES IDX 71 77 73 78 79 79 72 80 74 81 75 82 76 83 77 84 54 85 55 86
REMARK SMILES IDX 63 87 56 88 58 89 64 90 57 91 59 92 60 93 61 94 62 95
REMARK H PARENT 13 16 84 48 52 59
REMARK Flexibility Score: inf
ROOT
ATOM      1  O   UNL A   1      37.349  21.659  25.662  1.00  0.00    -0.374 OA
ENDROOT
BRANCH   1   2
ATOM      2  C   UNL A   1      36.984  21.609  24.280  1.00  0.00     0.202 C 
BRANCH   2   3
ATOM      3  C   UNL A   1      35.816  22.499  23.873  1.00  0.00     0.261 C 
BRANCH   3   4
ATOM      4  O   UNL A   1      36.041  23.832  24.351  1.00  0.00    -0.462 OA
BRANCH   4   5
ATOM      5  C   UNL A   1      35.145  24.307  25.248  1.00  0.00     0.329 C 
ATOM      6  O   UNL A   1      35.014  23.887  26.396  1.00  0.00    -0.250 OA
BRANCH   5   7
ATOM      7  C   UNL A   1      34.232  25.397  24.663  1.00  0.00     0.201 C 
ATOM      8  N   UNL A   1      33.442  25.159  23.400  1.00  0.00    -0.322 N 
ATOM      9  C   UNL A   1      32.424  24.074  23.433  1.00  0.00     0.178 C 
ATOM     10  C   UNL A   1      31.828  23.979  24.797  1.00  0.00     0.081 A 
ATOM     11  C   UNL A   1      33.267  25.794  25.819  1.00  0.00     0.093 C 
ATOM     12  N   UNL A   1      30.944  23.018  25.198  1.00  0.00    -0.240 NA
ATOM     13  C   UNL A   1      32.210  24.755  25.869  1.00  0.00     0.042 A 
ATOM     14  C   UNL A   1      30.775  23.222  26.486  1.00  0.00     0.197 A 
ATOM     15  N   UNL A   1      31.530  24.269  26.944  1.00  0.00    -0.348 N 
ATOM     16  H   UNL A   1      31.572  24.606  27.868  1.00  0.00     0.167 HD
BRANCH   8  17
ATOM     17  C   UNL A   1      33.243  26.159  22.449  1.00  0.00     0.229 C 
ATOM     18  O   UNL A   1      33.467  25.960  21.252  1.00  0.00    -0.274 OA
BRANCH  17  19
ATOM     19  C   UNL A   1      32.932  27.580  22.896  1.00  0.00     0.157 C 
BRANCH  19  20
ATOM     20  C   UNL A   1      31.497  27.957  22.924  1.00  0.00     0.061 A 
ATOM     21  C   UNL A   1      28.184  26.752  23.869  1.00  0.00     0.079 C 
ATOM     22  C   UNL A   1      29.377  27.503  23.398  1.00  0.00     0.090 A 
ATOM     23  N   UNL A   1      30.609  27.056  23.494  1.00  0.00    -0.246 NA
ATOM     24  S   UNL A   1      29.210  29.033  22.637  1.00  0.00    -0.127 S 
ATOM     25  C   UNL A   1      30.911  29.106  22.425  1.00  0.00     0.091 A 
ENDBRANCH  19  20
ENDBRANCH  17  19
ENDBRANCH   8  17
ENDBRANCH   5   7
ENDBRANCH   4   5
ENDBRANCH   3   4
ENDBRANCH   2   3
ENDBRANCH   1   2
BRANCH   1  26
ATOM     26  C   UNL A   1      38.673  22.060  26.011  1.00  0.00     0.202 C 
BRANCH  26  27
ATOM     27  C   UNL A   1      38.857  23.458  26.579  1.00  0.00     0.261 C 
BRANCH  27  28
ATOM     28  O   UNL A   1      39.988  23.568  27.434  1.00  0.00    -0.460 OA
BRANCH  28  29
ATOM     29  C   UNL A   1      41.118  23.922  26.790  1.00  0.00     0.338 C 
ATOM     30  O   UNL A   1      41.873  23.174  26.163  1.00  0.00    -0.246 OA
BRANCH  29  31
ATOM     31  C   UNL A   1      41.440  25.313  27.092  1.00  0.00     0.060 A 
ATOM     32  C   UNL A   1      42.133  25.558  28.280  1.00  0.00     0.016 A 
ATOM     33  C   UNL A   1      40.843  26.348  26.354  1.00  0.00     0.016 A 
ATOM     34  C   UNL A   1      42.089  26.823  28.818  1.00  0.00     0.010 A 
ATOM     35  C   UNL A   1      40.784  27.608  26.901  1.00  0.00     0.010 A 
ATOM     36  C   UNL A   1      41.356  27.816  28.154  1.00  0.00    -0.014 A 
BRANCH  36  37
ATOM     37  C   UNL A   1      41.390  29.156  28.703  1.00  0.00     0.031 A 
ATOM     38  C   UNL A   1      42.658  29.835  28.350  1.00  0.00     0.074 A 
ATOM     39  C   UNL A   1      40.351  29.704  29.364  1.00  0.00     0.049 A 
ATOM     40  N   UNL A   1      43.650  30.086  29.138  1.00  0.00    -0.248 NA
ATOM     41  C   UNL A   1      42.972  30.015  26.922  1.00  0.00     0.031 C 
ATOM     42  C   UNL A   1      38.996  29.156  29.488  1.00  0.00     0.029 A 
ATOM     43  N   UNL A   1      40.242  30.927  29.956  1.00  0.00    -0.354 N 
ATOM     44  C   UNL A   1      44.586  30.736  28.335  1.00  0.00     0.074 A 
ATOM     45  C   UNL A   1      44.245  30.408  26.983  1.00  0.00     0.031 C 
ATOM     46  C   UNL A   1      38.155  30.139  29.885  1.00  0.00     0.029 A 
ATOM     47  C   UNL A   1      38.925  31.339  30.159  1.00  0.00     0.049 A 
ATOM     48  H   UNL A   1      41.022  31.469  30.216  1.00  0.00     0.167 HD
ATOM     49  C   UNL A   1      45.306  31.773  28.844  1.00  0.00     0.034 A 
ATOM     50  C   UNL A   1      38.506  32.596  30.456  1.00  0.00     0.034 A 
ATOM     51  C   UNL A   1      45.243  31.755  30.287  1.00  0.00     0.049 A 
ATOM     52  C   UNL A   1      39.673  33.330  30.984  1.00  0.00     0.074 A 
ATOM     53  C   UNL A   1      45.660  30.913  31.294  1.00  0.00     0.029 A 
ATOM     54  N   UNL A   1      44.263  32.562  30.806  1.00  0.00    -0.354 N 
ATOM     55  N   UNL A   1      40.226  33.069  32.134  1.00  0.00    -0.248 NA
ATOM     56  C   UNL A   1      40.477  34.123  30.065  1.00  0.00     0.031 C 
ATOM     57  C   UNL A   1      44.706  31.069  32.342  1.00  0.00     0.029 A 
ATOM     58  C   UNL A   1      43.781  32.047  31.972  1.00  0.00     0.049 A 
ATOM     59  H   UNL A   1      43.950  33.398  30.391  1.00  0.00     0.167 HD
ATOM     60  C   UNL A   1      41.580  33.229  31.892  1.00  0.00     0.074 A 
ATOM     61  C   UNL A   1      41.658  34.044  30.683  1.00  0.00     0.031 C 
ATOM     62  C   UNL A   1      42.485  32.412  32.504  1.00  0.00     0.034 A 
BRANCH  49  63
ATOM     63  C   UNL A   1      45.585  33.081  28.105  1.00  0.00     0.023 A 
ATOM     64  C   UNL A   1      46.950  33.434  27.961  1.00  0.00     0.012 A 
ATOM     65  C   UNL A   1      44.644  34.102  27.832  1.00  0.00     0.148 A 
ATOM     66  C   UNL A   1      47.353  34.741  27.669  1.00  0.00     0.002 A 
ATOM     67  C   UNL A   1      45.046  35.389  27.486  1.00  0.00     0.091 A 
ATOM     68  F   UNL A   1      43.341  33.889  27.992  1.00  0.00    -0.205 F 
ATOM     69  C   UNL A   1      46.400  35.723  27.439  1.00  0.00     0.022 A 
BRANCH  67  70
ATOM     70  S   UNL A   1      43.859  36.700  27.147  1.00  0.00     0.127 S 
ATOM     71  O   UNL A   1      43.206  36.846  28.444  1.00  0.00    -0.237 OA
ATOM     72  O   UNL A   1      44.742  37.802  26.768  1.00  0.00    -0.237 OA
ATOM     73  O   UNL A   1      43.013  36.208  26.067  1.00  0.00    -0.744 OA
ENDBRANCH  67  70
ENDBRANCH  49  63
BRANCH  50  74
ATOM     74  C   UNL A   1      37.246  33.314  30.135  1.00  0.00     0.023 A 
ATOM     75  C   UNL A   1      36.724  33.255  28.824  1.00  0.00     0.012 A 
ATOM     76  C   UNL A   1      36.403  33.788  31.161  1.00  0.00     0.148 A 
ATOM     77  C   UNL A   1      35.396  33.606  28.554  1.00  0.00     0.002 A 
ATOM     78  C   UNL A   1      35.083  34.139  30.888  1.00  0.00     0.091 A 
ATOM     79  F   UNL A   1      36.863  33.803  32.418  1.00  0.00    -0.205 F 
ATOM     80  C   UNL A   1      34.572  34.036  29.588  1.00  0.00     0.022 A 
BRANCH  78  81
ATOM     81  S   UNL A   1      33.945  34.664  32.177  1.00  0.00     0.127 S 
ATOM     82  O   UNL A   1      32.795  35.124  31.395  1.00  0.00    -0.237 OA
ATOM     83  O   UNL A   1      33.729  33.421  32.912  1.00  0.00    -0.237 OA
ATOM     84  O   UNL A   1      34.633  35.720  32.909  1.00  0.00    -0.744 OA
ENDBRANCH  78  81
ENDBRANCH  50  74
BRANCH  62  85
ATOM     85  C   UNL A   1      42.048  31.700  33.751  1.00  0.00     0.023 A 
ATOM     86  C   UNL A   1      41.552  30.381  33.765  1.00  0.00     0.012 A 
ATOM     87  C   UNL A   1      42.284  32.357  34.969  1.00  0.00     0.148 A 
ATOM     88  C   UNL A   1      41.287  29.739  34.980  1.00  0.00     0.002 A 
ATOM     89  C   UNL A   1      42.077  31.698  36.169  1.00  0.00     0.091 A 
ATOM     90  F   UNL A   1      42.740  33.619  34.928  1.00  0.00    -0.205 F 
ATOM     91  C   UNL A   1      41.567  30.391  36.181  1.00  0.00     0.022 A 
BRANCH  89  92
ATOM     92  S   UNL A   1      42.551  32.446  37.727  1.00  0.00     0.127 S 
ATOM     93  O   UNL A   1      41.891  31.577  38.697  1.00  0.00    -0.237 OA
ATOM     94  O   UNL A   1      44.010  32.336  37.696  1.00  0.00    -0.237 OA
ATOM     95  O   UNL A   1      42.061  33.819  37.677  1.00  0.00    -0.744 OA
ENDBRANCH  89  92
ENDBRANCH  62  85
ENDBRANCH  36  37
ENDBRANCH  29  31
ENDBRANCH  28  29
ENDBRANCH  27  28
ENDBRANCH  26  27
ENDBRANCH   1  26
TORSDOF 20
ENDMDL
