MODEL 1
REMARK VINA RESULT:     -10.8      0.000      0.000
REMARK SMILES CC[C@H]1CC[C@](NC(=O)C[NH2+]CC(F)(F)F)(C(=O)OCCOCCOC(=O)c2ccc(-c3c4nc(c(-c5cccc(S(=O)(=O)[O-])c5F)c5ccc([nH]5)c(-c5cccc(S(=O)(=O)[O-])c5F)c5nc(c(-c6cccc(S(=O)(=O)[O-])c6F)c6ccc3[nH]6)C=C5)C=C4)cc2)CC1
REMARK SMILES IDX 21 1 20 2 19 3 17 4 18 5 6 6 3 7 92 8 4 9 91 10 5 11 2 12
REMARK SMILES IDX 1 13 7 14 8 15 9 17 10 18 11 19 12 22 13 23 14 24 15 25
REMARK SMILES IDX 16 26 22 27 23 28 24 29 25 30 26 31 27 32 28 33 29 34 90 35
REMARK SMILES IDX 30 36 89 37 31 38 32 39 33 40 83 41 34 42 88 43 82 44 84 45
REMARK SMILES IDX 35 46 87 47 81 48 80 49 36 51 68 52 48 53 67 54 49 55 52 56
REMARK SMILES IDX 66 57 85 58 50 59 51 60 65 62 86 63 53 64 37 65 38 66 46 67
REMARK SMILES IDX 39 68 41 69 47 70 40 71 42 72 43 73 44 74 45 75 69 76 70 77
REMARK SMILES IDX 78 78 71 79 73 80 79 81 72 82 74 83 75 84 76 85 77 86 54 87
REMARK SMILES IDX 55 88 63 89 56 90 58 91 64 92 57 93 59 94 60 95 61 96 62 97
REMARK H PARENT 7 16 11 20 11 21 84 50 52 61
REMARK Flexibility Score: inf
ROOT
ATOM      1  C   UNL A   1      34.192  22.781  23.326  1.00  0.00     0.202 C 
ENDROOT
BRANCH   1   2
ATOM      2  C   UNL A   1      32.837  23.250  22.792  1.00  0.00     0.261 C 
BRANCH   2   3
ATOM      3  O   UNL A   1      32.700  24.669  22.611  1.00  0.00    -0.461 OA
BRANCH   3   4
ATOM      4  C   UNL A   1      31.698  25.258  23.327  1.00  0.00     0.331 C 
ATOM      5  O   UNL A   1      30.570  24.790  23.445  1.00  0.00    -0.249 OA
BRANCH   4   6
ATOM      6  C   UNL A   1      32.113  26.639  23.911  1.00  0.00     0.138 C 
ATOM      7  C   UNL A   1      33.277  27.901  26.414  1.00  0.00    -0.011 C 
ATOM      8  C   UNL A   1      31.766  27.847  26.190  1.00  0.00     0.006 C 
ATOM      9  C   UNL A   1      34.000  27.990  25.061  1.00  0.00     0.006 C 
ATOM     10  C   UNL A   1      31.387  26.671  25.292  1.00  0.00     0.041 C 
ATOM     11  C   UNL A   1      33.635  26.817  24.133  1.00  0.00     0.041 C 
BRANCH   7  12
ATOM     12  C   UNL A   1      33.678  29.010  27.406  1.00  0.00    -0.000 C 
ATOM     13  C   UNL A   1      32.866  30.295  27.334  1.00  0.00     0.004 C 
ENDBRANCH   7  12
BRANCH   6  14
ATOM     14  N   UNL A   1      31.587  27.768  23.101  1.00  0.00    -0.335 N 
ATOM     15  C   UNL A   1      30.327  28.102  22.699  1.00  0.00     0.276 C 
ATOM     16  H   UNL A   1      32.282  28.397  22.797  1.00  0.00     0.164 HD
ATOM     17  O   UNL A   1      30.237  28.699  21.623  1.00  0.00    -0.268 OA
BRANCH  15  18
ATOM     18  C   UNL A   1      29.105  27.887  23.600  1.00  0.00     0.362 C 
BRANCH  18  19
ATOM     19  N   UNL A   1      27.840  28.124  22.891  1.00  0.00    -0.331 N 
ATOM     20  H   UNL A   1      27.208  27.344  23.072  1.00  0.00     0.346 HD
ATOM     21  H   UNL A   1      28.040  28.203  21.894  1.00  0.00     0.346 HD
BRANCH  19  22
ATOM     22  C   UNL A   1      27.195  29.386  23.342  1.00  0.00     0.378 C 
BRANCH  22  23
ATOM     23  C   UNL A   1      27.877  30.760  23.155  1.00  0.00     0.438 C 
ATOM     24  F   UNL A   1      27.080  31.784  23.507  1.00  0.00    -0.165 F 
ATOM     25  F   UNL A   1      28.988  30.814  23.935  1.00  0.00    -0.165 F 
ATOM     26  F   UNL A   1      28.289  30.943  21.880  1.00  0.00    -0.165 F 
ENDBRANCH  22  23
ENDBRANCH  19  22
ENDBRANCH  18  19
ENDBRANCH  15  18
ENDBRANCH   6  14
ENDBRANCH   4   6
ENDBRANCH   3   4
ENDBRANCH   2   3
ENDBRANCH   1   2
BRANCH   1  27
ATOM     27  O   UNL A   1      35.310  23.629  23.109  1.00  0.00    -0.374 OA
BRANCH  27  28
ATOM     28  C   UNL A   1      36.599  23.128  23.461  1.00  0.00     0.202 C 
BRANCH  28  29
ATOM     29  C   UNL A   1      36.671  21.823  24.267  1.00  0.00     0.261 C 
BRANCH  29  30
ATOM     30  O   UNL A   1      37.072  22.031  25.641  1.00  0.00    -0.460 OA
BRANCH  30  31
ATOM     31  C   UNL A   1      38.393  21.836  25.877  1.00  0.00     0.338 C 
ATOM     32  O   UNL A   1      39.085  20.931  25.428  1.00  0.00    -0.246 OA
BRANCH  31  33
ATOM     33  C   UNL A   1      38.988  22.924  26.674  1.00  0.00     0.060 A 
ATOM     34  C   UNL A   1      38.429  24.203  26.547  1.00  0.00     0.016 A 
ATOM     35  C   UNL A   1      40.199  22.746  27.347  1.00  0.00     0.016 A 
ATOM     36  C   UNL A   1      39.122  25.320  27.020  1.00  0.00     0.010 A 
ATOM     37  C   UNL A   1      40.895  23.869  27.815  1.00  0.00     0.010 A 
ATOM     38  C   UNL A   1      40.387  25.164  27.601  1.00  0.00    -0.014 A 
BRANCH  38  39
ATOM     39  C   UNL A   1      41.252  26.357  27.805  1.00  0.00     0.031 A 
ATOM     40  C   UNL A   1      40.705  27.538  28.566  1.00  0.00     0.074 A 
ATOM     41  C   UNL A   1      42.512  26.393  27.335  1.00  0.00     0.049 A 
ATOM     42  N   UNL A   1      41.286  28.672  28.868  1.00  0.00    -0.248 NA
ATOM     43  C   UNL A   1      39.319  27.428  29.054  1.00  0.00     0.031 C 
ATOM     44  C   UNL A   1      43.166  25.327  26.580  1.00  0.00     0.029 A 
ATOM     45  N   UNL A   1      43.461  27.384  27.411  1.00  0.00    -0.354 N 
ATOM     46  C   UNL A   1      40.337  29.415  29.559  1.00  0.00     0.074 A 
ATOM     47  C   UNL A   1      39.135  28.611  29.622  1.00  0.00     0.031 C 
ATOM     48  C   UNL A   1      44.401  25.729  26.238  1.00  0.00     0.029 A 
ATOM     49  C   UNL A   1      44.622  27.086  26.740  1.00  0.00     0.049 A 
ATOM     50  H   UNL A   1      43.320  28.227  27.898  1.00  0.00     0.167 HD
ATOM     51  C   UNL A   1      40.455  30.646  30.113  1.00  0.00     0.034 A 
ATOM     52  C   UNL A   1      45.734  27.826  26.545  1.00  0.00     0.034 A 
ATOM     53  C   UNL A   1      41.652  31.440  30.083  1.00  0.00     0.049 A 
ATOM     54  C   UNL A   1      45.836  29.197  27.161  1.00  0.00     0.074 A 
ATOM     55  C   UNL A   1      41.876  32.679  30.661  1.00  0.00     0.029 A 
ATOM     56  N   UNL A   1      42.824  31.082  29.439  1.00  0.00    -0.354 N 
ATOM     57  N   UNL A   1      44.977  29.826  27.928  1.00  0.00    -0.248 NA
ATOM     58  C   UNL A   1      47.077  29.948  26.914  1.00  0.00     0.031 C 
ATOM     59  C   UNL A   1      43.186  33.072  30.359  1.00  0.00     0.029 A 
ATOM     60  C   UNL A   1      43.774  32.075  29.599  1.00  0.00     0.049 A 
ATOM     61  H   UNL A   1      42.961  30.243  28.941  1.00  0.00     0.167 HD
ATOM     62  C   UNL A   1      45.587  31.026  28.281  1.00  0.00     0.074 A 
ATOM     63  C   UNL A   1      46.895  31.030  27.659  1.00  0.00     0.031 C 
ATOM     64  C   UNL A   1      45.100  32.041  29.036  1.00  0.00     0.034 A 
BRANCH  51  65
ATOM     65  C   UNL A   1      39.266  31.192  30.855  1.00  0.00     0.023 A 
ATOM     66  C   UNL A   1      39.255  31.144  32.264  1.00  0.00     0.012 A 
ATOM     67  C   UNL A   1      38.197  31.805  30.174  1.00  0.00     0.148 A 
ATOM     68  C   UNL A   1      38.187  31.679  32.983  1.00  0.00     0.002 A 
ATOM     69  C   UNL A   1      37.151  32.365  30.899  1.00  0.00     0.091 A 
ATOM     70  F   UNL A   1      38.214  31.816  28.833  1.00  0.00    -0.205 F 
ATOM     71  C   UNL A   1      37.143  32.299  32.302  1.00  0.00     0.022 A 
BRANCH  69  72
ATOM     72  S   UNL A   1      35.794  33.237  30.107  1.00  0.00     0.127 S 
ATOM     73  O   UNL A   1      35.010  33.673  31.262  1.00  0.00    -0.237 OA
ATOM     74  O   UNL A   1      36.484  34.315  29.398  1.00  0.00    -0.237 OA
ATOM     75  O   UNL A   1      35.151  32.260  29.239  1.00  0.00    -0.744 OA
ENDBRANCH  69  72
ENDBRANCH  51  65
BRANCH  52  76
ATOM     76  C   UNL A   1      46.871  27.263  25.767  1.00  0.00     0.023 A 
ATOM     77  C   UNL A   1      47.674  26.261  26.344  1.00  0.00     0.012 A 
ATOM     78  C   UNL A   1      47.155  27.706  24.461  1.00  0.00     0.148 A 
ATOM     79  C   UNL A   1      48.755  25.725  25.642  1.00  0.00     0.002 A 
ATOM     80  C   UNL A   1      48.205  27.136  23.750  1.00  0.00     0.091 A 
ATOM     81  F   UNL A   1      46.396  28.682  23.940  1.00  0.00    -0.205 F 
ATOM     82  C   UNL A   1      49.013  26.154  24.342  1.00  0.00     0.022 A 
BRANCH  80  83
ATOM     83  S   UNL A   1      48.535  27.563  22.037  1.00  0.00     0.127 S 
ATOM     84  O   UNL A   1      48.707  26.247  21.428  1.00  0.00    -0.237 OA
ATOM     85  O   UNL A   1      47.308  28.263  21.651  1.00  0.00    -0.237 OA
ATOM     86  O   UNL A   1      49.719  28.410  22.074  1.00  0.00    -0.744 OA
ENDBRANCH  80  83
ENDBRANCH  52  76
BRANCH  64  87
ATOM     87  C   UNL A   1      45.983  33.239  29.265  1.00  0.00     0.023 A 
ATOM     88  C   UNL A   1      46.866  33.250  30.363  1.00  0.00     0.012 A 
ATOM     89  C   UNL A   1      46.006  34.310  28.349  1.00  0.00     0.148 A 
ATOM     90  C   UNL A   1      47.740  34.318  30.559  1.00  0.00     0.002 A 
ATOM     91  C   UNL A   1      46.909  35.353  28.529  1.00  0.00     0.091 A 
ATOM     92  F   UNL A   1      45.144  34.294  27.321  1.00  0.00    -0.205 F 
ATOM     93  C   UNL A   1      47.771  35.362  29.636  1.00  0.00     0.022 A 
BRANCH  91  94
ATOM     94  S   UNL A   1      47.070  36.689  27.337  1.00  0.00     0.127 S 
ATOM     95  O   UNL A   1      46.958  35.974  26.068  1.00  0.00    -0.237 OA
ATOM     96  O   UNL A   1      45.924  37.541  27.659  1.00  0.00    -0.237 OA
ATOM     97  O   UNL A   1      48.364  37.301  27.606  1.00  0.00    -0.744 OA
ENDBRANCH  91  94
ENDBRANCH  64  87
ENDBRANCH  38  39
ENDBRANCH  31  33
ENDBRANCH  30  31
ENDBRANCH  29  30
ENDBRANCH  28  29
ENDBRANCH  27  28
ENDBRANCH   1  27
TORSDOF 23
ENDMDL
MODEL 2
REMARK VINA RESULT:     -10.8      5.526      8.295
REMARK SMILES CC[C@H]1CC[C@](NC(=O)C[NH2+]CC(F)(F)F)(C(=O)OCCOCCOC(=O)c2ccc(-c3c4nc(c(-c5cccc(S(=O)(=O)[O-])c5F)c5ccc([nH]5)c(-c5cccc(S(=O)(=O)[O-])c5F)c5nc(c(-c6cccc(S(=O)(=O)[O-])c6F)c6ccc3[nH]6)C=C5)C=C4)cc2)CC1
REMARK SMILES IDX 21 1 20 2 19 3 17 4 18 5 6 6 3 7 92 8 4 9 91 10 5 11 2 12
REMARK SMILES IDX 1 13 7 14 8 15 9 17 10 18 11 19 12 22 13 23 14 24 15 25
REMARK SMILES IDX 16 26 22 27 23 28 24 29 25 30 26 31 27 32 28 33 29 34 90 35
REMARK SMILES IDX 30 36 89 37 31 38 32 39 33 40 83 41 34 42 88 43 82 44 84 45
REMARK SMILES IDX 35 46 87 47 81 48 80 49 36 51 68 52 48 53 67 54 49 55 52 56
REMARK SMILES IDX 66 57 85 58 50 59 51 60 65 62 86 63 53 64 37 65 38 66 46 67
REMARK SMILES IDX 39 68 41 69 47 70 40 71 42 72 43 73 44 74 45 75 69 76 70 77
REMARK SMILES IDX 78 78 71 79 73 80 79 81 72 82 74 83 75 84 76 85 77 86 54 87
REMARK SMILES IDX 55 88 63 89 56 90 58 91 64 92 57 93 59 94 60 95 61 96 62 97
REMARK H PARENT 7 16 11 20 11 21 84 50 52 61
REMARK Flexibility Score: inf
ROOT
ATOM      1  C   UNL A   1      32.827  28.917  23.648  1.00  0.00     0.202 C 
ENDROOT
BRANCH   1   2
ATOM      2  C   UNL A   1      33.050  27.453  23.260  1.00  0.00     0.261 C 
BRANCH   2   3
ATOM      3  O   UNL A   1      34.100  26.778  23.970  1.00  0.00    -0.461 OA
BRANCH   3   4
ATOM      4  C   UNL A   1      33.705  26.063  25.064  1.00  0.00     0.331 C 
ATOM      5  O   UNL A   1      33.486  26.557  26.166  1.00  0.00    -0.249 OA
BRANCH   4   6
ATOM      6  C   UNL A   1      33.641  24.533  24.788  1.00  0.00     0.138 C 
ATOM      7  C   UNL A   1      32.396  22.516  22.893  1.00  0.00    -0.011 C 
ATOM      8  C   UNL A   1      31.740  22.845  24.235  1.00  0.00     0.006 C 
ATOM      9  C   UNL A   1      33.919  22.672  23.008  1.00  0.00     0.006 C 
ATOM     10  C   UNL A   1      32.109  24.254  24.694  1.00  0.00     0.041 C 
ATOM     11  C   UNL A   1      34.322  24.085  23.472  1.00  0.00     0.041 C 
BRANCH   7  12
ATOM     12  C   UNL A   1      31.952  21.143  22.351  1.00  0.00    -0.000 C 
ATOM     13  C   UNL A   1      32.335  19.937  23.197  1.00  0.00     0.004 C 
ENDBRANCH   7  12
BRANCH   6  14
ATOM     14  N   UNL A   1      34.173  23.739  25.925  1.00  0.00    -0.335 N 
ATOM     15  C   UNL A   1      35.386  23.157  26.152  1.00  0.00     0.276 C 
ATOM     16  H   UNL A   1      33.526  23.607  26.656  1.00  0.00     0.164 HD
ATOM     17  O   UNL A   1      35.381  22.132  26.838  1.00  0.00    -0.268 OA
BRANCH  15  18
ATOM     18  C   UNL A   1      36.697  23.819  25.710  1.00  0.00     0.362 C 
BRANCH  18  19
ATOM     19  N   UNL A   1      37.841  23.391  26.527  1.00  0.00    -0.331 N 
ATOM     20  H   UNL A   1      37.509  23.148  27.461  1.00  0.00     0.346 HD
ATOM     21  H   UNL A   1      38.511  24.160  26.570  1.00  0.00     0.346 HD
BRANCH  19  22
ATOM     22  C   UNL A   1      38.521  22.210  25.930  1.00  0.00     0.378 C 
BRANCH  22  23
ATOM     23  C   UNL A   1      39.938  21.780  26.369  1.00  0.00     0.438 C 
ATOM     24  F   UNL A   1      40.905  22.449  25.717  1.00  0.00    -0.165 F 
ATOM     25  F   UNL A   1      40.087  22.027  27.696  1.00  0.00    -0.165 F 
ATOM     26  F   UNL A   1      40.133  20.453  26.198  1.00  0.00    -0.165 F 
ENDBRANCH  22  23
ENDBRANCH  19  22
ENDBRANCH  18  19
ENDBRANCH  15  18
ENDBRANCH   6  14
ENDBRANCH   4   6
ENDBRANCH   3   4
ENDBRANCH   2   3
ENDBRANCH   1   2
BRANCH   1  27
ATOM     27  O   UNL A   1      31.610  29.242  24.300  1.00  0.00    -0.374 OA
BRANCH  27  28
ATOM     28  C   UNL A   1      31.691  29.846  25.591  1.00  0.00     0.202 C 
BRANCH  28  29
ATOM     29  C   UNL A   1      33.083  30.178  26.146  1.00  0.00     0.261 C 
BRANCH  29  30
ATOM     30  O   UNL A   1      33.049  30.632  27.519  1.00  0.00    -0.460 OA
BRANCH  30  31
ATOM     31  C   UNL A   1      33.920  31.633  27.802  1.00  0.00     0.338 C 
ATOM     32  O   UNL A   1      33.644  32.819  27.937  1.00  0.00    -0.246 OA
BRANCH  31  33
ATOM     33  C   UNL A   1      35.284  31.137  28.054  1.00  0.00     0.060 A 
ATOM     34  C   UNL A   1      35.429  29.791  28.420  1.00  0.00     0.016 A 
ATOM     35  C   UNL A   1      36.365  32.016  28.156  1.00  0.00     0.016 A 
ATOM     36  C   UNL A   1      36.631  29.340  28.969  1.00  0.00     0.010 A 
ATOM     37  C   UNL A   1      37.569  31.561  28.712  1.00  0.00     0.010 A 
ATOM     38  C   UNL A   1      37.687  30.237  29.175  1.00  0.00    -0.014 A 
BRANCH  38  39
ATOM     39  C   UNL A   1      38.828  29.840  30.041  1.00  0.00     0.031 A 
ATOM     40  C   UNL A   1      38.974  30.477  31.400  1.00  0.00     0.074 A 
ATOM     41  C   UNL A   1      39.720  28.915  29.641  1.00  0.00     0.049 A 
ATOM     42  N   UNL A   1      39.883  30.273  32.319  1.00  0.00    -0.248 NA
ATOM     43  C   UNL A   1      37.960  31.479  31.774  1.00  0.00     0.031 C 
ATOM     44  C   UNL A   1      39.703  28.224  28.354  1.00  0.00     0.029 A 
ATOM     45  N   UNL A   1      40.830  28.417  30.278  1.00  0.00    -0.354 N 
ATOM     46  C   UNL A   1      39.566  31.128  33.368  1.00  0.00     0.074 A 
ATOM     47  C   UNL A   1      38.387  31.867  32.968  1.00  0.00     0.031 C 
ATOM     48  C   UNL A   1      40.768  27.408  28.283  1.00  0.00     0.029 A 
ATOM     49  C   UNL A   1      41.549  27.528  29.516  1.00  0.00     0.049 A 
ATOM     50  H   UNL A   1      41.087  28.673  31.192  1.00  0.00     0.167 HD
ATOM     51  C   UNL A   1      40.181  31.274  34.566  1.00  0.00     0.034 A 
ATOM     52  C   UNL A   1      42.708  26.890  29.777  1.00  0.00     0.034 A 
ATOM     53  C   UNL A   1      41.333  30.525  34.986  1.00  0.00     0.049 A 
ATOM     54  C   UNL A   1      43.381  27.080  31.112  1.00  0.00     0.074 A 
ATOM     55  C   UNL A   1      41.994  30.575  36.202  1.00  0.00     0.029 A 
ATOM     56  N   UNL A   1      42.001  29.597  34.206  1.00  0.00    -0.354 N 
ATOM     57  N   UNL A   1      42.989  27.790  32.142  1.00  0.00    -0.248 NA
ATOM     58  C   UNL A   1      44.640  26.350  31.334  1.00  0.00     0.031 C 
ATOM     59  C   UNL A   1      43.067  29.677  36.153  1.00  0.00     0.029 A 
ATOM     60  C   UNL A   1      43.069  29.069  34.909  1.00  0.00     0.049 A 
ATOM     61  H   UNL A   1      41.751  29.349  33.286  1.00  0.00     0.167 HD
ATOM     62  C   UNL A   1      43.931  27.565  33.142  1.00  0.00     0.074 A 
ATOM     63  C   UNL A   1      44.904  26.640  32.601  1.00  0.00     0.031 C 
ATOM     64  C   UNL A   1      43.994  28.095  34.389  1.00  0.00     0.034 A 
BRANCH  51  65
ATOM     65  C   UNL A   1      39.583  32.252  35.540  1.00  0.00     0.023 A 
ATOM     66  C   UNL A   1      38.544  31.823  36.391  1.00  0.00     0.012 A 
ATOM     67  C   UNL A   1      40.082  33.563  35.662  1.00  0.00     0.148 A 
ATOM     68  C   UNL A   1      37.997  32.692  37.335  1.00  0.00     0.002 A 
ATOM     69  C   UNL A   1      39.553  34.413  36.626  1.00  0.00     0.091 A 
ATOM     70  F   UNL A   1      41.051  33.959  34.823  1.00  0.00    -0.205 F 
ATOM     71  C   UNL A   1      38.508  33.981  37.459  1.00  0.00     0.022 A 
BRANCH  69  72
ATOM     72  S   UNL A   1      40.191  36.071  36.898  1.00  0.00     0.127 S 
ATOM     73  O   UNL A   1      39.863  36.723  35.632  1.00  0.00    -0.237 OA
ATOM     74  O   UNL A   1      39.399  36.528  38.041  1.00  0.00    -0.237 OA
ATOM     75  O   UNL A   1      41.611  35.906  37.176  1.00  0.00    -0.744 OA
ENDBRANCH  69  72
ENDBRANCH  51  65
BRANCH  52  76
ATOM     76  C   UNL A   1      43.289  25.964  28.766  1.00  0.00     0.023 A 
ATOM     77  C   UNL A   1      42.900  24.611  28.764  1.00  0.00     0.012 A 
ATOM     78  C   UNL A   1      44.214  26.416  27.805  1.00  0.00     0.148 A 
ATOM     79  C   UNL A   1      43.438  23.719  27.836  1.00  0.00     0.002 A 
ATOM     80  C   UNL A   1      44.712  25.531  26.855  1.00  0.00     0.091 A 
ATOM     81  F   UNL A   1      44.594  27.702  27.843  1.00  0.00    -0.205 F 
ATOM     82  C   UNL A   1      44.334  24.180  26.875  1.00  0.00     0.022 A 
BRANCH  80  83
ATOM     83  S   UNL A   1      45.791  26.075  25.525  1.00  0.00     0.127 S 
ATOM     84  O   UNL A   1      47.032  26.354  26.242  1.00  0.00    -0.237 OA
ATOM     85  O   UNL A   1      45.832  24.895  24.660  1.00  0.00    -0.237 OA
ATOM     86  O   UNL A   1      45.121  27.226  24.935  1.00  0.00    -0.744 OA
ENDBRANCH  80  83
ENDBRANCH  52  76
BRANCH  64  87
ATOM     87  C   UNL A   1      45.134  27.674  35.278  1.00  0.00     0.023 A 
ATOM     88  C   UNL A   1      46.316  28.440  35.301  1.00  0.00     0.012 A 
ATOM     89  C   UNL A   1      45.005  26.577  36.154  1.00  0.00     0.148 A 
ATOM     90  C   UNL A   1      47.359  28.109  36.164  1.00  0.00     0.002 A 
ATOM     91  C   UNL A   1      46.034  26.276  37.040  1.00  0.00     0.091 A 
ATOM     92  F   UNL A   1      43.882  25.845  36.104  1.00  0.00    -0.205 F 
ATOM     93  C   UNL A   1      47.214  27.036  37.042  1.00  0.00     0.022 A 
BRANCH  91  94
ATOM     94  S   UNL A   1      45.886  24.965  38.261  1.00  0.00     0.127 S 
ATOM     95  O   UNL A   1      47.286  24.677  38.564  1.00  0.00    -0.237 OA
ATOM     96  O   UNL A   1      45.151  25.621  39.344  1.00  0.00    -0.237 OA
ATOM     97  O   UNL A   1      45.148  23.897  37.602  1.00  0.00    -0.744 OA
ENDBRANCH  91  94
ENDBRANCH  64  87
ENDBRANCH  38  39
ENDBRANCH  31  33
ENDBRANCH  30  31
ENDBRANCH  29  30
ENDBRANCH  28  29
ENDBRANCH  27  28
ENDBRANCH   1  27
TORSDOF 23
ENDMDL
MODEL 3
REMARK VINA RESULT:     -10.6      5.216      7.918
REMARK SMILES CC[C@H]1CC[C@](NC(=O)C[NH2+]CC(F)(F)F)(C(=O)OCCOCCOC(=O)c2ccc(-c3c4nc(c(-c5cccc(S(=O)(=O)[O-])c5F)c5ccc([nH]5)c(-c5cccc(S(=O)(=O)[O-])c5F)c5nc(c(-c6cccc(S(=O)(=O)[O-])c6F)c6ccc3[nH]6)C=C5)C=C4)cc2)CC1
REMARK SMILES IDX 21 1 20 2 19 3 17 4 18 5 6 6 3 7 92 8 4 9 91 10 5 11 2 12
REMARK SMILES IDX 1 13 7 14 8 15 9 17 10 18 11 19 12 22 13 23 14 24 15 25
REMARK SMILES IDX 16 26 22 27 23 28 24 29 25 30 26 31 27 32 28 33 29 34 90 35
REMARK SMILES IDX 30 36 89 37 31 38 32 39 33 40 83 41 34 42 88 43 82 44 84 45
REMARK SMILES IDX 35 46 87 47 81 48 80 49 36 51 68 52 48 53 67 54 49 55 52 56
REMARK SMILES IDX 66 57 85 58 50 59 51 60 65 62 86 63 53 64 37 65 38 66 46 67
REMARK SMILES IDX 39 68 41 69 47 70 40 71 42 72 43 73 44 74 45 75 69 76 70 77
REMARK SMILES IDX 78 78 71 79 73 80 79 81 72 82 74 83 75 84 76 85 77 86 54 87
REMARK SMILES IDX 55 88 63 89 56 90 58 91 64 92 57 93 59 94 60 95 61 96 62 97
REMARK H PARENT 7 16 11 20 11 21 84 50 52 61
REMARK Flexibility Score: inf
ROOT
ATOM      1  C   UNL A   1      32.520  27.591  26.917  1.00  0.00     0.202 C 
ENDROOT
BRANCH   1   2
ATOM      2  C   UNL A   1      31.785  26.357  26.387  1.00  0.00     0.261 C 
BRANCH   2   3
ATOM      3  O   UNL A   1      32.592  25.181  26.219  1.00  0.00    -0.461 OA
BRANCH   3   4
ATOM      4  C   UNL A   1      31.903  24.019  26.021  1.00  0.00     0.331 C 
ATOM      5  O   UNL A   1      30.823  23.762  26.544  1.00  0.00    -0.249 OA
BRANCH   4   6
ATOM      6  C   UNL A   1      32.676  23.011  25.123  1.00  0.00     0.138 C 
ATOM      7  C   UNL A   1      33.664  20.141  25.090  1.00  0.00    -0.011 C 
ATOM      8  C   UNL A   1      34.582  21.284  25.523  1.00  0.00     0.006 C 
ATOM      9  C   UNL A   1      32.652  20.652  24.053  1.00  0.00     0.006 C 
ATOM     10  C   UNL A   1      33.774  22.454  26.082  1.00  0.00     0.041 C 
ATOM     11  C   UNL A   1      31.823  21.834  24.589  1.00  0.00     0.041 C 
BRANCH   7  12
ATOM     12  C   UNL A   1      34.456  18.904  24.625  1.00  0.00    -0.000 C 
ATOM     13  C   UNL A   1      33.633  17.660  24.321  1.00  0.00     0.004 C 
ENDBRANCH   7  12
BRANCH   6  14
ATOM     14  N   UNL A   1      33.367  23.685  23.994  1.00  0.00    -0.335 N 
ATOM     15  C   UNL A   1      32.903  24.282  22.858  1.00  0.00     0.276 C 
ATOM     16  H   UNL A   1      34.348  23.704  24.082  1.00  0.00     0.164 HD
ATOM     17  O   UNL A   1      33.645  24.234  21.873  1.00  0.00    -0.268 OA
BRANCH  15  18
ATOM     18  C   UNL A   1      31.606  25.099  22.845  1.00  0.00     0.362 C 
BRANCH  18  19
ATOM     19  N   UNL A   1      31.650  26.202  21.875  1.00  0.00    -0.331 N 
ATOM     20  H   UNL A   1      30.767  26.231  21.365  1.00  0.00     0.346 HD
ATOM     21  H   UNL A   1      32.430  26.038  21.237  1.00  0.00     0.346 HD
BRANCH  19  22
ATOM     22  C   UNL A   1      31.864  27.510  22.551  1.00  0.00     0.378 C 
BRANCH  22  23
ATOM     23  C   UNL A   1      30.688  28.459  22.876  1.00  0.00     0.438 C 
ATOM     24  F   UNL A   1      29.517  28.014  22.389  1.00  0.00    -0.165 F 
ATOM     25  F   UNL A   1      30.563  28.566  24.224  1.00  0.00    -0.165 F 
ATOM     26  F   UNL A   1      30.911  29.708  22.407  1.00  0.00    -0.165 F 
ENDBRANCH  22  23
ENDBRANCH  19  22
ENDBRANCH  18  19
ENDBRANCH  15  18
ENDBRANCH   6  14
ENDBRANCH   4   6
ENDBRANCH   3   4
ENDBRANCH   2   3
ENDBRANCH   1   2
BRANCH   1  27
ATOM     27  O   UNL A   1      31.741  28.592  27.554  1.00  0.00    -0.374 OA
BRANCH  27  28
ATOM     28  C   UNL A   1      31.861  29.930  27.072  1.00  0.00     0.202 C 
BRANCH  28  29
ATOM     29  C   UNL A   1      33.271  30.505  26.882  1.00  0.00     0.261 C 
BRANCH  29  30
ATOM     30  O   UNL A   1      33.690  31.346  27.982  1.00  0.00    -0.460 OA
BRANCH  30  31
ATOM     31  C   UNL A   1      34.971  31.782  27.899  1.00  0.00     0.338 C 
ATOM     32  O   UNL A   1      35.336  32.943  27.761  1.00  0.00    -0.246 OA
BRANCH  31  33
ATOM     33  C   UNL A   1      35.948  30.699  28.110  1.00  0.00     0.060 A 
ATOM     34  C   UNL A   1      35.900  30.007  29.328  1.00  0.00     0.016 A 
ATOM     35  C   UNL A   1      37.025  30.519  27.238  1.00  0.00     0.016 A 
ATOM     36  C   UNL A   1      36.969  29.198  29.717  1.00  0.00     0.010 A 
ATOM     37  C   UNL A   1      38.100  29.710  27.634  1.00  0.00     0.010 A 
ATOM     38  C   UNL A   1      38.102  29.094  28.899  1.00  0.00    -0.014 A 
BRANCH  38  39
ATOM     39  C   UNL A   1      39.352  28.506  29.450  1.00  0.00     0.031 A 
ATOM     40  C   UNL A   1      39.961  29.108  30.692  1.00  0.00     0.074 A 
ATOM     41  C   UNL A   1      39.939  27.443  28.870  1.00  0.00     0.049 A 
ATOM     42  N   UNL A   1      41.036  28.750  31.346  1.00  0.00    -0.248 NA
ATOM     43  C   UNL A   1      39.264  30.268  31.276  1.00  0.00     0.031 C 
ATOM     44  C   UNL A   1      39.462  26.766  27.666  1.00  0.00     0.029 A 
ATOM     45  N   UNL A   1      41.081  26.762  29.212  1.00  0.00    -0.354 N 
ATOM     46  C   UNL A   1      41.158  29.646  32.402  1.00  0.00     0.074 A 
ATOM     47  C   UNL A   1      40.053  30.576  32.295  1.00  0.00     0.031 C 
ATOM     48  C   UNL A   1      40.320  25.780  27.353  1.00  0.00     0.029 A 
ATOM     49  C   UNL A   1      41.412  25.763  28.328  1.00  0.00     0.049 A 
ATOM     50  H   UNL A   1      41.612  26.969  30.014  1.00  0.00     0.167 HD
ATOM     51  C   UNL A   1      42.087  29.684  33.386  1.00  0.00     0.034 A 
ATOM     52  C   UNL A   1      42.477  24.936  28.302  1.00  0.00     0.034 A 
ATOM     53  C   UNL A   1      43.170  28.749  33.519  1.00  0.00     0.049 A 
ATOM     54  C   UNL A   1      43.505  25.007  29.402  1.00  0.00     0.074 A 
ATOM     55  C   UNL A   1      44.131  28.683  34.514  1.00  0.00     0.029 A 
ATOM     56  N   UNL A   1      43.441  27.720  32.633  1.00  0.00    -0.354 N 
ATOM     57  N   UNL A   1      43.526  25.773  30.466  1.00  0.00    -0.248 NA
ATOM     58  C   UNL A   1      44.638  24.073  29.315  1.00  0.00     0.031 C 
ATOM     59  C   UNL A   1      44.989  27.615  34.224  1.00  0.00     0.029 A 
ATOM     60  C   UNL A   1      44.556  27.016  33.052  1.00  0.00     0.049 A 
ATOM     61  H   UNL A   1      42.916  27.519  31.824  1.00  0.00     0.167 HD
ATOM     62  C   UNL A   1      44.652  25.390  31.190  1.00  0.00     0.074 A 
ATOM     63  C   UNL A   1      45.277  24.312  30.453  1.00  0.00     0.031 C 
ATOM     64  C   UNL A   1      45.134  25.899  32.350  1.00  0.00     0.034 A 
BRANCH  51  65
ATOM     65  C   UNL A   1      41.943  30.748  34.439  1.00  0.00     0.023 A 
ATOM     66  C   UNL A   1      41.223  30.456  35.616  1.00  0.00     0.012 A 
ATOM     67  C   UNL A   1      42.563  32.005  34.300  1.00  0.00     0.148 A 
ATOM     68  C   UNL A   1      41.106  31.406  36.630  1.00  0.00     0.002 A 
ATOM     69  C   UNL A   1      42.468  32.935  35.330  1.00  0.00     0.091 A 
ATOM     70  F   UNL A   1      43.219  32.273  33.161  1.00  0.00    -0.205 F 
ATOM     71  C   UNL A   1      41.737  32.639  36.491  1.00  0.00     0.022 A 
BRANCH  69  72
ATOM     72  S   UNL A   1      43.300  34.526  35.263  1.00  0.00     0.127 S 
ATOM     73  O   UNL A   1      44.698  34.136  35.429  1.00  0.00    -0.237 OA
ATOM     74  O   UNL A   1      42.957  35.003  33.922  1.00  0.00    -0.237 OA
ATOM     75  O   UNL A   1      42.730  35.315  36.346  1.00  0.00    -0.744 OA
ENDBRANCH  69  72
ENDBRANCH  51  65
BRANCH  52  76
ATOM     76  C   UNL A   1      42.604  23.926  27.216  1.00  0.00     0.023 A 
ATOM     77  C   UNL A   1      43.311  24.255  26.045  1.00  0.00     0.012 A 
ATOM     78  C   UNL A   1      42.038  22.642  27.340  1.00  0.00     0.148 A 
ATOM     79  C   UNL A   1      43.435  23.332  25.006  1.00  0.00     0.002 A 
ATOM     80  C   UNL A   1      42.202  21.712  26.320  1.00  0.00     0.091 A 
ATOM     81  F   UNL A   1      41.342  22.358  28.451  1.00  0.00    -0.205 F 
ATOM     82  C   UNL A   1      42.891  22.058  25.148  1.00  0.00     0.022 A 
BRANCH  80  83
ATOM     83  S   UNL A   1      41.619  20.020  26.475  1.00  0.00     0.127 S 
ATOM     84  O   UNL A   1      42.118  19.651  27.797  1.00  0.00    -0.237 OA
ATOM     85  O   UNL A   1      40.167  20.185  26.390  1.00  0.00    -0.237 OA
ATOM     86  O   UNL A   1      42.206  19.308  25.348  1.00  0.00    -0.744 OA
ENDBRANCH  80  83
ENDBRANCH  52  76
BRANCH  64  87
ATOM     87  C   UNL A   1      46.385  25.288  32.924  1.00  0.00     0.023 A 
ATOM     88  C   UNL A   1      47.637  25.855  32.617  1.00  0.00     0.012 A 
ATOM     89  C   UNL A   1      46.317  24.214  33.834  1.00  0.00     0.148 A 
ATOM     90  C   UNL A   1      48.804  25.349  33.188  1.00  0.00     0.002 A 
ATOM     91  C   UNL A   1      47.481  23.740  34.431  1.00  0.00     0.091 A 
ATOM     92  F   UNL A   1      45.118  23.672  34.099  1.00  0.00    -0.205 F 
ATOM     93  C   UNL A   1      48.725  24.301  34.104  1.00  0.00     0.022 A 
BRANCH  91  94
ATOM     94  S   UNL A   1      47.451  22.454  35.685  1.00  0.00     0.127 S 
ATOM     95  O   UNL A   1      46.490  22.991  36.645  1.00  0.00    -0.237 OA
ATOM     96  O   UNL A   1      46.976  21.290  34.935  1.00  0.00    -0.237 OA
ATOM     97  O   UNL A   1      48.823  22.337  36.161  1.00  0.00    -0.744 OA
ENDBRANCH  91  94
ENDBRANCH  64  87
ENDBRANCH  38  39
ENDBRANCH  31  33
ENDBRANCH  30  31
ENDBRANCH  29  30
ENDBRANCH  28  29
ENDBRANCH  27  28
ENDBRANCH   1  27
TORSDOF 23
ENDMDL
