MODEL 1
REMARK VINA RESULT:      -9.3      0.000      0.000
REMARK SMILES O=C(OCCOCCOC(=O)c1ccc2nc(-c3cc(F)cc(Br)c3)[nH]c2c1)c1ccc(-c2c3nc(c(-c4cccc(S(=O)(=O)[O-])c4F)c4ccc([nH]4)c(-c4cccc(S(=O)(=O)[O-])c4F)c4nc(c(-c5cccc(S(=O)(=O)[O-])c5F)c5ccc2[nH]5)C=C4)C=C3)cc1
REMARK SMILES IDX 5 1 4 2 3 3 2 4 1 5 29 6 30 7 91 8 31 9 90 10 32 11 33 12
REMARK SMILES IDX 34 13 84 14 35 15 89 16 83 17 85 18 36 19 88 20 82 21 81 22
REMARK SMILES IDX 37 24 69 25 49 26 68 27 50 28 53 29 67 30 86 31 51 32 52 33
REMARK SMILES IDX 66 35 87 36 54 37 38 38 39 39 47 40 40 41 42 42 48 43 41 44
REMARK SMILES IDX 43 45 44 46 45 47 46 48 70 49 71 50 79 51 72 52 74 53 80 54
REMARK SMILES IDX 73 55 75 56 76 57 77 58 78 59 55 60 56 61 64 62 57 63 59 64
REMARK SMILES IDX 65 65 58 66 60 67 61 68 62 69 63 70 6 71 7 72 8 73 9 74
REMARK SMILES IDX 10 75 11 76 12 77 13 78 28 79 14 80 27 81 15 82 26 83 16 84
REMARK SMILES IDX 17 85 18 87 19 88 25 89 20 90 23 91 21 92 22 93 24 94
REMARK H PARENT 85 23 53 34 26 86
REMARK Flexibility Score: inf
ROOT
ATOM      1  C   UNL A   1      32.847  35.892  31.083  1.00  0.00     0.202 C 
ENDROOT
BRANCH   1   2
ATOM      2  C   UNL A   1      33.357  35.964  29.642  1.00  0.00     0.261 C 
BRANCH   2   3
ATOM      3  O   UNL A   1      32.814  34.879  28.870  1.00  0.00    -0.460 OA
BRANCH   3   4
ATOM      4  C   UNL A   1      33.448  33.779  28.400  1.00  0.00     0.338 C 
ATOM      5  O   UNL A   1      32.929  33.154  27.477  1.00  0.00    -0.246 OA
BRANCH   4   6
ATOM      6  C   UNL A   1      34.752  33.286  28.941  1.00  0.00     0.060 A 
ATOM      7  C   UNL A   1      34.889  32.501  30.088  1.00  0.00     0.016 A 
ATOM      8  C   UNL A   1      35.905  33.554  28.185  1.00  0.00     0.016 A 
ATOM      9  C   UNL A   1      36.129  32.058  30.522  1.00  0.00     0.010 A 
ATOM     10  C   UNL A   1      37.154  33.068  28.587  1.00  0.00     0.010 A 
ATOM     11  C   UNL A   1      37.266  32.330  29.770  1.00  0.00    -0.014 A 
BRANCH  11  12
ATOM     12  C   UNL A   1      38.564  31.872  30.294  1.00  0.00     0.031 A 
ATOM     13  C   UNL A   1      39.110  30.564  29.815  1.00  0.00     0.074 A 
ATOM     14  C   UNL A   1      39.270  32.684  31.101  1.00  0.00     0.049 A 
ATOM     15  N   UNL A   1      40.224  29.970  30.139  1.00  0.00    -0.248 NA
ATOM     16  C   UNL A   1      38.301  29.832  28.823  1.00  0.00     0.031 C 
ATOM     17  C   UNL A   1      38.836  34.012  31.545  1.00  0.00     0.029 A 
ATOM     18  N   UNL A   1      40.499  32.526  31.679  1.00  0.00    -0.354 N 
ATOM     19  C   UNL A   1      40.230  28.775  29.432  1.00  0.00     0.074 A 
ATOM     20  C   UNL A   1      39.019  28.734  28.646  1.00  0.00     0.031 C 
ATOM     21  C   UNL A   1      39.789  34.549  32.323  1.00  0.00     0.029 A 
ATOM     22  C   UNL A   1      40.869  33.583  32.478  1.00  0.00     0.049 A 
ATOM     23  H   UNL A   1      41.065  31.732  31.538  1.00  0.00     0.167 HD
ATOM     24  C   UNL A   1      41.167  27.801  29.450  1.00  0.00     0.034 A 
ATOM     25  C   UNL A   1      41.949  33.730  33.269  1.00  0.00     0.034 A 
ATOM     26  C   UNL A   1      42.366  27.876  30.236  1.00  0.00     0.049 A 
ATOM     27  C   UNL A   1      42.955  32.612  33.297  1.00  0.00     0.074 A 
ATOM     28  C   UNL A   1      43.372  26.939  30.368  1.00  0.00     0.029 A 
ATOM     29  N   UNL A   1      42.712  28.959  31.034  1.00  0.00    -0.354 N 
ATOM     30  N   UNL A   1      42.964  31.496  32.604  1.00  0.00    -0.248 NA
ATOM     31  C   UNL A   1      44.102  32.770  34.199  1.00  0.00     0.031 C 
ATOM     32  C   UNL A   1      44.319  27.449  31.264  1.00  0.00     0.029 A 
ATOM     33  C   UNL A   1      43.916  28.714  31.667  1.00  0.00     0.049 A 
ATOM     34  H   UNL A   1      42.179  29.780  31.133  1.00  0.00     0.167 HD
ATOM     35  C   UNL A   1      44.127  30.830  32.968  1.00  0.00     0.074 A 
ATOM     36  C   UNL A   1      44.810  31.682  33.923  1.00  0.00     0.031 C 
ATOM     37  C   UNL A   1      44.584  29.617  32.571  1.00  0.00     0.034 A 
BRANCH  24  38
ATOM     38  C   UNL A   1      40.903  26.578  28.617  1.00  0.00     0.023 A 
ATOM     39  C   UNL A   1      39.704  25.856  28.782  1.00  0.00     0.012 A 
ATOM     40  C   UNL A   1      41.853  26.137  27.673  1.00  0.00     0.148 A 
ATOM     41  C   UNL A   1      39.469  24.694  28.046  1.00  0.00     0.002 A 
ATOM     42  C   UNL A   1      41.595  25.001  26.918  1.00  0.00     0.091 A 
ATOM     43  F   UNL A   1      42.998  26.824  27.554  1.00  0.00    -0.205 F 
ATOM     44  C   UNL A   1      40.410  24.271  27.110  1.00  0.00     0.022 A 
BRANCH  42  45
ATOM     45  S   UNL A   1      42.722  24.401  25.654  1.00  0.00     0.127 S 
ATOM     46  O   UNL A   1      42.105  23.126  25.291  1.00  0.00    -0.237 OA
ATOM     47  O   UNL A   1      42.616  25.442  24.631  1.00  0.00    -0.237 OA
ATOM     48  O   UNL A   1      44.027  24.303  26.292  1.00  0.00    -0.744 OA
ENDBRANCH  42  45
ENDBRANCH  24  38
BRANCH  25  49
ATOM     49  C   UNL A   1      42.128  34.967  34.084  1.00  0.00     0.023 A 
ATOM     50  C   UNL A   1      42.689  36.118  33.499  1.00  0.00     0.012 A 
ATOM     51  C   UNL A   1      41.725  35.018  35.435  1.00  0.00     0.148 A 
ATOM     52  C   UNL A   1      42.870  37.283  34.247  1.00  0.00     0.002 A 
ATOM     53  C   UNL A   1      41.854  36.198  36.157  1.00  0.00     0.091 A 
ATOM     54  F   UNL A   1      41.215  33.908  35.988  1.00  0.00    -0.205 F 
ATOM     55  C   UNL A   1      42.442  37.328  35.571  1.00  0.00     0.022 A 
BRANCH  53  56
ATOM     56  S   UNL A   1      41.205  36.372  37.824  1.00  0.00     0.127 S 
ATOM     57  O   UNL A   1      42.096  37.381  38.389  1.00  0.00    -0.237 OA
ATOM     58  O   UNL A   1      39.836  36.828  37.576  1.00  0.00    -0.237 OA
ATOM     59  O   UNL A   1      41.291  35.042  38.414  1.00  0.00    -0.744 OA
ENDBRANCH  53  56
ENDBRANCH  25  49
BRANCH  37  60
ATOM     60  C   UNL A   1      45.895  29.155  33.143  1.00  0.00     0.023 A 
ATOM     61  C   UNL A   1      45.906  28.323  34.279  1.00  0.00     0.012 A 
ATOM     62  C   UNL A   1      47.103  29.468  32.494  1.00  0.00     0.148 A 
ATOM     63  C   UNL A   1      47.109  27.828  34.776  1.00  0.00     0.002 A 
ATOM     64  C   UNL A   1      48.292  28.930  32.964  1.00  0.00     0.091 A 
ATOM     65  F   UNL A   1      47.066  30.281  31.427  1.00  0.00    -0.205 F 
ATOM     66  C   UNL A   1      48.299  28.118  34.110  1.00  0.00     0.022 A 
BRANCH  64  67
ATOM     67  S   UNL A   1      49.852  29.164  32.106  1.00  0.00     0.127 S 
ATOM     68  O   UNL A   1      50.028  30.611  32.200  1.00  0.00    -0.237 OA
ATOM     69  O   UNL A   1      50.779  28.381  32.923  1.00  0.00    -0.237 OA
ATOM     70  O   UNL A   1      49.650  28.642  30.760  1.00  0.00    -0.744 OA
ENDBRANCH  64  67
ENDBRANCH  37  60
ENDBRANCH  11  12
ENDBRANCH   4   6
ENDBRANCH   3   4
ENDBRANCH   2   3
ENDBRANCH   1   2
BRANCH   1  71
ATOM     71  O   UNL A   1      33.037  37.087  31.838  1.00  0.00    -0.374 OA
BRANCH  71  72
ATOM     72  C   UNL A   1      33.967  36.998  32.926  1.00  0.00     0.202 C 
BRANCH  72  73
ATOM     73  C   UNL A   1      34.898  35.803  32.702  1.00  0.00     0.261 C 
BRANCH  73  74
ATOM     74  O   UNL A   1      35.254  35.269  33.988  1.00  0.00    -0.460 OA
BRANCH  74  75
ATOM     75  C   UNL A   1      35.003  33.945  34.141  1.00  0.00     0.338 C 
ATOM     76  O   UNL A   1      34.110  33.288  33.634  1.00  0.00    -0.246 OA
BRANCH  75  77
ATOM     77  C   UNL A   1      36.150  33.353  34.863  1.00  0.00     0.062 A 
ATOM     78  C   UNL A   1      36.412  33.693  36.196  1.00  0.00     0.018 A 
ATOM     79  C   UNL A   1      37.002  32.500  34.139  1.00  0.00     0.044 A 
ATOM     80  C   UNL A   1      37.542  33.190  36.848  1.00  0.00     0.031 A 
ATOM     81  C   UNL A   1      38.133  32.033  34.812  1.00  0.00     0.067 A 
ATOM     82  C   UNL A   1      38.408  32.347  36.137  1.00  0.00     0.089 A 
ATOM     83  N   UNL A   1      39.175  31.223  34.432  1.00  0.00    -0.338 N 
ATOM     84  N   UNL A   1      39.543  31.714  36.562  1.00  0.00    -0.229 NA
ATOM     85  C   UNL A   1      39.965  31.005  35.536  1.00  0.00     0.138 A 
ATOM     86  H   UNL A   1      39.329  30.862  33.530  1.00  0.00     0.168 HD
BRANCH  85  87
ATOM     87  C   UNL A   1      41.026  30.016  35.593  1.00  0.00     0.021 A 
ATOM     88  C   UNL A   1      41.014  28.874  34.790  1.00  0.00     0.051 A 
ATOM     89  C   UNL A   1      42.125  30.266  36.428  1.00  0.00     0.027 A 
ATOM     90  C   UNL A   1      42.101  28.004  34.830  1.00  0.00     0.125 A 
ATOM     91  C   UNL A   1      43.199  29.379  36.457  1.00  0.00     0.021 A 
ATOM     92  F   UNL A   1      42.102  26.920  34.042  1.00  0.00    -0.207 F 
ATOM     93  C   UNL A   1      43.194  28.243  35.656  1.00  0.00     0.055 A 
ATOM     94  Br  UNL A   1      44.675  29.738  37.580  1.00  0.00    -0.051 Br
ENDBRANCH  85  87
ENDBRANCH  75  77
ENDBRANCH  74  75
ENDBRANCH  73  74
ENDBRANCH  72  73
ENDBRANCH  71  72
ENDBRANCH   1  71
TORSDOF 18
ENDMDL
MODEL 2
REMARK VINA RESULT:      -9.2      3.126      8.712
REMARK SMILES O=C(OCCOCCOC(=O)c1ccc2nc(-c3cc(F)cc(Br)c3)[nH]c2c1)c1ccc(-c2c3nc(c(-c4cccc(S(=O)(=O)[O-])c4F)c4ccc([nH]4)c(-c4cccc(S(=O)(=O)[O-])c4F)c4nc(c(-c5cccc(S(=O)(=O)[O-])c5F)c5ccc2[nH]5)C=C4)C=C3)cc1
REMARK SMILES IDX 5 1 4 2 3 3 2 4 1 5 29 6 30 7 91 8 31 9 90 10 32 11 33 12
REMARK SMILES IDX 34 13 84 14 35 15 89 16 83 17 85 18 36 19 88 20 82 21 81 22
REMARK SMILES IDX 37 24 69 25 49 26 68 27 50 28 53 29 67 30 86 31 51 32 52 33
REMARK SMILES IDX 66 35 87 36 54 37 38 38 39 39 47 40 40 41 42 42 48 43 41 44
REMARK SMILES IDX 43 45 44 46 45 47 46 48 70 49 71 50 79 51 72 52 74 53 80 54
REMARK SMILES IDX 73 55 75 56 76 57 77 58 78 59 55 60 56 61 64 62 57 63 59 64
REMARK SMILES IDX 65 65 58 66 60 67 61 68 62 69 63 70 6 71 7 72 8 73 9 74
REMARK SMILES IDX 10 75 11 76 12 77 13 78 28 79 14 80 27 81 15 82 26 83 16 84
REMARK SMILES IDX 17 85 18 87 19 88 25 89 20 90 23 91 21 92 22 93 24 94
REMARK H PARENT 85 23 53 34 26 86
REMARK Flexibility Score: inf
ROOT
ATOM      1  C   UNL A   1      33.980  34.307  28.998  1.00  0.00     0.202 C 
ENDROOT
BRANCH   1   2
ATOM      2  C   UNL A   1      33.343  33.240  28.105  1.00  0.00     0.261 C 
BRANCH   2   3
ATOM      3  O   UNL A   1      34.361  32.399  27.536  1.00  0.00    -0.460 OA
BRANCH   3   4
ATOM      4  C   UNL A   1      34.594  31.086  27.765  1.00  0.00     0.338 C 
ATOM      5  O   UNL A   1      33.682  30.286  27.563  1.00  0.00    -0.246 OA
BRANCH   4   6
ATOM      6  C   UNL A   1      35.906  30.554  28.246  1.00  0.00     0.060 A 
ATOM      7  C   UNL A   1      37.147  30.897  27.707  1.00  0.00     0.016 A 
ATOM      8  C   UNL A   1      35.887  29.727  29.381  1.00  0.00     0.016 A 
ATOM      9  C   UNL A   1      38.330  30.383  28.217  1.00  0.00     0.010 A 
ATOM     10  C   UNL A   1      37.078  29.245  29.936  1.00  0.00     0.010 A 
ATOM     11  C   UNL A   1      38.302  29.563  29.340  1.00  0.00    -0.014 A 
BRANCH  11  12
ATOM     12  C   UNL A   1      39.581  29.010  29.820  1.00  0.00     0.031 A 
ATOM     13  C   UNL A   1      40.170  29.557  31.081  1.00  0.00     0.074 A 
ATOM     14  C   UNL A   1      40.127  27.964  29.175  1.00  0.00     0.049 A 
ATOM     15  N   UNL A   1      41.277  29.223  31.684  1.00  0.00    -0.248 NA
ATOM     16  C   UNL A   1      39.402  30.611  31.768  1.00  0.00     0.031 C 
ATOM     17  C   UNL A   1      39.564  27.324  27.982  1.00  0.00     0.029 A 
ATOM     18  N   UNL A   1      41.262  27.245  29.433  1.00  0.00    -0.354 N 
ATOM     19  C   UNL A   1      41.365  30.055  32.792  1.00  0.00     0.074 A 
ATOM     20  C   UNL A   1      40.191  30.898  32.792  1.00  0.00     0.031 C 
ATOM     21  C   UNL A   1      40.354  26.303  27.616  1.00  0.00     0.029 A 
ATOM     22  C   UNL A   1      41.505  26.255  28.509  1.00  0.00     0.049 A 
ATOM     23  H   UNL A   1      41.849  27.420  30.204  1.00  0.00     0.167 HD
ATOM     24  C   UNL A   1      42.347  30.107  33.719  1.00  0.00     0.034 A 
ATOM     25  C   UNL A   1      42.561  25.427  28.389  1.00  0.00     0.034 A 
ATOM     26  C   UNL A   1      43.498  29.249  33.696  1.00  0.00     0.049 A 
ATOM     27  C   UNL A   1      43.657  25.536  29.415  1.00  0.00     0.074 A 
ATOM     28  C   UNL A   1      44.579  29.230  34.555  1.00  0.00     0.029 A 
ATOM     29  N   UNL A   1      43.715  28.257  32.749  1.00  0.00    -0.354 N 
ATOM     30  N   UNL A   1      43.718  26.309  30.474  1.00  0.00    -0.248 NA
ATOM     31  C   UNL A   1      44.820  24.658  29.241  1.00  0.00     0.031 C 
ATOM     32  C   UNL A   1      45.461  28.238  34.115  1.00  0.00     0.029 A 
ATOM     33  C   UNL A   1      44.916  27.620  32.998  1.00  0.00     0.049 A 
ATOM     34  H   UNL A   1      43.104  28.039  32.010  1.00  0.00     0.167 HD
ATOM     35  C   UNL A   1      44.913  25.995  31.108  1.00  0.00     0.074 A 
ATOM     36  C   UNL A   1      45.530  24.940  30.325  1.00  0.00     0.031 C 
ATOM     37  C   UNL A   1      45.466  26.538  32.220  1.00  0.00     0.034 A 
BRANCH  24  38
ATOM     38  C   UNL A   1      42.217  31.143  34.801  1.00  0.00     0.023 A 
ATOM     39  C   UNL A   1      41.560  30.826  36.007  1.00  0.00     0.012 A 
ATOM     40  C   UNL A   1      42.741  32.438  34.617  1.00  0.00     0.148 A 
ATOM     41  C   UNL A   1      41.395  31.793  37.000  1.00  0.00     0.002 A 
ATOM     42  C   UNL A   1      42.606  33.384  35.625  1.00  0.00     0.091 A 
ATOM     43  F   UNL A   1      43.337  32.724  33.451  1.00  0.00    -0.205 F 
ATOM     44  C   UNL A   1      41.924  33.068  36.811  1.00  0.00     0.022 A 
BRANCH  42  45
ATOM     45  S   UNL A   1      43.292  35.039  35.499  1.00  0.00     0.127 S 
ATOM     46  O   UNL A   1      44.465  34.809  34.658  1.00  0.00    -0.237 OA
ATOM     47  O   UNL A   1      42.206  35.770  34.844  1.00  0.00    -0.237 OA
ATOM     48  O   UNL A   1      43.575  35.463  36.862  1.00  0.00    -0.744 OA
ENDBRANCH  42  45
ENDBRANCH  24  38
BRANCH  25  49
ATOM     49  C   UNL A   1      42.626  24.440  27.272  1.00  0.00     0.023 A 
ATOM     50  C   UNL A   1      43.286  24.778  26.075  1.00  0.00     0.012 A 
ATOM     51  C   UNL A   1      42.056  23.157  27.396  1.00  0.00     0.148 A 
ATOM     52  C   UNL A   1      43.352  23.870  25.016  1.00  0.00     0.002 A 
ATOM     53  C   UNL A   1      42.176  22.237  26.361  1.00  0.00     0.091 A 
ATOM     54  F   UNL A   1      41.409  22.855  28.531  1.00  0.00    -0.205 F 
ATOM     55  C   UNL A   1      42.808  22.596  25.163  1.00  0.00     0.022 A 
BRANCH  53  56
ATOM     56  S   UNL A   1      41.618  20.536  26.527  1.00  0.00     0.127 S 
ATOM     57  O   UNL A   1      42.314  19.884  25.422  1.00  0.00    -0.237 OA
ATOM     58  O   UNL A   1      42.109  20.180  27.860  1.00  0.00    -0.237 OA
ATOM     59  O   UNL A   1      40.166  20.592  26.424  1.00  0.00    -0.744 OA
ENDBRANCH  53  56
ENDBRANCH  25  49
BRANCH  37  60
ATOM     60  C   UNL A   1      46.786  25.980  32.673  1.00  0.00     0.023 A 
ATOM     61  C   UNL A   1      47.983  26.590  32.251  1.00  0.00     0.012 A 
ATOM     62  C   UNL A   1      46.830  24.917  33.594  1.00  0.00     0.148 A 
ATOM     63  C   UNL A   1      49.211  26.131  32.722  1.00  0.00     0.002 A 
ATOM     64  C   UNL A   1      48.053  24.499  34.098  1.00  0.00     0.091 A 
ATOM     65  F   UNL A   1      45.677  24.340  33.963  1.00  0.00    -0.205 F 
ATOM     66  C   UNL A   1      49.245  25.096  33.656  1.00  0.00     0.022 A 
BRANCH  64  67
ATOM     67  S   UNL A   1      48.180  23.249  35.381  1.00  0.00     0.127 S 
ATOM     68  O   UNL A   1      47.926  22.023  34.628  1.00  0.00    -0.237 OA
ATOM     69  O   UNL A   1      49.561  23.410  35.838  1.00  0.00    -0.237 OA
ATOM     70  O   UNL A   1      47.173  23.595  36.376  1.00  0.00    -0.744 OA
ENDBRANCH  64  67
ENDBRANCH  37  60
ENDBRANCH  11  12
ENDBRANCH   4   6
ENDBRANCH   3   4
ENDBRANCH   2   3
ENDBRANCH   1   2
BRANCH   1  71
ATOM     71  O   UNL A   1      33.482  34.333  30.335  1.00  0.00    -0.374 OA
BRANCH  71  72
ATOM     72  C   UNL A   1      33.689  35.556  31.056  1.00  0.00     0.202 C 
BRANCH  72  73
ATOM     73  C   UNL A   1      33.504  35.298  32.554  1.00  0.00     0.261 C 
BRANCH  73  74
ATOM     74  O   UNL A   1      34.792  35.403  33.185  1.00  0.00    -0.460 OA
BRANCH  74  75
ATOM     75  C   UNL A   1      35.286  34.234  33.664  1.00  0.00     0.338 C 
ATOM     76  O   UNL A   1      34.663  33.267  34.068  1.00  0.00    -0.246 OA
BRANCH  75  77
ATOM     77  C   UNL A   1      36.742  34.223  33.403  1.00  0.00     0.062 A 
ATOM     78  C   UNL A   1      37.660  34.259  34.460  1.00  0.00     0.018 A 
ATOM     79  C   UNL A   1      37.161  34.251  32.061  1.00  0.00     0.044 A 
ATOM     80  C   UNL A   1      39.033  34.327  34.204  1.00  0.00     0.031 A 
ATOM     81  C   UNL A   1      38.536  34.341  31.841  1.00  0.00     0.067 A 
ATOM     82  C   UNL A   1      39.468  34.366  32.872  1.00  0.00     0.089 A 
ATOM     83  N   UNL A   1      39.295  34.412  30.698  1.00  0.00    -0.338 N 
ATOM     84  N   UNL A   1      40.742  34.400  32.377  1.00  0.00    -0.229 NA
ATOM     85  C   UNL A   1      40.619  34.381  31.066  1.00  0.00     0.138 A 
ATOM     86  H   UNL A   1      38.951  34.475  29.778  1.00  0.00     0.168 HD
BRANCH  85  87
ATOM     87  C   UNL A   1      41.717  34.201  30.133  1.00  0.00     0.021 A 
ATOM     88  C   UNL A   1      42.582  33.108  30.214  1.00  0.00     0.051 A 
ATOM     89  C   UNL A   1      41.855  35.119  29.083  1.00  0.00     0.027 A 
ATOM     90  C   UNL A   1      43.565  32.946  29.240  1.00  0.00     0.125 A 
ATOM     91  C   UNL A   1      42.850  34.942  28.124  1.00  0.00     0.021 A 
ATOM     92  F   UNL A   1      44.380  31.885  29.302  1.00  0.00    -0.207 F 
ATOM     93  C   UNL A   1      43.709  33.853  28.196  1.00  0.00     0.055 A 
ATOM     94  Br  UNL A   1      43.013  36.184  26.709  1.00  0.00    -0.051 Br
ENDBRANCH  85  87
ENDBRANCH  75  77
ENDBRANCH  74  75
ENDBRANCH  73  74
ENDBRANCH  72  73
ENDBRANCH  71  72
ENDBRANCH   1  71
TORSDOF 18
ENDMDL
MODEL 3
REMARK VINA RESULT:      -9.2      1.478      7.748
REMARK SMILES O=C(OCCOCCOC(=O)c1ccc2nc(-c3cc(F)cc(Br)c3)[nH]c2c1)c1ccc(-c2c3nc(c(-c4cccc(S(=O)(=O)[O-])c4F)c4ccc([nH]4)c(-c4cccc(S(=O)(=O)[O-])c4F)c4nc(c(-c5cccc(S(=O)(=O)[O-])c5F)c5ccc2[nH]5)C=C4)C=C3)cc1
REMARK SMILES IDX 5 1 4 2 3 3 2 4 1 5 29 6 30 7 91 8 31 9 90 10 32 11 33 12
REMARK SMILES IDX 34 13 84 14 35 15 89 16 83 17 85 18 36 19 88 20 82 21 81 22
REMARK SMILES IDX 37 24 69 25 49 26 68 27 50 28 53 29 67 30 86 31 51 32 52 33
REMARK SMILES IDX 66 35 87 36 54 37 38 38 39 39 47 40 40 41 42 42 48 43 41 44
REMARK SMILES IDX 43 45 44 46 45 47 46 48 70 49 71 50 79 51 72 52 74 53 80 54
REMARK SMILES IDX 73 55 75 56 76 57 77 58 78 59 55 60 56 61 64 62 57 63 59 64
REMARK SMILES IDX 65 65 58 66 60 67 61 68 62 69 63 70 6 71 7 72 8 73 9 74
REMARK SMILES IDX 10 75 11 76 12 77 13 78 28 79 14 80 27 81 15 82 26 83 16 84
REMARK SMILES IDX 17 85 18 87 19 88 25 89 20 90 23 91 21 92 22 93 24 94
REMARK H PARENT 85 23 53 34 26 86
REMARK Flexibility Score: inf
ROOT
ATOM      1  C   UNL A   1      32.801  36.198  31.395  1.00  0.00     0.202 C 
ENDROOT
BRANCH   1   2
ATOM      2  C   UNL A   1      33.086  35.998  29.905  1.00  0.00     0.261 C 
BRANCH   2   3
ATOM      3  O   UNL A   1      32.769  34.651  29.517  1.00  0.00    -0.460 OA
BRANCH   3   4
ATOM      4  C   UNL A   1      33.489  33.805  28.743  1.00  0.00     0.338 C 
ATOM      5  O   UNL A   1      32.997  33.419  27.684  1.00  0.00    -0.246 OA
BRANCH   4   6
ATOM      6  C   UNL A   1      34.856  33.319  29.106  1.00  0.00     0.060 A 
ATOM      7  C   UNL A   1      35.115  32.198  29.897  1.00  0.00     0.016 A 
ATOM      8  C   UNL A   1      35.950  33.984  28.529  1.00  0.00     0.016 A 
ATOM      9  C   UNL A   1      36.410  31.788  30.176  1.00  0.00     0.010 A 
ATOM     10  C   UNL A   1      37.258  33.547  28.762  1.00  0.00     0.010 A 
ATOM     11  C   UNL A   1      37.487  32.454  29.603  1.00  0.00    -0.014 A 
BRANCH  11  12
ATOM     12  C   UNL A   1      38.844  32.005  29.962  1.00  0.00     0.031 A 
ATOM     13  C   UNL A   1      39.559  32.701  31.077  1.00  0.00     0.074 A 
ATOM     14  C   UNL A   1      39.359  30.921  29.355  1.00  0.00     0.049 A 
ATOM     15  N   UNL A   1      40.749  32.475  31.558  1.00  0.00    -0.248 NA
ATOM     16  C   UNL A   1      38.829  33.788  31.754  1.00  0.00     0.031 C 
ATOM     17  C   UNL A   1      38.683  30.141  28.314  1.00  0.00     0.029 A 
ATOM     18  N   UNL A   1      40.553  30.278  29.530  1.00  0.00    -0.354 N 
ATOM     19  C   UNL A   1      40.933  33.419  32.560  1.00  0.00     0.074 A 
ATOM     20  C   UNL A   1      39.726  34.210  32.633  1.00  0.00     0.031 C 
ATOM     21  C   UNL A   1      39.473  29.120  27.947  1.00  0.00     0.029 A 
ATOM     22  C   UNL A   1      40.729  29.209  28.682  1.00  0.00     0.049 A 
ATOM     23  H   UNL A   1      41.223  30.554  30.197  1.00  0.00     0.167 HD
ATOM     24  C   UNL A   1      42.020  33.605  33.340  1.00  0.00     0.034 A 
ATOM     25  C   UNL A   1      41.803  28.416  28.504  1.00  0.00     0.034 A 
ATOM     26  C   UNL A   1      43.202  32.796  33.249  1.00  0.00     0.049 A 
ATOM     27  C   UNL A   1      43.013  28.673  29.362  1.00  0.00     0.074 A 
ATOM     28  C   UNL A   1      44.383  32.907  33.957  1.00  0.00     0.029 A 
ATOM     29  N   UNL A   1      43.350  31.721  32.382  1.00  0.00    -0.354 N 
ATOM     30  N   UNL A   1      43.167  29.552  30.325  1.00  0.00    -0.248 NA
ATOM     31  C   UNL A   1      44.189  27.828  29.123  1.00  0.00     0.031 C 
ATOM     32  C   UNL A   1      45.254  31.911  33.502  1.00  0.00     0.029 A 
ATOM     33  C   UNL A   1      44.605  31.162  32.531  1.00  0.00     0.049 A 
ATOM     34  H   UNL A   1      42.662  31.404  31.754  1.00  0.00     0.167 HD
ATOM     35  C   UNL A   1      44.447  29.352  30.823  1.00  0.00     0.074 A 
ATOM     36  C   UNL A   1      45.016  28.249  30.072  1.00  0.00     0.031 C 
ATOM     37  C   UNL A   1      45.107  30.028  31.796  1.00  0.00     0.034 A 
BRANCH  24  38
ATOM     38  C   UNL A   1      41.974  34.740  34.325  1.00  0.00     0.023 A 
ATOM     39  C   UNL A   1      42.311  36.045  33.915  1.00  0.00     0.012 A 
ATOM     40  C   UNL A   1      41.604  34.508  35.665  1.00  0.00     0.148 A 
ATOM     41  C   UNL A   1      42.314  37.097  34.833  1.00  0.00     0.002 A 
ATOM     42  C   UNL A   1      41.573  35.567  36.563  1.00  0.00     0.091 A 
ATOM     43  F   UNL A   1      41.315  33.253  36.038  1.00  0.00    -0.205 F 
ATOM     44  C   UNL A   1      41.939  36.859  36.153  1.00  0.00     0.022 A 
BRANCH  42  45
ATOM     45  S   UNL A   1      41.059  35.373  38.273  1.00  0.00     0.127 S 
ATOM     46  O   UNL A   1      41.966  34.325  38.736  1.00  0.00    -0.237 OA
ATOM     47  O   UNL A   1      41.330  36.701  38.825  1.00  0.00    -0.237 OA
ATOM     48  O   UNL A   1      39.651  35.006  38.232  1.00  0.00    -0.744 OA
ENDBRANCH  42  45
ENDBRANCH  24  38
BRANCH  25  49
ATOM     49  C   UNL A   1      41.778  27.324  27.489  1.00  0.00     0.023 A 
ATOM     50  C   UNL A   1      42.232  27.572  26.180  1.00  0.00     0.012 A 
ATOM     51  C   UNL A   1      41.326  26.029  27.819  1.00  0.00     0.148 A 
ATOM     52  C   UNL A   1      42.211  26.563  25.214  1.00  0.00     0.002 A 
ATOM     53  C   UNL A   1      41.362  25.015  26.869  1.00  0.00     0.091 A 
ATOM     54  F   UNL A   1      40.873  25.811  29.062  1.00  0.00    -0.205 F 
ATOM     55  C   UNL A   1      41.788  25.283  25.561  1.00  0.00     0.022 A 
BRANCH  53  56
ATOM     56  S   UNL A   1      40.960  23.311  27.277  1.00  0.00     0.127 S 
ATOM     57  O   UNL A   1      41.756  23.095  28.481  1.00  0.00    -0.237 OA
ATOM     58  O   UNL A   1      39.514  23.382  27.499  1.00  0.00    -0.237 OA
ATOM     59  O   UNL A   1      41.344  22.531  26.108  1.00  0.00    -0.744 OA
ENDBRANCH  53  56
ENDBRANCH  25  49
BRANCH  37  60
ATOM     60  C   UNL A   1      46.502  29.573  32.123  1.00  0.00     0.023 A 
ATOM     61  C   UNL A   1      47.600  30.157  31.463  1.00  0.00     0.012 A 
ATOM     62  C   UNL A   1      46.722  28.640  33.153  1.00  0.00     0.148 A 
ATOM     63  C   UNL A   1      48.901  29.799  31.808  1.00  0.00     0.002 A 
ATOM     64  C   UNL A   1      48.021  28.326  33.526  1.00  0.00     0.091 A 
ATOM     65  F   UNL A   1      45.658  28.082  33.750  1.00  0.00    -0.205 F 
ATOM     66  C   UNL A   1      49.111  28.896  32.849  1.00  0.00     0.022 A 
BRANCH  64  67
ATOM     67  S   UNL A   1      48.381  27.258  34.924  1.00  0.00     0.127 S 
ATOM     68  O   UNL A   1      49.833  27.382  35.027  1.00  0.00    -0.237 OA
ATOM     69  O   UNL A   1      47.635  27.899  36.007  1.00  0.00    -0.237 OA
ATOM     70  O   UNL A   1      47.889  25.937  34.555  1.00  0.00    -0.744 OA
ENDBRANCH  64  67
ENDBRANCH  37  60
ENDBRANCH  11  12
ENDBRANCH   4   6
ENDBRANCH   3   4
ENDBRANCH   2   3
ENDBRANCH   1   2
BRANCH   1  71
ATOM     71  O   UNL A   1      33.904  36.702  32.147  1.00  0.00    -0.374 OA
BRANCH  71  72
ATOM     72  C   UNL A   1      34.337  35.888  33.245  1.00  0.00     0.202 C 
BRANCH  72  73
ATOM     73  C   UNL A   1      35.523  35.027  32.799  1.00  0.00     0.261 C 
BRANCH  73  74
ATOM     74  O   UNL A   1      35.339  33.706  33.335  1.00  0.00    -0.460 OA
BRANCH  74  75
ATOM     75  C   UNL A   1      35.877  33.512  34.565  1.00  0.00     0.338 C 
ATOM     76  O   UNL A   1      35.486  33.954  35.632  1.00  0.00    -0.246 OA
BRANCH  75  77
ATOM     77  C   UNL A   1      36.913  32.464  34.440  1.00  0.00     0.062 A 
ATOM     78  C   UNL A   1      36.886  31.551  33.379  1.00  0.00     0.018 A 
ATOM     79  C   UNL A   1      37.875  32.377  35.463  1.00  0.00     0.044 A 
ATOM     80  C   UNL A   1      37.823  30.515  33.310  1.00  0.00     0.031 A 
ATOM     81  C   UNL A   1      38.781  31.318  35.376  1.00  0.00     0.067 A 
ATOM     82  C   UNL A   1      38.781  30.407  34.327  1.00  0.00     0.089 A 
ATOM     83  N   UNL A   1      39.817  30.910  36.180  1.00  0.00    -0.338 N 
ATOM     84  N   UNL A   1      39.805  29.511  34.459  1.00  0.00    -0.229 NA
ATOM     85  C   UNL A   1      40.447  29.858  35.556  1.00  0.00     0.138 A 
ATOM     86  H   UNL A   1      40.065  31.300  37.048  1.00  0.00     0.168 HD
BRANCH  85  87
ATOM     87  C   UNL A   1      41.723  29.310  35.979  1.00  0.00     0.021 A 
ATOM     88  C   UNL A   1      41.980  27.938  35.960  1.00  0.00     0.051 A 
ATOM     89  C   UNL A   1      42.743  30.202  36.340  1.00  0.00     0.027 A 
ATOM     90  C   UNL A   1      43.251  27.480  36.297  1.00  0.00     0.125 A 
ATOM     91  C   UNL A   1      44.005  29.722  36.681  1.00  0.00     0.021 A 
ATOM     92  F   UNL A   1      43.506  26.165  36.257  1.00  0.00    -0.207 F 
ATOM     93  C   UNL A   1      44.268  28.358  36.659  1.00  0.00     0.055 A 
ATOM     94  Br  UNL A   1      45.370  30.940  37.155  1.00  0.00    -0.051 Br
ENDBRANCH  85  87
ENDBRANCH  75  77
ENDBRANCH  74  75
ENDBRANCH  73  74
ENDBRANCH  72  73
ENDBRANCH  71  72
ENDBRANCH   1  71
TORSDOF 18
ENDMDL
