MODEL 1
REMARK VINA RESULT:     -11.2      0.000      0.000
REMARK SMILES O=C(OCCOCCOC(=O)[C@@H]1CC[C@@H](CNC(=O)c2cc(Cl)ccc2Cl)O1)c1ccc(-c2c3nc(c(-c4cccc(S(=O)(=O)[O-])c4F)c4ccc([nH]4)c(-c4cccc(S(=O)(=O)[O-])c4F)c4nc(c(-c5cccc(S(=O)(=O)[O-])c5F)c5ccc2[nH]5)C=C4)C=C3)cc1
REMARK SMILES IDX 6 1 5 2 4 3 3 4 2 5 1 6 29 7 30 8 91 9 31 10 90 11 32 12
REMARK SMILES IDX 33 13 34 14 84 15 35 16 89 17 83 18 85 19 36 20 88 21 82 22
REMARK SMILES IDX 81 23 37 25 69 26 49 27 68 28 50 29 53 30 67 31 86 32 51 33
REMARK SMILES IDX 52 34 66 36 87 37 54 38 38 39 39 40 47 41 40 42 42 43 48 44
REMARK SMILES IDX 41 45 43 46 44 47 45 48 46 49 70 50 71 51 79 52 72 53 74 54
REMARK SMILES IDX 80 55 73 56 75 57 76 58 77 59 78 60 55 61 56 62 64 63 57 64
REMARK SMILES IDX 59 65 65 66 58 67 60 68 61 69 62 70 63 71 7 72 8 73 9 74
REMARK SMILES IDX 10 75 11 76 12 77 13 78 28 79 14 80 15 81 16 82 17 83 18 84
REMARK SMILES IDX 19 86 20 87 21 88 26 89 22 90 25 91 27 92 23 93 24 94
REMARK H PARENT 85 24 53 35 17 85
REMARK Flexibility Score: inf
ROOT
ATOM      1  O   UNL A   1      35.542  22.528  25.736  1.00  0.00    -0.374 OA
ENDROOT
BRANCH   1   2
ATOM      2  C   UNL A   1      36.000  22.102  24.450  1.00  0.00     0.202 C 
BRANCH   2   3
ATOM      3  C   UNL A   1      37.162  21.103  24.473  1.00  0.00     0.261 C 
BRANCH   3   4
ATOM      4  O   UNL A   1      37.769  21.062  25.778  1.00  0.00    -0.460 OA
BRANCH   4   5
ATOM      5  C   UNL A   1      39.076  21.192  26.111  1.00  0.00     0.338 C 
ATOM      6  O   UNL A   1      39.811  20.213  25.987  1.00  0.00    -0.246 OA
BRANCH   5   7
ATOM      7  C   UNL A   1      39.677  22.466  26.609  1.00  0.00     0.060 A 
ATOM      8  C   UNL A   1      39.268  23.738  26.215  1.00  0.00     0.016 A 
ATOM      9  C   UNL A   1      40.672  22.375  27.598  1.00  0.00     0.016 A 
ATOM     10  C   UNL A   1      39.877  24.880  26.699  1.00  0.00     0.010 A 
ATOM     11  C   UNL A   1      41.253  23.526  28.142  1.00  0.00     0.010 A 
ATOM     12  C   UNL A   1      40.867  24.783  27.671  1.00  0.00    -0.014 A 
BRANCH  12  13
ATOM     13  C   UNL A   1      41.498  26.046  28.085  1.00  0.00     0.031 A 
ATOM     14  C   UNL A   1      42.875  26.355  27.594  1.00  0.00     0.074 A 
ATOM     15  C   UNL A   1      40.741  26.963  28.718  1.00  0.00     0.049 A 
ATOM     16  N   UNL A   1      43.572  27.447  27.738  1.00  0.00    -0.248 NA
ATOM     17  C   UNL A   1      43.551  25.305  26.810  1.00  0.00     0.031 C 
ATOM     18  C   UNL A   1      39.351  26.759  29.140  1.00  0.00     0.029 A 
ATOM     19  N   UNL A   1      41.009  28.256  29.074  1.00  0.00    -0.354 N 
ATOM     20  C   UNL A   1      44.776  27.210  27.090  1.00  0.00     0.074 A 
ATOM     21  C   UNL A   1      44.718  25.872  26.548  1.00  0.00     0.031 C 
ATOM     22  C   UNL A   1      38.884  27.895  29.679  1.00  0.00     0.029 A 
ATOM     23  C   UNL A   1      39.955  28.884  29.693  1.00  0.00     0.049 A 
ATOM     24  H   UNL A   1      41.874  28.695  28.903  1.00  0.00     0.167 HD
ATOM     25  C   UNL A   1      45.831  28.045  26.959  1.00  0.00     0.034 A 
ATOM     26  C   UNL A   1      39.880  30.114  30.234  1.00  0.00     0.034 A 
ATOM     27  C   UNL A   1      45.858  29.370  27.512  1.00  0.00     0.049 A 
ATOM     28  C   UNL A   1      41.091  30.998  30.121  1.00  0.00     0.074 A 
ATOM     29  C   UNL A   1      46.894  30.284  27.518  1.00  0.00     0.029 A 
ATOM     30  N   UNL A   1      44.786  29.968  28.163  1.00  0.00    -0.354 N 
ATOM     31  N   UNL A   1      42.226  30.765  29.503  1.00  0.00    -0.248 NA
ATOM     32  C   UNL A   1      41.012  32.317  30.759  1.00  0.00     0.031 C 
ATOM     33  C   UNL A   1      46.453  31.430  28.190  1.00  0.00     0.029 A 
ATOM     34  C   UNL A   1      45.134  31.240  28.577  1.00  0.00     0.049 A 
ATOM     35  H   UNL A   1      43.909  29.548  28.309  1.00  0.00     0.167 HD
ATOM     36  C   UNL A   1      42.993  31.910  29.669  1.00  0.00     0.074 A 
ATOM     37  C   UNL A   1      42.174  32.851  30.408  1.00  0.00     0.031 C 
ATOM     38  C   UNL A   1      44.268  32.157  29.276  1.00  0.00     0.034 A 
BRANCH  25  39
ATOM     39  C   UNL A   1      47.028  27.525  26.214  1.00  0.00     0.023 A 
ATOM     40  C   UNL A   1      48.015  26.786  26.899  1.00  0.00     0.012 A 
ATOM     41  C   UNL A   1      47.187  27.784  24.840  1.00  0.00     0.148 A 
ATOM     42  C   UNL A   1      49.156  26.340  26.233  1.00  0.00     0.002 A 
ATOM     43  C   UNL A   1      48.309  27.305  24.174  1.00  0.00     0.091 A 
ATOM     44  F   UNL A   1      46.250  28.512  24.216  1.00  0.00    -0.205 F 
ATOM     45  C   UNL A   1      49.300  26.593  24.870  1.00  0.00     0.022 A 
BRANCH  43  46
ATOM     46  S   UNL A   1      48.566  27.538  22.412  1.00  0.00     0.127 S 
ATOM     47  O   UNL A   1      47.388  28.324  22.044  1.00  0.00    -0.237 OA
ATOM     48  O   UNL A   1      49.827  28.280  22.385  1.00  0.00    -0.237 OA
ATOM     49  O   UNL A   1      48.628  26.205  21.832  1.00  0.00    -0.744 OA
ENDBRANCH  43  46
ENDBRANCH  25  39
BRANCH  26  50
ATOM     50  C   UNL A   1      38.641  30.560  30.935  1.00  0.00     0.023 A 
ATOM     51  C   UNL A   1      38.487  30.341  32.317  1.00  0.00     0.012 A 
ATOM     52  C   UNL A   1      37.609  31.215  30.230  1.00  0.00     0.148 A 
ATOM     53  C   UNL A   1      37.319  30.735  32.975  1.00  0.00     0.002 A 
ATOM     54  C   UNL A   1      36.477  31.660  30.902  1.00  0.00     0.091 A 
ATOM     55  F   UNL A   1      37.753  31.393  28.909  1.00  0.00    -0.205 F 
ATOM     56  C   UNL A   1      36.320  31.404  32.271  1.00  0.00     0.022 A 
BRANCH  54  57
ATOM     57  S   UNL A   1      35.217  32.647  30.085  1.00  0.00     0.127 S 
ATOM     58  O   UNL A   1      34.293  32.922  31.182  1.00  0.00    -0.237 OA
ATOM     59  O   UNL A   1      35.985  33.803  29.621  1.00  0.00    -0.237 OA
ATOM     60  O   UNL A   1      34.705  31.806  29.013  1.00  0.00    -0.744 OA
ENDBRANCH  54  57
ENDBRANCH  26  50
BRANCH  38  61
ATOM     61  C   UNL A   1      44.837  33.502  29.630  1.00  0.00     0.023 A 
ATOM     62  C   UNL A   1      45.567  33.656  30.825  1.00  0.00     0.012 A 
ATOM     63  C   UNL A   1      44.703  34.591  28.749  1.00  0.00     0.148 A 
ATOM     64  C   UNL A   1      46.129  34.888  31.154  1.00  0.00     0.002 A 
ATOM     65  C   UNL A   1      45.309  35.801  29.059  1.00  0.00     0.091 A 
ATOM     66  F   UNL A   1      43.983  34.426  27.630  1.00  0.00    -0.205 F 
ATOM     67  C   UNL A   1      46.010  35.955  30.267  1.00  0.00     0.022 A 
BRANCH  65  68
ATOM     68  S   UNL A   1      45.292  37.191  27.925  1.00  0.00     0.127 S 
ATOM     69  O   UNL A   1      43.865  37.494  27.844  1.00  0.00    -0.237 OA
ATOM     70  O   UNL A   1      46.088  38.189  28.641  1.00  0.00    -0.237 OA
ATOM     71  O   UNL A   1      45.904  36.707  26.695  1.00  0.00    -0.744 OA
ENDBRANCH  65  68
ENDBRANCH  38  61
ENDBRANCH  12  13
ENDBRANCH   5   7
ENDBRANCH   4   5
ENDBRANCH   3   4
ENDBRANCH   2   3
ENDBRANCH   1   2
BRANCH   1  72
ATOM     72  C   UNL A   1      34.696  21.595  26.424  1.00  0.00     0.202 C 
BRANCH  72  73
ATOM     73  C   UNL A   1      33.263  21.731  25.915  1.00  0.00     0.261 C 
BRANCH  73  74
ATOM     74  O   UNL A   1      32.975  23.134  25.825  1.00  0.00    -0.461 OA
BRANCH  74  75
ATOM     75  C   UNL A   1      31.827  23.504  26.459  1.00  0.00     0.335 C 
ATOM     76  O   UNL A   1      31.557  23.282  27.636  1.00  0.00    -0.249 OA
BRANCH  75  77
ATOM     77  C   UNL A   1      30.877  24.210  25.496  1.00  0.00     0.228 C 
ATOM     78  C   UNL A   1      30.686  23.357  24.255  1.00  0.00     0.047 C 
ATOM     79  O   UNL A   1      31.295  25.519  25.065  1.00  0.00    -0.361 OA
ATOM     80  C   UNL A   1      30.693  24.363  23.134  1.00  0.00     0.037 C 
ATOM     81  C   UNL A   1      31.597  25.463  23.666  1.00  0.00     0.138 C 
BRANCH  81  82
ATOM     82  C   UNL A   1      31.280  26.793  22.980  1.00  0.00     0.148 C 
BRANCH  82  83
ATOM     83  N   UNL A   1      32.443  27.549  22.532  1.00  0.00    -0.349 N 
ATOM     84  C   UNL A   1      33.345  28.302  23.243  1.00  0.00     0.252 C 
ATOM     85  H   UNL A   1      32.610  27.514  21.562  1.00  0.00     0.163 HD
ATOM     86  O   UNL A   1      34.391  28.678  22.714  1.00  0.00    -0.269 OA
BRANCH  84  87
ATOM     87  C   UNL A   1      33.072  28.675  24.645  1.00  0.00     0.059 A 
ATOM     88  C   UNL A   1      32.325  29.830  24.921  1.00  0.00     0.036 A 
ATOM     89  C   UNL A   1      33.531  27.876  25.702  1.00  0.00     0.053 A 
ATOM     90  C   UNL A   1      32.137  30.235  26.241  1.00  0.00     0.041 A 
ATOM     91  C   UNL A   1      33.299  28.273  27.025  1.00  0.00     0.023 A 
ATOM     92  Cl  UNL A   1      34.423  26.417  25.465  1.00  0.00    -0.083 Cl
ATOM     93  Cl  UNL A   1      31.329  31.717  26.570  1.00  0.00    -0.084 Cl
ATOM     94  C   UNL A   1      32.623  29.464  27.295  1.00  0.00     0.022 A 
ENDBRANCH  84  87
ENDBRANCH  82  83
ENDBRANCH  81  82
ENDBRANCH  75  77
ENDBRANCH  74  75
ENDBRANCH  73  74
ENDBRANCH  72  73
ENDBRANCH   1  72
TORSDOF 20
ENDMDL
MODEL 2
REMARK VINA RESULT:     -10.8      1.507      2.180
REMARK SMILES O=C(OCCOCCOC(=O)[C@@H]1CC[C@@H](CNC(=O)c2cc(Cl)ccc2Cl)O1)c1ccc(-c2c3nc(c(-c4cccc(S(=O)(=O)[O-])c4F)c4ccc([nH]4)c(-c4cccc(S(=O)(=O)[O-])c4F)c4nc(c(-c5cccc(S(=O)(=O)[O-])c5F)c5ccc2[nH]5)C=C4)C=C3)cc1
REMARK SMILES IDX 6 1 5 2 4 3 3 4 2 5 1 6 29 7 30 8 91 9 31 10 90 11 32 12
REMARK SMILES IDX 33 13 34 14 84 15 35 16 89 17 83 18 85 19 36 20 88 21 82 22
REMARK SMILES IDX 81 23 37 25 69 26 49 27 68 28 50 29 53 30 67 31 86 32 51 33
REMARK SMILES IDX 52 34 66 36 87 37 54 38 38 39 39 40 47 41 40 42 42 43 48 44
REMARK SMILES IDX 41 45 43 46 44 47 45 48 46 49 70 50 71 51 79 52 72 53 74 54
REMARK SMILES IDX 80 55 73 56 75 57 76 58 77 59 78 60 55 61 56 62 64 63 57 64
REMARK SMILES IDX 59 65 65 66 58 67 60 68 61 69 62 70 63 71 7 72 8 73 9 74
REMARK SMILES IDX 10 75 11 76 12 77 13 78 28 79 14 80 15 81 16 82 17 83 18 84
REMARK SMILES IDX 19 86 20 87 21 88 26 89 22 90 25 91 27 92 23 93 24 94
REMARK H PARENT 85 24 53 35 17 85
REMARK Flexibility Score: inf
ROOT
ATOM      1  O   UNL A   1      37.785  21.107  24.488  1.00  0.00    -0.374 OA
ENDROOT
BRANCH   1   2
ATOM      2  C   UNL A   1      37.450  19.834  25.048  1.00  0.00     0.202 C 
BRANCH   2   3
ATOM      3  C   UNL A   1      38.644  18.919  25.341  1.00  0.00     0.261 C 
BRANCH   3   4
ATOM      4  O   UNL A   1      39.477  19.485  26.371  1.00  0.00    -0.460 OA
BRANCH   4   5
ATOM      5  C   UNL A   1      40.788  19.824  26.313  1.00  0.00     0.338 C 
ATOM      6  O   UNL A   1      41.596  18.972  25.946  1.00  0.00    -0.246 OA
BRANCH   5   7
ATOM      7  C   UNL A   1      41.304  21.183  26.657  1.00  0.00     0.060 A 
ATOM      8  C   UNL A   1      42.142  21.459  27.735  1.00  0.00     0.016 A 
ATOM      9  C   UNL A   1      40.983  22.241  25.788  1.00  0.00     0.016 A 
ATOM     10  C   UNL A   1      42.573  22.742  28.010  1.00  0.00     0.010 A 
ATOM     11  C   UNL A   1      41.465  23.534  26.022  1.00  0.00     0.010 A 
ATOM     12  C   UNL A   1      42.245  23.786  27.154  1.00  0.00    -0.014 A 
BRANCH  12  13
ATOM     13  C   UNL A   1      42.699  25.127  27.557  1.00  0.00     0.031 A 
ATOM     14  C   UNL A   1      44.037  25.602  27.087  1.00  0.00     0.074 A 
ATOM     15  C   UNL A   1      41.817  25.949  28.156  1.00  0.00     0.049 A 
ATOM     16  N   UNL A   1      44.584  26.777  27.225  1.00  0.00    -0.248 NA
ATOM     17  C   UNL A   1      44.859  24.635  26.338  1.00  0.00     0.031 C 
ATOM     18  C   UNL A   1      40.456  25.575  28.553  1.00  0.00     0.029 A 
ATOM     19  N   UNL A   1      41.909  27.272  28.492  1.00  0.00    -0.354 N 
ATOM     20  C   UNL A   1      45.824  26.686  26.606  1.00  0.00     0.074 A 
ATOM     21  C   UNL A   1      45.950  25.342  26.089  1.00  0.00     0.031 C 
ATOM     22  C   UNL A   1      39.835  26.650  29.060  1.00  0.00     0.029 A 
ATOM     23  C   UNL A   1      40.769  27.768  29.077  1.00  0.00     0.049 A 
ATOM     24  H   UNL A   1      42.714  27.815  28.331  1.00  0.00     0.167 HD
ATOM     25  C   UNL A   1      46.765  27.647  26.481  1.00  0.00     0.034 A 
ATOM     26  C   UNL A   1      40.525  28.988  29.592  1.00  0.00     0.034 A 
ATOM     27  C   UNL A   1      46.610  28.974  27.008  1.00  0.00     0.049 A 
ATOM     28  C   UNL A   1      41.615  30.018  29.487  1.00  0.00     0.074 A 
ATOM     29  C   UNL A   1      47.519  30.013  27.018  1.00  0.00     0.029 A 
ATOM     30  N   UNL A   1      45.455  29.440  27.625  1.00  0.00    -0.354 N 
ATOM     31  N   UNL A   1      42.784  29.923  28.897  1.00  0.00    -0.248 NA
ATOM     32  C   UNL A   1      41.353  31.327  30.098  1.00  0.00     0.031 C 
ATOM     33  C   UNL A   1      46.919  31.104  27.658  1.00  0.00     0.029 A 
ATOM     34  C   UNL A   1      45.627  30.752  28.022  1.00  0.00     0.049 A 
ATOM     35  H   UNL A   1      44.636  28.912  27.761  1.00  0.00     0.167 HD
ATOM     36  C   UNL A   1      43.394  31.159  29.056  1.00  0.00     0.074 A 
ATOM     37  C   UNL A   1      42.445  31.999  29.760  1.00  0.00     0.031 C 
ATOM     38  C   UNL A   1      44.635  31.562  28.684  1.00  0.00     0.034 A 
BRANCH  25  39
ATOM     39  C   UNL A   1      48.036  27.273  25.770  1.00  0.00     0.023 A 
ATOM     40  C   UNL A   1      49.117  26.737  26.500  1.00  0.00     0.012 A 
ATOM     41  C   UNL A   1      48.167  27.470  24.383  1.00  0.00     0.148 A 
ATOM     42  C   UNL A   1      50.320  26.432  25.864  1.00  0.00     0.002 A 
ATOM     43  C   UNL A   1      49.357  27.130  23.750  1.00  0.00     0.091 A 
ATOM     44  F   UNL A   1      47.137  28.007  23.715  1.00  0.00    -0.205 F 
ATOM     45  C   UNL A   1      50.438  26.622  24.489  1.00  0.00     0.022 A 
BRANCH  43  46
ATOM     46  S   UNL A   1      49.594  27.293  21.977  1.00  0.00     0.127 S 
ATOM     47  O   UNL A   1      48.505  26.466  21.456  1.00  0.00    -0.237 OA
ATOM     48  O   UNL A   1      49.416  28.732  21.777  1.00  0.00    -0.237 OA
ATOM     49  O   UNL A   1      50.935  26.800  21.701  1.00  0.00    -0.744 OA
ENDBRANCH  43  46
ENDBRANCH  25  39
BRANCH  26  50
ATOM     50  C   UNL A   1      39.223  29.282  30.259  1.00  0.00     0.023 A 
ATOM     51  C   UNL A   1      38.934  28.740  31.525  1.00  0.00     0.012 A 
ATOM     52  C   UNL A   1      38.267  30.113  29.638  1.00  0.00     0.148 A 
ATOM     53  C   UNL A   1      37.707  28.992  32.145  1.00  0.00     0.002 A 
ATOM     54  C   UNL A   1      37.074  30.410  30.288  1.00  0.00     0.091 A 
ATOM     55  F   UNL A   1      38.540  30.601  28.420  1.00  0.00    -0.205 F 
ATOM     56  C   UNL A   1      36.783  29.836  31.533  1.00  0.00     0.022 A 
BRANCH  54  57
ATOM     57  S   UNL A   1      35.902  31.597  29.619  1.00  0.00     0.127 S 
ATOM     58  O   UNL A   1      35.291  30.835  28.533  1.00  0.00    -0.237 OA
ATOM     59  O   UNL A   1      35.027  31.846  30.765  1.00  0.00    -0.237 OA
ATOM     60  O   UNL A   1      36.703  32.747  29.223  1.00  0.00    -0.744 OA
ENDBRANCH  54  57
ENDBRANCH  26  50
BRANCH  38  61
ATOM     61  C   UNL A   1      45.019  32.975  29.024  1.00  0.00     0.023 A 
ATOM     62  C   UNL A   1      45.630  33.251  30.263  1.00  0.00     0.012 A 
ATOM     63  C   UNL A   1      44.833  34.011  28.091  1.00  0.00     0.148 A 
ATOM     64  C   UNL A   1      46.021  34.550  30.581  1.00  0.00     0.002 A 
ATOM     65  C   UNL A   1      45.271  35.293  28.395  1.00  0.00     0.091 A 
ATOM     66  F   UNL A   1      44.227  33.728  26.929  1.00  0.00    -0.205 F 
ATOM     67  C   UNL A   1      45.853  35.566  29.645  1.00  0.00     0.022 A 
BRANCH  65  68
ATOM     68  S   UNL A   1      45.188  36.634  27.206  1.00  0.00     0.127 S 
ATOM     69  O   UNL A   1      46.016  36.120  26.117  1.00  0.00    -0.237 OA
ATOM     70  O   UNL A   1      43.757  36.698  26.906  1.00  0.00    -0.237 OA
ATOM     71  O   UNL A   1      45.709  37.807  27.894  1.00  0.00    -0.744 OA
ENDBRANCH  65  68
ENDBRANCH  38  61
ENDBRANCH  12  13
ENDBRANCH   5   7
ENDBRANCH   4   5
ENDBRANCH   3   4
ENDBRANCH   2   3
ENDBRANCH   1   2
BRANCH   1  72
ATOM     72  C   UNL A   1      37.354  22.243  25.250  1.00  0.00     0.202 C 
BRANCH  72  73
ATOM     73  C   UNL A   1      35.842  22.406  25.115  1.00  0.00     0.261 C 
BRANCH  73  74
ATOM     74  O   UNL A   1      35.234  21.590  26.127  1.00  0.00    -0.461 OA
BRANCH  74  75
ATOM     75  C   UNL A   1      33.877  21.510  26.031  1.00  0.00     0.335 C 
ATOM     76  O   UNL A   1      33.209  20.488  26.165  1.00  0.00    -0.249 OA
BRANCH  75  77
ATOM     77  C   UNL A   1      33.274  22.870  25.690  1.00  0.00     0.228 C 
ATOM     78  C   UNL A   1      32.152  23.186  26.662  1.00  0.00     0.047 C 
ATOM     79  O   UNL A   1      32.743  22.993  24.357  1.00  0.00    -0.361 OA
ATOM     80  C   UNL A   1      31.096  23.809  25.787  1.00  0.00     0.037 C 
ATOM     81  C   UNL A   1      31.322  23.135  24.444  1.00  0.00     0.138 C 
BRANCH  81  82
ATOM     82  C   UNL A   1      30.783  24.010  23.311  1.00  0.00     0.148 C 
BRANCH  82  83
ATOM     83  N   UNL A   1      31.780  24.444  22.339  1.00  0.00    -0.349 N 
ATOM     84  C   UNL A   1      32.390  25.663  22.171  1.00  0.00     0.252 C 
ATOM     85  H   UNL A   1      32.061  23.751  21.699  1.00  0.00     0.163 HD
ATOM     86  O   UNL A   1      33.373  25.767  21.436  1.00  0.00    -0.269 OA
BRANCH  84  87
ATOM     87  C   UNL A   1      31.878  26.862  22.862  1.00  0.00     0.059 A 
ATOM     88  C   UNL A   1      30.861  27.622  22.266  1.00  0.00     0.036 A 
ATOM     89  C   UNL A   1      32.379  27.235  24.118  1.00  0.00     0.053 A 
ATOM     90  C   UNL A   1      30.432  28.802  22.870  1.00  0.00     0.041 A 
ATOM     91  C   UNL A   1      31.909  28.402  24.734  1.00  0.00     0.023 A 
ATOM     92  Cl  UNL A   1      33.600  26.344  24.950  1.00  0.00    -0.083 Cl
ATOM     93  Cl  UNL A   1      29.275  29.796  22.075  1.00  0.00    -0.084 Cl
ATOM     94  C   UNL A   1      30.953  29.198  24.101  1.00  0.00     0.022 A 
ENDBRANCH  84  87
ENDBRANCH  82  83
ENDBRANCH  81  82
ENDBRANCH  75  77
ENDBRANCH  74  75
ENDBRANCH  73  74
ENDBRANCH  72  73
ENDBRANCH   1  72
TORSDOF 20
ENDMDL
MODEL 3
REMARK VINA RESULT:     -10.7      1.796      2.329
REMARK SMILES O=C(OCCOCCOC(=O)[C@@H]1CC[C@@H](CNC(=O)c2cc(Cl)ccc2Cl)O1)c1ccc(-c2c3nc(c(-c4cccc(S(=O)(=O)[O-])c4F)c4ccc([nH]4)c(-c4cccc(S(=O)(=O)[O-])c4F)c4nc(c(-c5cccc(S(=O)(=O)[O-])c5F)c5ccc2[nH]5)C=C4)C=C3)cc1
REMARK SMILES IDX 6 1 5 2 4 3 3 4 2 5 1 6 29 7 30 8 91 9 31 10 90 11 32 12
REMARK SMILES IDX 33 13 34 14 84 15 35 16 89 17 83 18 85 19 36 20 88 21 82 22
REMARK SMILES IDX 81 23 37 25 69 26 49 27 68 28 50 29 53 30 67 31 86 32 51 33
REMARK SMILES IDX 52 34 66 36 87 37 54 38 38 39 39 40 47 41 40 42 42 43 48 44
REMARK SMILES IDX 41 45 43 46 44 47 45 48 46 49 70 50 71 51 79 52 72 53 74 54
REMARK SMILES IDX 80 55 73 56 75 57 76 58 77 59 78 60 55 61 56 62 64 63 57 64
REMARK SMILES IDX 59 65 65 66 58 67 60 68 61 69 62 70 63 71 7 72 8 73 9 74
REMARK SMILES IDX 10 75 11 76 12 77 13 78 28 79 14 80 15 81 16 82 17 83 18 84
REMARK SMILES IDX 19 86 20 87 21 88 26 89 22 90 25 91 27 92 23 93 24 94
REMARK H PARENT 85 24 53 35 17 85
REMARK Flexibility Score: inf
ROOT
ATOM      1  O   UNL A   1      36.383  21.089  24.725  1.00  0.00    -0.374 OA
ENDROOT
BRANCH   1   2
ATOM      2  C   UNL A   1      36.794  19.720  24.677  1.00  0.00     0.202 C 
BRANCH   2   3
ATOM      3  C   UNL A   1      38.219  19.453  25.172  1.00  0.00     0.261 C 
BRANCH   3   4
ATOM      4  O   UNL A   1      38.844  20.677  25.605  1.00  0.00    -0.460 OA
BRANCH   4   5
ATOM      5  C   UNL A   1      39.814  20.852  26.534  1.00  0.00     0.338 C 
ATOM      6  O   UNL A   1      40.317  19.855  27.050  1.00  0.00    -0.246 OA
BRANCH   5   7
ATOM      7  C   UNL A   1      40.318  22.194  26.957  1.00  0.00     0.060 A 
ATOM      8  C   UNL A   1      39.895  23.403  26.411  1.00  0.00     0.016 A 
ATOM      9  C   UNL A   1      41.225  22.240  28.030  1.00  0.00     0.016 A 
ATOM     10  C   UNL A   1      40.413  24.612  26.834  1.00  0.00     0.010 A 
ATOM     11  C   UNL A   1      41.710  23.463  28.510  1.00  0.00     0.010 A 
ATOM     12  C   UNL A   1      41.316  24.652  27.890  1.00  0.00    -0.014 A 
BRANCH  12  13
ATOM     13  C   UNL A   1      41.857  25.977  28.234  1.00  0.00     0.031 A 
ATOM     14  C   UNL A   1      43.219  26.345  27.741  1.00  0.00     0.074 A 
ATOM     15  C   UNL A   1      41.033  26.878  28.801  1.00  0.00     0.049 A 
ATOM     16  N   UNL A   1      43.841  27.488  27.826  1.00  0.00    -0.248 NA
ATOM     17  C   UNL A   1      43.973  25.297  27.029  1.00  0.00     0.031 C 
ATOM     18  C   UNL A   1      39.653  26.609  29.219  1.00  0.00     0.029 A 
ATOM     19  N   UNL A   1      41.212  28.205  29.081  1.00  0.00    -0.354 N 
ATOM     20  C   UNL A   1      45.068  27.292  27.208  1.00  0.00     0.074 A 
ATOM     21  C   UNL A   1      45.106  25.922  26.747  1.00  0.00     0.031 C 
ATOM     22  C   UNL A   1      39.105  27.741  29.683  1.00  0.00     0.029 A 
ATOM     23  C   UNL A   1      40.109  28.798  29.649  1.00  0.00     0.049 A 
ATOM     24  H   UNL A   1      42.049  28.688  28.894  1.00  0.00     0.167 HD
ATOM     25  C   UNL A   1      46.069  28.185  27.038  1.00  0.00     0.034 A 
ATOM     26  C   UNL A   1      39.946  30.051  30.113  1.00  0.00     0.034 A 
ATOM     27  C   UNL A   1      46.001  29.539  27.510  1.00  0.00     0.049 A 
ATOM     28  C   UNL A   1      41.099  31.004  29.961  1.00  0.00     0.074 A 
ATOM     29  C   UNL A   1      46.975  30.518  27.472  1.00  0.00     0.029 A 
ATOM     30  N   UNL A   1      44.883  30.103  28.111  1.00  0.00    -0.354 N 
ATOM     31  N   UNL A   1      42.256  30.809  29.371  1.00  0.00    -0.248 NA
ATOM     32  C   UNL A   1      40.925  32.351  30.517  1.00  0.00     0.031 C 
ATOM     33  C   UNL A   1      46.450  31.671  28.068  1.00  0.00     0.029 A 
ATOM     34  C   UNL A   1      45.141  31.418  28.451  1.00  0.00     0.049 A 
ATOM     35  H   UNL A   1      44.032  29.636  28.272  1.00  0.00     0.167 HD
ATOM     36  C   UNL A   1      42.945  32.010  29.475  1.00  0.00     0.074 A 
ATOM     37  C   UNL A   1      42.055  32.937  30.147  1.00  0.00     0.031 C 
ATOM     38  C   UNL A   1      44.206  32.317  29.083  1.00  0.00     0.034 A 
BRANCH  25  39
ATOM     39  C   UNL A   1      47.308  27.701  26.339  1.00  0.00     0.023 A 
ATOM     40  C   UNL A   1      47.451  27.892  24.949  1.00  0.00     0.012 A 
ATOM     41  C   UNL A   1      48.324  27.039  27.055  1.00  0.00     0.148 A 
ATOM     42  C   UNL A   1      48.572  27.404  24.278  1.00  0.00     0.002 A 
ATOM     43  C   UNL A   1      49.455  26.588  26.385  1.00  0.00     0.091 A 
ATOM     44  F   UNL A   1      48.154  26.844  28.370  1.00  0.00    -0.205 F 
ATOM     45  C   UNL A   1      49.576  26.758  24.996  1.00  0.00     0.022 A 
BRANCH  43  46
ATOM     46  S   UNL A   1      50.825  25.785  27.224  1.00  0.00     0.127 S 
ATOM     47  O   UNL A   1      51.867  25.829  26.198  1.00  0.00    -0.237 OA
ATOM     48  O   UNL A   1      51.050  26.677  28.362  1.00  0.00    -0.237 OA
ATOM     49  O   UNL A   1      50.358  24.452  27.577  1.00  0.00    -0.744 OA
ENDBRANCH  43  46
ENDBRANCH  25  39
BRANCH  26  50
ATOM     50  C   UNL A   1      38.670  30.455  30.771  1.00  0.00     0.023 A 
ATOM     51  C   UNL A   1      38.464  30.201  32.141  1.00  0.00     0.012 A 
ATOM     52  C   UNL A   1      37.655  31.105  30.039  1.00  0.00     0.148 A 
ATOM     53  C   UNL A   1      37.262  30.556  32.758  1.00  0.00     0.002 A 
ATOM     54  C   UNL A   1      36.487  31.512  30.674  1.00  0.00     0.091 A 
ATOM     55  F   UNL A   1      37.850  31.318  28.729  1.00  0.00    -0.205 F 
ATOM     56  C   UNL A   1      36.279  31.222  32.029  1.00  0.00     0.022 A 
BRANCH  54  57
ATOM     57  S   UNL A   1      35.242  32.493  29.827  1.00  0.00     0.127 S 
ATOM     58  O   UNL A   1      34.862  31.611  28.726  1.00  0.00    -0.237 OA
ATOM     59  O   UNL A   1      34.222  32.659  30.864  1.00  0.00    -0.237 OA
ATOM     60  O   UNL A   1      35.915  33.730  29.454  1.00  0.00    -0.744 OA
ENDBRANCH  54  57
ENDBRANCH  26  50
BRANCH  38  61
ATOM     61  C   UNL A   1      44.682  33.715  29.361  1.00  0.00     0.023 A 
ATOM     62  C   UNL A   1      45.271  34.014  30.605  1.00  0.00     0.012 A 
ATOM     63  C   UNL A   1      44.603  34.708  28.368  1.00  0.00     0.148 A 
ATOM     64  C   UNL A   1      45.746  35.298  30.869  1.00  0.00     0.002 A 
ATOM     65  C   UNL A   1      45.124  35.970  28.620  1.00  0.00     0.091 A 
ATOM     66  F   UNL A   1      44.016  34.405  27.201  1.00  0.00    -0.205 F 
ATOM     67  C   UNL A   1      45.684  36.270  29.874  1.00  0.00     0.022 A 
BRANCH  65  68
ATOM     68  S   UNL A   1      45.178  37.246  27.359  1.00  0.00     0.127 S 
ATOM     69  O   UNL A   1      45.988  36.608  26.323  1.00  0.00    -0.237 OA
ATOM     70  O   UNL A   1      43.765  37.408  27.017  1.00  0.00    -0.237 OA
ATOM     71  O   UNL A   1      45.777  38.410  27.999  1.00  0.00    -0.744 OA
ENDBRANCH  65  68
ENDBRANCH  38  61
ENDBRANCH  12  13
ENDBRANCH   5   7
ENDBRANCH   4   5
ENDBRANCH   3   4
ENDBRANCH   2   3
ENDBRANCH   1   2
BRANCH   1  72
ATOM     72  C   UNL A   1      35.056  21.313  25.221  1.00  0.00     0.202 C 
BRANCH  72  73
ATOM     73  C   UNL A   1      35.126  21.924  26.618  1.00  0.00     0.261 C 
BRANCH  73  74
ATOM     74  O   UNL A   1      34.216  23.032  26.645  1.00  0.00    -0.461 OA
BRANCH  74  75
ATOM     75  C   UNL A   1      33.052  22.776  27.306  1.00  0.00     0.335 C 
ATOM     76  O   UNL A   1      32.960  22.325  28.444  1.00  0.00    -0.249 OA
BRANCH  75  77
ATOM     77  C   UNL A   1      31.846  23.087  26.425  1.00  0.00     0.228 C 
ATOM     78  C   UNL A   1      31.561  21.904  25.518  1.00  0.00     0.047 C 
ATOM     79  O   UNL A   1      31.976  24.254  25.590  1.00  0.00    -0.361 OA
ATOM     80  C   UNL A   1      31.211  22.547  24.202  1.00  0.00     0.037 C 
ATOM     81  C   UNL A   1      32.020  23.833  24.223  1.00  0.00     0.138 C 
BRANCH  81  82
ATOM     82  C   UNL A   1      31.386  24.878  23.302  1.00  0.00     0.148 C 
BRANCH  82  83
ATOM     83  N   UNL A   1      29.990  25.187  23.588  1.00  0.00    -0.349 N 
ATOM     84  C   UNL A   1      29.399  26.363  23.980  1.00  0.00     0.252 C 
ATOM     85  H   UNL A   1      29.370  24.430  23.481  1.00  0.00     0.163 HD
ATOM     86  O   UNL A   1      28.174  26.481  23.950  1.00  0.00    -0.269 OA
BRANCH  84  87
ATOM     87  C   UNL A   1      30.220  27.498  24.446  1.00  0.00     0.059 A 
ATOM     88  C   UNL A   1      31.001  27.358  25.602  1.00  0.00     0.036 A 
ATOM     89  C   UNL A   1      30.246  28.705  23.733  1.00  0.00     0.053 A 
ATOM     90  C   UNL A   1      31.711  28.450  26.097  1.00  0.00     0.041 A 
ATOM     91  C   UNL A   1      30.996  29.783  24.218  1.00  0.00     0.023 A 
ATOM     92  Cl  UNL A   1      29.351  28.962  22.279  1.00  0.00    -0.083 Cl
ATOM     93  Cl  UNL A   1      32.567  28.309  27.582  1.00  0.00    -0.084 Cl
ATOM     94  C   UNL A   1      31.710  29.663  25.412  1.00  0.00     0.022 A 
ENDBRANCH  84  87
ENDBRANCH  82  83
ENDBRANCH  81  82
ENDBRANCH  75  77
ENDBRANCH  74  75
ENDBRANCH  73  74
ENDBRANCH  72  73
ENDBRANCH   1  72
TORSDOF 20
ENDMDL
